data_PCOD9253809
_publ_section_title
;
Structure prediction by ZEFSAII (Michael W. Deem and Ramdas Pophale) SiO2 
 PCOD9253809
Probable space group: C 2/C
;
_chemical_formula_sum "Si O2"
_cell_formula_units_Z 48
_cell_length_a 28.874905
_cell_length_b 6.859713
_cell_length_c 8.947060
_cell_angle_alpha 90.000000
_cell_angle_beta 82.682325
_cell_angle_gamma 90.000000
_cell_volume 1757.742013
_symmetry_space_group_name_H-M "C 2/C"
_symmetry_group_IT_number 15
_symmetry_cell_setting 'monoclinic'
loop_
_space_group_symop_operation_xyz
x,y,z
-x,y,1/2-z
-x,-y,-z
x,-y,1/2+z
1/2+x,1/2+y,z
1/2-x,1/2+y,1/2-z
1/2-x,1/2-y,-z
1/2+x,1/2-y,1/2+z
loop_
_atom_site_type_symbol
_atom_site_label
_atom_site_fract_x
_atom_site_fract_y
_atom_site_fract_z
Si Si1 0.936531 0.905234 0.911380
Si Si2 0.361780 0.137931 0.360369
Si Si3 0.698911 0.527460 0.180645
Si Si4 0.542668 0.778742 0.806801
Si Si5 0.739061 0.035402 0.080038
Si Si6 0.614297 0.700465 0.356368
O O1 0.912894 0.782362 0.788671
O O2 0.955018 0.088367 0.806173
O O3 0.967305 0.782538 0.016357
O O4 0.902121 0.007122 0.045967
O O5 0.335038 0.341082 0.327412
O O6 0.405871 0.128236 0.231476
O O7 0.316275 0.004313 0.403203
O O8 0.386589 0.146133 0.510899
O O9 0.746621 0.513468 0.254242
O O10 0.667395 0.672267 0.287390
O O11 0.719308 0.588340 0.013510
O O12 0.500000 0.897060 0.750000
O O13 0.750000 0.250000 0.000000
#
# Coordination Sequence:
#
# PCOD9253809 Si02
#       6
#     8   8   8   8   8   8
#     4   9  16  25  40  66  94 125 159 188 236 292
#     4  10  20  33  47  69 103 131 161 203 242 280
#     4  11  16  31  50  66  98 131 164 197 238 289
#     4  10  18  28  45  67  94 128 162 198 240 292
#     4  10  21  32  49  72  96 134 168 198 245 290
#     4  10  14  26  46  63  94 131 150 191 234 280
#
# _framework density 27.307763999999999
#
# number of rings (size 3 to 8) (size 9 to 14) (size 15 to 20)
#    0.000    2.000    8.333    0.500    0.000    0.000 
#    0.000    5.000    0.000    0.000    0.000    1.167 
#    0.000    0.000    0.000    0.000    0.000    0.000 
#
# Total GULP energy -133838.432907 kJ/mol
# GULP energy per Si atom -5576.601371 kJ/mol
# Density = 2.724561 g / cm^3
# Si number density = 27.307764 Si / 1000 Ang^3
#
#
#
# Elastic Constant Matrix: (Units=GPa)
#
#
# Indices 1 2 3 4 5 6 
#
# 1 115.2722 12.1567 29.3716 0.0000 15.6922 0.0000
# 2 12.1567 71.0786 43.6305 0.0000 -3.9662 0.0000
# 3 29.3716 43.6305 156.2537 0.0000 39.7136 0.0000
# 4 0.0000 0.0000 0.0000 37.0713 0.0000 5.7567
# 5 15.6922 -3.9662 39.7136 0.0000 64.1679 0.0000
# 6 0.0000 0.0000 0.0000 5.7567 0.0000 15.7866
#
#
#
# Elastic Compliance Matrix: (Units=1/GPa)
#
#
# Indices 1 2 3 4 5 6 
#
# 1 0.009278 -0.001059 -0.001014 0.000000 -0.001706 0.000000
# 2 -0.001059 0.018401 -0.006282 0.000000 0.005284 0.000000
# 3 -0.001014 -0.006282 0.009945 0.000000 -0.006295 0.000000
# 4 0.000000 0.000000 0.000000 0.028594 0.000000 -0.010427
# 5 -0.001706 0.005284 -0.006295 0.000000 0.020224 0.000000
# 6 0.000000 0.000000 0.000000 -0.010427 0.000000 0.067147
#
#
# Mechanical properties :
#
#
# Convention : Reuss Voigt Hill
#
# Bulk Modulus (GPa) = 47.82011 56.99135 52.40573
# Shear Modulus (GPa) = 28.20540 40.56821 34.38680
#
# Velocity S-wave (km/s) = 3.21732 3.85852 3.55242
# Velocity P-wave (km/s) = 5.59920 6.38484 6.00489
#
# Compressibility (1/GPa) = 0.02091170
#
# Stress axis : x y z
#
# Youngs Moduli (GPa) = 107.78628 54.34446 100.55707
#
# Poissons Ratio (x) = 0.05757 0.10201
# Poissons Ratio (y) = 0.11418 0.63171
# Poissons Ratio (z) = 0.10934 0.34140
#
# Static dielectric constant tensor:
#      x y z
#    x 2.184150 0.000000 0.002320 
#    y 0.000000 2.541170 0.000000 
#    z 0.002320 0.000000 2.103680 
# 
# From -- ./inp_files/68549.got.cif
#   From: 2010.05.17/outbox.cif.g08.bks.cpg/sg15_35_cif.got.tgz:68549.got - 2010.06.03 18:47:42.
