data_PCOD9253664
_publ_section_title
;
Structure prediction by ZEFSAII (Michael W. Deem and Ramdas Pophale) SiO2 
 PCOD9253664
Probable space group: P 21/C
;
_chemical_formula_sum "Si O2"
_cell_formula_units_Z 28
_cell_length_a 30.000000
_cell_length_b 9.000000
_cell_length_c 30.000000
_cell_angle_alpha 90.000000
_cell_angle_beta 170.000000
_cell_angle_gamma 90.000000
_cell_volume 1406.550239
_symmetry_space_group_name_H-M "P 21/C"
_symmetry_group_IT_number 14
_symmetry_cell_setting 'monoclinic'
loop_
_space_group_symop_operation_xyz
x,y,z
-x,1/2+y,1/2-z
-x,-y,-z
x,1/2-y,1/2+z
loop_
_atom_site_type_symbol
_atom_site_label
_atom_site_fract_x
_atom_site_fract_y
_atom_site_fract_z
Si Si1 0.721718 0.577839 0.298741
Si Si2 0.997968 0.323036 0.190774
Si Si3 0.233599 0.771723 0.788052
Si Si4 0.246406 0.739291 0.196480
Si Si5 0.197799 0.033722 0.427820
Si Si6 0.265706 0.529516 0.588056
Si Si7 0.767173 0.598539 0.671611
O O1 0.747145 0.418920 0.299218
O O2 0.694899 0.535359 0.324374
O O3 0.974595 0.677671 0.541112
O O4 0.476143 0.669832 0.040226
O O5 0.148475 0.210963 0.372923
O O6 0.168159 0.376059 0.316825
O O7 0.878887 0.459078 0.101118
O O8 0.785416 0.208023 0.961655
O O9 0.247937 0.808344 0.749626
O O10 0.235023 0.924828 0.817279
O O11 0.497781 0.672982 0.419949
O O12 0.993053 0.678681 0.922305
O O13 0.487462 0.999814 0.699232
O O14 0.995738 0.970492 0.192154
#
# Coordination Sequence:
#
# PCOD9253664 Si02
#       7
#     4   4   4   4   4   4   4
#     4  12  23  44  67  99 137 179 227 282 329 403
#     4  10  25  43  68  94 129 169 224 263 348 392
#     4  12  26  41  66 108 134 179 233 283 329 390
#     4  12  23  45  70  95 140 186 227 276 338 404
#     4  10  23  40  66  94 123 169 216 272 325 410
#     4  10  23  41  64  92 129 169 215 261 347 384
#     4  12  25  44  69  97 138 182 220 282 340 408
#
# _framework density 19.906860999999999
#
# number of rings (size 3 to 8) (size 9 to 14) (size 15 to 20)
#    0.857    0.000    1.429    6.000    2.000    2.286 
#    0.000    0.000    0.000    0.000    0.000    0.000 
#    0.000    0.000    0.000    0.000    0.000    0.000 
#
# Total GULP energy -156512.172126 kJ/mol
# GULP energy per Si atom -5589.720433 kJ/mol
# Density = 1.986155 g / cm^3
# Si number density = 19.906861 Si / 1000 Ang^3
#
#
#
# Elastic Constant Matrix: (Units=GPa)
#
#
# Indices 1 2 3 4 5 6 
#
# 1 106.8135 33.7541 -5.3051 0.0000 19.8509 0.0000
# 2 33.7541 104.1332 31.9742 0.0000 10.4218 0.0000
# 3 -5.3051 31.9742 112.5667 0.0000 16.2120 0.0000
# 4 0.0000 0.0000 0.0000 30.3153 0.0000 0.3158
# 5 19.8509 10.4218 16.2120 0.0000 35.2596 0.0000
# 6 0.0000 0.0000 0.0000 0.3158 0.0000 46.1805
#
#
#
# Elastic Compliance Matrix: (Units=1/GPa)
#
#
# Indices 1 2 3 4 5 6 
#
# 1 0.012045 -0.004051 0.002701 0.000000 -0.006826 0.000000
# 2 -0.004051 0.011998 -0.003659 0.000000 0.000416 0.000000
# 3 0.002701 -0.003659 0.010831 0.000000 -0.005419 0.000000
# 4 0.000000 0.000000 0.000000 0.032989 0.000000 -0.000226
# 5 -0.006826 0.000416 -0.005419 0.000000 0.034573 0.000000
# 6 0.000000 0.000000 0.000000 -0.000226 0.000000 0.021656
#
#
# Mechanical properties :
#
#
# Convention : Reuss Voigt Hill
#
# Bulk Modulus (GPa) = 40.22978 49.37330 44.80154
# Shear Modulus (GPa) = 35.11419 39.89042 37.50230
#
# Velocity S-wave (km/s) = 4.20447 4.48130 4.34509
# Velocity P-wave (km/s) = 6.61989 7.18554 6.90851
#
# Compressibility (1/GPa) = 0.02485721
#
# Stress axis : x y z
#
# Youngs Moduli (GPa) = 83.02287 83.34854 92.33025
#
# Poissons Ratio (x) = 0.33761 -0.24941
# Poissons Ratio (y) = 0.33629 0.33782
# Poissons Ratio (z) = -0.22427 0.30496
#
# Static dielectric constant tensor:
#      x y z
#    x 1.686690 0.000000 -0.017710 
#    y 0.000000 1.689710 0.000000 
#    z -0.017710 0.000000 1.688600 
# 
# From -- ./inp_files/80928.got.cif
#   From: 2010.05.17/outbox.ucp.g08.bks.cvg/sg14_41_cif.got.tgz:80928.got - 2010.06.11 12:31:08.
