data_PCOD9253752
_publ_section_title
;
Structure prediction by ZEFSAII (Michael W. Deem and Ramdas Pophale) SiO2 
 PCOD9253752
Probable space group: P 21/C
;
_chemical_formula_sum "Si O2"
_cell_formula_units_Z 32
_cell_length_a 27.000000
_cell_length_b 12.000000
_cell_length_c 27.000000
_cell_angle_alpha 90.000000
_cell_angle_beta 170.000000
_cell_angle_gamma 90.000000
_cell_volume 1519.074258
_symmetry_space_group_name_H-M "P 21/C"
_symmetry_group_IT_number 14
_symmetry_cell_setting 'monoclinic'
loop_
_space_group_symop_operation_xyz
x,y,z
-x,1/2+y,1/2-z
-x,-y,-z
x,1/2-y,1/2+z
loop_
_atom_site_type_symbol
_atom_site_label
_atom_site_fract_x
_atom_site_fract_y
_atom_site_fract_z
Si Si1 0.958770 0.410110 0.580496
Si Si2 0.127122 0.109533 0.925684
Si Si3 0.491672 0.981698 0.550557
Si Si4 0.521082 0.965234 0.823707
Si Si5 0.521602 0.285003 0.447583
Si Si6 0.385750 0.728303 0.568360
Si Si7 0.986510 0.865405 0.348516
Si Si8 0.987627 0.444205 0.934751
O O1 0.937566 0.493443 0.608228
O O2 0.704705 0.443740 0.293474
O O3 0.981640 0.272701 0.612810
O O4 0.207938 0.467508 0.794461
O O5 0.854571 0.189328 0.645349
O O6 0.317212 0.076808 0.065767
O O7 0.332511 0.195057 0.157193
O O8 0.521124 0.846837 0.585093
O O9 0.500000 0.000000 0.500000
O O10 0.204099 0.918754 0.521841
O O11 0.547489 0.101534 0.847554
O O12 0.680966 0.900491 0.025759
O O13 0.698899 0.291850 0.571326
O O14 0.234874 0.357391 0.162741
O O15 0.715508 0.362008 0.672960
O O16 0.004992 0.949091 0.414146
O O17 0.000000 0.500000 0.000000
#
# Coordination Sequence:
#
# PCOD9253752 Si02
#       8
#     4   4   4   4   4   4   4   4
#     4  12  26  47  66 100 141 176 220 279 338 402
#     4  12  26  43  70  99 130 177 223 277 336 394
#     4  12  27  44  72 100 135 182 226 277 337 399
#     4  12  27  44  70  99 132 180 223 276 339 399
#     4  12  23  46  70  97 135 175 232 280 326 396
#     4  12  23  48  70  97 135 175 230 280 328 394
#     4  12  26  47  66 100 143 176 220 279 342 404
#     4  12  26  43  72 102 135 181 224 280 338 400
#
# _framework density 21.065460999999999
#
# number of rings (size 3 to 8) (size 9 to 14) (size 15 to 20)
#    0.000    0.000    5.000    4.500    7.000    0.000 
#    0.000    0.000    0.000    0.000    0.000    0.000 
#    0.000    0.000    0.000    0.000    0.000    0.000 
#
# Total GULP energy -178141.886496 kJ/mol
# GULP energy per Si atom -5566.933953 kJ/mol
# Density = 2.101752 g / cm^3
# Si number density = 21.065461 Si / 1000 Ang^3
#
#
#
# Elastic Constant Matrix: (Units=GPa)
#
#
# Indices 1 2 3 4 5 6 
#
# 1 95.6068 17.7246 -16.7262 0.0000 5.0367 0.0000
# 2 17.7246 207.7390 7.0439 0.0000 -13.3429 0.0000
# 3 -16.7262 7.0439 67.2170 0.0000 -10.9329 0.0000
# 4 0.0000 0.0000 0.0000 23.9186 0.0000 1.8825
# 5 5.0367 -13.3429 -10.9329 0.0000 18.9238 0.0000
# 6 0.0000 0.0000 0.0000 1.8825 0.0000 33.8428
#
#
#
# Elastic Compliance Matrix: (Units=1/GPa)
#
#
# Indices 1 2 3 4 5 6 
#
# 1 0.011251 -0.001198 0.002539 0.000000 -0.002372 0.000000
# 2 -0.001198 0.005170 -0.000215 0.000000 0.003840 0.000000
# 3 0.002539 -0.000215 0.016994 0.000000 0.008990 0.000000
# 4 0.000000 0.000000 0.000000 0.041992 0.000000 -0.002336
# 5 -0.002372 0.003840 0.008990 0.000000 0.061376 0.000000
# 6 0.000000 0.000000 0.000000 -0.002336 0.000000 0.029678
#
#
# Mechanical properties :
#
#
# Convention : Reuss Voigt Hill
#
# Bulk Modulus (GPa) = 28.03813 42.96084 35.49948
# Shear Modulus (GPa) = 28.39308 39.50507 33.94907
#
# Velocity S-wave (km/s) = 3.67529 4.33523 4.01883
# Velocity P-wave (km/s) = 5.59904 6.74516 6.19865
#
# Compressibility (1/GPa) = 0.03566572
#
# Stress axis : x y z
#
# Youngs Moduli (GPa) = 88.88160 193.42683 58.84462
#
# Poissons Ratio (x) = 0.23181 -0.14943
# Poissons Ratio (y) = 0.10652 0.01268
# Poissons Ratio (z) = -0.22570 0.04167
#
# Static dielectric constant tensor:
#      x y z
#    x 1.797650 0.000000 -0.031770 
#    y 0.000000 1.769660 0.000000 
#    z -0.031770 0.000000 1.891280 
# 
# From -- ./inp_files/78345.got.cif
#   From: 2010.05.17/outbox.ucp.g08.bks.cvg/sg14_40_cif.got.tgz:78345.got - 2010.06.11 12:31:08.
