data_PCOD9253090
_publ_section_title
;
Structure prediction by ZEFSAII (Michael W. Deem and Ramdas Pophale) SiO2 
 PCOD9253090
Probable space group: P 21/C
;
_chemical_formula_sum "Si O2"
_cell_formula_units_Z 20
_cell_length_a 11.233604
_cell_length_b 5.089304
_cell_length_c 21.570309
_cell_angle_alpha 90.000000
_cell_angle_beta 43.497937
_cell_angle_gamma 90.000000
_cell_volume 848.847346
_symmetry_space_group_name_H-M "P 21/C"
_symmetry_group_IT_number 14
_symmetry_cell_setting 'monoclinic'
loop_
_space_group_symop_operation_xyz
x,y,z
-x,1/2+y,1/2-z
-x,-y,-z
x,1/2-y,1/2+z
loop_
_atom_site_type_symbol
_atom_site_label
_atom_site_fract_x
_atom_site_fract_y
_atom_site_fract_z
Si Si1 0.165750 0.810897 0.574832
Si Si2 0.744662 0.811711 0.026170
Si Si3 0.616546 0.836228 0.706579
Si Si4 0.802782 0.794619 0.264542
Si Si5 0.358709 0.698385 0.616534
O O1 0.181573 0.599286 0.514178
O O2 0.335057 0.781790 0.554134
O O3 0.006177 0.740738 0.679186
O O4 0.148643 0.097680 0.552735
O O5 0.727204 0.730129 0.103973
O O6 0.551225 0.802885 0.070672
O O7 0.456262 0.631286 0.767421
O O8 0.719894 0.783216 0.730072
O O9 0.724350 0.588236 0.342850
O O10 0.746740 0.085693 0.304252
#
# Coordination Sequence:
#
# PCOD9253090 Si02
#       5
#     4   4   4   4   4
#     4  12  26  41  64 103 134 161 211 271 326 368
#     4  12  24  42  67  94 133 170 211 266 319 372
#     4  12  23  44  68  92 124 169 224 259 309 390
#     4  12  24  43  69  95 128 174 213 264 316 378
#     4  12  23  44  68  94 131 176 213 252 316 398
#
# _framework density 23.561361000000002
#
# number of rings (size 3 to 8) (size 9 to 14) (size 15 to 20)
#    0.000    0.000    4.000    7.200    0.000    1.600 
#    0.000    0.000    0.000    0.000    0.000    0.000 
#    0.000    0.000    0.000    0.000    0.000    0.000 
#
# Total GULP energy -112188.366205 kJ/mol
# GULP energy per Si atom -5609.418310 kJ/mol
# Density = 2.350773 g / cm^3
# Si number density = 23.561361 Si / 1000 Ang^3
#
#
#
# Elastic Constant Matrix: (Units=GPa)
#
#
# Indices 1 2 3 4 5 6 
#
# 1 55.6366 -0.6728 -13.9070 0.0000 15.5056 0.0000
# 2 -0.6728 57.5179 14.3344 0.0000 -13.7941 0.0000
# 3 -13.9070 14.3344 56.2780 0.0000 -6.7701 0.0000
# 4 0.0000 0.0000 0.0000 53.1494 0.0000 4.8963
# 5 15.5056 -13.7941 -6.7701 0.0000 41.6911 0.0000
# 6 0.0000 0.0000 0.0000 4.8963 0.0000 18.8494
#
#
#
# Elastic Compliance Matrix: (Units=1/GPa)
#
#
# Indices 1 2 3 4 5 6 
#
# 1 0.021479 -0.002969 0.005084 0.000000 -0.008145 0.000000
# 2 -0.002969 0.020290 -0.005060 0.000000 0.006996 0.000000
# 3 0.005084 -0.005060 0.020281 0.000000 -0.000272 0.000000
# 4 0.000000 0.000000 0.000000 0.019276 0.000000 -0.005007
# 5 -0.008145 0.006996 -0.000272 0.000000 0.029286 0.000000
# 6 0.000000 0.000000 0.000000 -0.005007 0.000000 0.054353
#
#
# Mechanical properties :
#
#
# Convention : Reuss Voigt Hill
#
# Bulk Modulus (GPa) = 17.80638 18.77131 18.28885
# Shear Modulus (GPa) = 26.37475 34.04984 30.21230
#
# Velocity S-wave (km/s) = 3.34938 3.80564 3.58478
# Velocity P-wave (km/s) = 4.74676 5.22445 4.99132
#
# Compressibility (1/GPa) = 0.05615964
#
# Stress axis : x y z
#
# Youngs Moduli (GPa) = 46.55775 49.28539 49.30614
#
# Poissons Ratio (x) = 0.14634 -0.25068
# Poissons Ratio (y) = 0.13824 0.24950
# Poissons Ratio (z) = -0.23670 0.24939
#
# Static dielectric constant tensor:
#      x y z
#    x 1.891110 0.000000 -0.027990 
#    y 0.000000 1.838190 0.000000 
#    z -0.027990 0.000000 1.877020 
# 
# From -- ./inp_files/42441.got.cif
#   From: 2010.05.17/outbox.cif.g08.bks.cpg/sg14_22_cif.got.tgz:42441.got - 2010.06.03 17:49:19.
