data_PCOD9253754
_publ_section_title
;
Structure prediction by ZEFSAII (Michael W. Deem and Ramdas Pophale) SiO2 
 PCOD9253754
Probable space group: P 21/C
;
_chemical_formula_sum "Si O2"
_cell_formula_units_Z 24
_cell_length_a 15.000000
_cell_length_b 9.000000
_cell_length_c 18.000000
_cell_angle_alpha 90.000000
_cell_angle_beta 150.000000
_cell_angle_gamma 90.000000
_cell_volume 1215.000000
_symmetry_space_group_name_H-M "P 21/C"
_symmetry_group_IT_number 14
_symmetry_cell_setting 'monoclinic'
loop_
_space_group_symop_operation_xyz
x,y,z
-x,1/2+y,1/2-z
-x,-y,-z
x,1/2-y,1/2+z
loop_
_atom_site_type_symbol
_atom_site_label
_atom_site_fract_x
_atom_site_fract_y
_atom_site_fract_z
Si Si1 0.298376 0.540933 0.883406
Si Si2 0.184612 0.412773 0.957002
Si Si3 0.258805 0.894433 0.656532
Si Si4 0.680286 0.921280 0.969115
Si Si5 0.227471 0.896236 0.815179
Si Si6 0.947782 0.082566 0.041469
O O1 0.274691 0.505729 0.954501
O O2 0.273822 0.719507 0.854011
O O3 0.136372 0.447120 0.724330
O O4 0.500000 0.500000 0.000000
O O5 0.972786 0.422558 0.802196
O O6 0.224196 0.476289 0.069071
O O7 0.229221 0.241278 0.970232
O O8 0.473360 0.880474 0.803060
O O9 0.233278 0.928778 0.728293
O O10 0.136221 0.747594 0.543623
O O11 0.676484 0.004715 0.048770
O O12 0.792470 0.014420 0.985723
O O13 0.000000 0.000000 0.000000
#
# Coordination Sequence:
#
# PCOD9253754 Si02
#       6
#     4   4   4   4   4   4
#     4  12  27  48  77 106 150 203 256 311 388 451
#     4  12  25  47  73 109 148 197 251 315 381 448
#     4  12  27  45  75 113 149 198 255 314 382 460
#     4  12  26  48  75 108 157 196 252 315 386 458
#     4  12  24  51  69 111 151 199 248 316 379 461
#     4  12  25  50  75 105 154 197 257 316 372 457
#
# _framework density 19.753086
#
# number of rings (size 3 to 8) (size 9 to 14) (size 15 to 20)
#    0.000    0.000    5.000    4.000    4.667    0.000 
#    3.000    0.000    0.000    0.000    0.000    0.000 
#    0.000    0.000    0.000    0.000    0.000    0.000 
#
# Total GULP energy -133629.506200 kJ/mol
# GULP energy per Si atom -5567.896092 kJ/mol
# Density = 1.970813 g / cm^3
# Si number density = 19.753086 Si / 1000 Ang^3
#
#
#
# Elastic Constant Matrix: (Units=GPa)
#
#
# Indices 1 2 3 4 5 6 
#
# 1 177.5654 39.5418 27.4622 0.0000 -11.3842 0.0000
# 2 39.5418 103.8590 29.5108 0.0000 -23.1404 0.0000
# 3 27.4622 29.5108 113.0851 0.0000 10.0813 0.0000
# 4 0.0000 0.0000 0.0000 40.2794 0.0000 -6.1995
# 5 -11.3842 -23.1404 10.0813 0.0000 60.6625 0.0000
# 6 0.0000 0.0000 0.0000 -6.1995 0.0000 46.0575
#
#
#
# Elastic Compliance Matrix: (Units=1/GPa)
#
#
# Indices 1 2 3 4 5 6 
#
# 1 0.006270 -0.001947 -0.001069 0.000000 0.000612 0.000000
# 2 -0.001947 0.012363 -0.003189 0.000000 0.004881 0.000000
# 3 -0.001069 -0.003189 0.010212 0.000000 -0.003114 0.000000
# 4 0.000000 0.000000 0.000000 0.025352 0.000000 0.003412
# 5 0.000612 0.004881 -0.003114 0.000000 0.018979 0.000000
# 6 0.000000 0.000000 0.000000 0.003412 0.000000 0.022171
#
#
# Mechanical properties :
#
#
# Convention : Reuss Voigt Hill
#
# Bulk Modulus (GPa) = 60.84234 65.28211 63.06223
# Shear Modulus (GPa) = 44.15596 49.26619 46.71107
#
# Velocity S-wave (km/s) = 4.73313 4.99952 4.86814
# Velocity P-wave (km/s) = 7.79348 8.15155 7.97452
#
# Compressibility (1/GPa) = 0.01643592
#
# Stress axis : x y z
#
# Youngs Moduli (GPa) = 159.49311 80.88544 97.92207
#
# Poissons Ratio (x) = 0.15749 0.10468
# Poissons Ratio (y) = 0.31055 0.31223
# Poissons Ratio (z) = 0.17050 0.25791
#
# Static dielectric constant tensor:
#      x y z
#    x 1.697680 0.000000 -0.018230 
#    y 0.000000 1.736130 0.000000 
#    z -0.018230 0.000000 1.784580 
# 
# From -- ./inp_files/59142.got.cif
#   From: 2010.05.17/outbox.ucp.g08.bks.cvg/sg14_30_cif.got.tgz:59142.got - 2010.06.11 12:31:08.
