data_PCOD9253908
_publ_section_title
;
Structure prediction by ZEFSAII (Michael W. Deem and Ramdas Pophale) SiO2 
 PCOD9253908
Probable space group: C 2/C
;
_chemical_formula_sum "Si O2"
_cell_formula_units_Z 56
_cell_length_a 18.078873
_cell_length_b 10.480646
_cell_length_c 12.981130
_cell_angle_alpha 90.000000
_cell_angle_beta 57.551817
_cell_angle_gamma 90.000000
_cell_volume 2075.635392
_symmetry_space_group_name_H-M "C 2/C"
_symmetry_group_IT_number 15
_symmetry_cell_setting 'monoclinic'
loop_
_space_group_symop_operation_xyz
x,y,z
-x,y,1/2-z
-x,-y,-z
x,-y,1/2+z
1/2+x,1/2+y,z
1/2-x,1/2+y,1/2-z
1/2-x,1/2-y,-z
1/2+x,1/2-y,1/2+z
loop_
_atom_site_type_symbol
_atom_site_label
_atom_site_fract_x
_atom_site_fract_y
_atom_site_fract_z
Si Si1 0.872046 0.725133 0.039683
Si Si2 0.716117 0.551339 0.259677
Si Si3 0.295457 0.873715 0.888456
Si Si4 0.602747 0.643230 0.182893
Si Si5 0.854991 0.606727 0.723393
Si Si6 0.049845 0.770621 0.305283
Si Si7 0.411522 0.049869 0.461898
O O1 0.854314 0.826448 0.960835
O O2 0.919383 0.603803 0.946691
O O3 0.791066 0.643353 0.150506
O O4 0.928998 0.790554 0.088216
O O5 0.709209 0.613457 0.381177
O O6 0.641749 0.538219 0.230889
O O7 0.755635 0.413870 0.258486
O O8 0.354209 0.755116 0.813772
O O9 0.314921 0.900919 0.992799
O O10 0.356250 0.990264 0.800919
O O11 0.500000 0.632383 0.250000
O O12 0.623629 0.765259 0.237935
O O13 0.911922 0.576751 0.582811
O O14 0.000000 0.846447 0.250000
O O15 0.984442 0.646054 0.364318
#
# Coordination Sequence:
#
# PCOD9253908 Si02
#       7
#     8   8   8   8   8   8   8
#     4  10  17  28  46  68 102 138 166 202 254 307
#     4   8  19  36  44  70 109 138 163 205 261 307
#     4   8  16  28  43  60 101 143 160 192 256 306
#     4  12  22  30  53  84 103 126 175 223 248 291
#     4   9  19  31  47  73 103 137 165 203 261 301
#     4   9  16  22  39  66 103 136 158 196 252 305
#     4  10  15  25  43  71  98 130 169 204 244 304
#
# _framework density 26.979689
#
# number of rings (size 3 to 8) (size 9 to 14) (size 15 to 20)
#    0.857    1.714    2.857    1.714    2.000    0.000 
#    0.000    0.714    0.000    0.000    0.000   25.000 
#    0.000    0.000    0.000    0.000    0.000    0.000 
#
# Total GULP energy -155898.306216 kJ/mol
# GULP energy per Si atom -5567.796651 kJ/mol
# Density = 2.691828 g / cm^3
# Si number density = 26.979689 Si / 1000 Ang^3
#
#
#
# Elastic Constant Matrix: (Units=GPa)
#
#
# Indices 1 2 3 4 5 6 
#
# 1 197.8825 30.2831 21.5874 0.0000 44.5643 0.0000
# 2 30.2831 87.4179 19.8971 0.0000 8.9170 0.0000
# 3 21.5874 19.8971 85.3337 0.0000 36.1393 0.0000
# 4 0.0000 0.0000 0.0000 17.0263 0.0000 19.6211
# 5 44.5643 8.9170 36.1393 0.0000 51.7888 0.0000
# 6 0.0000 0.0000 0.0000 19.6211 0.0000 34.4278
#
#
#
# Elastic Compliance Matrix: (Units=1/GPa)
#
#
# Indices 1 2 3 4 5 6 
#
# 1 0.006639 -0.001987 0.001502 0.000000 -0.006419 0.000000
# 2 -0.001987 0.012676 -0.003198 0.000000 0.001759 0.000000
# 3 0.001502 -0.003198 0.017600 0.000000 -0.013024 0.000000
# 4 0.000000 0.000000 0.000000 0.171118 0.000000 -0.097523
# 5 -0.006419 0.001759 -0.013024 0.000000 0.033619 0.000000
# 6 0.000000 0.000000 0.000000 -0.097523 0.000000 0.084627
#
#
# Mechanical properties :
#
#
# Convention : Reuss Voigt Hill
#
# Bulk Modulus (GPa) = 33.84069 57.12992 45.48531
# Shear Modulus (GPa) = 14.55632 40.57302 27.56467
#
# Velocity S-wave (km/s) = 2.32530 3.88214 3.19984
# Velocity P-wave (km/s) = 4.44743 6.42774 5.52700
#
# Compressibility (1/GPa) = 0.02955022
#
# Stress axis : x y z
#
# Youngs Moduli (GPa) = 150.61568 78.88839 56.81852
#
# Poissons Ratio (x) = 0.15676 -0.08536
# Poissons Ratio (y) = 0.29930 0.18170
# Poissons Ratio (z) = -0.22629 0.25227
#
# Static dielectric constant tensor:
#      x y z
#    x 2.250760 0.000000 0.015420 
#    y 0.000000 2.192090 0.000000 
#    z 0.015420 0.000000 2.130860 
# 
# From -- ./inp_files/167998.got.cif
#   From: 2010.05.17/outbox.cif.g08.bks.cpg/sg15_84_cif.got.tgz:167998.got - 2010.06.03 18:47:42.
