data_PCOD9253402
_publ_section_title
;
Structure prediction by ZEFSAII (Michael W. Deem and Ramdas Pophale) SiO2 
 PCOD9253402
Probable space group: P 21/C
;
_chemical_formula_sum "Si O2"
_cell_formula_units_Z 18
_cell_length_a 20.137772
_cell_length_b 4.722299
_cell_length_c 14.312518
_cell_angle_alpha 90.000000
_cell_angle_beta 30.555630
_cell_angle_gamma 90.000000
_cell_volume 691.934329
_symmetry_space_group_name_H-M "P 21/C"
_symmetry_group_IT_number 14
_symmetry_cell_setting 'monoclinic'
loop_
_space_group_symop_operation_xyz
x,y,z
-x,1/2+y,1/2-z
-x,-y,-z
x,1/2-y,1/2+z
loop_
_atom_site_type_symbol
_atom_site_label
_atom_site_fract_x
_atom_site_fract_y
_atom_site_fract_z
Si Si1 0.000000 0.000000 0.000000
Si Si2 0.293550 0.059123 0.709620
Si Si3 0.925043 0.584720 0.802108
Si Si4 0.667344 0.259297 0.646092
Si Si5 0.606288 0.061538 0.020995
O O1 0.142234 0.986169 0.879813
O O2 0.073067 0.059501 0.811193
O O3 0.334944 0.962305 0.761772
O O4 0.380407 0.880180 0.531243
O O5 0.316201 0.380968 0.650958
O O6 0.957863 0.900436 0.793899
O O7 0.791441 0.449395 0.000561
O O8 0.537584 0.066416 0.799920
O O9 0.669578 0.437939 0.546965
#
# Coordination Sequence:
#
# PCOD9253402 Si02
#       5
#     2   4   4   4   4
#     4  12  28  52  80 118 158 210 262 330 394 474
#     4  12  29  49  81 116 161 203 266 325 396 468
#     4  12  30  51  82 115 158 211 265 329 397 472
#     4  12  28  53  81 116 160 212 264 329 398 474
#     4  12  29  50  78 116 157 210 262 326 391 472
#
# _framework density 26.014029000000001
#
# number of rings (size 3 to 8) (size 9 to 14) (size 15 to 20)
#    0.000    0.000    4.444    2.667    6.222    7.111 
#    0.000    0.000    0.000    0.000    0.000    0.000 
#    0.000    0.000    0.000    0.000    0.000    0.000 
#
# Total GULP energy -100649.459257 kJ/mol
# GULP energy per Si atom -5591.636625 kJ/mol
# Density = 2.595482 g / cm^3
# Si number density = 26.014029 Si / 1000 Ang^3
#
#
#
# Elastic Constant Matrix: (Units=GPa)
#
#
# Indices 1 2 3 4 5 6 
#
# 1 134.2892 -12.9450 20.7899 0.0000 8.2076 0.0000
# 2 -12.9450 58.0142 12.1146 0.0000 -18.6624 0.0000
# 3 20.7899 12.1146 96.3327 0.0000 -11.5668 0.0000
# 4 0.0000 0.0000 0.0000 13.6266 0.0000 -5.3701
# 5 8.2076 -18.6624 -11.5668 0.0000 69.4102 0.0000
# 6 0.0000 0.0000 0.0000 -5.3701 0.0000 20.4378
#
#
#
# Elastic Compliance Matrix: (Units=1/GPa)
#
#
# Indices 1 2 3 4 5 6 
#
# 1 0.008003 0.001973 -0.002067 0.000000 -0.000760 0.000000
# 2 0.001973 0.019666 -0.002339 0.000000 0.004665 0.000000
# 3 -0.002067 -0.002339 0.011301 0.000000 0.001499 0.000000
# 4 0.000000 0.000000 0.000000 0.081862 0.000000 0.021510
# 5 -0.000760 0.004665 0.001499 0.000000 0.016001 0.000000
# 6 0.000000 0.000000 0.000000 0.021510 0.000000 0.054581
#
#
# Mechanical properties :
#
#
# Convention : Reuss Voigt Hill
#
# Bulk Modulus (GPa) = 29.32129 36.50612 32.91370
# Shear Modulus (GPa) = 24.07920 38.60669 31.34294
#
# Velocity S-wave (km/s) = 3.04571 3.85654 3.47486
# Velocity P-wave (km/s) = 4.86459 5.82188 5.36463
#
# Compressibility (1/GPa) = 0.03410491
#
# Stress axis : x y z
#
# Youngs Moduli (GPa) = 124.95015 50.84839 88.48952
#
# Poissons Ratio (x) = -0.10031 0.18287
# Poissons Ratio (y) = -0.24650 0.20696
# Poissons Ratio (z) = 0.25822 0.11893
#
# Static dielectric constant tensor:
#      x y z
#    x 1.951080 0.000000 -0.009130 
#    y 0.000000 2.005640 0.000000 
#    z -0.009130 0.000000 1.984510 
# 
# From -- ./inp_files/49375.got.cif
#   From: 2010.05.17/outbox.cif.g08.bks.cpg/sg14_25_cif.got.tgz:49375.got - 2010.06.03 17:49:19.
