data_PCOD9253851
_publ_section_title
;
Structure prediction by ZEFSAII (Michael W. Deem and Ramdas Pophale) SiO2 
 PCOD9253851
Probable space group: C 2/C
;
_chemical_formula_sum "Si O2"
_cell_formula_units_Z 52
_cell_length_a 8.453978
_cell_length_b 15.753184
_cell_length_c 29.208495
_cell_angle_alpha 90.000000
_cell_angle_beta 41.788504
_cell_angle_gamma 90.000000
_cell_volume 2592.163981
_symmetry_space_group_name_H-M "C 2/C"
_symmetry_group_IT_number 15
_symmetry_cell_setting 'monoclinic'
loop_
_space_group_symop_operation_xyz
x,y,z
-x,y,1/2-z
-x,-y,-z
x,-y,1/2+z
1/2+x,1/2+y,z
1/2-x,1/2+y,1/2-z
1/2-x,1/2-y,-z
1/2+x,1/2-y,1/2+z
loop_
_atom_site_type_symbol
_atom_site_label
_atom_site_fract_x
_atom_site_fract_y
_atom_site_fract_z
Si Si1 0.156865 0.188544 0.671476
Si Si2 0.677034 0.543059 0.603261
Si Si3 0.500000 0.302669 0.750000
Si Si4 0.466863 0.273114 0.859751
Si Si5 0.506514 0.874115 0.959372
Si Si6 0.759901 0.561196 0.328936
Si Si7 0.532111 0.845448 0.634125
O O1 0.117982 0.095052 0.661270
O O2 0.426104 0.202435 0.630317
O O3 0.088290 0.256379 0.647148
O O4 0.000000 0.206478 0.750000
O O5 0.841661 0.461584 0.577925
O O6 0.436955 0.510659 0.631890
O O7 0.819445 0.606082 0.539039
O O8 0.486947 0.253152 0.801221
O O9 0.745352 0.355105 0.697640
O O10 0.201000 0.302128 0.928458
O O11 0.635922 0.355201 0.833096
O O12 0.396985 0.850530 0.934019
O O13 0.835309 0.585571 0.363802
O O14 0.000000 0.541592 0.250000
#
# Coordination Sequence:
#
# PCOD9253851 Si02
#       7
#     8   8   4   8   8   8   8
#     4  11  21  38  55  89 119 152 181 261 302 340
#     4  10  23  39  56  82 131 148 197 242 301 344
#     4  10  14  30  56  88 106 142 192 252 264 352
#     4   9  17  33  62  82 112 149 205 236 290 347
#     4   9  21  40  59  86 107 170 200 236 280 364
#     4  10  18  35  55  86 112 157 193 242 290 363
#     4  10  19  34  63  81 112 149 208 238 287 350
#
# _framework density 20.060459999999999
#
# number of rings (size 3 to 8) (size 9 to 14) (size 15 to 20)
#    0.000    2.154    3.077    0.923    0.000    3.077 
#    4.154    3.077    0.000    0.000    0.000    0.000 
#    0.000    0.000    0.000    0.000    0.000    0.000 
#
# Total GULP energy -145100.655874 kJ/mol
# GULP energy per Si atom -5580.794457 kJ/mol
# Density = 2.001480 g / cm^3
# Si number density = 20.060460 Si / 1000 Ang^3
#
#
#
# Elastic Constant Matrix: (Units=GPa)
#
#
# Indices 1 2 3 4 5 6 
#
# 1 121.5412 23.3803 14.5663 -0.0004 0.0051 -0.0019
# 2 23.3803 33.9970 4.5929 0.0007 -5.5231 -0.0014
# 3 14.5663 4.5929 31.1772 -0.0030 -5.1937 -0.0025
# 4 -0.0004 0.0007 -0.0030 10.7243 0.0004 9.6463
# 5 0.0051 -5.5231 -5.1937 0.0004 24.4963 0.0016
# 6 -0.0019 -0.0014 -0.0025 9.6463 0.0016 6.6166
#
#
#
# Elastic Compliance Matrix: (Units=1/GPa)
#
#
# Indices 1 2 3 4 5 6 
#
# 1 0.010010 -0.006719 -0.004084 0.000002 -0.002383 -0.000003
# 2 -0.006719 0.035411 -0.000774 0.000020 0.007821 -0.000025
# 3 -0.004084 -0.000774 0.035315 -0.000001 0.007314 0.000011
# 4 0.000002 0.000020 -0.000001 -0.299481 -0.000019 0.436613
# 5 -0.002383 0.007821 0.007314 -0.000019 0.044137 0.000020
# 6 -0.000003 -0.000025 0.000011 0.436613 0.000020 -0.485403
#
#
# Mechanical properties :
#
#
# Convention : Reuss Voigt Hill
#
# Bulk Modulus (GPa) = 17.36693 30.19938 23.78315
# Shear Modulus (GPa) = -8.09503 17.97917 4.94207
#
# Velocity S-wave (km/s) = -2.01099 2.99699 1.57128
# Velocity P-wave (km/s) = 1.81218 5.20219 3.89530
#
# Compressibility (1/GPa) = 0.05758071
#
# Stress axis : x y z
#
# Youngs Moduli (GPa) = 99.90265 28.24020 28.31645
#
# Poissons Ratio (x) = 0.18975 0.11564
# Poissons Ratio (y) = 0.67127 0.02193
# Poissons Ratio (z) = 0.40798 0.02187
#
# Static dielectric constant tensor:
#      x y z
#    x 1.717970 0.000000 -0.009620 
#    y 0.000000 1.713620 0.000000 
#    z -0.009620 0.000000 1.709680 
# 
# From -- ./inp_files/308204.got.cif
#   From: 2010.05.17/outbox.cif.g08.bks.cpg/sg15_155_cif.got.tgz:308204.got - 2010.06.03 18:47:42.
