data_PCOD9253191
_publ_section_title
;
Structure prediction by ZEFSAII (Michael W. Deem and Ramdas Pophale) SiO2 
 PCOD9253191
Probable space group: P 21/C
;
_chemical_formula_sum "Si O2"
_cell_formula_units_Z 18
_cell_length_a 4.890841
_cell_length_b 10.440099
_cell_length_c 15.393670
_cell_angle_alpha 90.000000
_cell_angle_beta 117.698952
_cell_angle_gamma 90.000000
_cell_volume 695.938551
_symmetry_space_group_name_H-M "P 21/C"
_symmetry_group_IT_number 14
_symmetry_cell_setting 'monoclinic'
loop_
_space_group_symop_operation_xyz
x,y,z
-x,1/2+y,1/2-z
-x,-y,-z
x,1/2-y,1/2+z
loop_
_atom_site_type_symbol
_atom_site_label
_atom_site_fract_x
_atom_site_fract_y
_atom_site_fract_z
Si Si1 0.500000 0.500000 0.500000
Si Si2 0.856180 0.734203 0.474635
Si Si3 0.380633 0.062159 0.780963
Si Si4 0.842558 0.269640 0.158562
Si Si5 0.255768 0.672065 0.177927
O O1 0.773158 0.608098 0.516726
O O2 0.577092 0.513436 0.615424
O O3 0.064527 0.705435 0.420294
O O4 0.037374 0.832552 0.562722
O O5 0.524225 0.788261 0.397911
O O6 0.039360 0.102597 0.699031
O O7 0.567251 0.194010 0.804986
O O8 0.471471 0.948846 0.728744
O O9 0.919477 0.188711 0.255954
#
# Coordination Sequence:
#
# PCOD9253191 Si02
#       5
#     2   4   4   4   4
#     4  12  24  48  84 120 154 222 276 344 384 508
#     4  12  28  50  82 120 168 215 280 334 424 482
#     4  12  27  52  86 117 173 213 284 338 423 484
#     4  12  26  53  75 123 162 217 269 348 408 496
#     4  12  29  53  81 127 163 225 270 357 403 508
#
# _framework density 25.864350999999999
#
# number of rings (size 3 to 8) (size 9 to 14) (size 15 to 20)
#    0.000    0.000    6.667    1.333    0.000   10.667 
#    0.000    0.000    0.000    0.000    0.000    0.000 
#    0.000    0.000    0.000    0.000    0.000    0.000 
#
# Total GULP energy -100397.706692 kJ/mol
# GULP energy per Si atom -5577.650372 kJ/mol
# Density = 2.580548 g / cm^3
# Si number density = 25.864351 Si / 1000 Ang^3
#
#
#
# Elastic Constant Matrix: (Units=GPa)
#
#
# Indices 1 2 3 4 5 6 
#
# 1 98.0753 0.7449 11.8752 0.0000 5.2897 0.0000
# 2 0.7449 89.1573 7.4877 0.0000 8.6126 0.0000
# 3 11.8752 7.4877 87.3509 0.0000 6.8711 0.0000
# 4 0.0000 0.0000 0.0000 30.4364 0.0000 4.0519
# 5 5.2897 8.6126 6.8711 0.0000 29.2843 0.0000
# 6 0.0000 0.0000 0.0000 4.0519 0.0000 38.3508
#
#
#
# Elastic Compliance Matrix: (Units=1/GPa)
#
#
# Indices 1 2 3 4 5 6 
#
# 1 0.010441 0.000180 -0.001306 0.000000 -0.001632 0.000000
# 2 0.000180 0.011594 -0.000762 0.000000 -0.003264 0.000000
# 3 -0.001306 -0.000762 0.011874 0.000000 -0.002326 0.000000
# 4 0.000000 0.000000 0.000000 0.033324 0.000000 -0.003521
# 5 -0.001632 -0.003264 -0.002326 0.000000 0.035948 0.000000
# 6 0.000000 0.000000 0.000000 -0.003521 0.000000 0.026447
#
#
# Mechanical properties :
#
#
# Convention : Reuss Voigt Hill
#
# Bulk Modulus (GPa) = 33.18608 34.97767 34.08188
# Shear Modulus (GPa) = 34.85567 36.57936 35.71751
#
# Velocity S-wave (km/s) = 3.67500 3.76477 3.72015
# Velocity P-wave (km/s) = 5.55573 5.69656 5.62659
#
# Compressibility (1/GPa) = 0.03013312
#
# Stress axis : x y z
#
# Youngs Moduli (GPa) = 95.77520 86.25261 84.21805
#
# Poissons Ratio (x) = -0.01554 0.11003
# Poissons Ratio (y) = -0.01726 0.06414
# Poissons Ratio (z) = 0.12513 0.06569
#
# Static dielectric constant tensor:
#      x y z
#    x 2.115200 0.000000 0.068260 
#    y 0.000000 2.234630 0.000000 
#    z 0.068260 0.000000 2.047390 
# 
# From -- ./inp_files/36801.got.cif
#   From: 2010.05.17/outbox.cif.g08.bks.cpg/sg14_19_cif.got.tgz:36801.got - 2010.06.03 17:49:19.
