data_PCOD9253879
_publ_section_title
;
Structure prediction by ZEFSAII (Michael W. Deem and Ramdas Pophale) SiO2 
 PCOD9253879
Probable space group: C 2/C
;
_chemical_formula_sum "Si O2"
_cell_formula_units_Z 56
_cell_length_a 22.726082
_cell_length_b 9.057875
_cell_length_c 21.280158
_cell_angle_alpha 90.000000
_cell_angle_beta 141.983076
_cell_angle_gamma 90.000000
_cell_volume 2697.937362
_symmetry_space_group_name_H-M "C 2/C"
_symmetry_group_IT_number 15
_symmetry_cell_setting 'monoclinic'
loop_
_space_group_symop_operation_xyz
x,y,z
-x,y,1/2-z
-x,-y,-z
x,-y,1/2+z
1/2+x,1/2+y,z
1/2-x,1/2+y,1/2-z
1/2-x,1/2-y,-z
1/2+x,1/2-y,1/2+z
loop_
_atom_site_type_symbol
_atom_site_label
_atom_site_fract_x
_atom_site_fract_y
_atom_site_fract_z
Si Si1 0.809037 0.929988 0.011882
Si Si2 0.524008 0.306733 0.569902
Si Si3 0.894852 0.477625 0.166485
Si Si4 0.350774 0.282714 0.718713
Si Si5 0.145464 0.267828 0.485289
Si Si6 0.015651 0.147995 0.923690
Si Si7 0.908036 0.901564 0.216994
O O1 0.698609 0.925389 0.899483
O O2 0.841775 0.103738 0.034312
O O3 0.822555 0.881300 0.095463
O O4 0.883443 0.848158 0.028482
O O5 0.625772 0.274916 0.687952
O O6 0.443420 0.226542 0.542847
O O7 0.501810 0.479530 0.566761
O O8 0.518273 0.268027 0.491896
O O9 0.897694 0.355938 0.223456
O O10 0.000000 0.547495 0.250000
O O11 0.868626 0.386485 0.081347
O O12 0.241300 0.289541 0.606095
O O13 0.399281 0.429928 0.732892
O O14 0.933927 0.184557 0.803192
O O15 0.000000 0.889848 0.250000
#
# Coordination Sequence:
#
# PCOD9253879 Si02
#       7
#     8   8   8   8   8   8   8
#     4   9  15  23  34  53  77  98 129 159 193 232
#     4   9  16  25  33  50  76 102 139 157 183 230
#     4  11  16  21  33  57  79 105 125 156 192 237
#     4  10  15  21  34  51  74 106 123 154 194 231
#     4  10  16  22  34  53  78 104 130 154 192 239
#     4   8  16  24  35  49  71 109 132 161 186 223
#     4   9  13  20  35  51  72  96 125 154 194 228
#
# _framework density 20.756595999999998
#
# number of rings (size 3 to 8) (size 9 to 14) (size 15 to 20)
#    0.000    2.571    4.286    2.143    0.000    0.000 
#    0.000    0.000    0.000    0.000    0.000    3.000 
#    0.000   10.286    0.000    0.000    0.000    0.000 
#
# Total GULP energy -156098.040966 kJ/mol
# GULP energy per Si atom -5574.930035 kJ/mol
# Density = 2.070935 g / cm^3
# Si number density = 20.756596 Si / 1000 Ang^3
#
#
#
# Elastic Constant Matrix: (Units=GPa)
#
#
# Indices 1 2 3 4 5 6 
#
# 1 72.9588 11.4738 67.8040 0.0000 -9.8845 0.0000
# 2 11.4738 43.0887 9.5215 0.0000 -5.0967 0.0000
# 3 67.8040 9.5215 157.2347 0.0000 -14.3678 0.0000
# 4 0.0000 0.0000 0.0000 -1.4743 0.0000 -12.1229
# 5 -9.8845 -5.0967 -14.3678 0.0000 46.6226 0.0000
# 6 0.0000 0.0000 0.0000 -12.1229 0.0000 -2.6251
#
#
#
# Elastic Compliance Matrix: (Units=1/GPa)
#
#
# Indices 1 2 3 4 5 6 
#
# 1 0.023670 -0.003947 -0.009826 0.000000 0.001559 0.000000
# 2 -0.003947 0.024401 0.000403 0.000000 0.001955 0.000000
# 3 -0.009826 0.000403 0.010687 0.000000 0.001254 0.000000
# 4 0.000000 0.000000 0.000000 0.018345 0.000000 -0.084720
# 5 0.001559 0.001955 0.001254 0.000000 0.022380 0.000000
# 6 0.000000 0.000000 0.000000 -0.084720 0.000000 0.010303
#
#
# Mechanical properties :
#
#
# Convention : Reuss Voigt Hill
#
# Bulk Modulus (GPa) = 31.23173 50.09787 40.66480
# Shear Modulus (GPa) = 33.96797 20.80351 27.38574
#
# Velocity S-wave (km/s) = 4.04974 3.16928 3.63626
# Velocity P-wave (km/s) = 6.07837 6.13031 6.10440
#
# Compressibility (1/GPa) = 0.03201872
#
# Stress axis : x y z
#
# Youngs Moduli (GPa) = 42.24820 40.98169 93.56994
#
# Poissons Ratio (x) = 0.16176 0.91938
# Poissons Ratio (y) = 0.16676 -0.03772
# Poissons Ratio (z) = 0.41511 -0.01652
#
# Static dielectric constant tensor:
#      x y z
#    x 1.721480 0.000000 0.018990 
#    y 0.000000 1.798510 0.000000 
#    z 0.018990 0.000000 1.811330 
# 
# From -- ./inp_files/167999.got.cif
#   From: 2010.05.17/outbox.cif.g08.bks.cpg/sg15_84_cif.got.tgz:167999.got - 2010.06.03 18:47:42.
