data_PCOD9253730
_publ_section_title
;
Structure prediction by ZEFSAII (Michael W. Deem and Ramdas Pophale) SiO2 
 PCOD9253730
Probable space group: P 21/C
;
_chemical_formula_sum "Si O2"
_cell_formula_units_Z 32
_cell_length_a 27.000000
_cell_length_b 9.000000
_cell_length_c 9.000000
_cell_angle_alpha 90.000000
_cell_angle_beta 50.000000
_cell_angle_gamma 90.000000
_cell_volume 1675.339197
_symmetry_space_group_name_H-M "P 21/C"
_symmetry_group_IT_number 14
_symmetry_cell_setting 'monoclinic'
loop_
_space_group_symop_operation_xyz
x,y,z
-x,1/2+y,1/2-z
-x,-y,-z
x,1/2-y,1/2+z
loop_
_atom_site_type_symbol
_atom_site_label
_atom_site_fract_x
_atom_site_fract_y
_atom_site_fract_z
Si Si1 0.170318 0.608542 0.234166
Si Si2 0.557860 0.861041 0.045892
Si Si3 0.294211 0.067650 0.544150
Si Si4 0.174120 0.571366 0.870185
Si Si5 0.958459 0.580536 0.955531
Si Si6 0.436016 0.052606 0.312586
Si Si7 0.700775 0.888584 0.819209
Si Si8 0.043138 0.434787 0.543489
O O1 0.236395 0.545522 0.174329
O O2 0.164317 0.775802 0.301674
O O3 0.114593 0.499748 0.398766
O O4 0.168273 0.600215 0.058746
O O5 0.557939 0.688821 0.086684
O O6 0.493022 0.937424 0.229597
O O7 0.557864 0.885798 0.868441
O O8 0.624530 0.924932 0.988396
O O9 0.362549 0.995928 0.458432
O O10 0.287585 0.222152 0.644423
O O11 0.292805 0.107196 0.371623
O O12 0.244866 0.495724 0.715903
O O13 0.115768 0.467758 0.925883
O O14 0.958673 0.757905 0.956966
O O15 0.002907 0.513544 0.745462
O O16 0.000000 0.500000 0.000000
O O17 0.000000 0.500000 0.500000
#
# Coordination Sequence:
#
# PCOD9253730 Si02
#       8
#     4   4   4   4   4   4   4   4
#     4  11  24  40  60  84 119 151 192 239 289 346
#     4   9  18  33  54  81 111 150 187 236 283 341
#     4   9  19  37  57  81 112 150 190 238 284 344
#     4  11  24  41  59  86 116 153 191 238 290 346
#     4  12  26  42  67  90 118 156 193 241 292 346
#     4   9  18  33  54  80 113 148 189 233 287 338
#     4   9  19  37  58  80 113 148 193 234 287 343
#     4  12  24  44  63  90 120 152 195 240 290 349
#
# _framework density 19.10061
#
# number of rings (size 3 to 8) (size 9 to 14) (size 15 to 20)
#    0.000    1.750    1.250    3.000    1.750    2.500 
#    0.000    0.000    0.000    0.000    0.000    0.000 
#    0.000    0.000    0.000    0.000    0.000    0.000 
#
# Total GULP energy -178163.579671 kJ/mol
# GULP energy per Si atom -5567.611865 kJ/mol
# Density = 1.905714 g / cm^3
# Si number density = 19.100610 Si / 1000 Ang^3
#
#
#
# Elastic Constant Matrix: (Units=GPa)
#
#
# Indices 1 2 3 4 5 6 
#
# 1 113.1686 53.0905 22.2937 0.0000 -19.5290 0.0000
# 2 53.0905 120.9522 23.0366 0.0000 -19.2079 0.0000
# 3 22.2937 23.0366 46.5714 0.0000 -14.2038 0.0000
# 4 0.0000 0.0000 0.0000 50.3655 0.0000 -15.6380
# 5 -19.5290 -19.2079 -14.2038 0.0000 28.5838 0.0000
# 6 0.0000 0.0000 0.0000 -15.6380 0.0000 41.5718
#
#
#
# Elastic Compliance Matrix: (Units=1/GPa)
#
#
# Indices 1 2 3 4 5 6 
#
# 1 0.011974 -0.004129 -0.002405 0.000000 0.004211 0.000000
# 2 -0.004129 0.011091 -0.002472 0.000000 0.003404 0.000000
# 3 -0.002405 -0.002472 0.026918 0.000000 0.010072 0.000000
# 4 0.000000 0.000000 0.000000 0.022481 0.000000 0.008456
# 5 0.004211 0.003404 0.010072 0.000000 0.045154 0.000000
# 6 0.000000 0.000000 0.000000 0.008456 0.000000 0.027236
#
#
# Mechanical properties :
#
#
# Convention : Reuss Voigt Hill
#
# Bulk Modulus (GPa) = 31.27740 53.05930 42.16835
# Shear Modulus (GPa) = 28.81460 36.25564 32.53512
#
# Velocity S-wave (km/s) = 3.88824 4.36149 4.13165
# Velocity P-wave (km/s) = 6.04719 7.29401 6.69967
#
# Compressibility (1/GPa) = 0.03197197
#
# Stress axis : x y z
#
# Youngs Moduli (GPa) = 83.51522 90.15974 37.14952
#
# Poissons Ratio (x) = 0.37227 0.08935
# Poissons Ratio (y) = 0.34483 0.09182
# Poissons Ratio (z) = 0.20087 0.22284
#
# Static dielectric constant tensor:
#      x y z
#    x 1.623020 0.000000 -0.020830 
#    y 0.000000 1.596960 0.000000 
#    z -0.020830 0.000000 1.688200 
# 
# From -- ./inp_files/18633.got.cif
#   From: 2010.05.17/outbox.ucp.g08.bks.cvg/sg14_10_cif.got.tgz:18633.got - 2010.06.11 12:31:08.
