data_PCOD9253866
_publ_section_title
;
Structure prediction by ZEFSAII (Michael W. Deem and Ramdas Pophale) SiO2 
 PCOD9253866
Probable space group: C 2/C
;
_chemical_formula_sum "Si O2"
_cell_formula_units_Z 48
_cell_length_a 12.338704
_cell_length_b 12.937173
_cell_length_c 13.989311
_cell_angle_alpha 90.000000
_cell_angle_beta 89.658598
_cell_angle_gamma 90.000000
_cell_volume 2233.045370
_symmetry_space_group_name_H-M "C 2/C"
_symmetry_group_IT_number 15
_symmetry_cell_setting 'monoclinic'
loop_
_space_group_symop_operation_xyz
x,y,z
-x,y,1/2-z
-x,-y,-z
x,-y,1/2+z
1/2+x,1/2+y,z
1/2-x,1/2+y,1/2-z
1/2-x,1/2-y,-z
1/2+x,1/2-y,1/2+z
loop_
_atom_site_type_symbol
_atom_site_label
_atom_site_fract_x
_atom_site_fract_y
_atom_site_fract_z
Si Si1 0.460764 0.737485 0.079820
Si Si2 0.568838 0.205830 0.130629
Si Si3 0.900407 0.016142 0.078028
Si Si4 0.354562 0.086717 0.210360
Si Si5 0.000000 0.603779 0.750000
Si Si6 0.500000 0.397996 0.250000
Si Si7 0.801484 0.853777 0.955671
O O1 0.384860 0.637635 0.092830
O O2 0.480078 0.821170 0.161004
O O3 0.578068 0.684355 0.067417
O O4 0.423292 0.790434 0.981968
O O5 0.456373 0.145246 0.156909
O O6 0.659461 0.148473 0.191200
O O7 0.559803 0.320352 0.175941
O O8 0.928938 0.967587 0.180518
O O9 0.806449 0.946506 0.032347
O O10 0.000000 0.000000 0.000000
O O11 0.257246 0.101595 0.137731
O O12 0.397312 0.974381 0.241648
O O13 0.750000 0.750000 0.000000
#
# Coordination Sequence:
#
# PCOD9253866 Si02
#       7
#     8   8   8   8   4   4   8
#     4  11  21  40  61  87 121 163 198 246 310 361
#     4   9  17  34  62  82 113 161 203 238 292 370
#     4  10  20  32  58  88 121 154 190 246 301 363
#     4   9  20  37  60  91 116 154 209 248 300 360
#     4  10  24  42  60  80 130 168 194 246 312 378
#     4  10  14  32  54  82 110 150 192 236 284 350
#     4  11  19  39  62  95 119 148 211 260 293 349
#
# _framework density 21.495308999999999
#
# number of rings (size 3 to 8) (size 9 to 14) (size 15 to 20)
#    0.000    2.333    5.000    1.500    0.000    2.667 
#    3.000    4.167    0.000    0.000    0.000    0.000 
#    0.000    0.000    0.000    0.000    0.000    0.000 
#
# Total GULP energy -133814.335776 kJ/mol
# GULP energy per Si atom -5575.597324 kJ/mol
# Density = 2.144638 g / cm^3
# Si number density = 21.495309 Si / 1000 Ang^3
#
#
#
# Elastic Constant Matrix: (Units=GPa)
#
#
# Indices 1 2 3 4 5 6 
#
# 1 41.9856 21.0779 24.7317 0.0000 14.2110 0.0000
# 2 21.0779 167.0659 98.3591 0.0000 16.7306 0.0000
# 3 24.7317 98.3591 219.4147 0.0000 51.8854 0.0000
# 4 0.0000 0.0000 0.0000 29.3470 0.0000 15.6701
# 5 14.2110 16.7306 51.8854 0.0000 38.9495 0.0000
# 6 0.0000 0.0000 0.0000 15.6701 0.0000 13.1144
#
#
#
# Elastic Compliance Matrix: (Units=1/GPa)
#
#
# Indices 1 2 3 4 5 6 
#
# 1 0.028262 -0.002803 0.000328 0.000000 -0.009544 0.000000
# 2 -0.002803 0.008517 -0.004203 0.000000 0.002963 0.000000
# 3 0.000328 -0.004203 0.008768 0.000000 -0.009994 0.000000
# 4 0.000000 0.000000 0.000000 0.094135 0.000000 -0.112480
# 5 -0.009544 0.002963 -0.009994 0.000000 0.041198 0.000000
# 6 0.000000 0.000000 0.000000 -0.112480 0.000000 0.210652
#
#
# Mechanical properties :
#
#
# Convention : Reuss Voigt Hill
#
# Bulk Modulus (GPa) = 31.06385 79.64486 55.35435
# Shear Modulus (GPa) = 12.03028 35.23532 23.63280
#
# Velocity S-wave (km/s) = 2.36830 4.05311 3.31938
# Velocity P-wave (km/s) = 4.68629 7.68350 6.36386
#
# Compressibility (1/GPa) = 0.03219176
#
# Stress axis : x y z
#
# Youngs Moduli (GPa) = 35.38292 117.41441 114.05190
#
# Poissons Ratio (x) = 0.32910 -0.03739
# Poissons Ratio (y) = 0.09918 0.47931
# Poissons Ratio (z) = -0.01160 0.49344
#
# Static dielectric constant tensor:
#      x y z
#    x 1.848790 0.000000 -0.009400 
#    y 0.000000 1.818240 0.000000 
#    z -0.009400 0.000000 1.764560 
# 
# From -- ./inp_files/152141.got.cif
#   From: 2010.05.17/outbox.cif.g08.bks.cpg/sg15_77_cif.got.tgz:152141.got - 2010.06.03 18:47:42.
