data_PCOD9253621
_publ_section_title
;
Structure prediction by ZEFSAII (Michael W. Deem and Ramdas Pophale) SiO2 
 PCOD9253621
Probable space group: P 21/C
;
_chemical_formula_sum "Si O2"
_cell_formula_units_Z 32
_cell_length_a 18.000000
_cell_length_b 12.000000
_cell_length_c 24.000000
_cell_angle_alpha 90.000000
_cell_angle_beta 20.000000
_cell_angle_gamma 90.000000
_cell_volume 1773.032423
_symmetry_space_group_name_H-M "P 21/C"
_symmetry_group_IT_number 14
_symmetry_cell_setting 'monoclinic'
loop_
_space_group_symop_operation_xyz
x,y,z
-x,1/2+y,1/2-z
-x,-y,-z
x,1/2-y,1/2+z
loop_
_atom_site_type_symbol
_atom_site_label
_atom_site_fract_x
_atom_site_fract_y
_atom_site_fract_z
Si Si1 0.482055 0.769764 0.212805
Si Si2 0.172418 0.593298 0.084330
Si Si3 0.158478 0.171809 0.397926
Si Si4 0.971177 0.906573 0.953446
Si Si5 0.136275 0.070493 0.091143
Si Si6 0.881333 0.053664 0.504425
Si Si7 0.635855 0.326917 0.582153
Si Si8 0.626647 0.034606 0.259953
O O1 0.337099 0.879935 0.325264
O O2 0.458386 0.708067 0.289896
O O3 0.414633 0.665692 0.221610
O O4 0.694258 0.826580 0.036172
O O5 0.003907 0.574622 0.253393
O O6 0.093553 0.548263 0.079554
O O7 0.214780 0.725015 0.043808
O O8 0.404818 0.530548 0.930027
O O9 0.068394 0.286313 0.488875
O O10 0.412450 0.177575 0.205940
O O11 0.049783 0.134016 0.417028
O O12 0.117243 0.068830 0.469540
O O13 0.008777 0.907179 0.861293
O O14 0.177741 0.969210 0.833698
O O15 0.746007 0.973793 0.123709
O O16 0.250494 0.947854 0.003732
#
# Coordination Sequence:
#
# PCOD9253621 Si02
#       8
#     4   4   4   4   4   4   4   4
#     4  11  20  37  63  89 118 161 215 254 295 366
#     4  11  26  41  58  89 135 167 198 249 328 377
#     4  11  19  38  67  92 118 152 223 264 304 350
#     4  11  22  38  66  95 117 159 213 262 304 360
#     4  12  25  40  63  94 126 169 205 252 319 382
#     4  10  22  38  64  92 119 163 207 268 303 362
#     4  11  22  41  63  90 121 167 209 259 302 370
#     4  11  22  39  62  92 120 159 207 263 302 361
#
# _framework density 18.048175000000001
#
# number of rings (size 3 to 8) (size 9 to 14) (size 15 to 20)
#    0.000    1.000    6.250    1.500    1.750    0.500 
#    0.000    1.875    0.000    0.000    0.000    0.000 
#    0.000    0.000    0.000    0.000    0.000    0.000 
#
# Total GULP energy -178246.284060 kJ/mol
# GULP energy per Si atom -5570.196377 kJ/mol
# Density = 1.800710 g / cm^3
# Si number density = 18.048175 Si / 1000 Ang^3
#
#
#
# Elastic Constant Matrix: (Units=GPa)
#
#
# Indices 1 2 3 4 5 6 
#
# 1 68.1395 25.2896 60.6252 0.0000 0.6467 0.0000
# 2 25.2896 98.3681 32.0884 0.0000 5.3797 0.0000
# 3 60.6252 32.0884 111.3565 0.0000 17.6488 0.0000
# 4 0.0000 0.0000 0.0000 31.3586 0.0000 -8.8347
# 5 0.6467 5.3797 17.6488 0.0000 24.8585 0.0000
# 6 0.0000 0.0000 0.0000 -8.8347 0.0000 22.2689
#
#
#
# Elastic Compliance Matrix: (Units=1/GPa)
#
#
# Indices 1 2 3 4 5 6 
#
# 1 0.032482 -0.002894 -0.018948 0.000000 0.013234 0.000000
# 2 -0.002894 0.011479 -0.001522 0.000000 -0.001329 0.000000
# 3 -0.018948 -0.001522 0.022090 0.000000 -0.014861 0.000000
# 4 0.000000 0.000000 0.000000 0.035902 0.000000 0.014243
# 5 0.013234 -0.001329 -0.014861 0.000000 0.050722 0.000000
# 6 0.000000 0.000000 0.000000 0.014243 0.000000 0.050557
#
#
# Mechanical properties :
#
#
# Convention : Reuss Voigt Hill
#
# Bulk Modulus (GPa) = 51.74824 57.09672 54.42248
# Shear Modulus (GPa) = 19.50087 26.35459 22.92773
#
# Velocity S-wave (km/s) = 3.29065 3.82545 3.56808
# Velocity P-wave (km/s) = 6.57057 7.15657 6.86982
#
# Compressibility (1/GPa) = 0.01932433
#
# Stress axis : x y z
#
# Youngs Moduli (GPa) = 30.78594 87.11608 45.27038
#
# Poissons Ratio (x) = 0.25210 0.85777
# Poissons Ratio (y) = 0.08909 0.06889
# Poissons Ratio (z) = 0.58332 0.13257
#
# Static dielectric constant tensor:
#      x y z
#    x 1.701040 0.000000 -0.065610 
#    y 0.000000 1.630570 0.000000 
#    z -0.065610 0.000000 1.622140 
# 
# From -- ./inp_files/74398.got.cif
#   From: 2010.05.17/outbox.ucp.g08.bks.cvg/sg14_38_cif.got.tgz:74398.got - 2010.06.11 12:31:08.
