data_PCOD9253012
_publ_section_title
;
Structure prediction by ZEFSAII (Michael W. Deem and Ramdas Pophale) SiO2 
 PCOD9253012
Probable space group: P 21/C
;
_chemical_formula_sum "Si O2"
_cell_formula_units_Z 12
_cell_length_a 5.131013
_cell_length_b 5.144036
_cell_length_c 20.196906
_cell_angle_alpha 90.000000
_cell_angle_beta 61.289589
_cell_angle_gamma 90.000000
_cell_volume 467.542089
_symmetry_space_group_name_H-M "P 21/C"
_symmetry_group_IT_number 14
_symmetry_cell_setting 'monoclinic'
loop_
_space_group_symop_operation_xyz
x,y,z
-x,1/2+y,1/2-z
-x,-y,-z
x,1/2-y,1/2+z
loop_
_atom_site_type_symbol
_atom_site_label
_atom_site_fract_x
_atom_site_fract_y
_atom_site_fract_z
Si Si1 0.225849 0.535273 0.625280
Si Si2 0.251956 0.316639 0.998197
Si Si3 0.306898 0.331641 0.757571
O O1 0.558048 0.647836 0.577058
O O2 0.149117 0.377395 0.568542
O O3 0.987609 0.761546 0.665831
O O4 0.218586 0.360449 0.691628
O O5 0.500000 0.500000 0.000000
O O6 0.000000 0.500000 0.000000
O O7 0.465063 0.594563 0.761088
#
# Coordination Sequence:
#
# PCOD9253012 Si02
#       3
#     4   4   4
#     4  11  30  52  78 131 166 224 290 355 426 518
#     4  11  30  53  87 120 174 226 286 350 432 510
#     4  12  30  50  88 122 174 222 288 356 436 506
#
# _framework density 25.666136999999999
#
# number of rings (size 3 to 8) (size 9 to 14) (size 15 to 20)
#    0.000    0.667    0.000    2.000   23.333    2.667 
#    0.000    5.000    0.000    0.000    0.000    0.000 
#    0.000    0.000    0.000    0.000    0.000    0.000 
#
# Total GULP energy -67497.195107 kJ/mol
# GULP energy per Si atom -5624.766259 kJ/mol
# Density = 2.560772 g / cm^3
# Si number density = 25.666137 Si / 1000 Ang^3
#
#
#
# Elastic Constant Matrix: (Units=GPa)
#
#
# Indices 1 2 3 4 5 6 
#
# 1 164.7470 50.3625 42.9288 0.0000 -15.7748 0.0000
# 2 50.3625 108.2267 31.7082 0.0000 -6.2839 0.0000
# 3 42.9288 31.7082 139.8622 0.0000 -7.0088 0.0000
# 4 0.0000 0.0000 0.0000 61.5466 0.0000 -4.7842
# 5 -15.7748 -6.2839 -7.0088 0.0000 8.6405 0.0000
# 6 0.0000 0.0000 0.0000 -4.7842 0.0000 78.6657
#
#
#
# Elastic Compliance Matrix: (Units=1/GPa)
#
#
# Indices 1 2 3 4 5 6 
#
# 1 0.008462 -0.002831 -0.001339 0.000000 0.012305 0.000000
# 2 -0.002831 0.011112 -0.001568 0.000000 0.001641 0.000000
# 3 -0.001339 -0.001568 0.008065 0.000000 0.002957 0.000000
# 4 0.000000 0.000000 0.000000 0.016325 0.000000 0.000993
# 5 0.012305 0.001641 0.002957 0.000000 0.141790 0.000000
# 6 0.000000 0.000000 0.000000 0.000993 0.000000 0.012772
#
#
# Mechanical properties :
#
#
# Convention : Reuss Voigt Hill
#
# Bulk Modulus (GPa) = 61.87100 73.64831 67.75965
# Shear Modulus (GPa) = 23.21364 48.95964 36.08664
#
# Velocity S-wave (km/s) = 3.01066 4.37230 3.75374
# Velocity P-wave (km/s) = 6.02029 7.36521 6.72645
#
# Compressibility (1/GPa) = 0.01616266
#
# Stress axis : x y z
#
# Youngs Moduli (GPa) = 118.16847 89.99282 123.99991
#
# Poissons Ratio (x) = 0.25479 0.16603
# Poissons Ratio (y) = 0.33456 0.19443
# Poissons Ratio (z) = 0.15822 0.14111
#
# Static dielectric constant tensor:
#      x y z
#    x 1.960390 0.000000 -0.009490 
#    y 0.000000 1.855060 0.000000 
#    z -0.009490 0.000000 1.998270 
# 
# From -- ./inp_files/36558.got.cif
#   From: 2010.05.17/outbox.cif.g08.bks.cpg/sg14_19_cif.got.tgz:36558.got - 2010.06.03 17:49:19.
