data_PCOD9253216
_publ_section_title
;
Structure prediction by ZEFSAII (Michael W. Deem and Ramdas Pophale) SiO2 
 PCOD9253216
Probable space group: P 21/C
;
_chemical_formula_sum "Si O2"
_cell_formula_units_Z 24
_cell_length_a 10.084034
_cell_length_b 12.136738
_cell_length_c 20.472805
_cell_angle_alpha 90.000000
_cell_angle_beta 25.666875
_cell_angle_gamma 90.000000
_cell_volume 1085.275448
_symmetry_space_group_name_H-M "P 21/C"
_symmetry_group_IT_number 14
_symmetry_cell_setting 'monoclinic'
loop_
_space_group_symop_operation_xyz
x,y,z
-x,1/2+y,1/2-z
-x,-y,-z
x,1/2-y,1/2+z
loop_
_atom_site_type_symbol
_atom_site_label
_atom_site_fract_x
_atom_site_fract_y
_atom_site_fract_z
Si Si1 0.153476 0.383354 0.280549
Si Si2 0.736356 0.908739 0.120145
Si Si3 0.307687 0.225944 0.463965
Si Si4 0.227786 0.673246 0.062476
Si Si5 0.944619 0.366918 0.712110
Si Si6 0.927262 0.010175 0.608859
O O1 0.299792 0.378908 0.287861
O O2 0.046966 0.507117 0.313797
O O3 0.873674 0.298961 0.401643
O O4 0.419787 0.349665 0.111683
O O5 0.799422 0.799989 0.049565
O O6 0.428922 0.961780 0.227776
O O7 0.000000 0.000000 0.000000
O O8 0.661359 0.193281 0.301450
O O9 0.241452 0.300279 0.556998
O O10 0.123594 0.112225 0.549101
O O11 0.137274 0.638949 0.175713
O O12 0.027987 0.598414 0.102120
O O13 0.000000 0.000000 0.500000
#
# Coordination Sequence:
#
# PCOD9253216 Si02
#       6
#     4   4   4   4   4   4
#     4  12  27  47  71 108 144 189 241 302 353 429
#     4  12  26  45  73 106 145 182 241 296 361 421
#     4  12  25  45  74 104 144 190 235 295 361 433
#     4  12  28  45  76 102 147 191 242 295 360 430
#     4  12  26  49  71 106 147 193 238 294 364 434
#     4  12  25  47  73 105 138 190 240 298 362 420
#
# _framework density 22.114201999999999
#
# number of rings (size 3 to 8) (size 9 to 14) (size 15 to 20)
#    0.000    0.000    6.667    2.500    4.667    0.000 
#    0.000    2.500    0.000    0.000    0.000    0.000 
#    0.000    0.000    0.000    0.000    0.000    0.000 
#
# Total GULP energy -134491.418030 kJ/mol
# GULP energy per Si atom -5603.809085 kJ/mol
# Density = 2.206387 g / cm^3
# Si number density = 22.114202 Si / 1000 Ang^3
#
#
#
# Elastic Constant Matrix: (Units=GPa)
#
#
# Indices 1 2 3 4 5 6 
#
# 1 70.6625 23.0433 -16.3715 0.0000 31.2965 0.0000
# 2 23.0433 146.8333 36.0204 0.0000 10.0092 0.0000
# 3 -16.3715 36.0204 53.1949 0.0000 4.8050 0.0000
# 4 0.0000 0.0000 0.0000 33.9926 0.0000 2.0989
# 5 31.2965 10.0092 4.8050 0.0000 45.7647 0.0000
# 6 0.0000 0.0000 0.0000 2.0989 0.0000 22.7575
#
#
#
# Elastic Compliance Matrix: (Units=1/GPa)
#
#
# Indices 1 2 3 4 5 6 
#
# 1 0.028667 -0.006904 0.015277 0.000000 -0.019698 0.000000
# 2 -0.006904 0.009897 -0.009144 0.000000 0.003517 0.000000
# 3 0.015277 -0.009144 0.030747 0.000000 -0.011675 0.000000
# 4 0.000000 0.000000 0.000000 0.029587 0.000000 -0.002729
# 5 -0.019698 0.003517 -0.011675 0.000000 0.035778 0.000000
# 6 0.000000 0.000000 0.000000 -0.002729 0.000000 0.044193
#
#
# Mechanical properties :
#
#
# Convention : Reuss Voigt Hill
#
# Bulk Modulus (GPa) = 14.75614 39.56391 27.16002
# Shear Modulus (GPa) = 24.63039 35.70285 30.16662
#
# Velocity S-wave (km/s) = 3.34096 4.02241 3.69742
# Velocity P-wave (km/s) = 4.64433 6.28511 5.52596
#
# Compressibility (1/GPa) = 0.06776840
#
# Stress axis : x y z
#
# Youngs Moduli (GPa) = 34.88368 101.03697 32.52362
#
# Poissons Ratio (x) = 0.69752 -0.49685
# Poissons Ratio (y) = 0.24082 0.29740
# Poissons Ratio (z) = -0.53290 0.92391
#
# Static dielectric constant tensor:
#      x y z
#    x 1.813140 0.000000 0.014150 
#    y 0.000000 1.765460 0.000000 
#    z 0.014150 0.000000 1.808040 
# 
# From -- ./inp_files/73275.got.cif
#   From: 2010.05.17/outbox.cif.g08.bks.cpg/sg14_37_cif.got.tgz:73275.got - 2010.06.03 17:49:19.
