data_PCOD9253930
_publ_section_title
;
Structure prediction by ZEFSAII (Michael W. Deem and Ramdas Pophale) SiO2 
 PCOD9253930
Probable space group: C 2/C
;
_chemical_formula_sum "Si O2"
_cell_formula_units_Z 40
_cell_length_a 13.684051
_cell_length_b 12.541606
_cell_length_c 11.336852
_cell_angle_alpha 90.000000
_cell_angle_beta 62.627040
_cell_angle_gamma 90.000000
_cell_volume 1727.782857
_symmetry_space_group_name_H-M "C 2/C"
_symmetry_group_IT_number 15
_symmetry_cell_setting 'monoclinic'
loop_
_space_group_symop_operation_xyz
x,y,z
-x,y,1/2-z
-x,-y,-z
x,-y,1/2+z
1/2+x,1/2+y,z
1/2-x,1/2+y,1/2-z
1/2-x,1/2-y,-z
1/2+x,1/2-y,1/2+z
loop_
_atom_site_type_symbol
_atom_site_label
_atom_site_fract_x
_atom_site_fract_y
_atom_site_fract_z
Si Si1 0.698341 0.643141 0.967399
Si Si2 0.830630 0.454763 0.009391
Si Si3 0.757037 0.767883 0.308006
Si Si4 0.488021 0.743426 0.124398
Si Si5 0.570350 0.894639 0.864151
O O1 0.762044 0.540278 0.975540
O O2 0.570593 0.643651 0.074960
O O3 0.750000 0.750000 0.000000
O O4 0.709173 0.660016 0.822735
O O5 0.763961 0.346871 0.071730
O O6 0.859694 0.508748 0.120213
O O7 0.951510 0.434789 0.889232
O O8 0.637733 0.720381 0.338498
O O9 0.851204 0.678717 0.258940
O O10 0.500000 0.789639 0.250000
O O11 0.535627 0.822818 0.998477
#
# Coordination Sequence:
#
# PCOD9253930 Si02
#       5
#     8   8   8   8   8
#     4  11  18  32  53  89 118 145 195 239 277 346
#     4  10  18  31  55  82 119 153 189 239 295 327
#     4  10  19  31  54  87 118 151 191 242 283 331
#     4  10  15  26  52  79 113 146 184 243 282 309
#     4   9  18  31  47  84 117 148 192 237 281 349
#
# _framework density 23.151057000000002
#
# number of rings (size 3 to 8) (size 9 to 14) (size 15 to 20)
#    0.000    2.000    6.000    0.000    0.000    0.000 
#    0.000    0.000    0.000   31.200    0.000    8.400 
#    0.000    1.600    0.000    0.000    0.000    0.000 
#
# Total GULP energy -111847.666526 kJ/mol
# GULP energy per Si atom -5592.383326 kJ/mol
# Density = 2.309836 g / cm^3
# Si number density = 23.151057 Si / 1000 Ang^3
#
#
#
# Elastic Constant Matrix: (Units=GPa)
#
#
# Indices 1 2 3 4 5 6 
#
# 1 91.4934 68.5806 27.5479 0.0000 -24.2528 0.0000
# 2 68.5806 123.2476 49.7934 0.0000 -21.8140 0.0000
# 3 27.5479 49.7934 118.2754 0.0000 -21.5807 0.0000
# 4 0.0000 0.0000 0.0000 37.0656 0.0000 -12.1718
# 5 -24.2528 -21.8140 -21.5807 0.0000 38.0165 0.0000
# 6 0.0000 0.0000 0.0000 -12.1718 0.0000 51.0154
#
#
#
# Elastic Compliance Matrix: (Units=1/GPa)
#
#
# Indices 1 2 3 4 5 6 
#
# 1 0.020492 -0.010464 0.001029 0.000000 0.007653 0.000000
# 2 -0.010464 0.015596 -0.004143 0.000000 -0.000078 0.000000
# 3 0.001029 -0.004143 0.010760 0.000000 0.004387 0.000000
# 4 0.000000 0.000000 0.000000 0.029273 0.000000 0.006984
# 5 0.007653 -0.000078 0.004387 0.000000 0.033632 0.000000
# 6 0.000000 0.000000 0.000000 0.006984 0.000000 0.021268
#
#
# Mechanical properties :
#
#
# Convention : Reuss Voigt Hill
#
# Bulk Modulus (GPa) = 50.78246 69.42891 60.10568
# Shear Modulus (GPa) = 30.35060 37.69245 34.02152
#
# Velocity S-wave (km/s) = 3.62468 4.03936 3.83762
# Velocity P-wave (km/s) = 6.28495 7.19791 6.75687
#
# Compressibility (1/GPa) = 0.01969184
#
# Stress axis : x y z
#
# Youngs Moduli (GPa) = 48.79974 64.11783 92.93748
#
# Poissons Ratio (x) = 0.67091 -0.09560
# Poissons Ratio (y) = 0.51063 0.38505
# Poissons Ratio (z) = -0.05020 0.26564
#
# Static dielectric constant tensor:
#      x y z
#    x 1.909180 0.000000 0.041340 
#    y 0.000000 1.865470 0.000000 
#    z 0.041340 0.000000 1.931870 
# 
# From -- ./inp_files/151661.got.cif
#   From: 2010.05.17/outbox.cif.g08.bks.cpg/sg15_76_cif.got.tgz:151661.got - 2010.06.03 18:47:42.
