data_PCOD9253722
_publ_section_title
;
Structure prediction by ZEFSAII (Michael W. Deem and Ramdas Pophale) SiO2 
 PCOD9253722
Probable space group: P 21/C
;
_chemical_formula_sum "Si O2"
_cell_formula_units_Z 28
_cell_length_a 30.000000
_cell_length_b 9.000000
_cell_length_c 30.000000
_cell_angle_alpha 90.000000
_cell_angle_beta 10.000000
_cell_angle_gamma 90.000000
_cell_volume 1406.550239
_symmetry_space_group_name_H-M "P 21/C"
_symmetry_group_IT_number 14
_symmetry_cell_setting 'monoclinic'
loop_
_space_group_symop_operation_xyz
x,y,z
-x,1/2+y,1/2-z
-x,-y,-z
x,1/2-y,1/2+z
loop_
_atom_site_type_symbol
_atom_site_label
_atom_site_fract_x
_atom_site_fract_y
_atom_site_fract_z
Si Si1 0.055375 0.458880 0.059458
Si Si2 0.549298 0.229843 0.042288
Si Si3 0.925495 0.812511 0.186932
Si Si4 0.281609 0.406779 0.460249
Si Si5 0.546716 0.471412 0.805143
Si Si6 0.783790 0.556873 0.996522
Si Si7 0.239507 0.976403 0.730510
O O1 0.282306 0.371577 0.806650
O O2 0.143926 0.438691 0.022973
O O3 0.780403 0.377961 0.328099
O O4 0.990016 0.636417 0.117050
O O5 0.690147 0.317448 0.861959
O O6 0.499104 0.371825 0.124028
O O7 0.707938 0.865543 0.438053
O O8 0.807565 0.895827 0.260028
O O9 0.201937 0.888366 0.923465
O O10 0.368571 0.480197 0.327685
O O11 0.257023 0.227775 0.479681
O O12 0.015082 0.477109 0.741138
O O13 0.523911 0.459013 0.250942
O O14 0.500000 0.000000 0.500000
O O15 0.000000 0.000000 0.000000
#
# Coordination Sequence:
#
# PCOD9253722 Si02
#       7
#     4   4   4   4   4   4   4
#     4  12  25  45  64 101 134 178 225 276 330 396
#     4  11  23  44  72  93 134 180 218 268 336 406
#     4  11  25  42  72  98 135 174 224 271 330 402
#     4  12  27  44  63  96 131 176 231 281 339 372
#     4  11  23  44  66  93 128 184 227 267 324 404
#     4  12  28  43  66  93 138 176 229 285 332 384
#     4  11  23  44  72 104 132 169 219 271 332 415
#
# _framework density 19.906860999999999
#
# number of rings (size 3 to 8) (size 9 to 14) (size 15 to 20)
#    0.000    0.571    1.429    7.714    8.000    0.000 
#    0.000    4.286    0.000    0.000    0.000    0.000 
#    0.000    0.000    0.000    0.000    0.000    0.000 
#
# Total GULP energy -156182.371680 kJ/mol
# GULP energy per Si atom -5577.941846 kJ/mol
# Density = 1.986155 g / cm^3
# Si number density = 19.906861 Si / 1000 Ang^3
#
#
#
# Elastic Constant Matrix: (Units=GPa)
#
#
# Indices 1 2 3 4 5 6 
#
# 1 51.4017 19.0923 16.9203 0.0000 0.9757 0.0000
# 2 19.0923 167.7071 62.1117 0.0000 -14.4658 0.0000
# 3 16.9203 62.1117 179.6927 0.0000 -4.2813 0.0000
# 4 0.0000 0.0000 0.0000 55.8142 0.0000 -3.3727
# 5 0.9757 -14.4658 -4.2813 0.0000 43.7262 0.0000
# 6 0.0000 0.0000 0.0000 -3.3727 0.0000 22.0314
#
#
#
# Elastic Compliance Matrix: (Units=1/GPa)
#
#
# Indices 1 2 3 4 5 6 
#
# 1 0.020638 -0.001979 -0.001289 0.000000 -0.001241 0.000000
# 2 -0.001979 0.007214 -0.002254 0.000000 0.002210 0.000000
# 3 -0.001289 -0.002254 0.006464 0.000000 -0.000084 0.000000
# 4 0.000000 0.000000 0.000000 0.018084 0.000000 0.002768
# 5 -0.001241 0.002210 -0.000084 0.000000 0.023620 0.000000
# 6 0.000000 0.000000 0.000000 0.002768 0.000000 0.045813
#
#
# Mechanical properties :
#
#
# Convention : Reuss Voigt Hill
#
# Bulk Modulus (GPa) = 42.97359 66.11667 54.54513
# Shear Modulus (GPa) = 35.55333 44.35952 39.95642
#
# Velocity S-wave (km/s) = 4.23067 4.72566 4.48500
# Velocity P-wave (km/s) = 6.74529 7.94109 7.36750
#
# Compressibility (1/GPa) = 0.02327011
#
# Stress axis : x y z
#
# Youngs Moduli (GPa) = 48.45535 138.62587 154.71131
#
# Poissons Ratio (x) = 0.27437 0.19938
# Poissons Ratio (y) = 0.09590 0.34878
# Poissons Ratio (z) = 0.06245 0.31252
#
# Static dielectric constant tensor:
#      x y z
#    x 1.791660 0.000000 0.000210 
#    y 0.000000 1.738350 0.000000 
#    z 0.000210 0.000000 1.708440 
# 
# From -- ./inp_files/80877.got.cif
#   From: 2010.05.17/outbox.ucp.g08.bks.cvg/sg14_41_cif.got.tgz:80877.got - 2010.06.11 12:31:08.
