data_PCOD9253984
_publ_section_title
;
Structure prediction by ZEFSAII (Michael W. Deem and Ramdas Pophale) SiO2 
 PCOD9253984
Probable space group: C 2/C
;
_chemical_formula_sum "Si O2"
_cell_formula_units_Z 60
_cell_length_a 7.439893
_cell_length_b 18.218161
_cell_length_c 25.253282
_cell_angle_alpha 90.000000
_cell_angle_beta 58.452373
_cell_angle_gamma 90.000000
_cell_volume 2916.979715
_symmetry_space_group_name_H-M "C 2/C"
_symmetry_group_IT_number 15
_symmetry_cell_setting 'monoclinic'
loop_
_space_group_symop_operation_xyz
x,y,z
-x,y,1/2-z
-x,-y,-z
x,-y,1/2+z
1/2+x,1/2+y,z
1/2-x,1/2+y,1/2-z
1/2-x,1/2-y,-z
1/2+x,1/2-y,1/2+z
loop_
_atom_site_type_symbol
_atom_site_label
_atom_site_fract_x
_atom_site_fract_y
_atom_site_fract_z
Si Si1 0.332809 0.433410 0.522010
Si Si2 0.200542 0.852800 0.421805
Si Si3 0.740644 0.575586 0.197341
Si Si4 0.217303 0.696143 0.394330
Si Si5 0.972687 0.463051 0.095594
Si Si6 0.000000 0.630798 0.250000
Si Si7 0.486151 0.179104 0.536082
Si Si8 0.339249 0.678539 0.116544
O O1 0.500000 0.500000 0.500000
O O2 0.460044 0.378187 0.464075
O O3 0.114197 0.474985 0.544885
O O4 0.311459 0.389282 0.580464
O O5 0.226966 0.782802 0.380669
O O6 0.288110 0.823288 0.465928
O O7 0.363310 0.920242 0.390082
O O8 0.500000 0.581723 0.250000
O O9 0.810728 0.645544 0.151663
O O10 0.792981 0.504234 0.154925
O O11 0.870994 0.579337 0.230648
O O12 0.437375 0.672495 0.387542
O O13 0.036598 0.685849 0.466645
O O14 0.103453 0.600435 0.932030
O O15 0.159395 0.677432 0.188929
O O16 0.354606 0.246441 0.580174
#
# Coordination Sequence:
#
# PCOD9253984 Si02
#       8
#     8   8   8   8   8   4   8   8
#     4  10  15  29  60  95 126 159 202 255 315 382
#     4   8  16  31  60  93 129 157 194 256 330 374
#     4  12  26  42  65  91 126 177 222 264 316 390
#     4  11  18  36  67  98 121 163 215 260 324 386
#     4   9  20  35  57  93 132 158 204 262 321 379
#     4  12  26  44  62  88 132 174 226 258 312 388
#     4   9  18  34  62  97 127 160 202 272 329 377
#     4  11  18  37  65  89 126 172 207 258 318 381
#
# _framework density 20.569220999999999
#
# number of rings (size 3 to 8) (size 9 to 14) (size 15 to 20)
#    0.800    1.067    5.333    0.800    0.000    0.533 
#    1.200    2.667    4.400    1.600    0.000    0.000 
#    0.000    0.000    0.000    0.000    0.000    0.000 
#
# Total GULP energy -167363.593213 kJ/mol
# GULP energy per Si atom -5578.786440 kJ/mol
# Density = 2.052240 g / cm^3
# Si number density = 20.569221 Si / 1000 Ang^3
#
#
#
# Elastic Constant Matrix: (Units=GPa)
#
#
# Indices 1 2 3 4 5 6 
#
# 1 39.1963 9.8853 10.2877 0.0000 10.4509 0.0000
# 2 9.8853 121.0672 41.9168 0.0000 6.3724 0.0000
# 3 10.2877 41.9168 107.2787 0.0000 -8.6272 0.0000
# 4 0.0000 0.0000 0.0000 9.1407 0.0000 8.5803
# 5 10.4509 6.3724 -8.6272 0.0000 20.4117 0.0000
# 6 0.0000 0.0000 0.0000 8.5803 0.0000 3.2224
#
#
#
# Elastic Compliance Matrix: (Units=1/GPa)
#
#
# Indices 1 2 3 4 5 6 
#
# 1 0.031488 -0.000092 -0.004428 0.000000 -0.017965 0.000000
# 2 -0.000092 0.010013 -0.004297 0.000000 -0.004895 0.000000
# 3 -0.004428 -0.004297 0.012128 0.000000 0.008735 0.000000
# 4 0.000000 0.000000 0.000000 -0.072960 0.000000 0.194271
# 5 -0.017965 -0.004895 0.008735 0.000000 0.063410 -0.000001
# 6 0.000000 0.000000 0.000000 0.194271 -0.000001 -0.206959
#
#
# Mechanical properties :
#
#
# Convention : Reuss Voigt Hill
#
# Bulk Modulus (GPa) = 27.78292 43.52465 35.65379
# Shear Modulus (GPa) = -37.52402 20.25180 -8.63611
#
# Velocity S-wave (km/s) = -4.27579 3.14119 -2.05126
# Velocity P-wave (km/s) = 3.29244 5.86192 3.42943
#
# Compressibility (1/GPa) = 0.03599334
#
# Stress axis : x y z
#
# Youngs Moduli (GPa) = 31.75791 99.87198 82.45662
#
# Poissons Ratio (x) = 0.00922 0.36514
# Poissons Ratio (y) = 0.00293 0.35432
# Poissons Ratio (z) = 0.14063 0.42916
#
# Static dielectric constant tensor:
#      x y z
#    x 1.806080 0.000000 0.006140 
#    y 0.000000 1.763560 0.000000 
#    z 0.006140 0.000000 1.721960 
# 
# From -- ./inp_files/289579.got.cif
#   From: 2010.05.17/outbox.cif.g08.bks.cpg/sg15_145_cif.got.tgz:289579.got - 2010.06.03 18:47:42.
