data_PCOD9253901
_publ_section_title
;
Structure prediction by ZEFSAII (Michael W. Deem and Ramdas Pophale) SiO2 
 PCOD9253901
Probable space group: C 2/C
;
_chemical_formula_sum "Si O2"
_cell_formula_units_Z 52
_cell_length_a 7.005921
_cell_length_b 28.247773
_cell_length_c 11.092666
_cell_angle_alpha 90.000000
_cell_angle_beta 75.165947
_cell_angle_gamma 90.000000
_cell_volume 2122.092231
_symmetry_space_group_name_H-M "C 2/C"
_symmetry_group_IT_number 15
_symmetry_cell_setting 'monoclinic'
loop_
_space_group_symop_operation_xyz
x,y,z
-x,y,1/2-z
-x,-y,-z
x,-y,1/2+z
1/2+x,1/2+y,z
1/2-x,1/2+y,1/2-z
1/2-x,1/2-y,-z
1/2+x,1/2-y,1/2+z
loop_
_atom_site_type_symbol
_atom_site_label
_atom_site_fract_x
_atom_site_fract_y
_atom_site_fract_z
Si Si1 0.000000 0.930386 0.750000
Si Si2 0.833261 0.734874 0.188868
Si Si3 0.712406 0.812414 0.043344
Si Si4 0.284701 0.490435 0.979498
Si Si5 0.251447 0.591427 0.649694
Si Si6 0.643499 0.344112 0.889882
Si Si7 0.764736 0.093757 0.926114
O O1 0.160886 0.962900 0.654033
O O2 0.093309 0.893506 0.830044
O O3 0.704546 0.778147 0.159651
O O4 0.738464 0.692657 0.281740
O O5 0.000000 0.754992 0.250000
O O6 0.896798 0.710931 0.051938
O O7 0.666563 0.865397 0.086919
O O8 0.943759 0.818303 0.966351
O O9 0.192309 0.542182 0.981537
O O10 0.500000 0.500000 0.000000
O O11 0.189083 0.456454 0.093836
O O12 0.208344 0.597156 0.796327
O O13 0.492793 0.592927 0.607457
O O14 0.777101 0.362322 0.979159
#
# Coordination Sequence:
#
# PCOD9253901 Si02
#       7
#     4   8   8   8   8   8   8
#     4  12  16  28  52  78 116 144 180 228 288 338
#     4  11  24  38  59  82 111 147 197 239 284 340
#     4  10  21  40  58  82 110 150 190 235 290 331
#     4  10  15  24  43  80 116 141 171 225 282 339
#     4   9  16  30  47  74 114 145 169 226 282 333
#     4  11  20  37  56  80 113 151 186 235 285 338
#     4   9  18  26  48  80 118 142 178 220 291 339
#
# _framework density 24.504117000000001
#
# number of rings (size 3 to 8) (size 9 to 14) (size 15 to 20)
#    0.000    1.846    6.154    1.846    4.308    0.615 
#    0.000    0.000    0.000    0.000    0.000    4.308 
#    0.000    0.000    0.000    0.000    0.000    0.000 
#
# Total GULP energy -145305.463910 kJ/mol
# GULP energy per Si atom -5588.671689 kJ/mol
# Density = 2.444834 g / cm^3
# Si number density = 24.504117 Si / 1000 Ang^3
#
#
#
# Elastic Constant Matrix: (Units=GPa)
#
#
# Indices 1 2 3 4 5 6 
#
# 1 60.3384 11.9514 30.4484 0.0000 4.8893 0.0000
# 2 11.9514 96.3846 39.9646 0.0000 -15.1937 0.0000
# 3 30.4484 39.9646 149.5540 0.0000 16.4280 0.0000
# 4 0.0000 0.0000 0.0000 37.5565 0.0000 10.0869
# 5 4.8893 -15.1937 16.4280 0.0000 19.7160 0.0000
# 6 0.0000 0.0000 0.0000 10.0869 0.0000 9.9156
#
#
#
# Elastic Compliance Matrix: (Units=1/GPa)
#
#
# Indices 1 2 3 4 5 6 
#
# 1 0.018679 -0.001599 -0.003007 0.000000 -0.003359 0.000000
# 2 -0.001599 0.015691 -0.005767 0.000000 0.017293 0.000000
# 3 -0.003007 -0.005767 0.010178 0.000000 -0.012179 0.000000
# 4 0.000000 0.000000 0.000000 0.036636 0.000000 -0.037270
# 5 -0.003359 0.017293 -0.012179 0.000000 0.075028 0.000000
# 6 0.000000 0.000000 0.000000 -0.037270 0.000000 0.138765
#
#
# Mechanical properties :
#
#
# Convention : Reuss Voigt Hill
#
# Bulk Modulus (GPa) = 42.01307 52.33400 47.17353
# Shear Modulus (GPa) = 15.44846 28.36511 21.90679
#
# Velocity S-wave (km/s) = 2.51359 3.40599 2.99323
# Velocity P-wave (km/s) = 5.06031 6.07217 5.58919
#
# Compressibility (1/GPa) = 0.02380212
#
# Stress axis : x y z
#
# Youngs Moduli (GPa) = 53.53495 63.73231 98.25501
#
# Poissons Ratio (x) = 0.10191 0.29543
# Poissons Ratio (y) = 0.08560 0.56664
# Poissons Ratio (z) = 0.16097 0.36754
#
# Static dielectric constant tensor:
#      x y z
#    x 2.084290 0.000000 -0.107740 
#    y 0.000000 1.922830 0.000000 
#    z -0.107740 0.000000 2.066910 
# 
# From -- ./inp_files/81847.got.cif
#   From: 2010.05.17/outbox.cif.g08.bks.cpg/sg15_41_cif.got.tgz:81847.got - 2010.06.03 18:47:42.
