data_PCOD9253663
_publ_section_title
;
Structure prediction by ZEFSAII (Michael W. Deem and Ramdas Pophale) SiO2 
 PCOD9253663
Probable space group: P 21/C
;
_chemical_formula_sum "Si O2"
_cell_formula_units_Z 32
_cell_length_a 30.000000
_cell_length_b 12.000000
_cell_length_c 24.000000
_cell_angle_alpha 90.000000
_cell_angle_beta 10.000000
_cell_angle_gamma 90.000000
_cell_volume 1500.320255
_symmetry_space_group_name_H-M "P 21/C"
_symmetry_group_IT_number 14
_symmetry_cell_setting 'monoclinic'
loop_
_space_group_symop_operation_xyz
x,y,z
-x,1/2+y,1/2-z
-x,-y,-z
x,1/2-y,1/2+z
loop_
_atom_site_type_symbol
_atom_site_label
_atom_site_fract_x
_atom_site_fract_y
_atom_site_fract_z
Si Si1 0.418634 0.599113 0.758806
Si Si2 0.111323 0.094406 0.250937
Si Si3 0.880217 0.858257 0.527133
Si Si4 0.757941 0.860257 0.548038
Si Si5 0.090242 0.614205 0.276922
Si Si6 0.641712 0.286389 0.281594
Si Si7 0.225510 0.550702 0.398443
Si Si8 0.574213 0.610841 0.750891
O O1 0.419893 0.469139 0.740275
O O2 0.318187 0.670198 0.830783
O O3 0.697595 0.634399 0.436392
O O4 0.239683 0.613124 0.033236
O O5 0.881788 0.179307 0.523546
O O6 0.016795 0.969714 0.379551
O O7 0.257721 0.086784 0.011322
O O8 0.867286 0.861839 0.475917
O O9 0.003779 0.740911 0.391748
O O10 0.596386 0.853595 0.901047
O O11 0.623625 0.741437 0.703435
O O12 0.985161 0.885416 0.224183
O O13 0.874434 0.521690 0.530558
O O14 0.286047 0.586232 0.085304
O O15 0.597761 0.154303 0.336039
O O16 0.339381 0.466272 0.304201
#
# Coordination Sequence:
#
# PCOD9253663 Si02
#       8
#     4   4   4   4   4   4   4   4
#     4  10  23  40  65  91 120 156 206 259 303 353
#     4  11  22  40  64  92 121 158 201 257 307 356
#     4  12  23  40  64  88 128 165 199 247 304 367
#     4  11  20  40  66  90 118 158 204 257 306 350
#     4  10  23  41  64  93 117 157 210 257 301 352
#     4  12  25  41  58  91 130 166 199 240 305 373
#     4  11  22  40  64  87 122 160 201 253 302 358
#     4  11  21  40  69  92 117 153 211 262 299 350
#
# _framework density 21.328779999999998
#
# number of rings (size 3 to 8) (size 9 to 14) (size 15 to 20)
#    0.000    1.000    5.000    2.625    0.000    2.000 
#    2.250    0.625    0.000    0.000    0.000    0.000 
#    0.000    0.000    0.000    0.000    0.000    0.000 
#
# Total GULP energy -178929.723685 kJ/mol
# GULP energy per Si atom -5591.553865 kJ/mol
# Density = 2.128023 g / cm^3
# Si number density = 21.328780 Si / 1000 Ang^3
#
#
#
# Elastic Constant Matrix: (Units=GPa)
#
#
# Indices 1 2 3 4 5 6 
#
# 1 13.2093 29.8590 10.3935 0.0000 -32.6718 0.0000
# 2 29.8590 124.8356 18.0762 0.0000 -22.1381 0.0000
# 3 10.3935 18.0762 27.0033 0.0000 -19.5909 0.0000
# 4 0.0000 0.0000 0.0000 29.3195 0.0000 -1.9077
# 5 -32.6718 -22.1381 -19.5909 0.0000 30.8241 0.0000
# 6 0.0000 0.0000 0.0000 -1.9077 0.0000 12.7429
#
#
#
# Elastic Compliance Matrix: (Units=1/GPa)
#
#
# Indices 1 2 3 4 5 6 
#
# 1 -0.033776 0.002897 -0.024871 0.000000 -0.049528 0.000000
# 2 0.002897 0.009025 -0.000420 0.000000 0.009286 0.000000
# 3 -0.024871 -0.000420 0.051108 0.000000 0.005820 0.000000
# 4 0.000000 0.000000 0.000000 0.034443 0.000000 0.005156
# 5 -0.049528 0.009286 0.005820 0.000000 -0.009686 0.000000
# 6 0.000000 0.000000 0.000000 0.005156 0.000000 0.079247
#
#
# Mechanical properties :
#
#
# Convention : Reuss Voigt Hill
#
# Bulk Modulus (GPa) = -54.25841 31.30062 -11.47889
# Shear Modulus (GPa) = 29.58503 21.69192 25.63848
#
# Velocity S-wave (km/s) = 3.72841 3.19254 3.47084
# Velocity P-wave (km/s) = 2.63809 5.31949 3.26630
#
# Compressibility (1/GPa) = -0.01843032
#
# Stress axis : x y z
#
# Youngs Moduli (GPa) = -29.60651 110.80207 19.56627
#
# Poissons Ratio (x) = -0.32100 0.48664
# Poissons Ratio (y) = 0.08577 0.00821
# Poissons Ratio (z) = -0.73635 0.04649
#
# Static dielectric constant tensor:
#      x y z
#    x 1.716480 0.000000 -0.001240 
#    y 0.000000 1.754470 0.000000 
#    z -0.001240 0.000000 1.833590 
# 
# From -- ./inp_files/75321.got.cif
#   From: 2010.05.17/outbox.ucp.g08.bks.cvg/sg14_38_cif.got.tgz:75321.got - 2010.06.11 12:31:08.
