data_PCOD9253184
_publ_section_title
;
Structure prediction by ZEFSAII (Michael W. Deem and Ramdas Pophale) SiO2 
 PCOD9253184
Probable space group: P 21/C
;
_chemical_formula_sum "Si O2"
_cell_formula_units_Z 14
_cell_length_a 5.469153
_cell_length_b 5.204396
_cell_length_c 18.876507
_cell_angle_alpha 90.000000
_cell_angle_beta 96.276621
_cell_angle_gamma 90.000000
_cell_volume 534.073333
_symmetry_space_group_name_H-M "P 21/C"
_symmetry_group_IT_number 14
_symmetry_cell_setting 'monoclinic'
loop_
_space_group_symop_operation_xyz
x,y,z
-x,1/2+y,1/2-z
-x,-y,-z
x,1/2-y,1/2+z
loop_
_atom_site_type_symbol
_atom_site_label
_atom_site_fract_x
_atom_site_fract_y
_atom_site_fract_z
Si Si1 0.404236 0.645104 0.905977
Si Si2 0.831691 0.143138 0.751037
Si Si3 0.709269 0.362865 0.409074
Si Si4 0.000000 0.000000 0.500000
O O1 0.350396 0.661130 0.820983
O O2 0.536204 0.376171 0.925968
O O3 0.600499 0.867093 0.930897
O O4 0.154288 0.654065 0.941946
O O5 0.710926 0.129962 0.824072
O O6 0.005155 0.390740 0.754183
O O7 0.965179 0.251899 0.445349
#
# Coordination Sequence:
#
# PCOD9253184 Si02
#       4
#     4   4   4   2
#     4  12  27  48  76 111 151 202 258 314 385 459
#     4  12  24  48  78 108 148 200 258 320 380 450
#     4  12  27  48  76 111 151 202 258 314 385 459
#     4  12  28  50  76 112 162 198 250 318 386 470
#
# _framework density 26.213628
#
# number of rings (size 3 to 8) (size 9 to 14) (size 15 to 20)
#    0.000    0.000    2.857    6.857    0.000    2.286 
#    0.000    0.000    0.000    0.000    0.000    0.000 
#    0.000    0.000    0.000    0.000    0.000    0.000 
#
# Total GULP energy -78129.645675 kJ/mol
# GULP energy per Si atom -5580.688977 kJ/mol
# Density = 2.615396 g / cm^3
# Si number density = 26.213628 Si / 1000 Ang^3
#
#
#
# Elastic Constant Matrix: (Units=GPa)
#
#
# Indices 1 2 3 4 5 6 
#
# 1 13.4180 213.3167 12.1018 0.0000 4.0739 0.0000
# 2 213.3167 -79.0521 60.9853 0.0000 -21.8244 0.0000
# 3 12.1018 60.9853 180.7907 0.0000 -19.9084 0.0000
# 4 0.0000 0.0000 0.0000 31.5025 0.0000 10.5203
# 5 4.0739 -21.8244 -19.9084 0.0000 57.6075 0.0000
# 6 0.0000 0.0000 0.0000 10.5203 0.0000 63.0696
#
#
#
# Elastic Compliance Matrix: (Units=1/GPa)
#
#
# Indices 1 2 3 4 5 6 
#
# 1 0.002273 0.004616 -0.001595 0.000000 0.001037 0.000000
# 2 0.004616 -0.000265 -0.000277 0.000000 -0.000522 0.000000
# 3 -0.001595 -0.000277 0.005959 0.000000 0.002067 0.000000
# 4 0.000000 0.000000 0.000000 0.033616 0.000000 -0.005607
# 5 0.001037 -0.000522 0.002067 0.000000 0.017802 0.000000
# 6 0.000000 0.000000 0.000000 -0.005607 0.000000 0.016791
#
#
# Mechanical properties :
#
#
# Convention : Reuss Voigt Hill
#
# Bulk Modulus (GPa) = 74.32749 76.44047 75.38398
# Shear Modulus (GPa) = 66.51263 19.01945 42.76604
#
# Velocity S-wave (km/s) = 5.04266 2.69654 4.04349
# Velocity P-wave (km/s) = 7.89434 6.23851 7.11476
#
# Compressibility (1/GPa) = 0.01345397
#
# Stress axis : x y z
#
# Youngs Moduli (GPa) = 440.04122 -3778.94006 167.80862
#
# Poissons Ratio (x) = 17.44209 0.26764
# Poissons Ratio (y) = -2.03106 0.04652
# Poissons Ratio (z) = 0.70183 -1.04764
#
# Static dielectric constant tensor:
#      x y z
#    x 2.280280 0.000000 0.116600 
#    y 0.000000 1.970320 0.000000 
#    z 0.116600 0.000000 2.083290 
# 
# From -- ./inp_files/52374.got.cif
#   From: 2010.05.17/outbox.cif.g08.bks.cpg/sg14_27_cif.got.tgz:52374.got - 2010.06.03 17:49:19.
