data_PCOD9253934
_publ_section_title
;
Structure prediction by ZEFSAII (Michael W. Deem and Ramdas Pophale) SiO2 
 PCOD9253934
Probable space group: C 2/C
;
_chemical_formula_sum "Si O2"
_cell_formula_units_Z 48
_cell_length_a 29.515823
_cell_length_b 15.546960
_cell_length_c 5.409973
_cell_angle_alpha 90.000000
_cell_angle_beta 55.247285
_cell_angle_gamma 90.000000
_cell_volume 2039.700677
_symmetry_space_group_name_H-M "C 2/C"
_symmetry_group_IT_number 15
_symmetry_cell_setting 'monoclinic'
loop_
_space_group_symop_operation_xyz
x,y,z
-x,y,1/2-z
-x,-y,-z
x,-y,1/2+z
1/2+x,1/2+y,z
1/2-x,1/2+y,1/2-z
1/2-x,1/2-y,-z
1/2+x,1/2-y,1/2+z
loop_
_atom_site_type_symbol
_atom_site_label
_atom_site_fract_x
_atom_site_fract_y
_atom_site_fract_z
Si Si1 0.562190 0.029650 0.001861
Si Si2 0.754950 0.144903 0.989902
Si Si3 0.789168 0.665232 0.873240
Si Si4 0.059833 0.107913 0.644157
Si Si5 0.383495 0.372068 0.028015
Si Si6 0.089746 0.718791 0.863444
O O1 0.500000 0.997166 0.250000
O O2 0.589119 0.019900 0.188498
O O3 0.560363 0.128676 0.927798
O O4 0.725455 0.116489 0.831099
O O5 0.819264 0.121674 0.786614
O O6 0.750000 0.250000 0.000000
O O7 0.725938 0.115362 0.330230
O O8 0.851039 0.698864 0.700364
O O9 0.750000 0.750000 0.000000
O O10 0.080466 0.092796 0.857266
O O11 0.058587 0.212216 0.628618
O O12 0.000000 0.074516 0.750000
O O13 0.101929 0.087966 0.286762
O O14 0.398563 0.271814 0.925089
#
# Coordination Sequence:
#
# PCOD9253934 Si02
#       6
#     8   8   8   8   8   8
#     4  10  23  39  49  60  80 110 152 202 241 264
#     4  10  15  27  38  60  86 103 118 153 203 272
#     4  10  17  26  43  64  87 101 123 158 216 279
#     4  10  19  29  39  59  78 103 138 178 205 250
#     4  10  19  27  43  60  81 106 131 162 222 263
#     4  10  21  29  50  62  80 106 139 174 237 275
#
# _framework density 23.532865000000001
#
# number of rings (size 3 to 8) (size 9 to 14) (size 15 to 20)
#    1.000    1.000    3.333    4.000    2.333    0.000 
#    3.000    0.000    0.000    0.000    0.000    0.000 
#    0.000    0.000    0.000    0.000    0.000    0.000 
#
# Total GULP energy -133867.843904 kJ/mol
# GULP energy per Si atom -5577.826829 kJ/mol
# Density = 2.347930 g / cm^3
# Si number density = 23.532865 Si / 1000 Ang^3
#
#
#
# Elastic Constant Matrix: (Units=GPa)
#
#
# Indices 1 2 3 4 5 6 
#
# 1 139.7199 6.9961 60.7119 0.0000 27.3382 0.0000
# 2 6.9961 87.0712 11.0591 0.0000 4.8490 0.0000
# 3 60.7119 11.0591 94.0038 0.0000 39.3947 0.0000
# 4 0.0000 0.0000 0.0000 103.7229 0.0000 95.7122
# 5 27.3382 4.8490 39.3947 0.0000 60.6434 0.0000
# 6 0.0000 0.0000 0.0000 95.7122 0.0000 98.8381
#
#
#
# Elastic Compliance Matrix: (Units=1/GPa)
#
#
# Indices 1 2 3 4 5 6 
#
# 1 0.009957 0.000018 -0.006254 0.000000 -0.000428 0.000000
# 2 0.000018 0.011659 -0.001359 0.000000 -0.000057 0.000000
# 3 -0.006254 -0.001359 0.018701 0.000000 -0.009220 0.000000
# 4 0.000000 0.000000 0.000000 0.090598 0.000000 -0.087733
# 5 -0.000428 -0.000057 -0.009220 0.000000 0.022677 0.000000
# 6 0.000000 0.000000 0.000000 -0.087733 0.000000 0.095076
#
#
# Mechanical properties :
#
#
# Convention : Reuss Voigt Hill
#
# Bulk Modulus (GPa) = 39.79719 53.14768 46.47243
# Shear Modulus (GPa) = 18.36651 68.77608 43.57130
#
# Velocity S-wave (km/s) = 2.79671 5.41193 4.30758
# Velocity P-wave (km/s) = 5.23228 7.85401 6.67316
#
# Compressibility (1/GPa) = 0.02512740
#
# Stress axis : x y z
#
# Youngs Moduli (GPa) = 100.42782 85.76885 53.47366
#
# Poissons Ratio (x) = -0.00155 0.33441
# Poissons Ratio (y) = -0.00181 0.07269
# Poissons Ratio (z) = 0.62806 0.11658
#
# Static dielectric constant tensor:
#      x y z
#    x 1.919400 0.000000 0.063050 
#    y 0.000000 1.922190 0.000000 
#    z 0.063050 0.000000 1.915530 
# 
# From -- ./inp_files/18637.got.cif
#   From: 2010.05.17/outbox.cif.g08.bks.cpg/sg15_10_cif.got.tgz:18637.got - 2010.06.03 18:47:42.
