data_PCOD9253159
_publ_section_title
;
Structure prediction by ZEFSAII (Michael W. Deem and Ramdas Pophale) SiO2 
 PCOD9253159
Probable space group: P 21/C
;
_chemical_formula_sum "Si O2"
_cell_formula_units_Z 32
_cell_length_a 12.309975
_cell_length_b 8.655522
_cell_length_c 17.815983
_cell_angle_alpha 90.000000
_cell_angle_beta 129.544068
_cell_angle_gamma 90.000000
_cell_volume 1463.830231
_symmetry_space_group_name_H-M "P 21/C"
_symmetry_group_IT_number 14
_symmetry_cell_setting 'monoclinic'
loop_
_space_group_symop_operation_xyz
x,y,z
-x,1/2+y,1/2-z
-x,-y,-z
x,1/2-y,1/2+z
loop_
_atom_site_type_symbol
_atom_site_label
_atom_site_fract_x
_atom_site_fract_y
_atom_site_fract_z
Si Si1 0.433061 0.878740 0.912437
Si Si2 0.213822 0.910413 0.688373
Si Si3 0.705850 0.737050 0.792030
Si Si4 0.852441 0.603790 0.218544
Si Si5 0.639346 0.420678 0.029769
Si Si6 0.709951 0.904756 0.948045
Si Si7 0.624211 0.255445 0.373453
Si Si8 0.984716 0.695123 0.658704
O O1 0.311670 0.939266 0.804569
O O2 0.361629 0.740778 0.926198
O O3 0.566068 0.833573 0.919061
O O4 0.500000 0.000000 0.000000
O O5 0.298290 0.804359 0.666663
O O6 0.074914 0.819896 0.651801
O O7 0.202620 0.083501 0.652307
O O8 0.751060 0.814700 0.733816
O O9 0.538548 0.703889 0.714851
O O10 0.728389 0.851588 0.870941
O O11 0.766942 0.527310 0.112159
O O12 0.930082 0.463149 0.293470
O O13 0.954333 0.729762 0.226500
O O14 0.500000 0.500000 0.000000
O O15 0.631270 0.379298 0.938934
O O16 0.693255 0.089960 0.937700
O O17 0.160844 0.151298 0.945199
#
# Coordination Sequence:
#
# PCOD9253159 Si02
#       8
#     4   4   4   4   4   4   4   4
#     4  12  24  45  75 110 143 194 243 308 366 427
#     4  12  27  48  73 105 155 188 245 304 367 442
#     4  12  25  48  76 112 141 193 246 310 365 433
#     4  12  28  48  76 104 152 192 248 302 369 445
#     4  12  25  42  75 109 141 184 247 307 364 431
#     4  12  28  46  76 106 153 193 247 301 373 447
#     4  12  25  46  76 112 144 190 243 311 375 429
#     4  12  30  51  71 110 148 205 241 300 374 448
#
# _framework density 21.860458999999999
#
# number of rings (size 3 to 8) (size 9 to 14) (size 15 to 20)
#    0.000    0.000    6.250    2.250    8.750    2.500 
#    0.000    0.000    0.000    0.000    0.000    0.000 
#    0.000    0.000    0.000    0.000    0.000    0.000 
#
# Total GULP energy -179182.864650 kJ/mol
# GULP energy per Si atom -5599.464520 kJ/mol
# Density = 2.181070 g / cm^3
# Si number density = 21.860459 Si / 1000 Ang^3
#
#
#
# Elastic Constant Matrix: (Units=GPa)
#
#
# Indices 1 2 3 4 5 6 
#
# 1 85.3899 28.3032 5.6931 0.0000 -12.8320 0.0000
# 2 28.3032 89.2701 14.8838 0.0000 0.7249 0.0000
# 3 5.6931 14.8838 41.0582 0.0000 -0.4614 0.0000
# 4 0.0000 0.0000 0.0000 36.5519 0.0000 -3.3675
# 5 -12.8320 0.7249 -0.4614 0.0000 38.6694 0.0000
# 6 0.0000 0.0000 0.0000 -3.3675 0.0000 33.1009
#
#
#
# Elastic Compliance Matrix: (Units=1/GPa)
#
#
# Indices 1 2 3 4 5 6 
#
# 1 0.013891 -0.004396 -0.000280 0.000000 0.004689 0.000000
# 2 -0.004396 0.013316 -0.004238 0.000000 -0.001759 0.000000
# 3 -0.000280 -0.004238 0.025934 0.000000 0.000296 0.000000
# 4 0.000000 0.000000 0.000000 0.027617 0.000000 0.002810
# 5 0.004689 -0.001759 0.000296 0.000000 0.027453 0.000000
# 6 0.000000 0.000000 0.000000 0.002810 0.000000 0.030497
#
#
# Mechanical properties :
#
#
# Convention : Reuss Voigt Hill
#
# Bulk Modulus (GPa) = 28.31640 34.83094 31.57367
# Shear Modulus (GPa) = 29.70779 32.78697 31.24738
#
# Velocity S-wave (km/s) = 3.69043 3.87697 3.78484
# Velocity P-wave (km/s) = 5.58035 6.00075 5.79437
#
# Compressibility (1/GPa) = 0.03531523
#
# Stress axis : x y z
#
# Youngs Moduli (GPa) = 71.98794 75.09544 38.55948
#
# Poissons Ratio (x) = 0.33009 0.01080
# Poissons Ratio (y) = 0.31643 0.16340
# Poissons Ratio (z) = 0.02016 0.31822
#
# Static dielectric constant tensor:
#      x y z
#    x 1.775510 0.000000 -0.000370 
#    y 0.000000 2.384010 0.000000 
#    z -0.000370 0.000000 1.800600 
# 
# From -- ./inp_files/57287.got.cif
#   From: 2010.05.17/outbox.cif.g08.bks.cpg/sg14_29_cif.got.tgz:57287.got - 2010.06.03 17:49:19.
