data_PCOD9253273
_publ_section_title
;
Structure prediction by ZEFSAII (Michael W. Deem and Ramdas Pophale) SiO2 
 PCOD9253273
Probable space group: P 21/C
;
_chemical_formula_sum "Si O2"
_cell_formula_units_Z 16
_cell_length_a 9.441634
_cell_length_b 13.415403
_cell_length_c 4.860991
_cell_angle_alpha 90.000000
_cell_angle_beta 71.234841
_cell_angle_gamma 90.000000
_cell_volume 582.981288
_symmetry_space_group_name_H-M "P 21/C"
_symmetry_group_IT_number 14
_symmetry_cell_setting 'monoclinic'
loop_
_space_group_symop_operation_xyz
x,y,z
-x,1/2+y,1/2-z
-x,-y,-z
x,1/2-y,1/2+z
loop_
_atom_site_type_symbol
_atom_site_label
_atom_site_fract_x
_atom_site_fract_y
_atom_site_fract_z
Si Si1 0.192661 0.185789 0.427265
Si Si2 0.656198 0.184260 0.299052
Si Si3 0.635244 0.003679 0.703518
Si Si4 0.916099 0.085716 0.882003
O O1 0.206607 0.284873 0.601647
O O2 0.318134 0.105762 0.424876
O O3 0.036026 0.362495 0.111764
O O4 0.611411 0.273385 0.531330
O O5 0.610289 0.081781 0.473575
O O6 0.833926 0.163550 0.137497
O O7 0.781737 0.040554 0.783602
O O8 0.500000 0.000000 0.000000
O O9 0.000000 0.000000 0.000000
#
# Coordination Sequence:
#
# PCOD9253273 Si02
#       4
#     4   4   4   4
#     4  12  28  49  80 119 158 208 268 332 394 470
#     4  12  26  48  80 117 155 210 269 325 396 476
#     4  12  30  53  80 117 169 211 266 332 404 484
#     4  12  25  51  83 116 157 213 266 334 402 467
#
# _framework density 27.445133999999999
#
# number of rings (size 3 to 8) (size 9 to 14) (size 15 to 20)
#    0.000    0.000    5.000    3.750    3.500    3.000 
#    0.000    0.000    0.000    0.000    0.000    0.000 
#    0.000    0.000    0.000    0.000    0.000    0.000 
#
# Total GULP energy -89902.645869 kJ/mol
# GULP energy per Si atom -5618.915367 kJ/mol
# Density = 2.738267 g / cm^3
# Si number density = 27.445134 Si / 1000 Ang^3
#
#
#
# Elastic Constant Matrix: (Units=GPa)
#
#
# Indices 1 2 3 4 5 6 
#
# 1 130.4151 23.6702 31.7439 0.0000 -12.3161 0.0000
# 2 23.6702 113.1053 36.3706 0.0000 -19.0519 0.0000
# 3 31.7439 36.3706 165.1826 0.0000 -22.1117 0.0000
# 4 0.0000 0.0000 0.0000 82.9108 0.0000 -10.3219
# 5 -12.3161 -19.0519 -22.1117 0.0000 56.4700 0.0000
# 6 0.0000 0.0000 0.0000 -10.3219 0.0000 34.5615
#
#
#
# Elastic Compliance Matrix: (Units=1/GPa)
#
#
# Indices 1 2 3 4 5 6 
#
# 1 0.008264 -0.001186 -0.001202 0.000000 0.000931 0.000000
# 2 -0.001186 0.010038 -0.001650 0.000000 0.002482 0.000000
# 3 -0.001202 -0.001650 0.006900 0.000000 0.001883 0.000000
# 4 0.000000 0.000000 0.000000 0.012527 0.000000 0.003741
# 5 0.000931 0.002482 0.001883 0.000000 0.019486 0.000000
# 6 0.000000 0.000000 0.000000 0.003741 0.000000 0.030051
#
#
# Mechanical properties :
#
#
# Convention : Reuss Voigt Hill
#
# Bulk Modulus (GPa) = 58.39194 65.80803 62.09999
# Shear Modulus (GPa) = 49.47957 55.91633 52.69795
#
# Velocity S-wave (km/s) = 4.25061 4.51864 4.38667
# Velocity P-wave (km/s) = 6.73887 7.15920 6.95221
#
# Compressibility (1/GPa) = 0.01712565
#
# Stress axis : x y z
#
# Youngs Moduli (GPa) = 121.01170 99.61973 144.92027
#
# Poissons Ratio (x) = 0.11814 0.17423
# Poissons Ratio (y) = 0.14351 0.23914
# Poissons Ratio (z) = 0.14549 0.16438
#
# Static dielectric constant tensor:
#      x y z
#    x 2.176260 0.000000 0.015370 
#    y 0.000000 2.191710 0.000000 
#    z 0.015370 0.000000 2.024350 
# 
# From -- ./inp_files/2368.got.cif
#   From: 2010.05.17/outbox.cif.g08.bks.cpg/sg14_2_cif.got.tgz:2368.got - 2010.06.03 17:49:19.
