data_PCOD9253885
_publ_section_title
;
Structure prediction by ZEFSAII (Michael W. Deem and Ramdas Pophale) SiO2 
 PCOD9253885
Probable space group: C 2/C
;
_chemical_formula_sum "Si O2"
_cell_formula_units_Z 48
_cell_length_a 7.932600
_cell_length_b 32.367355
_cell_length_c 16.403818
_cell_angle_alpha 90.000000
_cell_angle_beta 148.518203
_cell_angle_gamma 90.000000
_cell_volume 2199.518268
_symmetry_space_group_name_H-M "C 2/C"
_symmetry_group_IT_number 15
_symmetry_cell_setting 'monoclinic'
loop_
_space_group_symop_operation_xyz
x,y,z
-x,y,1/2-z
-x,-y,-z
x,-y,1/2+z
1/2+x,1/2+y,z
1/2-x,1/2+y,1/2-z
1/2-x,1/2-y,-z
1/2+x,1/2-y,1/2+z
loop_
_atom_site_type_symbol
_atom_site_label
_atom_site_fract_x
_atom_site_fract_y
_atom_site_fract_z
Si Si1 0.366462 0.128573 0.936501
Si Si2 0.676082 0.455334 0.562252
Si Si3 0.371579 0.787928 0.368207
Si Si4 0.326763 0.957382 0.435056
Si Si5 0.284719 0.363978 0.933590
Si Si6 0.959317 0.226091 0.930276
O O1 0.513593 0.167236 0.949972
O O2 0.516441 0.083454 0.984224
O O3 0.000000 0.125061 0.750000
O O4 0.344053 0.135044 0.024938
O O5 0.500000 0.500000 0.500000
O O6 0.755446 0.452820 0.500181
O O7 0.538789 0.407877 0.516239
O O8 0.000000 0.457205 0.750000
O O9 0.556160 0.754218 0.496548
O O10 0.000000 0.789198 0.250000
O O11 0.317369 0.778500 0.251527
O O12 0.000000 0.960423 0.250000
O O13 0.500000 0.000000 0.500000
O O14 0.000000 0.360530 0.750000
O O15 0.469309 0.320500 0.010816
O O16 0.250000 0.250000 0.000000
#
# Coordination Sequence:
#
# PCOD9253885 Si02
#       6
#     8   8   8   8   8   8
#     4   9  15  27  39  59  89 121 153 196 243 292
#     4  10  21  36  52  73 105 139 172 216 264 307
#     4   9  15  22  34  55  86 120 151 185 241 299
#     4  10  20  33  54  75  99 133 175 215 256 306
#     4  10  17  25  40  62  89 128 158 196 247 304
#     4  10  15  22  36  58  89 124 153 190 247 307
#
# _framework density 21.822962
#
# number of rings (size 3 to 8) (size 9 to 14) (size 15 to 20)
#    0.000    2.333    5.000    2.500    0.000    0.000 
#    0.000    0.000    0.000    0.000    0.000    0.000 
#    0.000    2.667    0.000    0.333    0.000    0.000 
#
# Total GULP energy -133624.239392 kJ/mol
# GULP energy per Si atom -5567.676641 kJ/mol
# Density = 2.177329 g / cm^3
# Si number density = 21.822962 Si / 1000 Ang^3
#
#
#
# Elastic Constant Matrix: (Units=GPa)
#
#
# Indices 1 2 3 4 5 6 
#
# 1 55.3071 36.2421 43.2581 0.0000 -32.3522 0.0000
# 2 36.2421 294.1484 79.8112 0.0000 -14.6135 0.0000
# 3 43.2581 79.8112 130.9144 0.0000 -52.4532 0.0000
# 4 0.0000 0.0000 0.0000 39.0773 0.0000 -9.5784
# 5 -32.3522 -14.6135 -52.4532 0.0000 42.8354 0.0000
# 6 0.0000 0.0000 0.0000 -9.5784 0.0000 13.0029
#
#
#
# Elastic Compliance Matrix: (Units=1/GPa)
#
#
# Indices 1 2 3 4 5 6 
#
# 1 0.034943 -0.003292 0.001148 0.000000 0.026674 0.000000
# 2 -0.003292 0.004626 -0.004116 0.000000 -0.005948 0.000000
# 3 0.001148 -0.004116 0.018755 0.000000 0.022429 0.000000
# 4 0.000000 0.000000 0.000000 0.031229 0.000000 0.023004
# 5 0.026674 -0.005948 0.022429 0.000000 0.068927 0.000000
# 6 0.000000 0.000000 0.000000 0.023004 0.000000 0.093852
#
#
# Mechanical properties :
#
#
# Convention : Reuss Voigt Hill
#
# Bulk Modulus (GPa) = 21.83154 88.77698 55.30426
# Shear Modulus (GPa) = 17.84945 40.38702 29.11823
#
# Velocity S-wave (km/s) = 2.86303 4.30660 3.65676
# Velocity P-wave (km/s) = 4.57766 8.09308 6.57468
#
# Compressibility (1/GPa) = 0.04580528
#
# Stress axis : x y z
#
# Youngs Moduli (GPa) = 28.61794 216.14632 53.31887
#
# Poissons Ratio (x) = 0.71147 -0.06120
# Poissons Ratio (y) = 0.09420 0.21946
# Poissons Ratio (z) = -0.03285 0.88965
#
# Static dielectric constant tensor:
#      x y z
#    x 2.039960 0.000000 0.046100 
#    y 0.000000 1.935070 0.000000 
#    z 0.046100 0.000000 1.759880 
# 
# From -- ./inp_files/241113.got.cif
#   From: 2010.05.17/outbox.cif.g08.bks.cpg/sg15_121_cif.got.tgz:241113.got - 2010.06.03 18:47:42.
