data_PCOD9253382
_publ_section_title
;
Structure prediction by ZEFSAII (Michael W. Deem and Ramdas Pophale) SiO2 
 PCOD9253382
Probable space group: P 21/C
;
_chemical_formula_sum "Si O2"
_cell_formula_units_Z 18
_cell_length_a 13.230928
_cell_length_b 4.961982
_cell_length_c 20.321858
_cell_angle_alpha 90.000000
_cell_angle_beta 151.063764
_cell_angle_gamma 90.000000
_cell_volume 645.516056
_symmetry_space_group_name_H-M "P 21/C"
_symmetry_group_IT_number 14
_symmetry_cell_setting 'monoclinic'
loop_
_space_group_symop_operation_xyz
x,y,z
-x,1/2+y,1/2-z
-x,-y,-z
x,1/2-y,1/2+z
loop_
_atom_site_type_symbol
_atom_site_label
_atom_site_fract_x
_atom_site_fract_y
_atom_site_fract_z
Si Si1 0.455400 0.062417 0.059317
Si Si2 0.000000 0.000000 0.500000
Si Si3 0.913142 0.827734 0.309316
Si Si4 0.768364 0.438097 0.122573
Si Si5 0.367770 0.370725 0.656001
O O1 0.695120 0.976780 0.202966
O O2 0.349824 0.043739 0.070370
O O3 0.405515 0.354460 0.002962
O O4 0.334185 0.851803 0.944529
O O5 0.033552 0.852387 0.446172
O O6 0.833324 0.761657 0.426297
O O7 0.850870 0.543105 0.239871
O O8 0.047963 0.959034 0.327255
O O9 0.457528 0.630491 0.745202
#
# Coordination Sequence:
#
# PCOD9253382 Si02
#       5
#     4   2   4   4   4
#     4  12  27  53  85 119 171 235 290 362 432 533
#     4  12  28  54  92 130 178 232 290 378 444 536
#     4  12  28  54  86 129 171 238 287 374 442 531
#     4  12  28  53  83 125 175 221 303 355 442 526
#     4  12  27  55  83 133 180 228 297 366 450 535
#
# _framework density 27.884668000000001
#
# number of rings (size 3 to 8) (size 9 to 14) (size 15 to 20)
#    0.000    0.000    4.444    4.000    0.000    4.444 
#    0.000    0.000    0.000    0.000    0.000    0.000 
#    0.000    0.000    0.000    0.000    0.000    0.000 
#
# Total GULP energy -100647.173393 kJ/mol
# GULP energy per Si atom -5591.509633 kJ/mol
# Density = 2.782120 g / cm^3
# Si number density = 27.884668 Si / 1000 Ang^3
#
#
#
# Elastic Constant Matrix: (Units=GPa)
#
#
# Indices 1 2 3 4 5 6 
#
# 1 170.3821 35.2025 29.7947 0.0000 -10.3437 0.0000
# 2 35.2025 131.4630 37.0876 0.0000 0.0335 0.0000
# 3 29.7947 37.0876 71.8170 0.0000 16.3055 0.0000
# 4 0.0000 0.0000 0.0000 29.6888 0.0000 12.0541
# 5 -10.3437 0.0335 16.3055 0.0000 58.1547 0.0000
# 6 0.0000 0.0000 0.0000 12.0541 0.0000 53.3276
#
#
#
# Elastic Compliance Matrix: (Units=1/GPa)
#
#
# Indices 1 2 3 4 5 6 
#
# 1 0.006667 -0.001032 -0.002673 0.000000 0.001936 0.000000
# 2 -0.001032 0.009167 -0.004553 0.000000 0.001088 0.000000
# 3 -0.002673 -0.004553 0.018681 0.000000 -0.005711 0.000000
# 4 0.000000 0.000000 0.000000 0.037086 0.000000 -0.008383
# 5 0.001936 0.001088 -0.005711 0.000000 0.019140 0.000000
# 6 0.000000 0.000000 0.000000 -0.008383 0.000000 0.020647
#
#
# Mechanical properties :
#
#
# Convention : Reuss Voigt Hill
#
# Bulk Modulus (GPa) = 55.55473 64.20354 59.87914
# Shear Modulus (GPa) = 37.34017 46.33937 41.83977
#
# Velocity S-wave (km/s) = 3.66333 4.08097 3.87778
# Velocity P-wave (km/s) = 6.15302 6.72907 6.44748
#
# Compressibility (1/GPa) = 0.01800027
#
# Stress axis : x y z
#
# Youngs Moduli (GPa) = 149.98705 109.08476 53.53064
#
# Poissons Ratio (x) = 0.11255 0.14307
# Poissons Ratio (y) = 0.15476 0.24373
# Poissons Ratio (z) = 0.40087 0.49666
#
# Static dielectric constant tensor:
#      x y z
#    x 2.208750 0.000000 0.095620 
#    y 0.000000 2.173160 0.000000 
#    z 0.095620 0.000000 2.245980 
# 
# From -- ./inp_files/66189.got.cif
#   From: 2010.05.17/outbox.cif.g08.bks.cpg/sg14_34_cif.got.tgz:66189.got - 2010.06.03 17:49:19.
