data_PCOD9253408
_publ_section_title
;
Structure prediction by ZEFSAII (Michael W. Deem and Ramdas Pophale) SiO2 
 PCOD9253408
Probable space group: P 21/C
;
_chemical_formula_sum "Si O2"
_cell_formula_units_Z 16
_cell_length_a 8.898953
_cell_length_b 5.211300
_cell_length_c 22.492786
_cell_angle_alpha 90.000000
_cell_angle_beta 36.264109
_cell_angle_gamma 90.000000
_cell_volume 617.005479
_symmetry_space_group_name_H-M "P 21/C"
_symmetry_group_IT_number 14
_symmetry_cell_setting 'monoclinic'
loop_
_space_group_symop_operation_xyz
x,y,z
-x,1/2+y,1/2-z
-x,-y,-z
x,1/2-y,1/2+z
loop_
_atom_site_type_symbol
_atom_site_label
_atom_site_fract_x
_atom_site_fract_y
_atom_site_fract_z
Si Si1 0.014436 0.529386 0.705832
Si Si2 0.707851 0.812813 0.461076
Si Si3 0.728676 0.647251 0.588876
Si Si4 0.236236 0.119881 0.299163
O O1 0.256996 0.432345 0.592608
O O2 0.491605 0.480474 0.687662
O O3 0.819049 0.611017 0.716578
O O4 0.056400 0.786700 0.730721
O O5 0.669804 0.748491 0.542078
O O6 0.500000 0.000000 0.500000
O O7 0.985345 0.949671 0.369261
O O8 0.747803 0.855234 0.635167
O O9 0.000000 0.500000 0.500000
#
# Coordination Sequence:
#
# PCOD9253408 Si02
#       4
#     4   4   4   4
#     4  12  28  54  87 131 179 232 291 374 455 530
#     4  12  30  55  92 136 180 237 307 375 466 546
#     4  12  28  57  88 130 179 243 308 368 461 552
#     4  12  29  55  89 129 183 241 302 385 448 550
#
# _framework density 25.931699999999999
#
# number of rings (size 3 to 8) (size 9 to 14) (size 15 to 20)
#    0.000    0.000    5.000    2.250    7.000    3.000 
#    0.000    1.250    0.000    0.000    0.000    0.000 
#    0.000    0.000    0.000    0.000    0.000    0.000 
#
# Total GULP energy -89795.434837 kJ/mol
# GULP energy per Si atom -5612.214677 kJ/mol
# Density = 2.587268 g / cm^3
# Si number density = 25.931700 Si / 1000 Ang^3
#
#
#
# Elastic Constant Matrix: (Units=GPa)
#
#
# Indices 1 2 3 4 5 6 
#
# 1 117.1059 37.0991 108.0793 0.0000 -14.4439 0.0000
# 2 37.0991 106.4684 79.8519 0.0000 0.4903 0.0000
# 3 108.0793 79.8519 264.6002 0.0000 11.2952 0.0000
# 4 0.0000 0.0000 0.0000 67.3765 0.0000 -2.2170
# 5 -14.4439 0.4903 11.2952 0.0000 84.0057 0.0000
# 6 0.0000 0.0000 0.0000 -2.2170 0.0000 56.9293
#
#
#
# Elastic Compliance Matrix: (Units=1/GPa)
#
#
# Indices 1 2 3 4 5 6 
#
# 1 0.014613 -0.000678 -0.005905 0.000000 0.003310 0.000000
# 2 -0.000678 0.012187 -0.003412 0.000000 0.000271 0.000000
# 3 -0.005905 -0.003412 0.007306 0.000000 -0.001978 0.000000
# 4 0.000000 0.000000 0.000000 0.014861 0.000000 0.000579
# 5 0.003310 0.000271 -0.001978 0.000000 0.012737 0.000000
# 6 0.000000 0.000000 0.000000 0.000579 0.000000 0.017588
#
#
# Mechanical properties :
#
#
# Convention : Reuss Voigt Hill
#
# Bulk Modulus (GPa) = 70.85429 104.24835 87.55132
# Shear Modulus (GPa) = 48.08255 59.20524 53.64389
#
# Velocity S-wave (km/s) = 4.31071 4.78339 4.55319
# Velocity P-wave (km/s) = 7.22212 8.41404 7.84076
#
# Compressibility (1/GPa) = 0.01411347
#
# Stress axis : x y z
#
# Youngs Moduli (GPa) = 68.43406 82.05615 136.87988
#
# Poissons Ratio (x) = 0.05563 0.80834
# Poissons Ratio (y) = 0.04639 0.46709
# Poissons Ratio (z) = 0.40413 0.28001
#
# Static dielectric constant tensor:
#      x y z
#    x 2.090070 0.000000 -0.022710 
#    y 0.000000 2.232790 0.000000 
#    z -0.022710 0.000000 2.007760 
# 
# From -- ./inp_files/53928.got.cif
#   From: 2010.05.17/outbox.cif.g08.bks.cpg/sg14_27_cif.got.tgz:53928.got - 2010.06.03 17:49:19.
