data_PCOD9253175
_publ_section_title
;
Structure prediction by ZEFSAII (Michael W. Deem and Ramdas Pophale) SiO2 
 PCOD9253175
Probable space group: P 21/C
;
_chemical_formula_sum "Si O2"
_cell_formula_units_Z 28
_cell_length_a 16.619749
_cell_length_b 4.806040
_cell_length_c 13.544338
_cell_angle_alpha 90.000000
_cell_angle_beta 90.855694
_cell_angle_gamma 90.000000
_cell_volume 1081.735766
_symmetry_space_group_name_H-M "P 21/C"
_symmetry_group_IT_number 14
_symmetry_cell_setting 'monoclinic'
loop_
_space_group_symop_operation_xyz
x,y,z
-x,1/2+y,1/2-z
-x,-y,-z
x,1/2-y,1/2+z
loop_
_atom_site_type_symbol
_atom_site_label
_atom_site_fract_x
_atom_site_fract_y
_atom_site_fract_z
Si Si1 0.646779 0.661031 0.391231
Si Si2 0.982315 0.761885 0.185347
Si Si3 0.835195 0.949885 0.560286
Si Si4 0.729425 0.305443 0.800227
Si Si5 0.690025 0.880793 0.107140
Si Si6 0.129156 0.557782 0.568121
Si Si7 0.511778 0.547625 0.682283
O O1 0.674800 0.469383 0.301252
O O2 0.682819 0.530458 0.492012
O O3 0.550856 0.613068 0.390006
O O4 0.685027 0.961813 0.368809
O O5 0.898821 0.652905 0.141765
O O6 0.027324 0.497540 0.232804
O O7 0.039008 0.895163 0.103240
O O8 0.745492 0.890836 0.595381
O O9 0.851952 0.756397 0.463585
O O10 0.854304 0.260324 0.528824
O O11 0.733047 0.440343 0.692756
O O12 0.811927 0.186696 0.847639
O O13 0.597173 0.869831 0.138181
O O14 0.523663 0.328766 0.771571
#
# Coordination Sequence:
#
# PCOD9253175 Si02
#       7
#     4   4   4   4   4   4   4
#     4  12  25  48  68 108 144 188 252 301 370 438
#     4  12  26  47  73 109 148 198 249 302 373 448
#     4  12  26  45  75 108 145 197 250 302 377 442
#     4  12  25  45  73 104 147 187 245 311 355 446
#     4  12  26  46  78 104 149 195 249 301 382 433
#     4  12  24  48  71 107 151 189 250 309 364 447
#     4  12  25  47  72 105 148 198 248 310 372 440
#
# _framework density 25.884323999999999
#
# number of rings (size 3 to 8) (size 9 to 14) (size 15 to 20)
#    0.000    0.000    5.714    3.857    0.000    5.714 
#    0.000    2.857    0.000    0.000    0.000    0.000 
#    0.000    0.000    0.000    0.000    0.000    0.000 
#
# Total GULP energy -156887.710658 kJ/mol
# GULP energy per Si atom -5603.132524 kJ/mol
# Density = 2.582541 g / cm^3
# Si number density = 25.884324 Si / 1000 Ang^3
#
#
#
# Elastic Constant Matrix: (Units=GPa)
#
#
# Indices 1 2 3 4 5 6 
#
# 1 103.0651 3.5403 24.5001 0.0000 -1.9988 0.0000
# 2 3.5403 85.7426 11.5426 0.0000 -7.5022 0.0000
# 3 24.5001 11.5426 113.5973 0.0000 5.5534 0.0000
# 4 0.0000 0.0000 0.0000 44.4795 0.0000 -0.6801
# 5 -1.9988 -7.5022 5.5534 0.0000 50.4990 0.0000
# 6 0.0000 0.0000 0.0000 -0.6801 0.0000 26.1777
#
#
#
# Elastic Compliance Matrix: (Units=1/GPa)
#
#
# Indices 1 2 3 4 5 6 
#
# 1 0.010249 -0.000066 -0.002235 0.000000 0.000642 0.000000
# 2 -0.000066 0.012009 -0.001300 0.000000 0.001924 0.000000
# 3 -0.002235 -0.001300 0.009482 0.000000 -0.001324 0.000000
# 4 0.000000 0.000000 0.000000 0.022491 0.000000 0.000584
# 5 0.000642 0.001924 -0.001324 0.000000 0.020259 0.000000
# 6 0.000000 0.000000 0.000000 0.000584 0.000000 0.038216
#
#
# Mechanical properties :
#
#
# Convention : Reuss Voigt Hill
#
# Bulk Modulus (GPa) = 40.75467 42.39676 41.57572
# Shear Modulus (GPa) = 39.03599 41.75272 40.39435
#
# Velocity S-wave (km/s) = 3.88763 4.02064 3.95469
# Velocity P-wave (km/s) = 5.99422 6.16189 6.07863
#
# Compressibility (1/GPa) = 0.02453706
#
# Stress axis : x y z
#
# Youngs Moduli (GPa) = 97.57415 83.27131 105.46412
#
# Poissons Ratio (x) = 0.00551 0.23571
# Poissons Ratio (y) = 0.00645 0.13711
# Poissons Ratio (z) = 0.21808 0.10826
#
# Static dielectric constant tensor:
#      x y z
#    x 2.049460 0.000000 0.029280 
#    y 0.000000 1.979970 0.000000 
#    z 0.029280 0.000000 2.044800 
# 
# From -- ./inp_files/47818.got.cif
#   From: 2010.05.17/outbox.cif.g08.bks.cpg/sg14_24_cif.got.tgz:47818.got - 2010.06.03 17:49:19.
