data_PCOD9253581
_publ_section_title
;
Structure prediction by ZEFSAII (Michael W. Deem and Ramdas Pophale) SiO2 
 PCOD9253581
Probable space group: P 21/C
;
_chemical_formula_sum "Si O2"
_cell_formula_units_Z 28
_cell_length_a 9.000000
_cell_length_b 12.000000
_cell_length_c 15.000000
_cell_angle_alpha 90.000000
_cell_angle_beta 60.000000
_cell_angle_gamma 90.000000
_cell_volume 1402.961154
_symmetry_space_group_name_H-M "P 21/C"
_symmetry_group_IT_number 14
_symmetry_cell_setting 'monoclinic'
loop_
_space_group_symop_operation_xyz
x,y,z
-x,1/2+y,1/2-z
-x,-y,-z
x,1/2-y,1/2+z
loop_
_atom_site_type_symbol
_atom_site_label
_atom_site_fract_x
_atom_site_fract_y
_atom_site_fract_z
Si Si1 0.446833 0.103852 0.399548
Si Si2 0.219867 0.018970 0.615558
Si Si3 0.330890 0.809336 0.186973
Si Si4 0.735996 0.671053 0.738570
Si Si5 0.919000 0.293865 0.882830
Si Si6 0.537214 0.004721 0.184664
Si Si7 0.649229 0.239808 0.117053
O O1 0.279453 0.074162 0.505467
O O2 0.503296 0.232055 0.385730
O O3 0.609866 0.042757 0.396496
O O4 0.444572 0.058732 0.299523
O O5 0.181325 0.109502 0.701416
O O6 0.080491 0.923237 0.645762
O O7 0.179862 0.776252 0.165146
O O8 0.398995 0.935361 0.169860
O O9 0.290369 0.772293 0.301123
O O10 0.676562 0.581769 0.682393
O O11 0.549838 0.718073 0.827803
O O12 0.887589 0.751256 0.658945
O O13 0.784773 0.286958 0.005853
O O14 0.632389 0.107200 0.110082
#
# Coordination Sequence:
#
# PCOD9253581 Si02
#       7
#     4   4   4   4   4   4   4
#     4   8  14  29  56  76  97 146 190 224 279 332
#     4   9  16  32  54  77 106 140 186 237 278 324
#     4   9  18  34  55  83 115 148 193 240 284 342
#     4  10  21  37  59  86 116 152 195 239 287 345
#     4  11  22  36  59  87 113 150 196 238 289 348
#     4   9  18  34  55  80 118 154 185 235 291 343
#     4  10  21  39  60  82 115 157 195 235 288 346
#
# _framework density 19.957787
#
# number of rings (size 3 to 8) (size 9 to 14) (size 15 to 20)
#    0.000    2.571    0.000    5.143    0.000    2.286 
#    0.000    8.571    0.000   12.857    0.000    0.000 
#    0.000    0.000    0.000    0.000    0.000    0.000 
#
# Total GULP energy -156157.679167 kJ/mol
# GULP energy per Si atom -5577.059970 kJ/mol
# Density = 1.991236 g / cm^3
# Si number density = 19.957787 Si / 1000 Ang^3
#
#
#
# Elastic Constant Matrix: (Units=GPa)
#
#
# Indices 1 2 3 4 5 6 
#
# 1 45.4574 7.1101 18.5149 0.0000 -11.8919 0.0000
# 2 7.1101 55.4126 7.8775 0.0000 -13.3858 0.0000
# 3 18.5149 7.8775 59.3606 0.0000 -6.9076 0.0000
# 4 0.0000 0.0000 0.0000 19.7876 0.0000 3.2646
# 5 -11.8919 -13.3858 -6.9076 0.0000 27.3549 0.0000
# 6 0.0000 0.0000 0.0000 3.2646 0.0000 32.6666
#
#
#
# Elastic Compliance Matrix: (Units=1/GPa)
#
#
# Indices 1 2 3 4 5 6 
#
# 1 0.027692 -0.000046 -0.007452 0.000000 0.010134 0.000000
# 2 -0.000046 0.020614 -0.001597 0.000000 0.009664 0.000000
# 3 -0.007452 -0.001597 0.019487 0.000000 0.000900 0.000000
# 4 0.000000 0.000000 0.000000 0.051384 0.000000 -0.005135
# 5 0.010134 0.009664 0.000900 0.000000 0.045918 0.000000
# 6 0.000000 0.000000 0.000000 -0.005135 0.000000 0.031125
#
#
# Mechanical properties :
#
#
# Convention : Reuss Voigt Hill
#
# Bulk Modulus (GPa) = 20.15962 25.24841 22.70402
# Shear Modulus (GPa) = 21.65022 24.41037 23.03030
#
# Velocity S-wave (km/s) = 3.29720 3.50108 3.40067
# Velocity P-wave (km/s) = 4.96170 5.38719 5.17881
#
# Compressibility (1/GPa) = 0.04960411
#
# Stress axis : x y z
#
# Youngs Moduli (GPa) = 36.11128 48.51121 51.31587
#
# Poissons Ratio (x) = 0.00222 0.38241
# Poissons Ratio (y) = 0.00165 0.08194
# Poissons Ratio (z) = 0.26910 0.07746
#
# Static dielectric constant tensor:
#      x y z
#    x 1.685390 0.000000 0.023410 
#    y 0.000000 1.771210 0.000000 
#    z 0.023410 0.000000 1.720820 
# 
# From -- ./inp_files/39957.got.cif
#   From: 2010.05.17/outbox.ucp.g08.bks.cvg/sg14_20_cif.got.tgz:39957.got - 2010.06.11 12:31:08.
