data_PCOD9253861
_publ_section_title
;
Structure prediction by ZEFSAII (Michael W. Deem and Ramdas Pophale) SiO2 
 PCOD9253861
Probable space group: C 2/C
;
_chemical_formula_sum "Si O2"
_cell_formula_units_Z 56
_cell_length_a 13.707318
_cell_length_b 7.834399
_cell_length_c 22.640858
_cell_angle_alpha 90.000000
_cell_angle_beta 122.270456
_cell_angle_gamma 90.000000
_cell_volume 2055.813921
_symmetry_space_group_name_H-M "C 2/C"
_symmetry_group_IT_number 15
_symmetry_cell_setting 'monoclinic'
loop_
_space_group_symop_operation_xyz
x,y,z
-x,y,1/2-z
-x,-y,-z
x,-y,1/2+z
1/2+x,1/2+y,z
1/2-x,1/2+y,1/2-z
1/2-x,1/2-y,-z
1/2+x,1/2-y,1/2+z
loop_
_atom_site_type_symbol
_atom_site_label
_atom_site_fract_x
_atom_site_fract_y
_atom_site_fract_z
Si Si1 0.155216 0.354511 0.651005
Si Si2 0.212460 0.281158 0.198451
Si Si3 0.917322 0.350398 0.995178
Si Si4 0.886385 0.062299 0.422825
Si Si5 0.890105 0.554524 0.096293
Si Si6 0.602257 0.433063 0.436649
Si Si7 0.040100 0.225901 0.327966
O O1 0.226491 0.532430 0.676522
O O2 0.206149 0.243001 0.719761
O O3 0.162981 0.300107 0.585189
O O4 0.026681 0.409260 0.627857
O O5 0.217538 0.139143 0.148631
O O6 0.083047 0.256620 0.180484
O O7 0.000000 0.500000 0.000000
O O8 0.012636 0.207503 0.039724
O O9 0.851959 0.434803 0.028480
O O10 0.849750 0.038415 0.479904
O O11 0.963777 0.929096 0.409541
O O12 0.852950 0.754010 0.076231
O O13 0.895677 0.411102 0.149998
O O14 0.604332 0.582486 0.388460
O O15 0.000000 0.170510 0.250000
#
# Coordination Sequence:
#
# PCOD9253861 Si02
#       7
#     8   8   8   8   8   8   8
#     4  10  19  28  49  80 113 134 162 215 283 329
#     4  10  20  32  48  82 111 138 163 222 285 319
#     4  10  14  31  50  74 108 141 172 207 263 335
#     4  10  17  29  48  82 111 128 174 218 273 331
#     4  10  18  34  53  76 103 143 180 212 267 319
#     4  10  18  28  55  80  99 133 178 224 264 310
#     4  10  22  38  51  73 108 145 191 222 249 318
#
# _framework density 27.239820999999999
#
# number of rings (size 3 to 8) (size 9 to 14) (size 15 to 20)
#    0.000    2.000    8.571    0.000    4.000    0.571 
#    0.000    0.000    0.000    0.857    0.000    2.000 
#    0.000    0.000    0.000    0.000    0.000    0.000 
#
# Total GULP energy -156258.911352 kJ/mol
# GULP energy per Si atom -5580.675405 kJ/mol
# Density = 2.717782 g / cm^3
# Si number density = 27.239821 Si / 1000 Ang^3
#
#
#
# Elastic Constant Matrix: (Units=GPa)
#
#
# Indices 1 2 3 4 5 6 
#
# 1 82.6144 29.5611 19.5938 0.0000 -14.9734 0.0000
# 2 29.5611 143.8794 52.0161 0.0000 -9.6915 0.0000
# 3 19.5938 52.0161 201.3206 0.0000 8.0885 0.0000
# 4 0.0000 0.0000 0.0000 54.2713 0.0000 -1.5156
# 5 -14.9734 -9.6915 8.0885 0.0000 26.6750 0.0000
# 6 0.0000 0.0000 0.0000 -1.5156 0.0000 25.5822
#
#
#
# Elastic Compliance Matrix: (Units=1/GPa)
#
#
# Indices 1 2 3 4 5 6 
#
# 1 0.014525 -0.002025 -0.001203 0.000000 0.007782 0.000000
# 2 -0.002025 0.008271 -0.002040 0.000000 0.002487 0.000000
# 3 -0.001203 -0.002040 0.005738 0.000000 -0.003156 0.000000
# 4 0.000000 0.000000 0.000000 0.018456 0.000000 0.001093
# 5 0.007782 0.002487 -0.003156 0.000000 0.043717 0.000000
# 6 0.000000 0.000000 0.000000 0.001093 0.000000 0.039154
#
#
# Mechanical properties :
#
#
# Convention : Reuss Voigt Hill
#
# Bulk Modulus (GPa) = 55.56123 70.01740 62.78931
# Shear Modulus (GPa) = 34.15341 43.08191 38.61766
#
# Velocity S-wave (km/s) = 3.54475 3.98122 3.76931
# Velocity P-wave (km/s) = 6.09877 6.84787 6.48415
#
# Compressibility (1/GPa) = 0.01799816
#
# Stress axis : x y z
#
# Youngs Moduli (GPa) = 68.84739 120.89942 174.27146
#
# Poissons Ratio (x) = 0.24483 0.20966
# Poissons Ratio (y) = 0.13942 0.35550
# Poissons Ratio (z) = 0.08283 0.24663
#
# Static dielectric constant tensor:
#      x y z
#    x 2.206350 0.000000 0.009840 
#    y 0.000000 2.285980 0.000000 
#    z 0.009840 0.000000 2.238530 
# 
# From -- ./inp_files/254881.got.cif
#   From: 2010.05.17/outbox.cif.g08.bks.cpg/sg15_128_cif.got.tgz:254881.got - 2010.06.03 18:47:42.
