data_PCOD9253310
_publ_section_title
;
Structure prediction by ZEFSAII (Michael W. Deem and Ramdas Pophale) SiO2 
 PCOD9253310
Probable space group: P 21/C
;
_chemical_formula_sum "Si O2"
_cell_formula_units_Z 22
_cell_length_a 5.035339
_cell_length_b 10.033506
_cell_length_c 15.616878
_cell_angle_alpha 90.000000
_cell_angle_beta 89.567781
_cell_angle_gamma 90.000000
_cell_volume 788.975086
_symmetry_space_group_name_H-M "P 21/C"
_symmetry_group_IT_number 14
_symmetry_cell_setting 'monoclinic'
loop_
_space_group_symop_operation_xyz
x,y,z
-x,1/2+y,1/2-z
-x,-y,-z
x,1/2-y,1/2+z
loop_
_atom_site_type_symbol
_atom_site_label
_atom_site_fract_x
_atom_site_fract_y
_atom_site_fract_z
Si Si1 0.932736 0.545619 0.870277
Si Si2 0.534525 0.595994 0.365825
Si Si3 0.814726 0.268783 0.518077
Si Si4 0.000000 0.500000 0.500000
Si Si5 0.428111 0.363779 0.901413
Si Si6 0.396052 0.348849 0.254359
O O1 0.647227 0.479966 0.886151
O O2 0.899423 0.606733 0.775725
O O3 0.019048 0.663908 0.931090
O O4 0.146936 0.433730 0.890738
O O5 0.269858 0.594640 0.428840
O O6 0.518893 0.487930 0.289807
O O7 0.523234 0.746089 0.324574
O O8 0.770368 0.563968 0.429443
O O9 0.547565 0.202742 0.485961
O O10 0.983738 0.349343 0.449859
O O11 0.439660 0.250096 0.831519
#
# Coordination Sequence:
#
# PCOD9253310 Si02
#       6
#     4   4   4   2   4   4
#     4  12  28  49  80 119 164 212 268 339 412 488
#     4  12  28  54  77 123 163 217 273 341 413 493
#     4  12  28  49  81 112 165 209 280 338 412 490
#     4  12  26  48  80 114 156 210 278 332 404 488
#     4  12  29  50  81 119 161 217 272 337 412 492
#     4  12  27  50  81 117 168 211 274 337 414 483
#
# _framework density 27.884277000000001
#
# number of rings (size 3 to 8) (size 9 to 14) (size 15 to 20)
#    0.000    0.000    5.455    2.727    5.091    1.455 
#    0.000    0.000    0.000    0.000    0.000    0.000 
#    0.000    0.000    0.000    0.000    0.000    0.000 
#
# Total GULP energy -122803.136401 kJ/mol
# GULP energy per Si atom -5581.960746 kJ/mol
# Density = 2.782081 g / cm^3
# Si number density = 27.884277 Si / 1000 Ang^3
#
#
#
# Elastic Constant Matrix: (Units=GPa)
#
#
# Indices 1 2 3 4 5 6 
#
# 1 115.2040 55.0318 87.9646 0.0000 37.4872 0.0000
# 2 55.0318 231.3124 79.9161 0.0000 21.9066 0.0000
# 3 87.9646 79.9161 181.0013 0.0000 38.6950 0.0000
# 4 0.0000 0.0000 0.0000 66.2933 0.0000 16.2045
# 5 37.4872 21.9066 38.6950 0.0000 43.5200 0.0000
# 6 0.0000 0.0000 0.0000 16.2045 0.0000 45.7634
#
#
#
# Elastic Compliance Matrix: (Units=1/GPa)
#
#
# Indices 1 2 3 4 5 6 
#
# 1 0.016234 -0.001133 -0.005583 0.000000 -0.008449 0.000000
# 2 -0.001133 0.005198 -0.001721 0.000000 -0.000110 0.000000
# 3 -0.005583 -0.001721 0.009611 0.000000 -0.002871 0.000000
# 4 0.000000 0.000000 0.000000 0.016514 0.000000 -0.005847
# 5 -0.008449 -0.000110 -0.002871 0.000000 0.032864 0.000000
# 6 0.000000 0.000000 0.000000 -0.005847 0.000000 0.023922
#
#
# Mechanical properties :
#
#
# Convention : Reuss Voigt Hill
#
# Bulk Modulus (GPa) = 70.57339 108.14919 89.36129
# Shear Modulus (GPa) = 39.70184 51.42234 45.56209
#
# Velocity S-wave (km/s) = 3.77743 4.29900 4.04663
# Velocity P-wave (km/s) = 6.66256 7.96938 7.34509
#
# Compressibility (1/GPa) = 0.01416965
#
# Stress axis : x y z
#
# Youngs Moduli (GPa) = 61.60045 192.39464 104.04334
#
# Poissons Ratio (x) = 0.21802 0.58085
# Poissons Ratio (y) = 0.06981 0.17901
# Poissons Ratio (z) = 0.34390 0.33102
#
# Static dielectric constant tensor:
#      x y z
#    x 2.841450 0.000000 -0.418420 
#    y 0.000000 2.533770 0.000000 
#    z -0.418420 0.000000 2.305150 
# 
# From -- ./inp_files/63039.got.cif
#   From: 2010.05.17/outbox.cif.g08.bks.cpg/sg14_32_cif.got.tgz:63039.got - 2010.06.03 17:49:19.
