data_PCOD9253889
_publ_section_title
;
Structure prediction by ZEFSAII (Michael W. Deem and Ramdas Pophale) SiO2 
 PCOD9253889
Probable space group: C 2/C
;
_chemical_formula_sum "Si O2"
_cell_formula_units_Z 48
_cell_length_a 6.954720
_cell_length_b 17.506372
_cell_length_c 17.641127
_cell_angle_alpha 90.000000
_cell_angle_beta 123.497259
_cell_angle_gamma 90.000000
_cell_volume 1791.110871
_symmetry_space_group_name_H-M "C 2/C"
_symmetry_group_IT_number 15
_symmetry_cell_setting 'monoclinic'
loop_
_space_group_symop_operation_xyz
x,y,z
-x,y,1/2-z
-x,-y,-z
x,-y,1/2+z
1/2+x,1/2+y,z
1/2-x,1/2+y,1/2-z
1/2-x,1/2-y,-z
1/2+x,1/2-y,1/2+z
loop_
_atom_site_type_symbol
_atom_site_label
_atom_site_fract_x
_atom_site_fract_y
_atom_site_fract_z
Si Si1 0.851492 0.110969 0.323077
Si Si2 0.481235 0.914473 0.878370
Si Si3 0.961648 0.170282 0.902559
Si Si4 0.836896 0.994958 0.036679
Si Si5 0.775871 0.288387 0.288175
Si Si6 0.453613 0.208989 0.977030
O O1 0.733607 0.073861 0.223336
O O2 0.679851 0.105416 0.358587
O O3 0.858124 0.200334 0.305211
O O4 0.081184 0.064216 0.393460
O O5 0.466929 0.848355 0.939235
O O6 0.582150 0.986695 0.946140
O O7 0.177458 0.222162 0.923179
O O8 0.074148 0.087315 0.914839
O O9 0.744973 0.179708 0.801404
O O10 0.930630 0.208422 0.979451
O O11 0.000000 0.000000 0.000000
O O12 0.500000 0.293378 0.250000
O O13 0.943068 0.323583 0.388873
#
# Coordination Sequence:
#
# PCOD9253889 Si02
#       6
#     8   8   8   8   8   8
#     4  10  15  24  37  56  82 111 131 157 201 238
#     4   9  15  25  37  57  83 109 131 158 198 240
#     4   9  15  23  34  57  82 105 129 160 196 243
#     4   9  17  24  36  56  83 109 130 162 199 242
#     4  10  15  22  39  59  80 108 129 158 201 245
#     4   9  14  22  37  55  81 104 129 158 198 244
#
# _framework density 26.799009999999999
#
# number of rings (size 3 to 8) (size 9 to 14) (size 15 to 20)
#    0.000    2.667    3.333    4.000    0.000    0.000 
#    0.000    0.000    0.000    1.000    0.000    1.167 
#    0.000    0.000    0.000    0.000    0.000    2.000 
#
# Total GULP energy -133788.851450 kJ/mol
# GULP energy per Si atom -5574.535477 kJ/mol
# Density = 2.673801 g / cm^3
# Si number density = 26.799010 Si / 1000 Ang^3
#
#
#
# Elastic Constant Matrix: (Units=GPa)
#
#
# Indices 1 2 3 4 5 6 
#
# 1 52.4429 24.5500 44.7427 0.0000 12.7120 0.0000
# 2 24.5500 73.4815 52.1077 0.0000 10.8274 0.0000
# 3 44.7427 52.1077 249.3330 0.0000 1.8796 0.0000
# 4 0.0000 0.0000 0.0000 48.8960 0.0000 7.4419
# 5 12.7120 10.8274 1.8796 0.0000 48.8759 0.0000
# 6 0.0000 0.0000 0.0000 7.4419 0.0000 18.0172
#
#
#
# Elastic Compliance Matrix: (Units=1/GPa)
#
#
# Indices 1 2 3 4 5 6 
#
# 1 0.025861 -0.005380 -0.003476 0.000000 -0.005401 0.000000
# 2 -0.005380 0.017685 -0.002712 0.000000 -0.002414 0.000000
# 3 -0.003476 -0.002712 0.005191 0.000000 0.001305 0.000000
# 4 0.000000 0.000000 0.000000 0.021823 0.000000 -0.009014
# 5 -0.005401 -0.002414 0.001305 0.000000 0.022349 0.000000
# 6 0.000000 0.000000 0.000000 -0.009014 0.000000 0.059226
#
#
# Mechanical properties :
#
#
# Convention : Reuss Voigt Hill
#
# Bulk Modulus (GPa) = 39.05881 68.67313 53.86597
# Shear Modulus (GPa) = 27.20249 40.08163 33.64206
#
# Velocity S-wave (km/s) = 3.18945 3.87154 3.54693
# Velocity P-wave (km/s) = 5.30752 6.75766 6.07601
#
# Compressibility (1/GPa) = 0.02560242
#
# Stress axis : x y z
#
# Youngs Moduli (GPa) = 38.66780 56.54377 192.62365
#
# Poissons Ratio (x) = 0.30418 0.66952
# Poissons Ratio (y) = 0.20802 0.52249
# Poissons Ratio (z) = 0.13440 0.15337
#
# Static dielectric constant tensor:
#      x y z
#    x 2.303140 0.000000 -0.172830 
#    y 0.000000 2.013670 0.000000 
#    z -0.172830 0.000000 2.203440 
# 
# From -- ./inp_files/152988.got.cif
#   From: 2010.05.17/outbox.cif.g08.bks.cpg/sg15_77_cif.got.tgz:152988.got - 2010.06.03 18:47:42.
