data_PCOD9253500
_publ_section_title
;
Structure prediction by ZEFSAII (Michael W. Deem and Ramdas Pophale) SiO2 
 PCOD9253500
Probable space group: P 21/C
;
_chemical_formula_sum "Si O2"
_cell_formula_units_Z 32
_cell_length_a 9.000000
_cell_length_b 12.000000
_cell_length_c 15.000000
_cell_angle_alpha 90.000000
_cell_angle_beta 110.000000
_cell_angle_gamma 90.000000
_cell_volume 1522.302046
_symmetry_space_group_name_H-M "P 21/C"
_symmetry_group_IT_number 14
_symmetry_cell_setting 'monoclinic'
loop_
_space_group_symop_operation_xyz
x,y,z
-x,1/2+y,1/2-z
-x,-y,-z
x,1/2-y,1/2+z
loop_
_atom_site_type_symbol
_atom_site_label
_atom_site_fract_x
_atom_site_fract_y
_atom_site_fract_z
Si Si1 0.368535 0.211129 0.407760
Si Si2 0.237513 0.856227 0.229298
Si Si3 0.302920 0.036680 0.881954
Si Si4 0.840870 0.996008 0.613129
Si Si5 0.361885 0.958514 0.597384
Si Si6 0.659656 0.965101 0.903097
Si Si7 0.436077 0.278608 0.123097
Si Si8 0.150208 0.611598 0.206862
O O1 0.313280 0.330776 0.357481
O O2 0.220109 0.131205 0.391347
O O3 0.484953 0.118522 0.388575
O O4 0.451265 0.241040 0.519452
O O5 0.400942 0.795145 0.291217
O O6 0.123649 0.746267 0.199071
O O7 0.187889 0.933800 0.302715
O O8 0.269690 0.941212 0.151513
O O9 0.477275 0.994844 0.888417
O O10 0.186484 0.949740 0.808301
O O11 0.267615 0.032044 0.981352
O O12 0.023005 0.971275 0.635517
O O13 0.748084 0.052677 0.512711
O O14 0.297288 0.907615 0.673543
O O15 0.374549 0.092621 0.613810
O O16 0.657397 0.835139 0.867435
#
# Coordination Sequence:
#
# PCOD9253500 Si02
#       8
#     4   4   4   4   4   4   4   4
#     4  10  20  40  71  92 126 167 214 274 324 373
#     4  12  23  40  65  94 133 172 225 258 336 396
#     4  10  22  40  64  96 135 161 216 264 335 378
#     4  11  25  43  64  93 133 171 213 271 323 393
#     4  11  21  43  69  97 123 168 222 273 323 378
#     4  10  22  39  65  97 127 169 215 281 316 382
#     4  10  19  38  65 100 124 158 219 276 318 378
#     4  12  27  40  63  95 133 175 212 265 332 404
#
# _framework density 21.020796000000001
#
# number of rings (size 3 to 8) (size 9 to 14) (size 15 to 20)
#    0.000    1.250    3.750    2.625    1.750    3.000 
#    0.000    0.625    0.000    0.000    0.000    0.000 
#    0.000    0.000    0.000    0.000    0.000    0.000 
#
# Total GULP energy -178191.805316 kJ/mol
# GULP energy per Si atom -5568.493916 kJ/mol
# Density = 2.097295 g / cm^3
# Si number density = 21.020796 Si / 1000 Ang^3
#
#
#
# Elastic Constant Matrix: (Units=GPa)
#
#
# Indices 1 2 3 4 5 6 
#
# 1 15.8229 9.5996 16.9598 0.0000 1.9313 0.0000
# 2 9.5996 162.6668 28.4000 0.0000 -15.5049 0.0000
# 3 16.9598 28.4000 27.6453 0.0000 -24.3280 0.0000
# 4 0.0000 0.0000 0.0000 35.0971 0.0000 -6.1924
# 5 1.9313 -15.5049 -24.3280 0.0000 14.4217 0.0000
# 6 0.0000 0.0000 0.0000 -6.1924 0.0000 23.8584
#
#
#
# Elastic Compliance Matrix: (Units=1/GPa)
#
#
# Indices 1 2 3 4 5 6 
#
# 1 0.022455 -0.002311 0.033509 0.000000 0.051035 0.000000
# 2 -0.002311 0.007070 -0.002304 0.000000 0.004024 0.000000
# 3 0.033509 -0.002304 -0.024466 0.000000 -0.048236 0.000000
# 4 0.000000 0.000000 0.000000 0.029860 0.000000 0.007750
# 5 0.051035 0.004024 -0.048236 0.000000 -0.014538 0.000000
# 6 0.000000 0.000000 0.000000 0.007750 0.000000 0.043925
#
#
# Mechanical properties :
#
#
# Convention : Reuss Voigt Hill
#
# Bulk Modulus (GPa) = 15.91138 35.11708 25.51423
# Shear Modulus (GPa) = 182.04016 24.75381 103.39698
#
# Velocity S-wave (km/s) = 9.31601 3.43532 7.02102
# Velocity P-wave (km/s) = 11.10420 5.69889 8.82555
#
# Compressibility (1/GPa) = 0.06284811
#
# Stress axis : x y z
#
# Youngs Moduli (GPa) = 44.53255 141.44902 -40.87255
#
# Poissons Ratio (x) = 0.32690 1.36961
# Poissons Ratio (y) = 0.10292 -0.09416
# Poissons Ratio (z) = -1.49226 0.32585
#
# Static dielectric constant tensor:
#      x y z
#    x 1.793680 0.000000 0.023700 
#    y 0.000000 1.834330 0.000000 
#    z 0.023700 0.000000 1.821120 
# 
# From -- ./inp_files/40363.got.cif
#   From: 2010.05.17/outbox.ucp.g08.bks.cvg/sg14_21_cif.got.tgz:40363.got - 2010.06.11 12:31:08.
