data_PCOD9253093
_publ_section_title
;
Structure prediction by ZEFSAII (Michael W. Deem and Ramdas Pophale) SiO2 
 PCOD9253093
Probable space group: P 21/C
;
_chemical_formula_sum "Si O2"
_cell_formula_units_Z 20
_cell_length_a 4.990193
_cell_length_b 10.673020
_cell_length_c 16.899082
_cell_angle_alpha 90.000000
_cell_angle_beta 95.599475
_cell_angle_gamma 90.000000
_cell_volume 895.757584
_symmetry_space_group_name_H-M "P 21/C"
_symmetry_group_IT_number 14
_symmetry_cell_setting 'monoclinic'
loop_
_space_group_symop_operation_xyz
x,y,z
-x,1/2+y,1/2-z
-x,-y,-z
x,1/2-y,1/2+z
loop_
_atom_site_type_symbol
_atom_site_label
_atom_site_fract_x
_atom_site_fract_y
_atom_site_fract_z
Si Si1 0.362418 0.196971 0.944292
Si Si2 0.079756 0.821087 0.309471
Si Si3 0.854975 0.085908 0.865616
Si Si4 0.414002 0.183273 0.133311
Si Si5 0.769269 0.974850 0.557044
O O1 0.635521 0.169751 0.905443
O O2 0.238462 0.330686 0.916121
O O3 0.137128 0.091666 0.920713
O O4 0.417730 0.202222 0.039113
O O5 0.081982 0.863210 0.219445
O O6 0.286843 0.705636 0.326089
O O7 0.192005 0.931325 0.369009
O O8 0.785970 0.782753 0.331653
O O9 0.716018 0.951267 0.855186
O O10 0.500000 0.000000 0.500000
O O11 0.000000 0.000000 0.500000
#
# Coordination Sequence:
#
# PCOD9253093 Si02
#       5
#     4   4   4   4   4
#     4  12  24  47  73 101 134 183 236 273 342 405
#     4  12  26  44  69 104 138 179 227 287 344 392
#     4  12  28  43  70 103 140 182 222 289 346 400
#     4  12  25  49  70  99 141 179 232 279 336 417
#     4  12  23  45  72 101 135 179 231 278 330 410
#
# _framework density 22.327470000000002
#
# number of rings (size 3 to 8) (size 9 to 14) (size 15 to 20)
#    0.000    0.000    4.000    6.000    5.600    0.000 
#    0.000    0.000    0.000    0.000    0.000    0.000 
#    0.000    0.000    0.000    0.000    0.000    0.000 
#
# Total GULP energy -112136.150413 kJ/mol
# GULP energy per Si atom -5606.807521 kJ/mol
# Density = 2.227665 g / cm^3
# Si number density = 22.327470 Si / 1000 Ang^3
#
#
#
# Elastic Constant Matrix: (Units=GPa)
#
#
# Indices 1 2 3 4 5 6 
#
# 1 107.3831 -22.8824 27.4622 0.0000 -22.9884 0.0000
# 2 -22.8824 56.5022 11.8202 0.0000 -14.3904 0.0000
# 3 27.4622 11.8202 126.7984 0.0000 -43.2830 0.0000
# 4 0.0000 0.0000 0.0000 19.2029 0.0000 -5.2666
# 5 -22.9884 -14.3904 -43.2830 0.0000 34.2327 0.0000
# 6 0.0000 0.0000 0.0000 -5.2666 0.0000 37.2026
#
#
#
# Elastic Compliance Matrix: (Units=1/GPa)
#
#
# Indices 1 2 3 4 5 6 
#
# 1 0.014186 0.009295 0.001138 0.000000 0.014872 0.000000
# 2 0.009295 0.026135 0.002518 0.000000 0.020412 0.000000
# 3 0.001138 0.002518 0.014123 0.000000 0.019680 0.000000
# 4 0.000000 0.000000 0.000000 0.054179 0.000000 0.007670
# 5 0.014872 0.020412 0.019680 0.000000 0.072662 0.000000
# 6 0.000000 0.000000 0.000000 0.007670 0.000000 0.027966
#
#
# Mechanical properties :
#
#
# Convention : Reuss Voigt Hill
#
# Bulk Modulus (GPa) = 12.44627 35.94264 24.19445
# Shear Modulus (GPa) = 23.79477 36.41321 30.10399
#
# Velocity S-wave (km/s) = 3.26807 4.04278 3.67590
# Velocity P-wave (km/s) = 4.45274 6.15833 5.37364
#
# Compressibility (1/GPa) = 0.08034535
#
# Stress axis : x y z
#
# Youngs Moduli (GPa) = 70.49248 38.26356 70.80637
#
# Poissons Ratio (x) = -0.35565 -0.08056
# Poissons Ratio (y) = -0.65521 -0.17832
# Poissons Ratio (z) = -0.08020 -0.09636
#
# Static dielectric constant tensor:
#      x y z
#    x 1.779220 0.000000 0.019210 
#    y 0.000000 1.883170 0.000000 
#    z 0.019210 0.000000 1.765850 
# 
# From -- ./inp_files/36874.got.cif
#   From: 2010.05.17/outbox.cif.g08.bks.cpg/sg14_19_cif.got.tgz:36874.got - 2010.06.03 17:49:19.
