data_PCOD9253113
_publ_section_title
;
Structure prediction by ZEFSAII (Michael W. Deem and Ramdas Pophale) SiO2 
 PCOD9253113
Probable space group: P 21/C
;
_chemical_formula_sum "Si O2"
_cell_formula_units_Z 26
_cell_length_a 14.978285
_cell_length_b 5.048496
_cell_length_c 14.756945
_cell_angle_alpha 90.000000
_cell_angle_beta 107.765812
_cell_angle_gamma 90.000000
_cell_volume 1062.673016
_symmetry_space_group_name_H-M "P 21/C"
_symmetry_group_IT_number 14
_symmetry_cell_setting 'monoclinic'
loop_
_space_group_symop_operation_xyz
x,y,z
-x,1/2+y,1/2-z
-x,-y,-z
x,1/2-y,1/2+z
loop_
_atom_site_type_symbol
_atom_site_label
_atom_site_fract_x
_atom_site_fract_y
_atom_site_fract_z
Si Si1 0.500000 0.500000 0.500000
Si Si2 0.470940 0.221785 0.186082
Si Si3 0.319785 0.273109 0.397561
Si Si4 0.791090 0.239153 0.587503
Si Si5 0.048755 0.692161 0.727965
Si Si6 0.731171 0.859740 0.328218
Si Si7 0.847932 0.140415 0.912920
O O1 0.487182 0.625298 0.394719
O O2 0.429019 0.251620 0.449131
O O3 0.525133 0.466832 0.246932
O O4 0.363135 0.309867 0.144968
O O5 0.292474 0.549082 0.438250
O O6 0.293385 0.298429 0.283810
O O7 0.256016 0.045754 0.420961
O O8 0.854471 0.281043 0.695393
O O9 0.856305 0.291223 0.520954
O O10 0.063632 0.686025 0.625075
O O11 0.026561 0.404042 0.761530
O O12 0.811035 0.655770 0.385231
O O13 0.767300 0.156278 0.354422
#
# Coordination Sequence:
#
# PCOD9253113 Si02
#       7
#     2   4   4   4   4   4   4
#     4  12  28  46  72 106 146 190 246 306 354 412
#     4  12  27  44  67 101 140 186 241 303 356 412
#     4  12  25  47  73 103 145 194 240 298 358 423
#     4  12  26  48  75 106 141 192 241 286 362 432
#     4  12  26  45  74 109 146 179 230 297 362 432
#     4  12  23  48  70 101 142 195 240 291 355 425
#     4  12  25  46  76 101 141 188 235 291 351 433
#
# _framework density 24.466605000000001
#
# number of rings (size 3 to 8) (size 9 to 14) (size 15 to 20)
#    0.000    0.000    4.615    5.538    2.154    3.692 
#    0.000    0.000    0.000    0.000    0.000    0.000 
#    0.000    0.000    0.000    0.000    0.000    0.000 
#
# Total GULP energy -145276.216654 kJ/mol
# GULP energy per Si atom -5587.546794 kJ/mol
# Density = 2.441092 g / cm^3
# Si number density = 24.466605 Si / 1000 Ang^3
#
#
#
# Elastic Constant Matrix: (Units=GPa)
#
#
# Indices 1 2 3 4 5 6 
#
# 1 47.7839 11.7929 -6.6319 0.0000 -20.4460 0.0000
# 2 11.7929 53.6048 8.1192 0.0000 -12.4544 0.0000
# 3 -6.6319 8.1192 79.1095 0.0000 -14.9534 0.0000
# 4 0.0000 0.0000 0.0000 28.1123 0.0000 1.4582
# 5 -20.4460 -12.4544 -14.9534 0.0000 38.2005 0.0000
# 6 0.0000 0.0000 0.0000 1.4582 0.0000 33.0084
#
#
#
# Elastic Compliance Matrix: (Units=1/GPa)
#
#
# Indices 1 2 3 4 5 6 
#
# 1 0.030083 -0.003517 0.006166 0.000000 0.017368 0.000000
# 2 -0.003517 0.020654 -0.001617 0.000000 0.004218 0.000000
# 3 0.006166 -0.001617 0.014954 0.000000 0.008627 0.000000
# 4 0.000000 0.000000 0.000000 0.035653 0.000000 -0.001575
# 5 0.017368 0.004218 0.008627 0.000000 0.040226 0.000000
# 6 0.000000 0.000000 0.000000 -0.001575 0.000000 0.030365
#
#
# Mechanical properties :
#
#
# Convention : Reuss Voigt Hill
#
# Bulk Modulus (GPa) = 14.75919 23.00652 18.88285
# Shear Modulus (GPa) = 25.97999 31.01210 28.49604
#
# Velocity S-wave (km/s) = 3.26215 3.56410 3.41646
# Velocity P-wave (km/s) = 4.49825 5.13427 4.82675
#
# Compressibility (1/GPa) = 0.06775442
#
# Stress axis : x y z
#
# Youngs Moduli (GPa) = 33.24159 48.41732 66.87094
#
# Poissons Ratio (x) = 0.17027 -0.41231
# Poissons Ratio (y) = 0.11690 0.10814
# Poissons Ratio (z) = -0.20496 0.07830
#
# Static dielectric constant tensor:
#      x y z
#    x 1.994500 0.000000 -0.040200 
#    y 0.000000 1.905600 0.000000 
#    z -0.040200 0.000000 1.887400 
# 
# From -- ./inp_files/45968.got.cif
#   From: 2010.05.17/outbox.cif.g08.bks.cpg/sg14_23_cif.got.tgz:45968.got - 2010.06.03 17:49:19.
