data_PCOD9253052
_publ_section_title
;
Structure prediction by ZEFSAII (Michael W. Deem and Ramdas Pophale) SiO2 
 PCOD9253052
Probable space group: P 21/C
;
_chemical_formula_sum "Si O2"
_cell_formula_units_Z 20
_cell_length_a 11.699167
_cell_length_b 5.110693
_cell_length_c 14.061657
_cell_angle_alpha 90.000000
_cell_angle_beta 101.614983
_cell_angle_gamma 90.000000
_cell_volume 823.541918
_symmetry_space_group_name_H-M "P 21/C"
_symmetry_group_IT_number 14
_symmetry_cell_setting 'monoclinic'
loop_
_space_group_symop_operation_xyz
x,y,z
-x,1/2+y,1/2-z
-x,-y,-z
x,1/2-y,1/2+z
loop_
_atom_site_type_symbol
_atom_site_label
_atom_site_fract_x
_atom_site_fract_y
_atom_site_fract_z
Si Si1 0.070238 0.015753 0.788821
Si Si2 0.791691 0.141581 0.366657
Si Si3 0.828171 0.843678 0.991528
Si Si4 0.519354 0.068075 0.300057
Si Si5 0.424090 0.247030 0.960485
O O1 0.173075 0.908905 0.736929
O O2 0.099556 0.064554 0.904209
O O3 0.973017 0.792461 0.759427
O O4 0.822020 0.424621 0.413615
O O5 0.652264 0.108461 0.354540
O O6 0.857557 0.924824 0.442147
O O7 0.700485 0.786712 0.014114
O O8 0.507699 0.261556 0.207937
O O9 0.420763 0.210077 0.347227
O O10 0.500000 0.500000 0.000000
O O11 0.500000 0.000000 0.000000
#
# Coordination Sequence:
#
# PCOD9253052 Si02
#       5
#     4   4   4   4   4
#     4  12  29  50  74 107 142 188 256 319 366 422
#     4  12  26  47  74 105 146 192 245 297 367 439
#     4  12  25  47  76 106 147 194 238 299 365 438
#     4  12  24  40  67 103 145 187 233 286 348 434
#     4  12  22  42  67 101 145 181 229 279 348 435
#
# _framework density 24.285345
#
# number of rings (size 3 to 8) (size 9 to 14) (size 15 to 20)
#    0.000    0.000    4.000    6.000    0.000    8.000 
#    0.000    0.000    0.000    0.000    0.000    0.000 
#    0.000    0.000    0.000    0.000    0.000    0.000 
#
# Total GULP energy -111919.408762 kJ/mol
# GULP energy per Si atom -5595.970438 kJ/mol
# Density = 2.423007 g / cm^3
# Si number density = 24.285345 Si / 1000 Ang^3
#
#
#
# Elastic Constant Matrix: (Units=GPa)
#
#
# Indices 1 2 3 4 5 6 
#
# 1 60.4911 3.2505 14.9399 0.0000 -0.6140 0.0000
# 2 3.2505 150.1093 18.6645 0.0000 16.0730 0.0000
# 3 14.9399 18.6645 62.6145 0.0000 -4.0061 0.0000
# 4 0.0000 0.0000 0.0000 47.0784 0.0000 -0.8053
# 5 -0.6140 16.0730 -4.0061 0.0000 40.6610 0.0000
# 6 0.0000 0.0000 0.0000 -0.8053 0.0000 32.7618
#
#
#
# Elastic Compliance Matrix: (Units=1/GPa)
#
#
# Indices 1 2 3 4 5 6 
#
# 1 0.017572 0.000173 -0.004258 0.000000 -0.000223 0.000000
# 2 0.000173 0.007292 -0.002414 0.000000 -0.003118 0.000000
# 3 -0.004258 -0.002414 0.017876 0.000000 0.002651 0.000000
# 4 0.000000 0.000000 0.000000 0.021250 0.000000 0.000522
# 5 -0.000223 -0.003118 0.002651 0.000000 0.026084 0.000000
# 6 0.000000 0.000000 0.000000 0.000522 0.000000 0.030536
#
#
# Mechanical properties :
#
#
# Convention : Reuss Voigt Hill
#
# Bulk Modulus (GPa) = 33.62486 38.54721 36.08603
# Shear Modulus (GPa) = 34.83761 39.85757 37.34759
#
# Velocity S-wave (km/s) = 3.79160 4.05559 3.92582
# Velocity P-wave (km/s) = 5.74840 6.15122 5.95322
#
# Compressibility (1/GPa) = 0.02973990
#
# Stress axis : x y z
#
# Youngs Moduli (GPa) = 56.91026 137.13448 55.94062
#
# Poissons Ratio (x) = -0.02370 0.23821
# Poissons Ratio (y) = -0.00983 0.13506
# Poissons Ratio (z) = 0.24234 0.33109
#
# Static dielectric constant tensor:
#      x y z
#    x 4.097830 0.000000 -1.239510 
#    y 0.000000 1.961600 0.000000 
#    z -1.239510 0.000000 2.880120 
# 
# From -- ./inp_files/42499.got.cif
#   From: 2010.05.17/outbox.cif.g08.bks.cpg/sg14_22_cif.got.tgz:42499.got - 2010.06.03 17:49:19.
