data_PCOD9253081
_publ_section_title
;
Structure prediction by ZEFSAII (Michael W. Deem and Ramdas Pophale) SiO2 
 PCOD9253081
Probable space group: P 21/C
;
_chemical_formula_sum "Si O2"
_cell_formula_units_Z 20
_cell_length_a 12.072620
_cell_length_b 4.761569
_cell_length_c 14.506026
_cell_angle_alpha 90.000000
_cell_angle_beta 91.562711
_cell_angle_gamma 90.000000
_cell_volume 833.563155
_symmetry_space_group_name_H-M "P 21/C"
_symmetry_group_IT_number 14
_symmetry_cell_setting 'monoclinic'
loop_
_space_group_symop_operation_xyz
x,y,z
-x,1/2+y,1/2-z
-x,-y,-z
x,1/2-y,1/2+z
loop_
_atom_site_type_symbol
_atom_site_label
_atom_site_fract_x
_atom_site_fract_y
_atom_site_fract_z
Si Si1 0.746232 0.239717 0.603927
Si Si2 0.895461 0.920224 0.358515
Si Si3 0.107487 0.239592 0.850687
Si Si4 0.425724 0.867988 0.247950
Si Si5 0.748453 0.426890 0.402661
O O1 0.857216 0.426101 0.622782
O O2 0.650676 0.277900 0.676374
O O3 0.710310 0.313871 0.500309
O O4 0.786018 0.922698 0.620840
O O5 0.913481 0.775233 0.259680
O O6 0.839880 0.672960 0.416764
O O7 0.805084 0.165908 0.351465
O O8 0.003139 0.097171 0.390966
O O9 0.500604 0.618386 0.209363
O O10 0.350432 0.010600 0.167065
#
# Coordination Sequence:
#
# PCOD9253081 Si02
#       5
#     4   4   4   4   4
#     4  12  26  45  71 106 142 180 236 291 349 419
#     4  12  23  43  71 104 146 190 228 274 347 424
#     4  12  23  43  71 104 146 190 228 274 347 424
#     4  12  26  48  74  98 138 184 238 300 362 406
#     4  12  26  45  71 106 142 180 236 291 349 419
#
# _framework density 23.993386000000001
#
# number of rings (size 3 to 8) (size 9 to 14) (size 15 to 20)
#    0.000    0.000    4.000    7.200    0.000    6.400 
#    0.000    0.000    0.000    0.000    0.000    0.000 
#    0.000    0.000    0.000    0.000    0.000    0.000 
#
# Total GULP energy -111912.883737 kJ/mol
# GULP energy per Si atom -5595.644187 kJ/mol
# Density = 2.393878 g / cm^3
# Si number density = 23.993386 Si / 1000 Ang^3
#
#
#
# Elastic Constant Matrix: (Units=GPa)
#
#
# Indices 1 2 3 4 5 6 
#
# 1 79.9845 18.8275 41.8378 0.0000 -6.9410 0.0000
# 2 18.8275 105.2706 -1.7248 0.0000 -9.9972 0.0000
# 3 41.8378 -1.7248 89.5551 0.0000 -1.4188 0.0000
# 4 0.0000 0.0000 0.0000 32.5880 0.0000 2.1246
# 5 -6.9410 -9.9972 -1.4188 0.0000 6.1629 0.0000
# 6 0.0000 0.0000 0.0000 2.1246 0.0000 45.6077
#
#
#
# Elastic Compliance Matrix: (Units=1/GPa)
#
#
# Indices 1 2 3 4 5 6 
#
# 1 0.018858 -0.001991 -0.008594 0.000000 0.016030 0.000000
# 2 -0.001991 0.011462 0.001415 0.000000 0.016677 0.000000
# 3 -0.008594 0.001415 0.015147 0.000000 -0.003897 0.000000
# 4 0.000000 0.000000 0.000000 0.030780 0.000000 -0.001434
# 5 0.016030 0.016677 -0.003897 0.000000 0.206471 0.000000
# 6 0.000000 0.000000 0.000000 -0.001434 0.000000 0.021993
#
#
# Mechanical properties :
#
#
# Convention : Reuss Voigt Hill
#
# Bulk Modulus (GPa) = 36.86427 43.63234 40.24830
# Shear Modulus (GPa) = 15.05606 31.26304 23.15955
#
# Velocity S-wave (km/s) = 2.50773 3.61361 3.11021
# Velocity P-wave (km/s) = 4.87675 5.96955 5.45060
#
# Compressibility (1/GPa) = 0.02712654
#
# Stress axis : x y z
#
# Youngs Moduli (GPa) = 53.02915 87.24184 66.02064
#
# Poissons Ratio (x) = 0.17371 0.56739
# Poissons Ratio (y) = 0.10559 -0.09343
# Poissons Ratio (z) = 0.45574 -0.12346
#
# Static dielectric constant tensor:
#      x y z
#    x 1.947360 0.000000 -0.001000 
#    y 0.000000 1.879670 0.000000 
#    z -0.001000 0.000000 1.886890 
# 
# From -- ./inp_files/42474.got.cif
#   From: 2010.05.17/outbox.cif.g08.bks.cpg/sg14_22_cif.got.tgz:42474.got - 2010.06.03 17:49:19.
