data_PCOD9253015
_publ_section_title
;
Structure prediction by ZEFSAII (Michael W. Deem and Ramdas Pophale) SiO2 
 PCOD9253015
Probable space group: P 21/C
;
_chemical_formula_sum "Si O2"
_cell_formula_units_Z 20
_cell_length_a 12.462013
_cell_length_b 9.862227
_cell_length_c 12.050707
_cell_angle_alpha 90.000000
_cell_angle_beta 146.994865
_cell_angle_gamma 90.000000
_cell_volume 806.760109
_symmetry_space_group_name_H-M "P 21/C"
_symmetry_group_IT_number 14
_symmetry_cell_setting 'monoclinic'
loop_
_space_group_symop_operation_xyz
x,y,z
-x,1/2+y,1/2-z
-x,-y,-z
x,1/2-y,1/2+z
loop_
_atom_site_type_symbol
_atom_site_label
_atom_site_fract_x
_atom_site_fract_y
_atom_site_fract_z
Si Si1 0.301252 0.883095 0.294447
Si Si2 0.822221 0.138999 0.441469
Si Si3 0.985300 0.650920 0.680152
Si Si4 0.723746 0.123629 0.122440
Si Si5 0.429587 0.054817 0.212134
O O1 0.169269 0.794008 0.092785
O O2 0.134764 0.938492 0.233789
O O3 0.405027 0.755895 0.447507
O O4 0.436313 0.975117 0.334657
O O5 0.997414 0.106677 0.677012
O O6 0.779830 0.058616 0.290590
O O7 0.629260 0.126074 0.350775
O O8 0.081041 0.799533 0.752317
O O9 0.763702 0.647215 0.448100
O O10 0.621104 0.043147 0.936241
#
# Coordination Sequence:
#
# PCOD9253015 Si02
#       5
#     4   4   4   4   4
#     4   8  19  38  54  79 120 133 175 244 254 309
#     4   9  20  37  55  82 111 142 180 226 267 316
#     4   9  20  37  55  82 111 142 180 226 267 316
#     4   8  19  38  54  79 120 133 175 244 254 309
#     4  12  18  36  64  76 104 158 178 206 288 326
#
# _framework density 24.790517999999999
#
# number of rings (size 3 to 8) (size 9 to 14) (size 15 to 20)
#    2.400    0.000    2.000    1.200    0.000    1.600 
#    3.600    8.000    0.000    0.000    0.000    0.000 
#    0.000    0.000    0.000    0.000    0.000    0.000 
#
# Total GULP energy -111408.172924 kJ/mol
# GULP energy per Si atom -5570.408646 kJ/mol
# Density = 2.473409 g / cm^3
# Si number density = 24.790518 Si / 1000 Ang^3
#
#
#
# Elastic Constant Matrix: (Units=GPa)
#
#
# Indices 1 2 3 4 5 6 
#
# 1 137.5970 11.6466 36.6197 0.0000 -38.5268 0.0000
# 2 11.6466 35.7869 5.4430 0.0000 -3.0025 0.0000
# 3 36.6197 5.4430 77.9957 0.0000 -12.2369 0.0000
# 4 0.0000 0.0000 0.0000 22.8995 0.0000 -3.9305
# 5 -38.5268 -3.0025 -12.2369 0.0000 43.0329 0.0000
# 6 0.0000 0.0000 0.0000 -3.9305 0.0000 50.2285
#
#
#
# Elastic Compliance Matrix: (Units=1/GPa)
#
#
# Indices 1 2 3 4 5 6 
#
# 1 0.010785 -0.002254 -0.003576 0.000000 0.008481 0.000000
# 2 -0.002254 0.028804 -0.000998 0.000000 -0.000292 0.000000
# 3 -0.003576 -0.000998 0.014713 0.000000 0.000913 0.000000
# 4 0.000000 0.000000 0.000000 0.044264 0.000000 0.003464
# 5 0.008481 -0.000292 0.000913 0.000000 0.031071 0.000000
# 6 0.000000 0.000000 0.000000 0.003464 0.000000 0.020180
#
#
# Mechanical properties :
#
#
# Convention : Reuss Voigt Hill
#
# Bulk Modulus (GPa) = 24.60226 39.86648 32.23437
# Shear Modulus (GPa) = 28.24541 36.41018 32.32780
#
# Velocity S-wave (km/s) = 3.37911 3.83654 3.61507
# Velocity P-wave (km/s) = 5.01698 5.97843 5.51868
#
# Compressibility (1/GPa) = 0.04064667
#
# Stress axis : x y z
#
# Youngs Moduli (GPa) = 92.72308 34.71732 67.96787
#
# Poissons Ratio (x) = 0.07827 0.24302
# Poissons Ratio (y) = 0.20904 0.06780
# Poissons Ratio (z) = 0.33154 0.03463
#
# Static dielectric constant tensor:
#      x y z
#    x 2.017590 0.000000 -0.086130 
#    y 0.000000 2.028300 0.000000 
#    z -0.086130 0.000000 1.987970 
# 
# From -- ./inp_files/29256.got.cif
#   From: 2010.05.17/outbox.cif.g08.bks.cpg/sg14_15_cif.got.tgz:29256.got - 2010.06.03 17:49:19.
