data_PCOD9253136
_publ_section_title
;
Structure prediction by ZEFSAII (Michael W. Deem and Ramdas Pophale) SiO2 
 PCOD9253136
Probable space group: P 21/C
;
_chemical_formula_sum "Si O2"
_cell_formula_units_Z 28
_cell_length_a 27.899264
_cell_length_b 7.640748
_cell_length_c 28.424809
_cell_angle_alpha 90.000000
_cell_angle_beta 170.162945
_cell_angle_gamma 90.000000
_cell_volume 1035.220635
_symmetry_space_group_name_H-M "P 21/C"
_symmetry_group_IT_number 14
_symmetry_cell_setting 'monoclinic'
loop_
_space_group_symop_operation_xyz
x,y,z
-x,1/2+y,1/2-z
-x,-y,-z
x,1/2-y,1/2+z
loop_
_atom_site_type_symbol
_atom_site_label
_atom_site_fract_x
_atom_site_fract_y
_atom_site_fract_z
Si Si1 0.631413 0.369845 0.308018
Si Si2 0.948843 0.450825 0.837838
Si Si3 0.590377 0.730192 0.551289
Si Si4 0.426324 0.219823 0.856101
Si Si5 0.257335 0.074138 0.953555
Si Si6 0.491955 0.776362 0.718959
Si Si7 0.105389 0.579295 0.532020
O O1 0.716239 0.272240 0.438673
O O2 0.475925 0.551180 0.171593
O O3 0.865641 0.396488 0.496093
O O4 0.415082 0.229064 0.078463
O O5 0.773788 0.593837 0.698303
O O6 0.741092 0.283519 0.640620
O O7 0.965175 0.501974 0.798890
O O8 0.237962 0.411106 0.142867
O O9 0.566218 0.673872 0.581831
O O10 0.292206 0.777714 0.240644
O O11 0.787667 0.903490 0.741014
O O12 0.261310 0.399606 0.692470
O O13 0.452048 0.902672 0.152227
O O14 0.237592 0.167519 0.986584
#
# Coordination Sequence:
#
# PCOD9253136 Si02
#       7
#     4   4   4   4   4   4   4
#     4   9  17  35  61  99 129 174 221 276 343 409
#     4  12  24  42  68  98 137 179 229 288 344 415
#     4  12  24  45  67  97 137 186 231 287 349 414
#     4  12  26  43  66 101 137 182 236 287 347 414
#     4   9  17  35  62  97 133 170 226 272 348 403
#     4   8  16  32  64  93 132 171 218 278 338 415
#     4  12  24  42  70  98 137 181 231 289 347 415
#
# _framework density 27.047373
#
# number of rings (size 3 to 8) (size 9 to 14) (size 15 to 20)
#    0.857    0.571    1.429    5.143    0.000    0.000 
#    0.000    0.000    0.000   30.857    0.000    0.000 
#    0.000    0.000    0.000    0.000    0.000    0.000 
#
# Total GULP energy -156496.236139 kJ/mol
# GULP energy per Si atom -5589.151291 kJ/mol
# Density = 2.698581 g / cm^3
# Si number density = 27.047373 Si / 1000 Ang^3
#
#
#
# Elastic Constant Matrix: (Units=GPa)
#
#
# Indices 1 2 3 4 5 6 
#
# 1 156.7023 33.5236 35.1594 0.0000 -19.5670 0.0000
# 2 33.5236 111.5496 40.5892 0.0000 -21.5641 0.0000
# 3 35.1594 40.5892 119.0417 0.0000 -21.6917 0.0000
# 4 0.0000 0.0000 0.0000 37.2034 0.0000 -3.6259
# 5 -19.5670 -21.5641 -21.6917 0.0000 36.0848 0.0000
# 6 0.0000 0.0000 0.0000 -3.6259 0.0000 37.8689
#
#
#
# Elastic Compliance Matrix: (Units=1/GPa)
#
#
# Indices 1 2 3 4 5 6 
#
# 1 0.007235 -0.001244 -0.001273 0.000000 0.002414 0.000000
# 2 -0.001244 0.011147 -0.002631 0.000000 0.004406 0.000000
# 3 -0.001273 -0.002631 0.010400 0.000000 0.003990 0.000000
# 4 0.000000 0.000000 0.000000 0.027132 0.000000 0.002598
# 5 0.002414 0.004406 0.003990 0.000000 0.034053 0.000000
# 6 0.000000 0.000000 0.000000 0.002598 0.000000 0.026656
#
#
# Mechanical properties :
#
#
# Convention : Reuss Voigt Hill
#
# Bulk Modulus (GPa) = 54.09126 67.31535 60.70331
# Shear Modulus (GPa) = 37.57110 40.76617 39.16864
#
# Velocity S-wave (km/s) = 3.73109 3.88650 3.80958
# Velocity P-wave (km/s) = 6.21317 6.71430 6.46859
#
# Compressibility (1/GPa) = 0.01848727
#
# Stress axis : x y z
#
# Youngs Moduli (GPa) = 138.22165 89.70668 96.15174
#
# Poissons Ratio (x) = 0.11164 0.12236
# Poissons Ratio (y) = 0.17201 0.25293
# Poissons Ratio (z) = 0.17589 0.23598
#
# Static dielectric constant tensor:
#      x y z
#    x 2.063440 0.000000 0.001520 
#    y 0.000000 2.254840 0.000000 
#    z 0.001520 0.000000 2.104890 
# 
# From -- ./inp_files/80924.got.cif
#   From: 2010.05.17/outbox.cif.g08.bks.cpg/sg14_41_cif.got.tgz:80924.got - 2010.06.03 17:49:19.
