data_PCOD9253457
_publ_section_title
;
Structure prediction by ZEFSAII (Michael W. Deem and Ramdas Pophale) SiO2 
 PCOD9253457
Probable space group: P 21/C
;
_chemical_formula_sum "Si O2"
_cell_formula_units_Z 32
_cell_length_a 13.910594
_cell_length_b 8.485447
_cell_length_c 14.896239
_cell_angle_alpha 90.000000
_cell_angle_beta 132.168534
_cell_angle_gamma 90.000000
_cell_volume 1303.217332
_symmetry_space_group_name_H-M "P 21/C"
_symmetry_group_IT_number 14
_symmetry_cell_setting 'monoclinic'
loop_
_space_group_symop_operation_xyz
x,y,z
-x,1/2+y,1/2-z
-x,-y,-z
x,1/2-y,1/2+z
loop_
_atom_site_type_symbol
_atom_site_label
_atom_site_fract_x
_atom_site_fract_y
_atom_site_fract_z
Si Si1 0.564072 0.245170 0.039322
Si Si2 0.807681 0.942984 0.872417
Si Si3 0.935927 0.245169 0.960678
Si Si4 0.313894 0.137856 0.667044
Si Si5 0.692319 0.557016 0.627583
Si Si6 0.813894 0.637856 0.167043
Si Si7 0.546555 0.980056 0.405328
Si Si8 0.046555 0.019945 0.405328
O O1 0.565620 0.377186 0.117946
O O2 0.683398 0.127446 0.101825
O O3 0.441863 0.137023 0.989998
O O4 0.533605 0.340266 0.929038
O O5 0.697349 0.828664 0.842759
O O6 0.812624 0.916308 0.768652
O O7 0.816601 0.127446 0.898175
O O8 0.941863 0.862978 0.989998
O O9 0.934381 0.377186 0.882054
O O10 0.966395 0.340267 0.070962
O O11 0.312624 0.083692 0.768653
O O12 0.430033 0.064717 0.682350
O O13 0.180997 0.072864 0.538960
O O14 0.802651 0.671335 0.657241
O O15 0.930033 0.564717 0.182350
O O16 0.680997 0.572864 0.038960
#
# Coordination Sequence:
#
# PCOD9253457 Si02
#       8
#     4   4   4   4   4   4   4   4
#     4   9  18  33  51  72 101 134 167 207 254 302
#     4   9  18  33  52  73 100 133 168 210 254 303
#     4   9  18  33  51  72 101 134 167 207 254 302
#     4   9  18  33  51  73 102 132 166 209 255 300
#     4   9  18  33  52  73 100 133 168 210 254 303
#     4   9  18  33  51  73 102 132 166 209 255 300
#     4   9  18  33  50  71 103 135 165 207 255 305
#     4   9  18  33  50  71 103 135 165 207 255 305
#
# _framework density 24.554614999999998
#
# number of rings (size 3 to 8) (size 9 to 14) (size 15 to 20)
#    0.000    3.000    0.000    0.000    0.000    3.000 
#    0.000   15.000    0.000    0.000    0.000    0.000 
#    0.000    0.000    0.000    0.000    0.000    0.000 
#
# Total GULP energy -178672.594601 kJ/mol
# GULP energy per Si atom -5583.518581 kJ/mol
# Density = 2.449873 g / cm^3
# Si number density = 24.554615 Si / 1000 Ang^3
#
#
#
# Elastic Constant Matrix: (Units=GPa)
#
#
# Indices 1 2 3 4 5 6 
#
# 1 79.8322 50.7137 -0.8972 0.0000 -13.5238 0.0000
# 2 50.7137 170.4523 6.3244 0.0000 -5.2160 0.0000
# 3 -0.8972 6.3244 42.2244 0.0000 6.3779 0.0000
# 4 0.0000 0.0000 0.0000 2.5074 0.0000 -8.0741
# 5 -13.5238 -5.2160 6.3779 0.0000 32.8343 0.0000
# 6 0.0000 0.0000 0.0000 -8.0741 0.0000 25.7038
#
#
#
# Elastic Compliance Matrix: (Units=1/GPa)
#
#
# Indices 1 2 3 4 5 6 
#
# 1 0.016569 -0.004750 0.000151 0.000000 0.006040 0.000000
# 2 -0.004750 0.007303 -0.001107 0.000000 -0.000581 0.000000
# 3 0.000151 -0.001107 0.024591 0.000000 -0.004890 0.000000
# 4 0.000000 0.000000 0.000000-34.672678 0.000000-10.891410
# 5 0.006040 -0.000581 -0.004890 0.000000 0.033801 0.000000
# 6 0.000000 0.000000 0.000000-10.891410 0.000000 -3.382314
#
#
# Mechanical properties :
#
#
# Convention : Reuss Voigt Hill
#
# Bulk Modulus (GPa) = 26.99021 44.97675 35.98348
# Shear Modulus (GPa) = -0.13176 27.96698 13.91761
#
# Velocity S-wave (km/s) = -0.23189 3.37852 2.38334
# Velocity P-wave (km/s) = 3.30818 5.79448 4.71806
#
# Compressibility (1/GPa) = 0.03705047
#
# Stress axis : x y z
#
# Youngs Moduli (GPa) = 60.35375 136.92251 40.66587
#
# Poissons Ratio (x) = 0.65044 -0.00615
# Poissons Ratio (y) = 0.28671 0.04502
# Poissons Ratio (z) = -0.00913 0.15158
#
# Static dielectric constant tensor:
#      x y z
#    x 1.982370 0.000000 0.051960 
#    y 0.000000 2.031170 0.000000 
#    z 0.051960 0.000000 1.978210 
# 
# From -- ./inp_files/46511.got.cif
#   From: 2010.05.17/outbox.cif.g08.bks.cpg/sg14_24_cif.got.tgz:46511.got - 2010.06.03 17:49:19.
