data_PCOD9253177
_publ_section_title
;
Structure prediction by ZEFSAII (Michael W. Deem and Ramdas Pophale) SiO2 
 PCOD9253177
Probable space group: P 21/C
;
_chemical_formula_sum "Si O2"
_cell_formula_units_Z 18
_cell_length_a 16.245897
_cell_length_b 3.389647
_cell_length_c 14.750286
_cell_angle_alpha 90.000000
_cell_angle_beta 134.848620
_cell_angle_gamma 90.000000
_cell_volume 575.874736
_symmetry_space_group_name_H-M "P 21/C"
_symmetry_group_IT_number 14
_symmetry_cell_setting 'monoclinic'
loop_
_space_group_symop_operation_xyz
x,y,z
-x,1/2+y,1/2-z
-x,-y,-z
x,1/2-y,1/2+z
loop_
_atom_site_type_symbol
_atom_site_label
_atom_site_fract_x
_atom_site_fract_y
_atom_site_fract_z
Si Si1 0.074544 0.174483 0.355661
Si Si2 0.000000 0.000000 0.500000
Si Si3 0.691719 0.760190 0.580773
Si Si4 0.247994 0.750831 0.737354
Si Si5 0.464823 0.745916 0.787862
O O1 0.202911 0.211086 0.410723
O O2 0.038041 0.671973 0.313828
O O3 0.073102 0.131970 0.463766
O O4 0.261248 0.247086 0.271976
O O5 0.108934 0.744881 0.623072
O O6 0.696585 0.259930 0.610199
O O7 0.559702 0.756522 0.442084
O O8 0.331839 0.748202 0.716207
O O9 0.527144 0.745952 0.730959
#
# Coordination Sequence:
#
# PCOD9253177 Si02
#       5
#     4   2   4   4   4
#     4  12  25  46  69 108 148 192 250 305 371 443
#     4  12  26  46  76 108 152 198 254 296 386 448
#     4  12  24  48  72 106 152 195 253 315 375 451
#     4  12  26  45  74 109 147 203 250 310 381 453
#     4  12  26  47  73 109 146 198 259 314 378 457
#
# _framework density 31.256796999999999
#
# number of rings (size 3 to 8) (size 9 to 14) (size 15 to 20)
#    0.000    0.000    4.444    5.333    0.000    5.333 
#    0.000    0.000    0.000    0.000    0.000    0.000 
#    0.000    0.000    0.000    0.000    0.000    0.000 
#
# Total GULP energy -100525.797271 kJ/mol
# GULP energy per Si atom -5584.766515 kJ/mol
# Density = 3.118566 g / cm^3
# Si number density = 31.256797 Si / 1000 Ang^3
#
#
#
# Elastic Constant Matrix: (Units=GPa)
#
#
# Indices 1 2 3 4 5 6 
#
# 1 135.5377 35.1571 49.6459 0.0000 13.2622 0.0000
# 2 35.1571 302.0329 18.3962 0.0000 -28.9445 0.0000
# 3 49.6459 18.3962 88.0534 0.0000 19.7584 0.0000
# 4 0.0000 0.0000 0.0000 109.4967 0.0000 -42.3987
# 5 13.2622 -28.9445 19.7584 0.0000 45.1065 0.0000
# 6 0.0000 0.0000 0.0000 -42.3987 0.0000 48.8033
#
#
#
# Elastic Compliance Matrix: (Units=1/GPa)
#
#
# Indices 1 2 3 4 5 6 
#
# 1 0.009538 -0.000932 -0.004901 0.000000 -0.001255 0.000000
# 2 -0.000932 0.003777 -0.000964 0.000000 0.003120 0.000000
# 3 -0.004901 -0.000964 0.015678 0.000000 -0.006045 0.000000
# 4 0.000000 0.000000 0.000000 0.013762 0.000000 0.011956
# 5 -0.001255 0.003120 -0.006045 0.000000 0.027189 0.000000
# 6 0.000000 0.000000 0.000000 0.011956 0.000000 0.030878
#
#
# Mechanical properties :
#
#
# Convention : Reuss Voigt Hill
#
# Bulk Modulus (GPa) = 64.93914 81.33581 73.13747
# Shear Modulus (GPa) = 41.82412 68.84296 55.33354
#
# Velocity S-wave (km/s) = 3.66195 4.69817 4.21204
# Velocity P-wave (km/s) = 6.22101 7.45041 6.86329
#
# Compressibility (1/GPa) = 0.01539903
#
# Stress axis : x y z
#
# Youngs Moduli (GPa) = 104.84522 264.75572 63.78423
#
# Poissons Ratio (x) = 0.24676 0.31262
# Poissons Ratio (y) = 0.09772 0.06147
# Poissons Ratio (z) = 0.51386 0.25514
#
# Static dielectric constant tensor:
#      x y z
#    x 2.005400 0.000000 -0.120470 
#    y 0.000000 3.039440 0.000000 
#    z -0.120470 0.000000 2.301050 
# 
# From -- ./inp_files/46050.got.cif
#   From: 2010.05.17/outbox.cif.g08.bks.cpg/sg14_24_cif.got.tgz:46050.got - 2010.06.03 17:49:19.
