data_PCOD9253324
_publ_section_title
;
Structure prediction by ZEFSAII (Michael W. Deem and Ramdas Pophale) SiO2 
 PCOD9253324
Probable space group: P 21/C
;
_chemical_formula_sum "Si O2"
_cell_formula_units_Z 16
_cell_length_a 11.529637
_cell_length_b 6.953893
_cell_length_c 17.999113
_cell_angle_alpha 90.000000
_cell_angle_beta 149.500049
_cell_angle_gamma 90.000000
_cell_volume 732.424706
_symmetry_space_group_name_H-M "P 21/C"
_symmetry_group_IT_number 14
_symmetry_cell_setting 'monoclinic'
loop_
_space_group_symop_operation_xyz
x,y,z
-x,1/2+y,1/2-z
-x,-y,-z
x,1/2-y,1/2+z
loop_
_atom_site_type_symbol
_atom_site_label
_atom_site_fract_x
_atom_site_fract_y
_atom_site_fract_z
Si Si1 0.863632 0.826001 0.102069
Si Si2 0.214885 0.002681 0.564703
Si Si3 0.281416 0.404982 0.838417
Si Si4 0.551706 0.349047 0.372650
O O1 0.848261 0.731040 0.174350
O O2 0.818000 0.661377 0.016671
O O3 0.105596 0.927151 0.220366
O O4 0.667541 0.986693 0.985807
O O5 0.431264 0.444302 0.235264
O O6 0.000000 0.000000 0.500000
O O7 0.256348 0.797690 0.549938
O O8 0.373044 0.278187 0.820929
O O9 0.500000 0.500000 0.000000
#
# Coordination Sequence:
#
# PCOD9253324 Si02
#       4
#     4   4   4   4
#     4  12  28  49  74 109 147 188 246 300 360 435
#     4  12  28  45  77 110 146 194 241 300 364 428
#     4  12  27  47  76 104 146 196 241 295 364 428
#     4  12  26  50  73 108 146 193 241 299 366 431
#
# _framework density 21.845248000000002
#
# number of rings (size 3 to 8) (size 9 to 14) (size 15 to 20)
#    0.000    0.000    5.000    3.750   10.500    2.000 
#    0.000    0.000    0.000    0.000    0.000    0.000 
#    0.000    0.000    0.000    0.000    0.000    0.000 
#
# Total GULP energy -89713.142866 kJ/mol
# GULP energy per Si atom -5607.071429 kJ/mol
# Density = 2.179553 g / cm^3
# Si number density = 21.845248 Si / 1000 Ang^3
#
#
#
# Elastic Constant Matrix: (Units=GPa)
#
#
# Indices 1 2 3 4 5 6 
#
# 1 69.8543 -7.7544 -29.6909 0.0000 5.5212 0.0000
# 2 -7.7544 69.5283 0.3686 0.0000 -2.9181 0.0000
# 3 -29.6909 0.3686 61.0432 0.0000 -4.6100 0.0000
# 4 0.0000 0.0000 0.0000 55.8860 0.0000 4.6627
# 5 5.5212 -2.9181 -4.6100 0.0000 35.0425 0.0000
# 6 0.0000 0.0000 0.0000 4.6627 0.0000 35.0515
#
#
#
# Elastic Compliance Matrix: (Units=1/GPa)
#
#
# Indices 1 2 3 4 5 6 
#
# 1 0.018405 0.001940 0.008821 0.000000 -0.001578 0.000000
# 2 0.001940 0.014638 0.000933 0.000000 0.001036 0.000000
# 3 0.008821 0.000933 0.020774 0.000000 0.001421 0.000000
# 4 0.000000 0.000000 0.000000 0.018094 0.000000 -0.002407
# 5 -0.001578 0.001036 0.001421 0.000000 0.029059 0.000000
# 6 0.000000 0.000000 0.000000 -0.002407 0.000000 0.028850
#
#
# Mechanical properties :
#
#
# Convention : Reuss Voigt Hill
#
# Bulk Modulus (GPa) = 12.95259 14.03025 13.49142
# Shear Modulus (GPa) = 37.83131 41.02950 39.43040
#
# Velocity S-wave (km/s) = 4.16599 4.33851 4.25312
# Velocity P-wave (km/s) = 5.39284 5.61546 5.50528
#
# Compressibility (1/GPa) = 0.07720464
#
# Stress axis : x y z
#
# Youngs Moduli (GPa) = 54.33340 68.31764 48.13703
#
# Poissons Ratio (x) = -0.13251 -0.42462
# Poissons Ratio (y) = -0.10539 -0.04493
# Poissons Ratio (z) = -0.47928 -0.06376
#
# Static dielectric constant tensor:
#      x y z
#    x 1.745720 0.000000 0.000870 
#    y 0.000000 1.760380 0.000000 
#    z 0.000870 0.000000 1.804850 
# 
# From -- ./inp_files/30924.got.cif
#   From: 2010.05.17/outbox.cif.g08.bks.cpg/sg14_16_cif.got.tgz:30924.got - 2010.06.03 17:49:19.
