data_PCOD9253815
_publ_section_title
;
Structure prediction by ZEFSAII (Michael W. Deem and Ramdas Pophale) SiO2 
 PCOD9253815
Probable space group: C 2/C
;
_chemical_formula_sum "Si O2"
_cell_formula_units_Z 48
_cell_length_a 16.062445
_cell_length_b 7.047799
_cell_length_c 19.352789
_cell_angle_alpha 90.000000
_cell_angle_beta 54.620771
_cell_angle_gamma 90.000000
_cell_volume 1786.266578
_symmetry_space_group_name_H-M "C 2/C"
_symmetry_group_IT_number 15
_symmetry_cell_setting 'monoclinic'
loop_
_space_group_symop_operation_xyz
x,y,z
-x,y,1/2-z
-x,-y,-z
x,-y,1/2+z
1/2+x,1/2+y,z
1/2-x,1/2+y,1/2-z
1/2-x,1/2-y,-z
1/2+x,1/2-y,1/2+z
loop_
_atom_site_type_symbol
_atom_site_label
_atom_site_fract_x
_atom_site_fract_y
_atom_site_fract_z
Si Si1 0.163128 0.523590 0.979329
Si Si2 0.760481 0.496881 0.347999
Si Si3 0.043375 0.497129 0.160973
Si Si4 0.785501 0.391136 0.189575
Si Si5 0.453890 0.409675 0.198351
Si Si6 0.639308 0.522417 0.525921
O O1 0.158425 0.496527 0.898820
O O2 0.277775 0.481422 0.953165
O O3 0.079497 0.422340 0.069135
O O4 0.147486 0.751087 0.003077
O O5 0.847534 0.562584 0.359453
O O6 0.810812 0.394199 0.258370
O O7 0.709754 0.676895 0.337409
O O8 0.676771 0.410119 0.439811
O O9 0.000000 0.390313 0.250000
O O10 0.974233 0.682257 0.181965
O O11 0.665506 0.440839 0.244779
O O12 0.500000 0.460279 0.250000
O O13 0.524817 0.505500 0.107027
#
# Coordination Sequence:
#
# PCOD9253815 Si02
#       6
#     8   8   8   8   8   8
#     4   8  14  25  46  71  94 120 167 206 239 272
#     4  10  20  31  49  75 108 125 161 207 263 278
#     4   9  15  30  52  73  87 130 179 204 219 296
#     4  11  19  31  49  78 102 130 158 214 248 293
#     4  10  14  26  53  76  88 122 183 204 222 281
#     4   8  14  26  45  72  95 125 166 211 231 284
#
# _framework density 26.871690000000001
#
# number of rings (size 3 to 8) (size 9 to 14) (size 15 to 20)
#    0.000    2.667    5.000    2.000    0.000    0.667 
#    0.000    0.833    0.000    5.000    0.000    0.000 
#    0.000    0.000    0.000    0.000    0.000    0.000 
#
# Total GULP energy -133991.483099 kJ/mol
# GULP energy per Si atom -5582.978462 kJ/mol
# Density = 2.681053 g / cm^3
# Si number density = 26.871690 Si / 1000 Ang^3
#
#
#
# Elastic Constant Matrix: (Units=GPa)
#
#
# Indices 1 2 3 4 5 6 
#
# 1 67.3623 8.8962 36.6874 0.0002 16.1339 0.0010
# 2 8.8962 61.1833 15.6507 0.0005 3.2719 0.0019
# 3 36.6874 15.6507 273.5824 0.0000 3.2846 0.0002
# 4 0.0002 0.0005 0.0000 17.8760 0.0000 6.8379
# 5 16.1339 3.2719 3.2846 0.0000 41.2698 0.0002
# 6 0.0010 0.0019 0.0002 6.8379 0.0002 8.4717
#
#
#
# Elastic Compliance Matrix: (Units=1/GPa)
#
#
# Indices 1 2 3 4 5 6 
#
# 1 0.017875 -0.001674 -0.002221 0.000001 -0.006679 -0.000002
# 2 -0.001674 0.016807 -0.000730 0.000001 -0.000620 -0.000005
# 3 -0.002221 -0.000730 0.003987 0.000000 0.000609 0.000000
# 4 0.000001 0.000001 0.000000 0.080927 0.000000 -0.065320
# 5 -0.006679 -0.000620 0.000609 0.000000 0.026842 0.000000
# 6 -0.000002 -0.000005 0.000000 -0.065320 0.000000 0.170762
#
#
# Mechanical properties :
#
#
# Convention : Reuss Voigt Hill
#
# Bulk Modulus (GPa) = 33.98894 58.28850 46.13872
# Shear Modulus (GPa) = 14.86954 36.24977 25.55965
#
# Velocity S-wave (km/s) = 2.35490 3.67685 3.08746
# Velocity P-wave (km/s) = 4.47997 6.30588 5.46966
#
# Compressibility (1/GPa) = 0.02942133
#
# Stress axis : x y z
#
# Youngs Moduli (GPa) = 55.94262 59.49727 250.78425
#
# Poissons Ratio (x) = 0.09959 0.55703
# Poissons Ratio (y) = 0.09364 0.18297
# Poissons Ratio (z) = 0.12426 0.04341
#
# Static dielectric constant tensor:
#      x y z
#    x 2.050700 0.000000 0.006620 
#    y 0.000000 2.224960 0.000000 
#    z 0.006620 0.000000 2.229440 
# 
# From -- ./inp_files/203637.got.cif
#   From: 2010.05.17/outbox.cif.g08.bks.cpg/sg15_102_cif.got.tgz:203637.got - 2010.06.03 18:47:42.
