data_PCOD9253481
_publ_section_title
;
Structure prediction by ZEFSAII (Michael W. Deem and Ramdas Pophale) SiO2 
 PCOD9253481
Probable space group: P 21/C
;
_chemical_formula_sum "Si O2"
_cell_formula_units_Z 28
_cell_length_a 9.000000
_cell_length_b 27.000000
_cell_length_c 6.000000
_cell_angle_alpha 90.000000
_cell_angle_beta 80.000000
_cell_angle_gamma 90.000000
_cell_volume 1435.849704
_symmetry_space_group_name_H-M "P 21/C"
_symmetry_group_IT_number 14
_symmetry_cell_setting 'monoclinic'
loop_
_space_group_symop_operation_xyz
x,y,z
-x,1/2+y,1/2-z
-x,-y,-z
x,1/2-y,1/2+z
loop_
_atom_site_type_symbol
_atom_site_label
_atom_site_fract_x
_atom_site_fract_y
_atom_site_fract_z
Si Si1 0.957093 0.049266 0.876134
Si Si2 0.774178 0.551945 0.043568
Si Si3 0.492865 0.264829 0.134792
Si Si4 0.382488 0.967488 0.180735
Si Si5 0.582135 0.623182 0.792396
Si Si6 0.137788 0.122273 0.099596
Si Si7 0.857226 0.729987 0.251958
O O1 0.778104 0.046341 0.887467
O O2 0.070918 0.046278 0.634530
O O3 0.003789 0.100813 0.982709
O O4 0.000000 0.000000 0.000000
O O5 0.669312 0.593600 0.961688
O O6 0.675577 0.502443 0.100673
O O7 0.817602 0.574350 0.269100
O O8 0.556135 0.253106 0.372657
O O9 0.485748 0.324470 0.119696
O O10 0.322714 0.241946 0.194521
O O11 0.465540 0.916925 0.226234
O O12 0.500000 0.000000 0.000000
O O13 0.715291 0.635224 0.583448
O O14 0.106543 0.171333 0.249681
O O15 0.909052 0.749937 0.489688
#
# Coordination Sequence:
#
# PCOD9253481 Si02
#       7
#     4   4   4   4   4   4   4
#     4  11  24  42  61  88 128 170 215 262 323 391
#     4  11  22  40  62  88 129 169 208 262 325 387
#     4  10  19  34  59  90 127 160 212 274 322 375
#     4  12  23  41  61  90 131 168 214 264 319 394
#     4  11  22  35  60  96 121 162 216 267 321 383
#     4  11  21  37  64  90 122 167 211 265 320 383
#     4  10  19  33  59  94 125 158 216 273 316 374
#
# _framework density 19.500648000000002
#
# number of rings (size 3 to 8) (size 9 to 14) (size 15 to 20)
#    0.000    1.143    5.714    3.429    2.000    0.000 
#    0.000    0.000    0.000    1.714    0.000    0.000 
#    0.000    0.000    0.000    0.000    0.000    0.000 
#
# Total GULP energy -156016.415473 kJ/mol
# GULP energy per Si atom -5572.014838 kJ/mol
# Density = 1.945626 g / cm^3
# Si number density = 19.500648 Si / 1000 Ang^3
#
#
#
# Elastic Constant Matrix: (Units=GPa)
#
#
# Indices 1 2 3 4 5 6 
#
# 1 76.2342 15.2487 5.1429 0.0000 3.2550 0.0000
# 2 15.2487 93.6372 -7.9322 0.0000 10.9912 0.0000
# 3 5.1429 -7.9322 63.8290 0.0000 13.7746 0.0000
# 4 0.0000 0.0000 0.0000 31.4416 0.0000 8.3312
# 5 3.2550 10.9912 13.7746 0.0000 18.3311 0.0000
# 6 0.0000 0.0000 0.0000 8.3312 0.0000 23.4918
#
#
#
# Elastic Compliance Matrix: (Units=1/GPa)
#
#
# Indices 1 2 3 4 5 6 
#
# 1 0.013681 -0.002351 -0.001402 0.000000 0.000033 0.000000
# 2 -0.002351 0.012577 0.003927 0.000000 -0.010075 0.000000
# 3 -0.001402 0.003927 0.019959 0.000000 -0.017103 0.000000
# 4 0.000000 0.000000 0.000000 0.035104 0.000000 -0.012449
# 5 0.000033 -0.010075 -0.017103 0.000000 0.073439 0.000000
# 6 0.000000 0.000000 0.000000 -0.012449 0.000000 0.046983
#
#
# Mechanical properties :
#
#
# Convention : Reuss Voigt Hill
#
# Bulk Modulus (GPa) = 21.47501 28.73547 25.10524
# Shear Modulus (GPa) = 23.05045 29.40230 26.22638
#
# Velocity S-wave (km/s) = 3.44180 3.88720 3.67126
# Velocity P-wave (km/s) = 5.17987 5.90887 5.55634
#
# Compressibility (1/GPa) = 0.04656574
#
# Stress axis : x y z
#
# Youngs Moduli (GPa) = 73.09531 79.50717 50.10351
#
# Poissons Ratio (x) = 0.18688 0.07023
# Poissons Ratio (y) = 0.17181 -0.19673
# Poissons Ratio (z) = 0.10245 -0.31219
#
# Static dielectric constant tensor:
#      x y z
#    x 1.689020 0.000000 0.054220 
#    y 0.000000 1.689540 0.000000 
#    z 0.054220 0.000000 1.819530 
# 
# From -- ./inp_files/1877.got.cif
#   From: 2010.05.17/outbox.ucp.g08.bks.cvg/sg14_1_cif.got.tgz:1877.got - 2010.06.11 12:31:08.
