data_PCOD9253804
_publ_section_title
;
Structure prediction by ZEFSAII (Michael W. Deem and Ramdas Pophale) SiO2 
 PCOD9253804
Probable space group: C 2/C
;
_chemical_formula_sum "Si O2"
_cell_formula_units_Z 44
_cell_length_a 24.198343
_cell_length_b 16.789130
_cell_length_c 17.971726
_cell_angle_alpha 90.000000
_cell_angle_beta 159.749290
_cell_angle_gamma 90.000000
_cell_volume 2527.209228
_symmetry_space_group_name_H-M "C 2/C"
_symmetry_group_IT_number 15
_symmetry_cell_setting 'monoclinic'
loop_
_space_group_symop_operation_xyz
x,y,z
-x,y,1/2-z
-x,-y,-z
x,-y,1/2+z
1/2+x,1/2+y,z
1/2-x,1/2+y,1/2-z
1/2-x,1/2-y,-z
1/2+x,1/2-y,1/2+z
loop_
_atom_site_type_symbol
_atom_site_label
_atom_site_fract_x
_atom_site_fract_y
_atom_site_fract_z
Si Si1 0.506447 0.540041 0.885879
Si Si2 0.105559 0.105999 0.158359
Si Si3 0.471300 0.080482 0.624753
Si Si4 0.000000 0.141678 0.250000
Si Si5 0.093077 0.750771 0.748660
Si Si6 0.270923 0.505416 0.466116
O O1 0.485948 0.454458 0.901362
O O2 0.353322 0.551521 0.638901
O O3 0.525699 0.601868 0.976809
O O4 0.657778 0.537414 0.021171
O O5 0.283914 0.070575 0.376322
O O6 0.119385 0.193599 0.210823
O O7 0.500000 0.089854 0.750000
O O8 0.528056 0.162375 0.657542
O O9 0.584270 0.009445 0.738750
O O10 0.968526 0.198755 0.141165
O O11 0.146777 0.082301 0.421630
O O12 0.250000 0.750000 0.000000
#
# Coordination Sequence:
#
# PCOD9253804 Si02
#       6
#     8   8   8   4   8   8
#     4   9  19  33  49  66  97 136 171 207 234 299
#     4  11  20  31  47  73 101 133 171 199 247 288
#     4  12  20  28  47  78 104 130 165 199 243 304
#     4  10  14  26  38  64  90 126 160 176 230 296
#     4  12  17  27  45  70 103 133 158 193 242 304
#     4  10  18  33  50  67  95 133 172 198 249 286
#
# _framework density 17.410509000000001
#
# number of rings (size 3 to 8) (size 9 to 14) (size 15 to 20)
#    0.000    1.455   10.000    0.000    0.000    0.727 
#    0.000    0.000    0.000    0.000    0.000    5.091 
#    0.000    0.000    0.000    0.545    0.000    0.000 
#
# Total GULP energy -122578.797075 kJ/mol
# GULP energy per Si atom -5571.763503 kJ/mol
# Density = 1.737088 g / cm^3
# Si number density = 17.410509 Si / 1000 Ang^3
#
#
#
# Elastic Constant Matrix: (Units=GPa)
#
#
# Indices 1 2 3 4 5 6 
#
# 1 102.0650 23.0186 34.6937 -0.0002 -12.5505 -0.0002
# 2 23.0186 31.6759 9.8013 -0.0001 -9.5918 -0.0001
# 3 34.6937 9.8013 54.8823 -0.0002 2.3784 -0.0002
# 4 -0.0002 -0.0001 -0.0002 13.7944 -0.0001 -9.8990
# 5 -12.5505 -9.5918 2.3784 -0.0001 25.2421 -0.0001
# 6 -0.0002 -0.0001 -0.0002 -9.8990 -0.0001 20.1811
#
#
#
# Elastic Compliance Matrix: (Units=1/GPa)
#
#
# Indices 1 2 3 4 5 6 
#
# 1 0.014832 -0.006419 -0.008478 0.000000 0.005735 0.000000
# 2 -0.006419 0.041336 -0.003883 0.000001 0.012882 0.000001
# 3 -0.008478 -0.003883 0.024621 0.000000 -0.008011 0.000000
# 4 0.000000 0.000001 0.000000 0.111871 0.000001 0.054874
# 5 0.005735 0.012882 -0.008011 0.000001 0.048118 0.000001
# 6 0.000000 0.000001 0.000000 0.054874 0.000001 0.076467
#
#
# Mechanical properties :
#
#
# Convention : Reuss Voigt Hill
#
# Bulk Modulus (GPa) = 23.13219 35.96116 29.54668
# Shear Modulus (GPa) = 13.54223 19.91749 16.72986
#
# Velocity S-wave (km/s) = 2.79197 3.38597 3.10321
# Velocity P-wave (km/s) = 4.86915 5.99884 5.46327
#
# Compressibility (1/GPa) = 0.04322980
#
# Stress axis : x y z
#
# Youngs Moduli (GPa) = 67.41994 24.19179 40.61568
#
# Poissons Ratio (x) = 0.15528 0.34436
# Poissons Ratio (y) = 0.43274 0.15771
# Poissons Ratio (z) = 0.57162 0.09393
#
# Static dielectric constant tensor:
#      x y z
#    x 1.667950 0.000000 0.039400 
#    y 0.000000 1.591270 0.000000 
#    z 0.039400 0.000000 1.634720 
# 
# From -- ./inp_files/219922.got.cif
#   From: 2010.05.17/outbox.cif.g08.bks.cpg/sg15_110_cif.got.tgz:219922.got - 2010.06.03 18:47:42.
