data_PCOD9253051
_publ_section_title
;
Structure prediction by ZEFSAII (Michael W. Deem and Ramdas Pophale) SiO2 
 PCOD9253051
Probable space group: P 21/C
;
_chemical_formula_sum "Si O2"
_cell_formula_units_Z 20
_cell_length_a 23.115755
_cell_length_b 5.609370
_cell_length_c 9.610092
_cell_angle_alpha 90.000000
_cell_angle_beta 143.060492
_cell_angle_gamma 90.000000
_cell_volume 748.865103
_symmetry_space_group_name_H-M "P 21/C"
_symmetry_group_IT_number 14
_symmetry_cell_setting 'monoclinic'
loop_
_space_group_symop_operation_xyz
x,y,z
-x,1/2+y,1/2-z
-x,-y,-z
x,1/2-y,1/2+z
loop_
_atom_site_type_symbol
_atom_site_label
_atom_site_fract_x
_atom_site_fract_y
_atom_site_fract_z
Si Si1 0.759965 0.549936 0.572626
Si Si2 0.286624 0.086282 0.309346
Si Si3 0.922855 0.632394 0.255088
Si Si4 0.881188 0.242979 0.972552
Si Si5 0.472556 0.548443 0.281299
O O1 0.688130 0.559263 0.304393
O O2 0.847426 0.729263 0.702869
O O3 0.821418 0.316350 0.721725
O O4 0.709969 0.655892 0.613289
O O5 0.176062 0.991167 0.092120
O O6 0.356721 0.933492 0.540948
O O7 0.000000 0.500000 0.500000
O O8 0.004064 0.767463 0.321576
O O9 0.863788 0.450843 0.049022
O O10 0.506009 0.802590 0.271348
O O11 0.500000 0.500000 0.500000
#
# Coordination Sequence:
#
# PCOD9253051 Si02
#       5
#     4   4   4   4   4
#     4  12  25  46  68 107 145 198 250 308 370 453
#     4  12  28  46  79 107 148 194 252 314 385 468
#     4  12  22  42  63 100 146 199 248 300 369 436
#     4  12  25  42  69 100 147 197 252 307 368 447
#     4  12  30  55  89 125 165 211 267 344 425 502
#
# _framework density 26.707080999999999
#
# number of rings (size 3 to 8) (size 9 to 14) (size 15 to 20)
#    0.000    0.000    4.000    6.000    5.600    0.000 
#    0.000    0.000    0.000    0.000    0.000    0.000 
#    0.000    0.000    0.000    0.000    0.000    0.000 
#
# Total GULP energy -111562.386457 kJ/mol
# GULP energy per Si atom -5578.119323 kJ/mol
# Density = 2.664629 g / cm^3
# Si number density = 26.707081 Si / 1000 Ang^3
#
#
#
# Elastic Constant Matrix: (Units=GPa)
#
#
# Indices 1 2 3 4 5 6 
#
# 1 63.6581 35.5887 33.2663 0.0000 -36.6238 0.0000
# 2 35.5887 80.5310 9.2846 0.0000 -11.7557 0.0000
# 3 33.2663 9.2846 173.1435 0.0000 -22.2222 0.0000
# 4 0.0000 0.0000 0.0000 46.0211 0.0000 -1.2151
# 5 -36.6238 -11.7557 -22.2222 0.0000 65.5629 0.0000
# 6 0.0000 0.0000 0.0000 -1.2151 0.0000 61.7198
#
#
#
# Elastic Compliance Matrix: (Units=1/GPa)
#
#
# Indices 1 2 3 4 5 6 
#
# 1 0.033003 -0.011958 -0.003773 0.000000 0.015013 0.000000
# 2 -0.011958 0.017112 0.000958 0.000000 -0.003287 0.000000
# 3 -0.003773 0.000958 0.006483 0.000000 0.000261 0.000000
# 4 0.000000 0.000000 0.000000 0.021740 0.000000 0.000428
# 5 0.015013 -0.003287 0.000261 0.000000 0.023138 0.000000
# 6 0.000000 0.000000 0.000000 0.000428 0.000000 0.016211
#
#
# Mechanical properties :
#
#
# Convention : Reuss Voigt Hill
#
# Bulk Modulus (GPa) = 36.96667 52.62352 44.79510
# Shear Modulus (GPa) = 31.99993 50.60694 41.30344
#
# Velocity S-wave (km/s) = 3.46523 4.35775 3.93687
# Velocity P-wave (km/s) = 5.46644 6.71318 6.12163
#
# Compressibility (1/GPa) = 0.02705140
#
# Stress axis : x y z
#
# Youngs Moduli (GPa) = 30.30018 58.43854 154.25840
#
# Poissons Ratio (x) = 0.69883 0.58200
# Poissons Ratio (y) = 0.36234 -0.14780
# Poissons Ratio (z) = 0.11432 -0.05599
#
# Static dielectric constant tensor:
#      x y z
#    x 2.560980 0.000000 0.121100 
#    y 0.000000 2.381540 0.000000 
#    z 0.121100 0.000000 2.174220 
# 
# From -- ./inp_files/36049.got.cif
#   From: 2010.05.17/outbox.cif.g08.bks.cpg/sg14_19_cif.got.tgz:36049.got - 2010.06.03 17:49:19.
