data_PCOD9253519
_publ_section_title
;
Structure prediction by ZEFSAII (Michael W. Deem and Ramdas Pophale) SiO2 
 PCOD9253519
Probable space group: P 21/C
;
_chemical_formula_sum "Si O2"
_cell_formula_units_Z 32
_cell_length_a 18.000000
_cell_length_b 9.000000
_cell_length_c 30.000000
_cell_angle_alpha 90.000000
_cell_angle_beta 160.000000
_cell_angle_gamma 90.000000
_cell_volume 1662.217897
_symmetry_space_group_name_H-M "P 21/C"
_symmetry_group_IT_number 14
_symmetry_cell_setting 'monoclinic'
loop_
_space_group_symop_operation_xyz
x,y,z
-x,1/2+y,1/2-z
-x,-y,-z
x,1/2-y,1/2+z
loop_
_atom_site_type_symbol
_atom_site_label
_atom_site_fract_x
_atom_site_fract_y
_atom_site_fract_z
Si Si1 0.830484 0.536169 0.625885
Si Si2 0.333188 0.269606 0.035803
Si Si3 0.311954 0.880975 0.541166
Si Si4 0.217605 0.260390 0.568292
Si Si5 0.081792 0.258096 0.238960
Si Si6 0.751186 0.390916 0.800659
Si Si7 0.553130 0.036646 0.286173
Si Si8 0.589920 0.852873 0.146267
O O1 0.796204 0.681565 0.575183
O O2 0.883186 0.615687 0.702918
O O3 0.603814 0.447802 0.487051
O O4 0.008390 0.405728 0.715437
O O5 0.323141 0.447981 0.030552
O O6 0.226455 0.207714 0.020945
O O7 0.585861 0.222851 0.183033
O O8 0.327127 0.890139 0.603503
O O9 0.498080 0.770295 0.628472
O O10 0.101772 0.811446 0.399386
O O11 0.304838 0.403493 0.644204
O O12 0.985624 0.180995 0.443315
O O13 0.406254 0.137881 0.683644
O O14 0.294240 0.264098 0.328118
O O15 0.653643 0.430621 0.794212
O O16 0.737948 0.533082 0.759456
#
# Coordination Sequence:
#
# PCOD9253519 Si02
#       8
#     4   4   4   4   4   4   4   4
#     4  10  22  40  62  86 116 150 191 239 291 350
#     4   9  20  38  56  82 117 149 189 242 288 340
#     4  10  21  37  56  85 120 151 194 243 285 338
#     4  10  20  35  55  80 110 151 193 236 289 343
#     4  11  22  39  62  87 115 154 192 235 296 349
#     4  10  20  36  58  82 114 158 195 231 291 345
#     4  10  20  35  55  81 114 151 193 238 282 338
#     4  10  21  38  61  89 118 150 194 240 284 343
#
# _framework density 19.251387000000001
#
# number of rings (size 3 to 8) (size 9 to 14) (size 15 to 20)
#    0.000    2.000    0.000    3.750    0.000    3.000 
#    0.000   15.000    0.000    0.000    0.000    2.625 
#    0.000    0.000    0.000    0.000    0.000    0.000 
#
# Total GULP energy -178192.596131 kJ/mol
# GULP energy per Si atom -5568.518629 kJ/mol
# Density = 1.920757 g / cm^3
# Si number density = 19.251387 Si / 1000 Ang^3
#
#
#
# Elastic Constant Matrix: (Units=GPa)
#
#
# Indices 1 2 3 4 5 6 
#
# 1 71.2978 3.7787 27.4308 0.0000 -9.7318 0.0000
# 2 3.7787 41.1129 14.0288 0.0000 3.2636 0.0000
# 3 27.4308 14.0288 56.5299 0.0000 -6.9806 0.0000
# 4 0.0000 0.0000 0.0000 31.1740 0.0000 -9.1985
# 5 -9.7318 3.2636 -6.9806 0.0000 22.3308 0.0000
# 6 0.0000 0.0000 0.0000 -9.1985 0.0000 28.4767
#
#
#
# Elastic Compliance Matrix: (Units=1/GPa)
#
#
# Indices 1 2 3 4 5 6 
#
# 1 0.017842 0.000759 -0.008217 0.000000 0.005096 0.000000
# 2 0.000759 0.027453 -0.007943 0.000000 -0.006164 0.000000
# 3 -0.008217 -0.007943 0.024287 0.000000 0.005172 0.000000
# 4 0.000000 0.000000 0.000000 0.035458 0.000000 0.011453
# 5 0.005096 -0.006164 0.005172 0.000000 0.049520 0.000000
# 6 0.000000 0.000000 0.000000 0.011453 0.000000 0.038816
#
#
# Mechanical properties :
#
#
# Convention : Reuss Voigt Hill
#
# Bulk Modulus (GPa) = 25.78535 28.82414 27.30475
# Shear Modulus (GPa) = 21.08787 24.64312 22.86550
#
# Velocity S-wave (km/s) = 3.31327 3.58169 3.45009
# Velocity P-wave (km/s) = 5.29718 5.66654 5.48497
#
# Compressibility (1/GPa) = 0.03878170
#
# Stress axis : x y z
#
# Youngs Moduli (GPa) = 56.04611 36.42595 41.17473
#
# Poissons Ratio (x) = -0.02766 0.33834
# Poissons Ratio (y) = -0.04256 0.32703
# Poissons Ratio (z) = 0.46054 0.28931
#
# Static dielectric constant tensor:
#      x y z
#    x 1.685100 0.000000 0.037640 
#    y 0.000000 1.678540 0.000000 
#    z 0.037640 0.000000 1.705580 
# 
# From -- ./inp_files/80412.got.cif
#   From: 2010.05.17/outbox.ucp.g08.bks.cvg/sg14_41_cif.got.tgz:80412.got - 2010.06.11 12:31:08.
