data_PCOD9253525
_publ_section_title
;
Structure prediction by ZEFSAII (Michael W. Deem and Ramdas Pophale) SiO2 
 PCOD9253525
Probable space group: P 21/C
;
_chemical_formula_sum "Si O2"
_cell_formula_units_Z 32
_cell_length_a 12.000000
_cell_length_b 18.000000
_cell_length_c 9.000000
_cell_angle_alpha 90.000000
_cell_angle_beta 60.000000
_cell_angle_gamma 90.000000
_cell_volume 1683.553385
_symmetry_space_group_name_H-M "P 21/C"
_symmetry_group_IT_number 14
_symmetry_cell_setting 'monoclinic'
loop_
_space_group_symop_operation_xyz
x,y,z
-x,1/2+y,1/2-z
-x,-y,-z
x,1/2-y,1/2+z
loop_
_atom_site_type_symbol
_atom_site_label
_atom_site_fract_x
_atom_site_fract_y
_atom_site_fract_z
Si Si1 0.626301 0.488206 0.706965
Si Si2 0.261024 0.668608 0.401314
Si Si3 0.961823 0.674478 0.107332
Si Si4 0.130418 0.437281 0.616816
Si Si5 0.756473 0.185058 0.436561
Si Si6 0.966817 0.654155 0.589790
Si Si7 0.335728 0.977196 0.462525
Si Si8 0.074016 0.440864 0.122365
O O1 0.651683 0.403167 0.643983
O O2 0.734263 0.533453 0.540249
O O3 0.473881 0.504905 0.797145
O O4 0.657214 0.494647 0.863892
O O5 0.246364 0.688064 0.238212
O O6 0.305682 0.740754 0.457976
O O7 0.114501 0.651162 0.546544
O O8 0.857240 0.631818 0.277861
O O9 0.931585 0.759759 0.083408
O O10 0.096216 0.680802 0.106201
O O11 0.980428 0.616073 0.962530
O O12 0.048959 0.400263 0.538143
O O13 0.036040 0.500249 0.751851
O O14 0.687191 0.110624 0.534221
O O15 0.886244 0.614480 0.771181
O O16 0.205702 0.016800 0.489163
#
# Coordination Sequence:
#
# PCOD9253525 Si02
#       8
#     4   4   4   4   4   4   4   4
#     4  10  21  38  65  85 117 157 211 238 294 360
#     4  10  20  36  58  91 116 157 199 246 297 361
#     4  11  24  36  56  94 128 154 188 259 316 347
#     4  12  20  38  62  92 113 156 208 247 297 359
#     4  10  21  36  60  86 123 153 199 244 302 361
#     4  11  21  36  59  88 119 159 200 247 299 365
#     4  10  21  40  61  89 115 162 198 251 294 353
#     4  12  22  37  63  89 120 153 201 255 298 351
#
# _framework density 19.007415999999999
#
# number of rings (size 3 to 8) (size 9 to 14) (size 15 to 20)
#    0.000    1.250    5.000    2.250    5.250    0.000 
#    0.000    3.125    0.000    0.000    0.000    0.000 
#    0.000    0.000    0.000    0.000    0.000    0.000 
#
# Total GULP energy -178471.823102 kJ/mol
# GULP energy per Si atom -5577.244472 kJ/mol
# Density = 1.896415 g / cm^3
# Si number density = 19.007416 Si / 1000 Ang^3
#
#
#
# Elastic Constant Matrix: (Units=GPa)
#
#
# Indices 1 2 3 4 5 6 
#
# 1 28.2139 22.6974 19.3355 0.0000 -26.3902 0.0000
# 2 22.6974 117.3319 45.4380 0.0000 -18.8994 0.0000
# 3 19.3355 45.4380 62.9923 0.0000 -25.8187 0.0000
# 4 0.0000 0.0000 0.0000 31.8034 0.0000 3.8603
# 5 -26.3902 -18.8994 -25.8187 0.0000 33.4201 0.0000
# 6 0.0000 0.0000 0.0000 3.8603 0.0000 23.7769
#
#
#
# Elastic Compliance Matrix: (Units=1/GPa)
#
#
# Indices 1 2 3 4 5 6 
#
# 1 0.154106 -0.015542 0.014901 0.000000 0.124413 0.000000
# 2 -0.015542 0.013394 -0.009975 0.000000 -0.012405 0.000000
# 3 0.014901 -0.009975 0.030741 0.000000 0.029875 0.000000
# 4 0.000000 0.000000 0.000000 0.032075 0.000000 -0.005208
# 5 0.124413 -0.012405 0.029875 0.000000 0.144230 0.000000
# 6 0.000000 0.000000 0.000000 -0.005208 0.000000 0.042903
#
#
# Mechanical properties :
#
#
# Convention : Reuss Voigt Hill
#
# Bulk Modulus (GPa) = 5.64940 42.60887 24.12914
# Shear Modulus (GPa) = 10.04649 25.87122 17.95885
#
# Velocity S-wave (km/s) = 2.30153 3.69333 3.07715
# Velocity P-wave (km/s) = 3.16881 6.37599 5.03461
#
# Compressibility (1/GPa) = 0.17701002
#
# Stress axis : x y z
#
# Youngs Moduli (GPa) = 6.48902 74.65843 32.52945
#
# Poissons Ratio (x) = 1.16034 -0.48473
# Poissons Ratio (y) = 0.10085 0.32449
# Poissons Ratio (z) = -0.09669 0.74474
#
# Static dielectric constant tensor:
#      x y z
#    x 1.660410 0.000000 0.048370 
#    y 0.000000 1.671270 0.000000 
#    z 0.048370 0.000000 1.740610 
# 
# From -- ./inp_files/13873.got.cif
#   From: 2010.05.17/outbox.ucp.g08.bks.cvg/sg14_7_cif.got.tgz:13873.got - 2010.06.11 12:31:08.
