data_PCOD9253764
_publ_section_title
;
Structure prediction by ZEFSAII (Michael W. Deem and Ramdas Pophale) SiO2 
 PCOD9253764
Probable space group: C 2/C
;
_chemical_formula_sum "Si O2"
_cell_formula_units_Z 60
_cell_length_a 16.570878
_cell_length_b 25.551492
_cell_length_c 8.752309
_cell_angle_alpha 90.000000
_cell_angle_beta 66.082887
_cell_angle_gamma 90.000000
_cell_volume 3387.612835
_symmetry_space_group_name_H-M "C 2/C"
_symmetry_group_IT_number 15
_symmetry_cell_setting 'monoclinic'
loop_
_space_group_symop_operation_xyz
x,y,z
-x,y,1/2-z
-x,-y,-z
x,-y,1/2+z
1/2+x,1/2+y,z
1/2-x,1/2+y,1/2-z
1/2-x,1/2-y,-z
1/2+x,1/2-y,1/2+z
loop_
_atom_site_type_symbol
_atom_site_label
_atom_site_fract_x
_atom_site_fract_y
_atom_site_fract_z
Si Si1 0.608203 0.428126 0.166662
Si Si2 0.956477 0.218368 0.527453
Si Si3 0.222861 0.743663 0.267810
Si Si4 0.000000 0.307413 0.250000
Si Si5 0.193238 0.328738 0.092790
Si Si6 0.592048 0.475571 0.490195
Si Si7 0.869496 0.127107 0.380245
Si Si8 0.636390 0.330139 0.962176
O O1 0.500000 0.423515 0.250000
O O2 0.634467 0.447446 0.312850
O O3 0.636301 0.474062 0.030227
O O4 0.646312 0.373651 0.082967
O O5 0.874733 0.236118 0.695473
O O6 0.989137 0.267310 0.400414
O O7 0.917505 0.173473 0.441280
O O8 0.041200 0.196591 0.547454
O O9 0.206478 0.707547 0.431456
O O10 0.279399 0.792393 0.285859
O O11 0.281991 0.709600 0.109521
O O12 0.909949 0.340267 0.312951
O O13 0.267447 0.372531 0.013525
O O14 0.500000 0.500000 0.500000
O O15 0.587718 0.428743 0.615941
O O16 0.870569 0.141952 0.200848
#
# Coordination Sequence:
#
# PCOD9253764 Si02
#       8
#     8   8   8   4   8   8   8   8
#     4  10  21  32  47  66  89 121 157 189 227 287
#     4  10  15  22  41  66  95 127 160 196 229 260
#     4   8  15  24  36  65  94 121 163 194 224 264
#     4  10  12  22  38  66  98 124 162 194 236 248
#     4   8  14  23  38  64  98 122 157 197 229 265
#     4  10  20  34  45  65  93 122 154 191 228 283
#     4  10  18  28  45  68  96 128 160 191 233 272
#     4  11  17  29  47  68  93 130 161 192 233 265
#
# _framework density 17.711587000000002
#
# number of rings (size 3 to 8) (size 9 to 14) (size 15 to 20)
#    0.000    2.400    2.667    4.000    0.000    3.200 
#    0.000    0.000    0.000    7.200    0.000    0.000 
#    0.000   17.067    0.267    0.000    0.000    1.200 
#
# Total GULP energy -167334.686486 kJ/mol
# GULP energy per Si atom -5577.822883 kJ/mol
# Density = 1.767128 g / cm^3
# Si number density = 17.711587 Si / 1000 Ang^3
#
#
#
# Elastic Constant Matrix: (Units=GPa)
#
#
# Indices 1 2 3 4 5 6 
#
# 1 89.2738 35.8785 39.2090 0.0000 -29.1621 0.0000
# 2 35.8785 75.3640 36.3856 0.0000 -10.1289 0.0000
# 3 39.2090 36.3856 71.7005 0.0000 -15.4044 0.0000
# 4 0.0000 0.0000 0.0000 32.2359 0.0000 3.9774
# 5 -29.1621 -10.1289 -15.4044 0.0000 28.4617 0.0000
# 6 0.0000 0.0000 0.0000 3.9774 0.0000 11.4408
#
#
#
# Elastic Compliance Matrix: (Units=1/GPa)
#
#
# Indices 1 2 3 4 5 6 
#
# 1 0.021169 -0.005256 -0.005263 0.000000 0.016971 0.000000
# 2 -0.005256 0.018946 -0.007297 0.000000 -0.002593 0.000000
# 3 -0.005263 -0.007297 0.021287 0.000000 0.003532 0.000000
# 4 0.000000 0.000000 0.000000 0.032412 0.000000 -0.011268
# 5 0.016971 -0.002593 0.003532 0.000000 0.053513 0.000000
# 6 0.000000 0.000000 0.000000 -0.011268 0.000000 0.091324
#
#
# Mechanical properties :
#
#
# Convention : Reuss Voigt Hill
#
# Bulk Modulus (GPa) = 38.80539 51.03163 44.91851
# Shear Modulus (GPa) = 17.67589 22.75202 20.21396
#
# Velocity S-wave (km/s) = 3.16252 3.58800 3.38196
# Velocity P-wave (km/s) = 5.94075 6.78528 6.37701
#
# Compressibility (1/GPa) = 0.02576962
#
# Stress axis : x y z
#
# Youngs Moduli (GPa) = 47.23866 52.78211 46.97798
#
# Poissons Ratio (x) = 0.27743 0.24723
# Poissons Ratio (y) = 0.24830 0.34280
# Poissons Ratio (z) = 0.24860 0.38515
#
# Static dielectric constant tensor:
#      x y z
#    x 1.626390 0.000000 0.010180 
#    y 0.000000 1.611770 0.000000 
#    z 0.010180 0.000000 1.666180 
# 
# From -- ./inp_files/51214.got.cif
#   From: 2010.05.17/outbox.cif.g08.bks.cpg/sg15_26_cif.got.tgz:51214.got - 2010.06.03 18:47:42.
