data_PCOD9253714
_publ_section_title
;
Structure prediction by ZEFSAII (Michael W. Deem and Ramdas Pophale) SiO2 
 PCOD9253714
Probable space group: P 21/C
;
_chemical_formula_sum "Si O2"
_cell_formula_units_Z 32
_cell_length_a 18.000000
_cell_length_b 15.000000
_cell_length_c 12.000000
_cell_angle_alpha 90.000000
_cell_angle_beta 30.000000
_cell_angle_gamma 90.000000
_cell_volume 1620.000000
_symmetry_space_group_name_H-M "P 21/C"
_symmetry_group_IT_number 14
_symmetry_cell_setting 'monoclinic'
loop_
_space_group_symop_operation_xyz
x,y,z
-x,1/2+y,1/2-z
-x,-y,-z
x,1/2-y,1/2+z
loop_
_atom_site_type_symbol
_atom_site_label
_atom_site_fract_x
_atom_site_fract_y
_atom_site_fract_z
Si Si1 0.751709 0.662375 0.372834
Si Si2 0.857465 0.919809 0.515586
Si Si3 0.597796 0.351783 0.114931
Si Si4 0.260967 0.135064 0.569838
Si Si5 0.395305 0.654845 0.440306
Si Si6 0.637878 0.067698 0.799611
Si Si7 0.181864 0.518397 0.597869
Si Si8 0.333516 0.509042 0.163843
O O1 0.774886 0.644492 0.210891
O O2 0.581436 0.652888 0.637128
O O3 0.797048 0.764662 0.333401
O O4 0.832192 0.581535 0.333759
O O5 0.821881 0.900896 0.432481
O O6 0.031457 0.926480 0.309020
O O7 0.786314 0.015235 0.635602
O O8 0.655210 0.250695 0.037449
O O9 0.646420 0.403444 0.161764
O O10 0.650191 0.405778 0.938710
O O11 0.432848 0.143529 0.311644
O O12 0.272007 0.070747 0.663764
O O13 0.380993 0.649055 0.591891
O O14 0.309923 0.572000 0.496928
O O15 0.500000 0.000000 0.000000
O O16 0.227373 0.516335 0.408872
O O17 0.500000 0.500000 0.000000
#
# Coordination Sequence:
#
# PCOD9253714 Si02
#       8
#     4   4   4   4   4   4   4   4
#     4  11  23  42  72  99 129 176 225 277 329 393
#     4  12  25  45  68  95 137 180 223 274 337 401
#     4  11  23  40  70 103 126 171 226 279 326 379
#     4  11  24  43  70  99 128 177 227 272 331 397
#     4  11  23  40  67 100 132 169 225 278 323 389
#     4  12  20  42  70  93 129 173 229 274 317 396
#     4  12  26  45  65 100 139 179 217 277 344 389
#     4  12  23  43  68  95 137 170 216 278 330 395
#
# _framework density 19.753086
#
# number of rings (size 3 to 8) (size 9 to 14) (size 15 to 20)
#    0.000    0.500    7.500    0.375    3.500    0.500 
#    4.500    0.000    0.000    0.000    0.000    0.000 
#    0.000    0.000    0.000    0.000    0.000    0.000 
#
# Total GULP energy -178676.185593 kJ/mol
# GULP energy per Si atom -5583.630800 kJ/mol
# Density = 1.970813 g / cm^3
# Si number density = 19.753086 Si / 1000 Ang^3
#
#
#
# Elastic Constant Matrix: (Units=GPa)
#
#
# Indices 1 2 3 4 5 6 
#
# 1 77.2987 26.3096 20.9931 0.0000 23.2312 0.0000
# 2 26.3096 96.1060 12.2948 0.0000 8.5218 0.0000
# 3 20.9931 12.2948 37.5083 0.0000 9.4379 0.0000
# 4 0.0000 0.0000 0.0000 17.4803 0.0000 7.4502
# 5 23.2312 8.5218 9.4379 0.0000 37.8637 0.0000
# 6 0.0000 0.0000 0.0000 7.4502 0.0000 26.9609
#
#
#
# Elastic Compliance Matrix: (Units=1/GPa)
#
#
# Indices 1 2 3 4 5 6 
#
# 1 0.018719 -0.003423 -0.007105 0.000000 -0.008944 0.000000
# 2 -0.003423 0.011585 -0.001872 0.000000 -0.000041 0.000000
# 3 -0.007105 -0.001872 0.032058 0.000000 -0.003211 0.000000
# 4 0.000000 0.000000 0.000000 0.064844 0.000000 -0.017919
# 5 -0.008944 -0.000041 -0.003211 0.000000 0.032708 0.000000
# 6 0.000000 0.000000 0.000000 -0.017919 0.000000 0.042042
#
#
# Mechanical properties :
#
#
# Convention : Reuss Voigt Hill
#
# Bulk Modulus (GPa) = 26.62026 36.67867 31.64946
# Shear Modulus (GPa) = 20.89636 26.54869 23.72253
#
# Velocity S-wave (km/s) = 3.25603 3.67008 3.46924
# Velocity P-wave (km/s) = 5.25751 6.04716 5.66611
#
# Compressibility (1/GPa) = 0.03756537
#
# Stress axis : x y z
#
# Youngs Moduli (GPa) = 53.42102 86.31711 31.19300
#
# Poissons Ratio (x) = 0.29543 0.22161
# Poissons Ratio (y) = 0.18284 0.05838
# Poissons Ratio (z) = 0.37954 0.16155
#
# Static dielectric constant tensor:
#      x y z
#    x 1.698460 0.000000 0.012420 
#    y 0.000000 1.705440 0.000000 
#    z 0.012420 0.000000 1.697760 
# 
# From -- ./inp_files/34155.got.cif
#   From: 2010.05.17/outbox.ucp.g08.bks.cvg/sg14_18_cif.got.tgz:34155.got - 2010.06.11 12:31:08.
