data_PCOD9253952
_publ_section_title
;
Structure prediction by ZEFSAII (Michael W. Deem and Ramdas Pophale) SiO2 
 PCOD9253952
Probable space group: C 2/C
;
_chemical_formula_sum "Si O2"
_cell_formula_units_Z 48
_cell_length_a 9.032506
_cell_length_b 30.163021
_cell_length_c 7.918318
_cell_angle_alpha 90.000000
_cell_angle_beta 107.346008
_cell_angle_gamma 90.000000
_cell_volume 2059.215703
_symmetry_space_group_name_H-M "C 2/C"
_symmetry_group_IT_number 15
_symmetry_cell_setting 'monoclinic'
loop_
_space_group_symop_operation_xyz
x,y,z
-x,y,1/2-z
-x,-y,-z
x,-y,1/2+z
1/2+x,1/2+y,z
1/2-x,1/2+y,1/2-z
1/2-x,1/2-y,-z
1/2+x,1/2-y,1/2+z
loop_
_atom_site_type_symbol
_atom_site_label
_atom_site_fract_x
_atom_site_fract_y
_atom_site_fract_z
Si Si1 0.809617 0.445160 0.555281
Si Si2 0.116143 0.794223 0.070494
Si Si3 0.773609 0.197802 0.536535
Si Si4 0.655699 0.808768 0.640895
Si Si5 0.188591 0.544585 0.815648
Si Si6 0.355563 0.095588 0.394450
O O1 0.782852 0.494004 0.620764
O O2 0.743452 0.443518 0.343846
O O3 0.764660 0.411037 0.687297
O O4 0.992548 0.435085 0.581795
O O5 0.233538 0.808482 0.263032
O O6 0.091444 0.740552 0.083110
O O7 0.949257 0.814623 0.048040
O O8 0.183294 0.804600 0.909892
O O9 0.750000 0.250000 0.500000
O O10 0.669245 0.181887 0.345357
O O11 0.588326 0.854754 0.548440
O O12 0.000000 0.549117 0.750000
O O13 0.240336 0.577014 0.981905
#
# Coordination Sequence:
#
# PCOD9253952 Si02
#       6
#     8   8   8   8   8   8
#     4  10  17  28  46  64  97 143 174 200 251 310
#     4   9  19  36  54  69  99 142 169 215 259 310
#     4   9  18  33  55  73  91 129 175 213 258 305
#     4  10  20  33  48  75 107 132 175 209 257 300
#     4  10  15  28  44  62  93 140 177 194 251 314
#     4  10  19  26  42  70  97 132 170 212 236 306
#
# _framework density 23.309847000000001
#
# number of rings (size 3 to 8) (size 9 to 14) (size 15 to 20)
#    0.000    2.333    3.333    1.500    0.000    6.667 
#    0.000   13.333    0.000    0.000    0.000    0.000 
#    0.000    5.333    0.000    0.000    0.000    0.000 
#
# Total GULP energy -133609.616492 kJ/mol
# GULP energy per Si atom -5567.067354 kJ/mol
# Density = 2.325679 g / cm^3
# Si number density = 23.309847 Si / 1000 Ang^3
#
#
#
# Elastic Constant Matrix: (Units=GPa)
#
#
# Indices 1 2 3 4 5 6 
#
# 1 32.5675 -0.1053 14.9796 0.0000 -7.6137 0.0000
# 2 -0.1053 82.8667 41.4021 0.0000 -15.7882 0.0000
# 3 14.9796 41.4021 125.1421 0.0000 -32.6250 0.0000
# 4 0.0000 0.0000 0.0000 13.5908 0.0000 -2.4951
# 5 -7.6137 -15.7882 -32.6250 0.0000 27.9480 0.0000
# 6 0.0000 0.0000 0.0000 -2.4951 0.0000 -3.7019
#
#
#
# Elastic Compliance Matrix: (Units=1/GPa)
#
#
# Indices 1 2 3 4 5 6 
#
# 1 0.033859 0.002999 -0.003161 0.000000 0.007229 0.000000
# 2 0.002999 0.014996 -0.004167 0.000000 0.004424 0.000000
# 3 -0.003161 -0.004167 0.012807 0.000000 0.011736 0.000000
# 4 0.000000 0.000000 0.000000 0.065477 0.000000 -0.044132
# 5 0.007229 0.004424 0.011736 0.000000 0.053949 0.000000
# 6 0.000000 0.000000 0.000000 -0.044132 0.000000 -0.240387
#
#
# Mechanical properties :
#
#
# Convention : Reuss Voigt Hill
#
# Bulk Modulus (GPa) = 18.86572 39.23657 29.05115
# Shear Modulus (GPa) = -151.63967 19.85404 -65.89282
#
# Velocity S-wave (km/s) = -8.07435 2.92163 -5.32256
# Velocity P-wave (km/s) = 8.87783 5.31511 5.02819
#
# Compressibility (1/GPa) = 0.05300619
#
# Stress axis : x y z
#
# Youngs Moduli (GPa) = 29.53431 66.68329 78.08001
#
# Poissons Ratio (x) = -0.20001 0.24679
# Poissons Ratio (y) = -0.08859 0.32535
# Poissons Ratio (z) = 0.09335 0.27787
#
# Static dielectric constant tensor:
#      x y z
#    x 1.924830 0.000000 0.079770 
#    y 0.000000 1.911460 0.000000 
#    z 0.079770 0.000000 1.093270 
# 
# From -- ./inp_files/34859.got.cif
#   From: 2010.05.17/outbox.cif.g08.bks.cpg/sg15_18_cif.got.tgz:34859.got - 2010.06.03 18:47:42.
