data_PCOD9253443
_publ_section_title
;
Structure prediction by ZEFSAII (Michael W. Deem and Ramdas Pophale) SiO2 
 PCOD9253443
Probable space group: P 21/C
;
_chemical_formula_sum "Si O2"
_cell_formula_units_Z 24
_cell_length_a 20.067895
_cell_length_b 7.774147
_cell_length_c 13.560263
_cell_angle_alpha 90.000000
_cell_angle_beta 25.846249
_cell_angle_gamma 90.000000
_cell_volume 922.288994
_symmetry_space_group_name_H-M "P 21/C"
_symmetry_group_IT_number 14
_symmetry_cell_setting 'monoclinic'
loop_
_space_group_symop_operation_xyz
x,y,z
-x,1/2+y,1/2-z
-x,-y,-z
x,1/2-y,1/2+z
loop_
_atom_site_type_symbol
_atom_site_label
_atom_site_fract_x
_atom_site_fract_y
_atom_site_fract_z
Si Si1 0.560821 0.028332 0.105895
Si Si2 0.411549 0.598288 0.999226
Si Si3 0.060822 0.528331 0.105895
Si Si4 0.330041 0.186028 0.292317
Si Si5 0.169959 0.186028 0.207683
Si Si6 0.911549 0.401712 0.499226
O O1 0.430028 0.022924 0.196938
O O2 0.488904 0.012821 0.310303
O O3 0.628505 0.218756 0.001372
O O4 0.686721 0.883362 0.924223
O O5 0.250000 0.528564 0.250000
O O6 0.543029 0.667946 0.899810
O O7 0.128505 0.718755 0.001372
O O8 0.930029 0.522924 0.196937
O O9 0.988904 0.512821 0.310303
O O10 0.186722 0.383362 0.924222
O O11 0.250000 0.250000 0.500000
O O12 0.043029 0.332054 0.399809
#
# Coordination Sequence:
#
# PCOD9253443 Si02
#       6
#     4   4   4   4   4   4
#     4   9  18  35  58  75 111 143 171 226 265 306
#     4   9  19  35  56  79 110 139 177 220 265 312
#     4   9  18  35  58  75 111 143 171 226 265 306
#     4   8  17  34  53  78 112 134 175 230 255 308
#     4   8  17  34  53  78 112 134 175 230 255 308
#     4   9  19  35  56  79 110 139 177 220 265 312
#
# _framework density 26.022212
#
# number of rings (size 3 to 8) (size 9 to 14) (size 15 to 20)
#    2.000    1.333    0.000    0.000    0.000    2.667 
#    0.000    8.333    0.000    0.000    0.000    0.000 
#    0.000    0.000    0.000    0.000    0.000    0.000 
#
# Total GULP energy -133805.092894 kJ/mol
# GULP energy per Si atom -5575.212204 kJ/mol
# Density = 2.596298 g / cm^3
# Si number density = 26.022212 Si / 1000 Ang^3
#
#
#
# Elastic Constant Matrix: (Units=GPa)
#
#
# Indices 1 2 3 4 5 6 
#
# 1 -164.7978 66.5362 157.7409 0.0000 86.6229 0.0000
# 2 66.5362 62.4572 10.7490 0.0000 -40.3881 0.0000
# 3 157.7409 10.7490 145.4015 0.0000 -63.4444 0.0000
# 4 0.0000 0.0000 0.0000 28.7445 0.0000 3.0653
# 5 86.6229 -40.3881 -63.4444 0.0000 -0.3449 0.0000
# 6 0.0000 0.0000 0.0000 3.0653 0.0000 18.2002
#
#
#
# Elastic Compliance Matrix: (Units=1/GPa)
#
#
# Indices 1 2 3 4 5 6 
#
# 1 0.002985 0.003987 0.001474 0.000000 0.011475 0.000000
# 2 0.003987 0.014661 -0.003908 0.000000 0.003441 0.000000
# 3 0.001474 -0.003908 0.004514 0.000000 -0.002413 0.000000
# 4 0.000000 0.000000 0.000000 0.035426 0.000000 -0.005966
# 5 0.011475 0.003441 -0.002413 0.000000 0.023582 0.000000
# 6 0.000000 0.000000 0.000000 -0.005966 0.000000 0.055949
#
#
# Mechanical properties :
#
#
# Convention : Reuss Voigt Hill
#
# Bulk Modulus (GPa) = 39.57836 57.01255 48.29546
# Shear Modulus (GPa) = 35.10454 -3.47771 15.81342
#
# Velocity S-wave (km/s) = 3.67689 -1.15730 2.46781
# Velocity P-wave (km/s) = 5.76788 4.49121 5.16911
#
# Compressibility (1/GPa) = 0.02526633
#
# Stress axis : x y z
#
# Youngs Moduli (GPa) = 335.05998 68.20851 221.53556
#
# Poissons Ratio (x) = -0.27195 -0.32663
# Poissons Ratio (y) = -1.33591 0.86576
# Poissons Ratio (z) = -0.49401 0.26656
#
# Static dielectric constant tensor:
#      x y z
#    x 2.160800 0.000000 0.015950 
#    y 0.000000 2.067450 0.000000 
#    z 0.015950 0.000000 2.061470 
# 
# From -- ./inp_files/62219.got.cif
#   From: 2010.05.17/outbox.cif.g08.bks.cpg/sg14_32_cif.got.tgz:62219.got - 2010.06.03 17:49:19.
