data_PCOD9253194
_publ_section_title
;
Structure prediction by ZEFSAII (Michael W. Deem and Ramdas Pophale) SiO2 
 PCOD9253194
Probable space group: P 21/C
;
_chemical_formula_sum "Si O2"
_cell_formula_units_Z 28
_cell_length_a 15.467827
_cell_length_b 5.053725
_cell_length_c 16.734455
_cell_angle_alpha 90.000000
_cell_angle_beta 121.238949
_cell_angle_gamma 90.000000
_cell_volume 1118.470802
_symmetry_space_group_name_H-M "P 21/C"
_symmetry_group_IT_number 14
_symmetry_cell_setting 'monoclinic'
loop_
_space_group_symop_operation_xyz
x,y,z
-x,1/2+y,1/2-z
-x,-y,-z
x,1/2-y,1/2+z
loop_
_atom_site_type_symbol
_atom_site_label
_atom_site_fract_x
_atom_site_fract_y
_atom_site_fract_z
Si Si1 0.801432 0.708400 0.917370
Si Si2 0.732118 0.324763 0.604315
Si Si3 0.452189 0.998358 0.083661
Si Si4 0.100460 0.480905 0.871332
Si Si5 0.871815 0.865026 0.274050
Si Si6 0.587831 0.995352 0.630581
Si Si7 0.327033 0.812965 0.163943
O O1 0.860864 0.712672 0.861416
O O2 0.710577 0.489522 0.862140
O O3 0.761932 0.002842 0.910649
O O4 0.861083 0.636425 0.026469
O O5 0.652933 0.486862 0.514115
O O6 0.834209 0.248574 0.607147
O O7 0.773541 0.462943 0.703911
O O8 0.663143 0.074585 0.595643
O O9 0.537150 0.788851 0.096232
O O10 0.424433 0.884665 0.157537
O O11 0.499601 0.286196 0.098846
O O12 0.125164 0.342358 0.797945
O O13 0.980145 0.495572 0.818699
O O14 0.651789 0.055249 0.740366
#
# Coordination Sequence:
#
# PCOD9253194 Si02
#       7
#     4   4   4   4   4   4   4
#     4  12  27  49  82 112 157 205 254 320 390 464
#     4  12  26  46  72 106 154 196 256 324 382 468
#     4  12  26  45  72 107 149 200 256 314 387 459
#     4  12  27  50  79 116 154 207 260 325 396 467
#     4  12  27  50  79 116 154 207 260 325 396 467
#     4  12  26  45  72 107 149 200 256 314 387 459
#     4  12  24  49  75 108 151 203 254 320 386 452
#
# _framework density 25.034182000000001
#
# number of rings (size 3 to 8) (size 9 to 14) (size 15 to 20)
#    0.000    0.000    4.286    5.571    4.000    0.000 
#    0.000    2.143    0.000    0.000    0.000    0.000 
#    0.000    0.000    0.000    0.000    0.000    0.000 
#
# Total GULP energy -156727.966024 kJ/mol
# GULP energy per Si atom -5597.427358 kJ/mol
# Density = 2.497720 g / cm^3
# Si number density = 25.034182 Si / 1000 Ang^3
#
#
#
# Elastic Constant Matrix: (Units=GPa)
#
#
# Indices 1 2 3 4 5 6 
#
# 1 97.7864 9.2335 0.7668 0.0000 -11.4707 0.0000
# 2 9.2335 52.0668 8.1411 0.0000 -0.5449 0.0000
# 3 0.7668 8.1411 140.0382 0.0000 1.2783 0.0000
# 4 0.0000 0.0000 0.0000 27.5677 0.0000 -4.9702
# 5 -11.4707 -0.5449 1.2783 0.0000 54.9662 0.0000
# 6 0.0000 0.0000 0.0000 -4.9702 0.0000 33.4958
#
#
#
# Elastic Compliance Matrix: (Units=1/GPa)
#
#
# Indices 1 2 3 4 5 6 
#
# 1 0.010662 -0.001872 0.000030 0.000000 0.002206 0.000000
# 2 -0.001872 0.019714 -0.001134 0.000000 -0.000169 0.000000
# 3 0.000030 -0.001134 0.007208 0.000000 -0.000173 0.000000
# 4 0.000000 0.000000 0.000000 0.037271 0.000000 0.005530
# 5 0.002206 -0.000169 -0.000173 0.000000 0.018656 0.000000
# 6 0.000000 0.000000 0.000000 0.005530 0.000000 0.030675
#
#
# Mechanical properties :
#
#
# Convention : Reuss Voigt Hill
#
# Bulk Modulus (GPa) = 31.61453 36.24157 33.92805
# Shear Modulus (GPa) = 35.54110 41.32259 38.43185
#
# Velocity S-wave (km/s) = 3.77198 4.06722 3.92238
# Velocity P-wave (km/s) = 5.62374 6.04687 5.83914
#
# Compressibility (1/GPa) = 0.03163102
#
# Stress axis : x y z
#
# Youngs Moduli (GPa) = 93.79393 50.72603 138.72977
#
# Poissons Ratio (x) = 0.09498 -0.00421
# Poissons Ratio (y) = 0.17562 0.15736
# Poissons Ratio (z) = -0.00285 0.05754
#
# Static dielectric constant tensor:
#      x y z
#    x 1.998810 0.000000 -0.074700 
#    y 0.000000 2.005130 0.000000 
#    z -0.074700 0.000000 2.036620 
# 
# From -- ./inp_files/58645.got.cif
#   From: 2010.05.17/outbox.cif.g08.bks.cpg/sg14_30_cif.got.tgz:58645.got - 2010.06.03 17:49:19.
