data_PCOD9253974
_publ_section_title
;
Structure prediction by ZEFSAII (Michael W. Deem and Ramdas Pophale) SiO2 
 PCOD9253974
Probable space group: C 2/C
;
_chemical_formula_sum "Si O2"
_cell_formula_units_Z 64
_cell_length_a 25.885878
_cell_length_b 16.541388
_cell_length_c 11.921387
_cell_angle_alpha 90.000000
_cell_angle_beta 48.832068
_cell_angle_gamma 90.000000
_cell_volume 3842.657706
_symmetry_space_group_name_H-M "C 2/C"
_symmetry_group_IT_number 15
_symmetry_cell_setting 'monoclinic'
loop_
_space_group_symop_operation_xyz
x,y,z
-x,y,1/2-z
-x,-y,-z
x,-y,1/2+z
1/2+x,1/2+y,z
1/2-x,1/2+y,1/2-z
1/2-x,1/2-y,-z
1/2+x,1/2-y,1/2+z
loop_
_atom_site_type_symbol
_atom_site_label
_atom_site_fract_x
_atom_site_fract_y
_atom_site_fract_z
Si Si1 0.696957 0.368610 0.965437
Si Si2 0.921787 0.399593 0.832645
Si Si3 0.859980 0.653811 0.194767
Si Si4 0.279438 0.836312 0.417306
Si Si5 0.829515 0.545232 0.040699
Si Si6 0.705383 0.461840 0.360420
Si Si7 0.322170 0.670016 0.751341
Si Si8 0.832157 0.288137 0.113528
O O1 0.780414 0.362104 0.846554
O O2 0.677057 0.459384 0.962680
O O3 0.668923 0.306736 0.912326
O O4 0.673356 0.341581 0.122070
O O5 0.909524 0.366086 0.725889
O O6 0.000000 0.415968 0.750000
O O7 0.875595 0.479257 0.913572
O O8 0.890709 0.333815 0.962451
O O9 0.870894 0.593982 0.076125
O O10 0.860853 0.748216 0.162220
O O11 0.250000 0.750000 0.500000
O O12 0.303626 0.888272 0.489002
O O13 0.229971 0.897842 0.419568
O O14 0.333142 0.812245 0.242337
O O15 0.767946 0.498066 0.193951
O O16 0.658090 0.410327 0.344268
O O17 0.241783 0.683783 0.832662
#
# Coordination Sequence:
#
# PCOD9253974 Si02
#       8
#     8   8   8   8   8   8   8   8
#     4  10  16  28  53  71 103 132 164 213 269 314
#     4  12  23  36  52  72 101 144 190 219 246 294
#     4  10  19  33  51  70  95 139 174 211 261 312
#     4  11  20  32  51  77 114 137 163 210 272 321
#     4  11  20  34  48  72 108 141 172 214 252 304
#     4  10  18  27  48  78 105 133 162 203 267 324
#     4  10  15  29  50  70 103 128 162 211 272 314
#     4  10  19  34  48  76 103 137 177 216 258 308
#
# _framework density 16.655138999999998
#
# number of rings (size 3 to 8) (size 9 to 14) (size 15 to 20)
#    0.000    1.500    5.000    6.000    0.000    0.500 
#    0.000    0.000    0.000    0.000    0.000    0.875 
#    0.000    0.000    0.000    0.000    0.000    0.000 
#
# Total GULP energy -178336.282715 kJ/mol
# GULP energy per Si atom -5573.008835 kJ/mol
# Density = 1.661723 g / cm^3
# Si number density = 16.655139 Si / 1000 Ang^3
#
#
#
# Elastic Constant Matrix: (Units=GPa)
#
#
# Indices 1 2 3 4 5 6 
#
# 1 39.8922 24.3257 21.1053 0.0000 9.9803 0.0000
# 2 24.3257 132.6148 17.6274 0.0000 9.8744 0.0000
# 3 21.1053 17.6274 28.7219 0.0000 16.8175 0.0000
# 4 0.0000 0.0000 0.0000 24.2663 0.0000 18.3206
# 5 9.9803 9.8744 16.8175 0.0000 20.2387 0.0000
# 6 0.0000 0.0000 0.0000 18.3206 0.0000 21.9544
#
#
#
# Elastic Compliance Matrix: (Units=1/GPa)
#
#
# Indices 1 2 3 4 5 6 
#
# 1 0.043866 -0.004060 -0.035516 0.000000 0.009861 0.000000
# 2 -0.004060 0.008587 -0.001960 0.000000 -0.000559 0.000000
# 3 -0.035516 -0.001960 0.099917 0.000000 -0.064557 0.000000
# 4 0.000000 0.000000 0.000000 0.111382 0.000000 -0.092946
# 5 0.009861 -0.000559 -0.064557 0.000000 0.098464 0.000000
# 6 0.000000 0.000000 0.000000 -0.092946 0.000000 0.123111
#
#
# Mechanical properties :
#
#
# Convention : Reuss Voigt Hill
#
# Bulk Modulus (GPa) = 14.43013 36.37174 25.40094
# Shear Modulus (GPa) = 8.45312 22.50323 15.47818
#
# Velocity S-wave (km/s) = 2.25530 3.67976 3.05180
# Velocity P-wave (km/s) = 3.93252 6.31979 5.26329
#
# Compressibility (1/GPa) = 0.06929943
#
# Stress axis : x y z
#
# Youngs Moduli (GPa) = 22.79669 116.44891 10.00835
#
# Poissons Ratio (x) = 0.47276 0.35546
# Poissons Ratio (y) = 0.09255 0.01961
# Poissons Ratio (z) = 0.80965 0.22819
#
# Static dielectric constant tensor:
#      x y z
#    x 1.550270 0.000000 0.027030 
#    y 0.000000 1.598310 0.000000 
#    z 0.027030 0.000000 1.570620 
# 
# From -- ./inp_files/123698.got.cif
#   From: 2010.05.17/outbox.cif.g08.bks.cpg/sg15_62_cif.got.tgz:123698.got - 2010.06.03 18:47:42.
