data_PCOD9253386
_publ_section_title
;
Structure prediction by ZEFSAII (Michael W. Deem and Ramdas Pophale) SiO2 
 PCOD9253386
Probable space group: P 21/C
;
_chemical_formula_sum "Si O2"
_cell_formula_units_Z 14
_cell_length_a 8.752576
_cell_length_b 8.257156
_cell_length_c 8.019126
_cell_angle_alpha 90.000000
_cell_angle_beta 48.746527
_cell_angle_gamma 90.000000
_cell_volume 435.708113
_symmetry_space_group_name_H-M "P 21/C"
_symmetry_group_IT_number 14
_symmetry_cell_setting 'monoclinic'
loop_
_space_group_symop_operation_xyz
x,y,z
-x,1/2+y,1/2-z
-x,-y,-z
x,1/2-y,1/2+z
loop_
_atom_site_type_symbol
_atom_site_label
_atom_site_fract_x
_atom_site_fract_y
_atom_site_fract_z
Si Si1 0.750477 0.756220 0.456284
Si Si2 0.000000 0.000000 0.500000
Si Si3 0.861788 0.207990 0.368307
Si Si4 0.643380 0.448595 0.730635
O O1 0.891824 0.650841 0.224608
O O2 0.564740 0.871085 0.550338
O O3 0.964413 0.842968 0.357396
O O4 0.675451 0.630646 0.646371
O O5 0.792303 0.087070 0.577263
O O6 0.697846 0.347513 0.525552
O O7 0.818492 0.099536 0.235788
#
# Coordination Sequence:
#
# PCOD9253386 Si02
#       4
#     4   2   4   4
#     4  12  29  52  82 122 164 215 271 343 401 497
#     4  12  28  48  82 114 162 206 270 330 414 466
#     4  12  28  54  81 122 162 217 272 344 400 495
#     4  12  30  50  86 119 166 217 277 330 419 479
#
# _framework density 32.131605999999998
#
# number of rings (size 3 to 8) (size 9 to 14) (size 15 to 20)
#    0.000    0.000    2.857    4.286    8.000    3.429 
#    0.000    0.000    0.000    0.000    0.000    0.000 
#    0.000    0.000    0.000    0.000    0.000    0.000 
#
# Total GULP energy -78116.571927 kJ/mol
# GULP energy per Si atom -5579.755138 kJ/mol
# Density = 3.205847 g / cm^3
# Si number density = 32.131606 Si / 1000 Ang^3
#
#
#
# Elastic Constant Matrix: (Units=GPa)
#
#
# Indices 1 2 3 4 5 6 
#
# 1 131.9807 83.4128 31.2898 0.0000 -23.7827 0.0000
# 2 83.4128 212.6778 34.2545 0.0000 -5.6202 0.0000
# 3 31.2898 34.2545 208.2251 0.0000 -28.7362 0.0000
# 4 0.0000 0.0000 0.0000 70.7790 0.0000 -1.6503
# 5 -23.7827 -5.6202 -28.7362 0.0000 74.4892 0.0000
# 6 0.0000 0.0000 0.0000 -1.6503 0.0000 92.1133
#
#
#
# Elastic Compliance Matrix: (Units=1/GPa)
#
#
# Indices 1 2 3 4 5 6 
#
# 1 0.010810 -0.004074 -0.000550 0.000000 0.002932 0.000000
# 2 -0.004074 0.006365 -0.000579 0.000000 -0.001044 0.000000
# 3 -0.000550 -0.000579 0.005228 0.000000 0.001798 0.000000
# 4 0.000000 0.000000 0.000000 0.014134 0.000000 0.000253
# 5 0.002932 -0.001044 0.001798 0.000000 0.014976 0.000000
# 6 0.000000 0.000000 0.000000 0.000253 0.000000 0.010861
#
#
# Mechanical properties :
#
#
# Convention : Reuss Voigt Hill
#
# Bulk Modulus (GPa) = 83.33942 94.53309 88.93626
# Shear Modulus (GPa) = 65.12160 74.40471 69.76316
#
# Velocity S-wave (km/s) = 4.50679 4.81731 4.66464
# Velocity P-wave (km/s) = 7.28524 7.77345 7.53330
#
# Compressibility (1/GPa) = 0.01199912
#
# Stress axis : x y z
#
# Youngs Moduli (GPa) = 92.50544 157.10005 191.26106
#
# Poissons Ratio (x) = 0.63999 0.10512
# Poissons Ratio (y) = 0.37685 0.11075
# Poissons Ratio (z) = 0.05084 0.09097
#
# Static dielectric constant tensor:
#      x y z
#    x 2.726060 0.000000 0.428230 
#    y 0.000000 3.284400 0.000000 
#    z 0.428230 0.000000 2.855560 
# 
# From -- ./inp_files/7314.got.cif
#   From: 2010.05.17/outbox.cif.g08.bks.cpg/sg14_4_cif.got.tgz:7314.got - 2010.06.03 17:49:19.
