data_PCOD9253986
_publ_section_title
;
Structure prediction by ZEFSAII (Michael W. Deem and Ramdas Pophale) SiO2 
 PCOD9253986
Probable space group: C 2/C
;
_chemical_formula_sum "Si O2"
_cell_formula_units_Z 48
_cell_length_a 22.159417
_cell_length_b 10.966816
_cell_length_c 9.303447
_cell_angle_alpha 90.000000
_cell_angle_beta 64.059968
_cell_angle_gamma 90.000000
_cell_volume 2033.126337
_symmetry_space_group_name_H-M "C 2/C"
_symmetry_group_IT_number 15
_symmetry_cell_setting 'monoclinic'
loop_
_space_group_symop_operation_xyz
x,y,z
-x,y,1/2-z
-x,-y,-z
x,-y,1/2+z
1/2+x,1/2+y,z
1/2-x,1/2+y,1/2-z
1/2-x,1/2-y,-z
1/2+x,1/2-y,1/2+z
loop_
_atom_site_type_symbol
_atom_site_label
_atom_site_fract_x
_atom_site_fract_y
_atom_site_fract_z
Si Si1 0.291754 0.765877 0.155551
Si Si2 0.183534 0.486861 0.036788
Si Si3 0.642932 0.157514 0.333843
Si Si4 0.669823 0.387678 0.623440
Si Si5 0.047729 0.040124 0.081531
Si Si6 0.878010 0.139527 0.825153
O O1 0.298932 0.904243 0.095069
O O2 0.215560 0.724800 0.260525
O O3 0.330220 0.719632 0.259073
O O4 0.319521 0.690177 0.989380
O O5 0.134597 0.398295 0.999003
O O6 0.253194 0.416812 0.000225
O O7 0.151420 0.550120 0.207753
O O8 0.596084 0.257984 0.309196
O O9 0.618573 0.387629 0.542374
O O10 0.645670 0.514135 0.726023
O O11 0.000000 0.101773 0.250000
O O12 0.067920 0.907326 0.120595
O O13 0.000000 0.000000 0.000000
#
# Coordination Sequence:
#
# PCOD9253986 Si02
#       6
#     8   8   8   8   8   8
#     4  10  15  30  47  67  99 129 155 185 239 286
#     4  10  18  30  49  71  97 133 152 188 230 293
#     4  10  17  31  47  69  99 127 162 184 235 286
#     4   9  18  27  45  73  94 122 155 193 228 284
#     4  10  19  31  47  71  94 122 158 195 237 276
#     4   9  17  30  47  66  95 131 151 190 239 282
#
# _framework density 23.608961000000001
#
# number of rings (size 3 to 8) (size 9 to 14) (size 15 to 20)
#    1.000    1.333    3.333    2.000    0.000    0.000 
#    0.000    6.667    0.000    0.000    0.000   11.667 
#    0.000    0.000    0.000    0.000    0.000    0.000 
#
# Total GULP energy -133740.398270 kJ/mol
# GULP energy per Si atom -5572.516595 kJ/mol
# Density = 2.355523 g / cm^3
# Si number density = 23.608961 Si / 1000 Ang^3
#
#
#
# Elastic Constant Matrix: (Units=GPa)
#
#
# Indices 1 2 3 4 5 6 
#
# 1 96.0220 35.5863 36.5415 0.0000 42.3318 0.0000
# 2 35.5863 82.6938 35.2187 0.0000 22.4381 0.0000
# 3 36.5415 35.2187 93.2527 0.0000 45.5286 0.0000
# 4 0.0000 0.0000 0.0000 42.4668 0.0000 20.2705
# 5 42.3318 22.4381 45.5286 0.0000 42.2606 0.0000
# 6 0.0000 0.0000 0.0000 20.2705 0.0000 30.3869
#
#
#
# Elastic Compliance Matrix: (Units=1/GPa)
#
#
# Indices 1 2 3 4 5 6 
#
# 1 0.020710 -0.004681 0.005416 0.000000 -0.024095 0.000000
# 2 -0.004681 0.015760 -0.004898 0.000000 0.001598 0.000000
# 3 0.005416 -0.004898 0.024957 0.000000 -0.029712 0.000000
# 4 0.000000 0.000000 0.000000 0.034549 0.000000 -0.023047
# 5 -0.024095 0.001598 -0.029712 0.000000 0.078959 0.000000
# 6 0.000000 0.000000 0.000000 -0.023047 0.000000 0.048283
#
#
# Mechanical properties :
#
#
# Convention : Reuss Voigt Hill
#
# Bulk Modulus (GPa) = 18.83186 54.07349 36.45268
# Shear Modulus (GPa) = 20.06063 33.99764 27.02914
#
# Velocity S-wave (km/s) = 2.91813 3.79889 3.38726
# Velocity P-wave (km/s) = 4.39862 6.49582 5.54723
#
# Compressibility (1/GPa) = 0.05310149
#
# Stress axis : x y z
#
# Youngs Moduli (GPa) = 48.28502 63.45320 40.06866
#
# Poissons Ratio (x) = 0.29705 -0.21703
# Poissons Ratio (y) = 0.22604 0.19625
# Poissons Ratio (z) = -0.26153 0.31078
#
# Static dielectric constant tensor:
#      x y z
#    x 2.042790 0.000000 -0.130140 
#    y 0.000000 2.023160 0.000000 
#    z -0.130140 0.000000 2.221440 
# 
# From -- ./inp_files/110617.got.cif
#   From: 2010.05.17/outbox.cif.g08.bks.cpg/sg15_56_cif.got.tgz:110617.got - 2010.06.03 18:47:42.
