data_PCOD9253910
_publ_section_title
;
Structure prediction by ZEFSAII (Michael W. Deem and Ramdas Pophale) SiO2 
 PCOD9253910
Probable space group: C 2/C
;
_chemical_formula_sum "Si O2"
_cell_formula_units_Z 44
_cell_length_a 7.832859
_cell_length_b 23.911609
_cell_length_c 9.515671
_cell_angle_alpha 90.000000
_cell_angle_beta 99.006449
_cell_angle_gamma 90.000000
_cell_volume 1760.275764
_symmetry_space_group_name_H-M "C 2/C"
_symmetry_group_IT_number 15
_symmetry_cell_setting 'monoclinic'
loop_
_space_group_symop_operation_xyz
x,y,z
-x,y,1/2-z
-x,-y,-z
x,-y,1/2+z
1/2+x,1/2+y,z
1/2-x,1/2+y,1/2-z
1/2-x,1/2-y,-z
1/2+x,1/2-y,1/2+z
loop_
_atom_site_type_symbol
_atom_site_label
_atom_site_fract_x
_atom_site_fract_y
_atom_site_fract_z
Si Si1 0.059053 0.228629 0.021604
Si Si2 0.819681 0.571157 0.823717
Si Si3 0.038503 0.651356 0.014743
Si Si4 0.500000 0.656378 0.750000
Si Si5 0.688838 0.515747 0.080232
Si Si6 0.771055 0.865086 0.794288
O O1 0.096866 0.182388 0.141973
O O2 0.250000 0.250000 0.000000
O O3 0.960545 0.285666 0.043452
O O4 0.974021 0.196738 0.879341
O O5 0.663801 0.616698 0.799823
O O6 0.782544 0.530110 0.688506
O O7 0.987268 0.607927 0.888042
O O8 0.797078 0.531252 0.956427
O O9 0.888544 0.644830 0.115443
O O10 0.208358 0.639749 0.126637
O O11 0.669088 0.572534 0.166592
O O12 0.500000 0.500000 0.000000
#
# Coordination Sequence:
#
# PCOD9253910 Si02
#       6
#     8   8   8   4   8   8
#     4  10  15  25  45  69 102 128 153 205 261 302
#     4  11  21  32  51  72 106 132 170 206 247 296
#     4   9  18  29  44  74 102 131 161 203 264 302
#     4  12  16  28  44  74 100 126 156 210 256 292
#     4  11  19  34  49  72 101 137 169 210 243 295
#     4   9  17  29  44  67 103 129 162 202 251 298
#
# _framework density 24.996082000000001
#
# number of rings (size 3 to 8) (size 9 to 14) (size 15 to 20)
#    0.000    1.818    7.273    2.182    0.000    0.727 
#    0.000    0.000    0.000    0.000    0.000    1.273 
#    5.455    0.000    0.000    0.000    0.000    0.000 
#
# Total GULP energy -123183.324700 kJ/mol
# GULP energy per Si atom -5599.242032 kJ/mol
# Density = 2.493919 g / cm^3
# Si number density = 24.996082 Si / 1000 Ang^3
#
#
#
# Elastic Constant Matrix: (Units=GPa)
#
#
# Indices 1 2 3 4 5 6 
#
# 1 50.3711 48.0240 45.5676 0.0000 7.0602 0.0000
# 2 48.0240 248.9303 137.7426 0.0000 36.8258 0.0000
# 3 45.5676 137.7426 240.5300 0.0000 39.6809 0.0000
# 4 0.0000 0.0000 0.0000 31.5621 0.0000 11.9260
# 5 7.0602 36.8258 39.6809 0.0000 35.8011 0.0000
# 6 0.0000 0.0000 0.0000 11.9260 0.0000 8.6295
#
#
#
# Elastic Compliance Matrix: (Units=1/GPa)
#
#
# Indices 1 2 3 4 5 6 
#
# 1 0.025822 -0.003503 -0.003231 0.000000 0.002092 0.000000
# 2 -0.003503 0.006601 -0.002582 0.000000 -0.003237 0.000000
# 3 -0.003231 -0.002582 0.006982 0.000000 -0.004445 0.000000
# 4 0.000000 0.000000 0.000000 0.066312 0.000000 -0.091643
# 5 0.002092 -0.003237 -0.004445 0.000000 0.035775 0.000000
# 6 0.000000 0.000000 0.000000 -0.091643 0.000000 0.242531
#
#
# Mechanical properties :
#
#
# Convention : Reuss Voigt Hill
#
# Bulk Modulus (GPa) = 48.14302 111.38887 79.76595
# Shear Modulus (GPa) = 12.20763 35.76504 23.98633
#
# Velocity S-wave (km/s) = 2.21233 3.78673 3.10111
# Velocity P-wave (km/s) = 5.08212 7.98614 6.69352
#
# Compressibility (1/GPa) = 0.02077144
#
# Stress axis : x y z
#
# Youngs Moduli (GPa) = 38.72622 151.49632 143.23239
#
# Poissons Ratio (x) = 0.53076 0.46276
# Poissons Ratio (y) = 0.13568 0.36988
# Poissons Ratio (z) = 0.12512 0.39122
#
# Static dielectric constant tensor:
#      x y z
#    x 0.683400 0.000000 0.309060 
#    y 0.000000 1.913310 0.000000 
#    z 0.309060 0.000000 1.851610 
# 
# From -- ./inp_files/90145.got.cif
#   From: 2010.05.17/outbox.cif.g08.bks.cpg/sg15_46_cif.got.tgz:90145.got - 2010.06.03 18:47:42.
