data_PCOD9253848
_publ_section_title
;
Structure prediction by ZEFSAII (Michael W. Deem and Ramdas Pophale) SiO2 
 PCOD9253848
Probable space group: C 2/C
;
_chemical_formula_sum "Si O2"
_cell_formula_units_Z 32
_cell_length_a 9.131390
_cell_length_b 10.146909
_cell_length_c 23.168434
_cell_angle_alpha 90.000000
_cell_angle_beta 42.870682
_cell_angle_gamma 90.000000
_cell_volume 1460.485116
_symmetry_space_group_name_H-M "C 2/C"
_symmetry_group_IT_number 15
_symmetry_cell_setting 'monoclinic'
loop_
_space_group_symop_operation_xyz
x,y,z
-x,y,1/2-z
-x,-y,-z
x,-y,1/2+z
1/2+x,1/2+y,z
1/2-x,1/2+y,1/2-z
1/2-x,1/2-y,-z
1/2+x,1/2-y,1/2+z
loop_
_atom_site_type_symbol
_atom_site_label
_atom_site_fract_x
_atom_site_fract_y
_atom_site_fract_z
Si Si1 0.575770 0.201889 0.664844
Si Si2 0.884044 0.124519 0.488116
Si Si3 0.223825 0.240708 0.666814
Si Si4 0.246165 0.012781 0.086402
O O1 0.500000 0.164262 0.750000
O O2 0.755713 0.107193 0.584159
O O3 0.371951 0.211431 0.680149
O O4 0.682703 0.348415 0.634265
O O5 0.750000 0.250000 0.500000
O O6 0.861200 0.014451 0.445944
O O7 0.126123 0.174995 0.419285
O O8 0.000000 0.304258 0.750000
O O9 0.175759 0.105548 0.647336
O O10 0.500000 0.000000 0.000000
#
# Coordination Sequence:
#
# PCOD9253848 Si02
#       4
#     8   8   8   8
#     4  10  19  31  51  84 114 144 182 233 283 323
#     4   8  16  29  50  78 113 143 180 233 274 325
#     4  10  18  31  54  82 109 145 190 227 275 338
#     4  10  14  30  56  79 103 145 193 221 271 335
#
# _framework density 21.910527999999999
#
# number of rings (size 3 to 8) (size 9 to 14) (size 15 to 20)
#    0.000    3.000    7.500    0.750    0.000    0.000 
#    0.000    1.250    0.000   15.000    0.000    0.000 
#    0.000    0.000    0.000    0.000    0.000    0.000 
#
# Total GULP energy -89251.145007 kJ/mol
# GULP energy per Si atom -5578.196563 kJ/mol
# Density = 2.186066 g / cm^3
# Si number density = 21.910528 Si / 1000 Ang^3
#
#
#
# Elastic Constant Matrix: (Units=GPa)
#
#
# Indices 1 2 3 4 5 6 
#
# 1 66.9534 34.3651 50.2039 0.0000 8.4685 0.0000
# 2 34.3651 71.7515 13.6222 0.0001 4.7289 0.0000
# 3 50.2039 13.6222 191.7550 0.0001 9.3936 0.0000
# 4 0.0000 0.0001 0.0001 -58.6795 0.0000 -0.1950
# 5 8.4685 4.7289 9.3936 0.0000 46.5310 0.0000
# 6 0.0000 0.0000 0.0000 -0.1950 0.0000 35.5332
#
#
#
# Elastic Compliance Matrix: (Units=1/GPa)
#
#
# Indices 1 2 3 4 5 6 
#
# 1 0.024990 -0.010741 -0.005666 0.000000 -0.002313 0.000000
# 2 -0.010741 0.018816 0.001488 0.000000 -0.000258 0.000000
# 3 -0.005666 0.001488 0.006615 0.000000 -0.000455 0.000000
# 4 0.000000 0.000000 0.000000 -0.017041 0.000000 -0.000094
# 5 -0.002313 -0.000258 -0.000455 0.000000 0.022030 0.000000
# 6 0.000000 0.000000 0.000000 -0.000094 0.000000 0.028142
#
#
# Mechanical properties :
#
#
# Convention : Reuss Voigt Hill
#
# Bulk Modulus (GPa) = 48.58448 58.53804 53.56126
# Shear Modulus (GPa) = 41.57985 20.16151 30.87068
#
# Velocity S-wave (km/s) = 4.36100 3.03673 3.75766
# Velocity P-wave (km/s) = 6.89782 6.25064 6.58219
#
# Compressibility (1/GPa) = 0.02058270
#
# Stress axis : x y z
#
# Youngs Moduli (GPa) = 40.01608 53.14716 151.16883
#
# Poissons Ratio (x) = 0.57083 0.85658
# Poissons Ratio (y) = 0.42980 -0.22494
# Poissons Ratio (z) = 0.22675 -0.07908
#
# Static dielectric constant tensor:
#      x y z
#    x 1.838240 0.000000 0.028740 
#    y 0.000000 1.835960 0.000000 
#    z 0.028740 0.000000 1.869620 
# 
# From -- ./inp_files/262939.got.cif
#   From: 2010.05.17/outbox.cif.g08.bks.cpg/sg15_132_cif.got.tgz:262939.got - 2010.06.03 18:47:42.
