data_PCOD9253180
_publ_section_title
;
Structure prediction by ZEFSAII (Michael W. Deem and Ramdas Pophale) SiO2 
 PCOD9253180
Probable space group: P 21/C
;
_chemical_formula_sum "Si O2"
_cell_formula_units_Z 32
_cell_length_a 18.229751
_cell_length_b 10.653544
_cell_length_c 18.870566
_cell_angle_alpha 90.000000
_cell_angle_beta 158.242430
_cell_angle_gamma 90.000000
_cell_volume 1358.498293
_symmetry_space_group_name_H-M "P 21/C"
_symmetry_group_IT_number 14
_symmetry_cell_setting 'monoclinic'
loop_
_space_group_symop_operation_xyz
x,y,z
-x,1/2+y,1/2-z
-x,-y,-z
x,1/2-y,1/2+z
loop_
_atom_site_type_symbol
_atom_site_label
_atom_site_fract_x
_atom_site_fract_y
_atom_site_fract_z
Si Si1 0.528266 0.612913 0.372258
Si Si2 0.115893 0.479693 0.772953
Si Si3 0.495736 0.124034 0.414380
Si Si4 0.231352 0.319589 0.547675
Si Si5 0.123186 0.313343 0.653181
Si Si6 0.721706 0.274126 0.736986
Si Si7 0.798097 0.960083 0.239606
Si Si8 0.167151 0.464321 0.986109
O O1 0.682944 0.668396 0.454897
O O2 0.409946 0.719844 0.309748
O O3 0.639209 0.537227 0.533836
O O4 0.378739 0.522914 0.195598
O O5 0.116525 0.471173 0.858000
O O6 0.941642 0.578207 0.597456
O O7 0.081604 0.354877 0.696265
O O8 0.337065 0.522413 0.950769
O O9 0.415849 0.167220 0.266542
O O10 0.287446 0.095240 0.266633
O O11 0.606644 0.220023 0.566373
O O12 0.149036 0.181729 0.488332
O O13 0.213899 0.173069 0.732237
O O14 0.918430 0.304904 0.428041
O O15 0.774686 0.418998 0.767433
O O16 0.009057 0.962198 0.390882
#
# Coordination Sequence:
#
# PCOD9253180 Si02
#       8
#     4   4   4   4   4   4   4   4
#     4  12  25  47  75 111 145 193 248 305 378 433
#     4  12  28  50  72 107 152 196 250 303 370 455
#     4  12  26  49  74 108 147 199 250 303 372 450
#     4  12  28  50  75 110 152 198 245 307 374 447
#     4  12  27  46  77 106 151 196 246 308 373 442
#     4  12  27  46  80 112 148 191 252 316 368 438
#     4  12  24  48  75 113 146 188 251 312 370 439
#     4  12  26  46  78 107 147 196 247 307 373 442
#
# _framework density 23.555422
#
# number of rings (size 3 to 8) (size 9 to 14) (size 15 to 20)
#    0.000    0.000    5.000    4.875    1.750    4.000 
#    2.250    0.000    0.000    0.000    0.000    0.000 
#    0.000    0.000    0.000    0.000    0.000    0.000 
#
# Total GULP energy -179243.569628 kJ/mol
# GULP energy per Si atom -5601.361551 kJ/mol
# Density = 2.350181 g / cm^3
# Si number density = 23.555422 Si / 1000 Ang^3
#
#
#
# Elastic Constant Matrix: (Units=GPa)
#
#
# Indices 1 2 3 4 5 6 
#
# 1 115.0469 4.5508 36.3598 0.0000 -8.8649 0.0000
# 2 4.5508 59.7950 37.3958 0.0000 -9.6261 0.0000
# 3 36.3598 37.3958 163.2736 0.0000 -17.7179 0.0000
# 4 0.0000 0.0000 0.0000 22.6633 0.0000 -0.4947
# 5 -8.8649 -9.6261 -17.7179 0.0000 44.6147 0.0000
# 6 0.0000 0.0000 0.0000 -0.4947 0.0000 23.1993
#
#
#
# Elastic Compliance Matrix: (Units=1/GPa)
#
#
# Indices 1 2 3 4 5 6 
#
# 1 0.009434 0.000825 -0.002160 0.000000 0.001195 0.000000
# 2 0.000825 0.019873 -0.004444 0.000000 0.002687 0.000000
# 3 -0.002160 -0.004444 0.007810 0.000000 0.001713 0.000000
# 4 0.000000 0.000000 0.000000 0.044145 0.000000 0.000941
# 5 0.001195 0.002687 0.001713 0.000000 0.023912 0.000000
# 6 0.000000 0.000000 0.000000 0.000941 0.000000 0.043125
#
#
# Mechanical properties :
#
#
# Convention : Reuss Voigt Hill
#
# Bulk Modulus (GPa) = 39.12523 54.96983 47.04753
# Shear Modulus (GPa) = 29.69562 35.41606 32.55584
#
# Velocity S-wave (km/s) = 3.55444 3.88173 3.72169
# Velocity P-wave (km/s) = 5.78717 6.59375 6.20358
#
# Compressibility (1/GPa) = 0.02555896
#
# Stress axis : x y z
#
# Youngs Moduli (GPa) = 105.99642 50.32024 128.04897
#
# Poissons Ratio (x) = -0.04153 0.27663
# Poissons Ratio (y) = -0.08749 0.56903
# Poissons Ratio (z) = 0.22899 0.22361
#
# Static dielectric constant tensor:
#      x y z
#    x 1.886960 0.000000 0.005390 
#    y 0.000000 1.886690 0.000000 
#    z 0.005390 0.000000 1.899860 
# 
# From -- ./inp_files/69927.got.cif
#   From: 2010.05.17/outbox.cif.g08.bks.cpg/sg14_35_cif.got.tgz:69927.got - 2010.06.03 17:49:19.
