data_PCOD9253399
_publ_section_title
;
Structure prediction by ZEFSAII (Michael W. Deem and Ramdas Pophale) SiO2 
 PCOD9253399
Probable space group: P 21/C
;
_chemical_formula_sum "Si O2"
_cell_formula_units_Z 28
_cell_length_a 8.928487
_cell_length_b 10.446569
_cell_length_c 14.472258
_cell_angle_alpha 90.000000
_cell_angle_beta 133.586029
_cell_angle_gamma 90.000000
_cell_volume 977.755597
_symmetry_space_group_name_H-M "P 21/C"
_symmetry_group_IT_number 14
_symmetry_cell_setting 'monoclinic'
loop_
_space_group_symop_operation_xyz
x,y,z
-x,1/2+y,1/2-z
-x,-y,-z
x,1/2-y,1/2+z
loop_
_atom_site_type_symbol
_atom_site_label
_atom_site_fract_x
_atom_site_fract_y
_atom_site_fract_z
Si Si1 0.080573 0.217522 0.179677
Si Si2 0.900097 0.002039 0.226025
Si Si3 0.479405 0.123102 0.077276
Si Si4 0.813781 0.981823 0.492490
Si Si5 0.419348 0.825385 0.250421
Si Si6 0.459766 0.723486 0.079373
Si Si7 0.028800 0.130491 0.958652
O O1 0.315450 0.174173 0.296903
O O2 0.943785 0.101106 0.160229
O O3 0.706145 0.386640 0.978145
O O4 0.056561 0.227822 0.057361
O O5 0.651538 0.014999 0.133814
O O6 0.057185 0.072339 0.365965
O O7 0.937899 0.852593 0.272651
O O8 0.542460 0.179391 0.203832
O O9 0.530102 0.227825 0.020467
O O10 0.231301 0.118738 0.981230
O O11 0.614860 0.902371 0.372138
O O12 0.000000 0.000000 0.500000
O O13 0.411059 0.831104 0.136140
O O14 0.187811 0.853481 0.186687
O O15 0.000000 0.000000 0.000000
#
# Coordination Sequence:
#
# PCOD9253399 Si02
#       7
#     4   4   4   4   4   4   4
#     4  12  29  56  90 132 182 233 302 381 459 544
#     4  12  29  54  88 128 176 235 300 375 453 552
#     4  12  30  51  87 127 172 239 298 376 453 548
#     4  12  28  52  86 123 174 237 298 376 456 545
#     4  12  28  51  83 121 176 232 298 372 458 538
#     4  12  28  53  86 127 176 232 305 372 452 556
#     4  12  30  53  83 127 181 235 295 378 457 546
#
# _framework density 28.637011999999999
#
# number of rings (size 3 to 8) (size 9 to 14) (size 15 to 20)
#    0.000    0.000    1.429    6.000   12.000    5.143 
#    0.000    1.429    0.000    0.000    0.000    0.000 
#    0.000    0.000    0.000    0.000    0.000    0.000 
#
# Total GULP energy -156864.164120 kJ/mol
# GULP energy per Si atom -5602.291576 kJ/mol
# Density = 2.857183 g / cm^3
# Si number density = 28.637012 Si / 1000 Ang^3
#
#
#
# Elastic Constant Matrix: (Units=GPa)
#
#
# Indices 1 2 3 4 5 6 
#
# 1 242.0128 94.3187 78.2240 0.0000 31.0126 0.0000
# 2 94.3187 148.8335 41.2605 0.0000 21.4423 0.0000
# 3 78.2240 41.2605 194.0639 0.0000 39.7423 0.0000
# 4 0.0000 0.0000 0.0000 46.9363 0.0000 15.5882
# 5 31.0126 21.4423 39.7423 0.0000 82.7376 0.0000
# 6 0.0000 0.0000 0.0000 15.5882 0.0000 54.0107
#
#
#
# Elastic Compliance Matrix: (Units=1/GPa)
#
#
# Indices 1 2 3 4 5 6 
#
# 1 0.006004 -0.003271 -0.001594 0.000000 -0.000637 0.000000
# 2 -0.003271 0.009039 -0.000416 0.000000 -0.000917 0.000000
# 3 -0.001594 -0.000416 0.006366 0.000000 -0.002352 0.000000
# 4 0.000000 0.000000 0.000000 0.023564 0.000000 -0.006801
# 5 -0.000637 -0.000917 -0.002352 0.000000 0.013693 0.000000
# 6 0.000000 0.000000 0.000000 -0.006801 0.000000 0.020478
#
#
# Mechanical properties :
#
#
# Convention : Reuss Voigt Hill
#
# Bulk Modulus (GPa) = 92.19054 112.50185 102.34620
# Shear Modulus (GPa) = 53.57913 61.47737 57.52825
#
# Velocity S-wave (km/s) = 4.33017 4.63836 4.48691
# Velocity P-wave (km/s) = 7.56724 8.24964 7.91580
#
# Compressibility (1/GPa) = 0.01084710
#
# Stress axis : x y z
#
# Youngs Moduli (GPa) = 166.56533 110.63065 157.09414
#
# Poissons Ratio (x) = 0.36187 0.25042
# Poissons Ratio (y) = 0.54483 0.06529
# Poissons Ratio (z) = 0.26552 0.04598
#
# Static dielectric constant tensor:
#      x y z
#    x 2.264450 0.000000 -0.060080 
#    y 0.000000 2.373780 0.000000 
#    z -0.060080 0.000000 2.266330 
# 
# From -- ./inp_files/41825.got.cif
#   From: 2010.05.17/outbox.cif.g08.bks.cpg/sg14_21_cif.got.tgz:41825.got - 2010.06.03 17:49:19.
