data_PCOD9253973
_publ_section_title
;
Structure prediction by ZEFSAII (Michael W. Deem and Ramdas Pophale) SiO2 
 PCOD9253973
Probable space group: C 2/C
;
_chemical_formula_sum "Si O2"
_cell_formula_units_Z 56
_cell_length_a 16.325465
_cell_length_b 10.915306
_cell_length_c 17.501665
_cell_angle_alpha 90.000000
_cell_angle_beta 44.258294
_cell_angle_gamma 90.000000
_cell_volume 2176.558757
_symmetry_space_group_name_H-M "C 2/C"
_symmetry_group_IT_number 15
_symmetry_cell_setting 'monoclinic'
loop_
_space_group_symop_operation_xyz
x,y,z
-x,y,1/2-z
-x,-y,-z
x,-y,1/2+z
1/2+x,1/2+y,z
1/2-x,1/2+y,1/2-z
1/2-x,1/2-y,-z
1/2+x,1/2-y,1/2+z
loop_
_atom_site_type_symbol
_atom_site_label
_atom_site_fract_x
_atom_site_fract_y
_atom_site_fract_z
Si Si1 0.909153 0.047339 0.626037
Si Si2 0.802284 0.441641 0.595290
Si Si3 0.426560 0.887567 0.110252
Si Si4 0.520760 0.672230 0.325312
Si Si5 0.585384 0.739764 0.541696
Si Si6 0.289971 0.064477 0.457323
Si Si7 0.774265 0.838287 0.084307
O O1 0.808074 0.100690 0.641382
O O2 0.967690 0.162598 0.629124
O O3 0.000000 0.000000 0.500000
O O4 0.901351 0.938150 0.691841
O O5 0.833449 0.504863 0.655357
O O6 0.741899 0.531354 0.574489
O O7 0.755735 0.305414 0.611813
O O8 0.940312 0.436140 0.475516
O O9 0.422134 0.799384 0.185684
O O10 0.417030 0.799526 0.041308
O O11 0.500000 0.664168 0.250000
O O12 0.393460 0.661529 0.452011
O O13 0.605160 0.842792 0.592724
O O14 0.692372 0.642966 0.477694
O O15 0.310242 0.934107 0.402841
#
# Coordination Sequence:
#
# PCOD9253973 Si02
#       7
#     8   8   8   8   8   8   8
#     4  10  15  29  49  67  96 123 165 203 236 289
#     4   9  17  26  46  73  99 118 152 201 257 286
#     4   9  16  30  45  71  94 127 162 195 241 301
#     4  10  18  28  48  74  94 128 169 208 239 287
#     4  10  16  28  45  72  98 126 154 198 250 287
#     4  10  18  24  44  79 102 116 149 208 257 278
#     4  10  17  31  48  75 100 121 163 212 245 289
#
# _framework density 25.728687999999998
#
# number of rings (size 3 to 8) (size 9 to 14) (size 15 to 20)
#    0.000    2.286    7.143    0.429    0.000    0.000 
#    0.000    0.000    0.000    0.857   37.143    0.000 
#    0.000    0.000    0.000    0.000    0.000    0.000 
#
# Total GULP energy -156562.073094 kJ/mol
# GULP energy per Si atom -5591.502610 kJ/mol
# Density = 2.567013 g / cm^3
# Si number density = 25.728688 Si / 1000 Ang^3
#
#
#
# Elastic Constant Matrix: (Units=GPa)
#
#
# Indices 1 2 3 4 5 6 
#
# 1 116.6799 57.6454 46.3694 0.0000 39.7354 0.0000
# 2 57.6454 169.8763 52.0817 0.0000 26.5353 0.0000
# 3 46.3694 52.0817 75.0806 0.0000 16.5524 0.0000
# 4 0.0000 0.0000 0.0000 45.4838 0.0000 16.5375
# 5 39.7354 26.5353 16.5524 0.0000 36.0636 0.0000
# 6 0.0000 0.0000 0.0000 16.5375 0.0000 80.8834
#
#
#
# Elastic Compliance Matrix: (Units=1/GPa)
#
#
# Indices 1 2 3 4 5 6 
#
# 1 0.016645 -0.001546 -0.006025 0.000000 -0.014437 0.000000
# 2 -0.001546 0.008033 -0.004105 0.000000 -0.002323 0.000000
# 3 -0.006025 -0.004105 0.019757 0.000000 0.000590 0.000000
# 4 0.000000 0.000000 0.000000 0.023752 0.000000 -0.004856
# 5 -0.014437 -0.002323 0.000590 0.000000 0.045074 0.000000
# 6 0.000000 0.000000 0.000000 -0.004856 0.000000 0.013356
#
#
# Mechanical properties :
#
#
# Convention : Reuss Voigt Hill
#
# Bulk Modulus (GPa) = 47.43101 74.86997 61.15049
# Shear Modulus (GPa) = 31.84794 46.18887 39.01840
#
# Velocity S-wave (km/s) = 3.52211 4.24161 3.89849
# Velocity P-wave (km/s) = 5.91738 7.29049 6.63953
#
# Compressibility (1/GPa) = 0.02108326
#
# Stress axis : x y z
#
# Youngs Moduli (GPa) = 60.07802 124.49132 50.61424
#
# Poissons Ratio (x) = 0.19248 0.30493
# Poissons Ratio (y) = 0.09289 0.20778
# Poissons Ratio (z) = 0.36195 0.51106
#
# Static dielectric constant tensor:
#      x y z
#    x 2.034160 0.000000 -0.098220 
#    y 0.000000 2.035340 0.000000 
#    z -0.098220 0.000000 2.121030 
# 
# From -- ./inp_files/209948.got.cif
#   From: 2010.05.17/outbox.cif.g08.bks.cpg/sg15_105_cif.got.tgz:209948.got - 2010.06.03 18:47:42.
