data_PCOD9253491
_publ_section_title
;
Structure prediction by ZEFSAII (Michael W. Deem and Ramdas Pophale) SiO2 
 PCOD9253491
Probable space group: P 21/C
;
_chemical_formula_sum "Si O2"
_cell_formula_units_Z 28
_cell_length_a 12.000000
_cell_length_b 9.000000
_cell_length_c 15.000000
_cell_angle_alpha 90.000000
_cell_angle_beta 110.000000
_cell_angle_gamma 90.000000
_cell_volume 1522.302046
_symmetry_space_group_name_H-M "P 21/C"
_symmetry_group_IT_number 14
_symmetry_cell_setting 'monoclinic'
loop_
_space_group_symop_operation_xyz
x,y,z
-x,1/2+y,1/2-z
-x,-y,-z
x,1/2-y,1/2+z
loop_
_atom_site_type_symbol
_atom_site_label
_atom_site_fract_x
_atom_site_fract_y
_atom_site_fract_z
Si Si1 0.018654 0.828374 0.887635
Si Si2 0.849247 0.738124 0.687484
Si Si3 0.353007 0.477572 0.876574
Si Si4 0.728358 0.081327 0.119255
Si Si5 0.594394 0.208471 0.454246
Si Si6 0.683118 0.268072 0.275505
Si Si7 0.954958 0.324141 0.398437
O O1 0.147767 0.837013 0.875504
O O2 0.926114 0.737782 0.800586
O O3 0.031173 0.779110 0.993993
O O4 0.975793 0.999545 0.887625
O O5 0.765062 0.881035 0.666718
O O6 0.770256 0.590549 0.643532
O O7 0.946465 0.752953 0.635871
O O8 0.460154 0.357559 0.915106
O O9 0.366332 0.588133 0.794018
O O10 0.347222 0.581442 0.964229
O O11 0.677645 0.137387 0.200130
O O12 0.633875 0.138949 0.017693
O O13 0.629977 0.231120 0.359350
O O14 0.822312 0.291945 0.331449
#
# Coordination Sequence:
#
# PCOD9253491 Si02
#       7
#     4   4   4   4   4   4   4
#     4  10  19  36  56  90 127 159 203 246 313 366
#     4  11  22  37  61  95 128 161 208 255 314 372
#     4  10  24  43  65  87 126 170 201 263 310 369
#     4  10  22  36  61  93 124 165 205 265 305 365
#     4  10  23  44  63  87 121 168 214 253 314 366
#     4  11  20  40  65  87 122 163 209 254 315 370
#     4  10  20  34  61  89 120 168 197 249 310 371
#
# _framework density 18.393196
#
# number of rings (size 3 to 8) (size 9 to 14) (size 15 to 20)
#    0.000    1.714    4.286    0.000    0.000    2.857 
#    0.000    7.143    0.000    0.000    0.000    0.000 
#    0.000    0.000    0.000    0.000    0.000    0.000 
#
# Total GULP energy -156007.574424 kJ/mol
# GULP energy per Si atom -5571.699087 kJ/mol
# Density = 1.835133 g / cm^3
# Si number density = 18.393196 Si / 1000 Ang^3
#
#
#
# Elastic Constant Matrix: (Units=GPa)
#
#
# Indices 1 2 3 4 5 6 
#
# 1 53.9608 25.0377 35.3440 0.0000 -3.7803 0.0000
# 2 25.0377 55.1227 28.5656 0.0000 -1.9142 0.0000
# 3 35.3440 28.5656 150.7841 0.0000 -19.7955 0.0000
# 4 0.0000 0.0000 0.0000 30.5587 0.0000 2.2371
# 5 -3.7803 -1.9142 -19.7955 0.0000 38.9186 0.0000
# 6 0.0000 0.0000 0.0000 2.2371 0.0000 30.5657
#
#
#
# Elastic Compliance Matrix: (Units=1/GPa)
#
#
# Indices 1 2 3 4 5 6 
#
# 1 0.025702 -0.009478 -0.004246 0.000000 -0.000129 0.000000
# 2 -0.009478 0.023649 -0.002386 0.000000 -0.000971 0.000000
# 3 -0.004246 -0.002386 0.008583 0.000000 0.003836 0.000000
# 4 0.000000 0.000000 0.000000 0.032900 0.000000 -0.002408
# 5 -0.000129 -0.000971 0.003836 0.000000 0.027585 0.000000
# 6 0.000000 0.000000 0.000000 -0.002408 0.000000 0.032893
#
#
# Mechanical properties :
#
#
# Convention : Reuss Voigt Hill
#
# Bulk Modulus (GPa) = 38.89021 48.64025 43.76523
# Shear Modulus (GPa) = 26.02755 31.40328 28.71542
#
# Velocity S-wave (km/s) = 3.76581 4.13647 3.95549
# Velocity P-wave (km/s) = 6.33231 7.02253 6.68633
#
# Compressibility (1/GPa) = 0.02571341
#
# Stress axis : x y z
#
# Youngs Moduli (GPa) = 38.90766 42.28446 116.51152
#
# Poissons Ratio (x) = 0.40079 0.49469
# Poissons Ratio (y) = 0.36878 0.27800
# Poissons Ratio (z) = 0.16520 0.10089
#
# Static dielectric constant tensor:
#      x y z
#    x 1.629120 0.000000 0.009520 
#    y 0.000000 1.651780 0.000000 
#    z 0.009520 0.000000 1.641690 
# 
# From -- ./inp_files/43463.got.cif
#   From: 2010.05.17/outbox.ucp.g08.bks.cvg/sg14_22_cif.got.tgz:43463.got - 2010.06.11 12:31:08.
