data_PCOD9253569
_publ_section_title
;
Structure prediction by ZEFSAII (Michael W. Deem and Ramdas Pophale) SiO2 
 PCOD9253569
Probable space group: P 21/C
;
_chemical_formula_sum "Si O2"
_cell_formula_units_Z 28
_cell_length_a 30.000000
_cell_length_b 9.000000
_cell_length_c 30.000000
_cell_angle_alpha 90.000000
_cell_angle_beta 170.000000
_cell_angle_gamma 90.000000
_cell_volume 1406.550239
_symmetry_space_group_name_H-M "P 21/C"
_symmetry_group_IT_number 14
_symmetry_cell_setting 'monoclinic'
loop_
_space_group_symop_operation_xyz
x,y,z
-x,1/2+y,1/2-z
-x,-y,-z
x,1/2-y,1/2+z
loop_
_atom_site_type_symbol
_atom_site_label
_atom_site_fract_x
_atom_site_fract_y
_atom_site_fract_z
Si Si1 0.268694 0.427414 0.711698
Si Si2 0.535302 0.960878 0.873606
Si Si3 0.887635 0.547626 0.189971
Si Si4 0.979078 0.286290 0.109268
Si Si5 0.724866 0.837077 0.974158
Si Si6 0.235261 0.120043 0.280334
Si Si7 0.491472 0.191162 0.338306
O O1 0.277113 0.343671 0.768602
O O2 0.337482 0.347983 0.732381
O O3 0.978360 0.489452 0.425897
O O4 0.487093 0.557595 0.930362
O O5 0.533987 0.928178 0.818872
O O6 0.285790 0.880001 0.649677
O O7 0.564768 0.134819 0.914133
O O8 0.795287 0.882301 0.146163
O O9 0.051988 0.639177 0.389451
O O10 0.033055 0.444519 0.297170
O O11 0.767449 0.681693 0.042065
O O12 0.705918 0.437115 0.040060
O O13 0.101947 0.239489 0.182323
O O14 0.645416 0.810090 0.844845
#
# Coordination Sequence:
#
# PCOD9253569 Si02
#       7
#     4   4   4   4   4   4   4
#     4  10  22  38  69 103 125 169 215 278 326 395
#     4  11  28  41  64  94 138 171 226 261 339 386
#     4  11  25  40  67  91 132 173 229 264 341 383
#     4  11  24  45  65  96 129 181 212 278 323 402
#     4  11  26  40  64  93 133 177 221 274 325 398
#     4  10  20  42  68  98 132 161 223 271 331 392
#     4  12  25  42  64  97 130 178 216 284 319 410
#
# _framework density 19.906860999999999
#
# number of rings (size 3 to 8) (size 9 to 14) (size 15 to 20)
#    0.000    1.143    1.429    3.429   18.000    0.000 
#    0.000    1.429    0.000    0.000    0.000    0.000 
#    0.000    0.000    0.000    0.000    0.000    0.000 
#
# Total GULP energy -156147.677912 kJ/mol
# GULP energy per Si atom -5576.702783 kJ/mol
# Density = 1.986155 g / cm^3
# Si number density = 19.906861 Si / 1000 Ang^3
#
#
#
# Elastic Constant Matrix: (Units=GPa)
#
#
# Indices 1 2 3 4 5 6 
#
# 1 163.6093 36.8575 -6.4249 0.0000 27.7238 0.0000
# 2 36.8575 120.0533 20.0309 0.0000 11.5954 0.0000
# 3 -6.4249 20.0309 60.0569 0.0000 20.7452 0.0000
# 4 0.0000 0.0000 0.0000 28.1656 0.0000 9.4515
# 5 27.7238 11.5954 20.7452 0.0000 39.6119 0.0000
# 6 0.0000 0.0000 0.0000 9.4515 0.0000 32.5061
#
#
#
# Elastic Compliance Matrix: (Units=1/GPa)
#
#
# Indices 1 2 3 4 5 6 
#
# 1 0.008025 -0.002470 0.004117 0.000000 -0.007050 0.000000
# 2 -0.002470 0.009633 -0.003785 0.000000 0.000891 0.000000
# 3 0.004117 -0.003785 0.023155 0.000000 -0.013901 0.000000
# 4 0.000000 0.000000 0.000000 0.039343 0.000000 -0.011439
# 5 -0.007050 0.000891 -0.013901 0.000000 0.037198 0.000000
# 6 0.000000 0.000000 0.000000 -0.011439 0.000000 0.034090
#
#
# Mechanical properties :
#
#
# Convention : Reuss Voigt Hill
#
# Bulk Modulus (GPa) = 27.36811 49.40519 38.38665
# Shear Modulus (GPa) = 29.77992 39.60712 34.69352
#
# Velocity S-wave (km/s) = 3.87196 4.46536 4.17920
# Velocity P-wave (km/s) = 5.81097 7.17342 6.52784
#
# Compressibility (1/GPa) = 0.03653887
#
# Stress axis : x y z
#
# Youngs Moduli (GPa) = 124.61371 103.80597 43.18653
#
# Poissons Ratio (x) = 0.25638 -0.17782
# Poissons Ratio (y) = 0.30777 0.16346
# Poissons Ratio (z) = -0.51309 0.39290
#
# Static dielectric constant tensor:
#      x y z
#    x 1.724150 0.000000 -0.048980 
#    y 0.000000 1.720600 0.000000 
#    z -0.048980 0.000000 1.766520 
# 
# From -- ./inp_files/80894.got.cif
#   From: 2010.05.17/outbox.ucp.g08.bks.cvg/sg14_41_cif.got.tgz:80894.got - 2010.06.11 12:31:08.
