data_PCOD9253126
_publ_section_title
;
Structure prediction by ZEFSAII (Michael W. Deem and Ramdas Pophale) SiO2 
 PCOD9253126
Probable space group: P 21/C
;
_chemical_formula_sum "Si O2"
_cell_formula_units_Z 20
_cell_length_a 20.653050
_cell_length_b 5.446389
_cell_length_c 9.373450
_cell_angle_alpha 90.000000
_cell_angle_beta 122.961413
_cell_angle_gamma 90.000000
_cell_volume 884.654161
_symmetry_space_group_name_H-M "P 21/C"
_symmetry_group_IT_number 14
_symmetry_cell_setting 'monoclinic'
loop_
_space_group_symop_operation_xyz
x,y,z
-x,1/2+y,1/2-z
-x,-y,-z
x,1/2-y,1/2+z
loop_
_atom_site_type_symbol
_atom_site_label
_atom_site_fract_x
_atom_site_fract_y
_atom_site_fract_z
Si Si1 0.592590 0.492029 0.604186
Si Si2 0.055772 0.324320 0.156269
Si Si3 0.102982 0.792378 0.912357
Si Si4 0.827551 0.484862 0.252798
Si Si5 0.353648 0.489009 0.997508
O O1 0.500000 0.500000 0.500000
O O2 0.619474 0.240139 0.553843
O O3 0.622425 0.498015 0.805580
O O4 0.616649 0.739956 0.545825
O O5 0.113995 0.472236 0.325775
O O6 0.112744 0.187110 0.117433
O O7 0.987124 0.186522 0.156823
O O8 0.000000 0.500000 0.000000
O O9 0.127628 0.575155 0.838264
O O10 0.158845 0.777550 0.113525
O O11 0.739054 0.529280 0.122830
#
# Coordination Sequence:
#
# PCOD9253126 Si02
#       5
#     4   4   4   4   4
#     4  12  26  52  81 116 155 200 249 304 381 481
#     4  12  24  41  65  93 131 186 242 293 356 422
#     4  12  24  43  63  94 132 184 240 291 358 415
#     4  12  28  41  69  98 142 180 240 309 359 431
#     4  12  28  47  80 116 155 199 250 314 388 445
#
# _framework density 22.607703000000001
#
# number of rings (size 3 to 8) (size 9 to 14) (size 15 to 20)
#    0.000    0.000    4.000    6.000    5.600    0.000 
#    0.000    0.000    0.000    0.000    0.000    0.000 
#    0.000    0.000    0.000    0.000    0.000    0.000 
#
# Total GULP energy -111557.060806 kJ/mol
# GULP energy per Si atom -5577.853040 kJ/mol
# Density = 2.255625 g / cm^3
# Si number density = 22.607703 Si / 1000 Ang^3
#
#
#
# Elastic Constant Matrix: (Units=GPa)
#
#
# Indices 1 2 3 4 5 6 
#
# 1 138.2740 44.4107 75.8449 0.0000 32.5063 0.0000
# 2 44.4107 123.1025 48.7772 0.0000 -9.1327 0.0000
# 3 75.8449 48.7772 173.8511 0.0000 -6.2738 0.0000
# 4 0.0000 0.0000 0.0000 32.5446 0.0000 -5.0678
# 5 32.5063 -9.1327 -6.2738 0.0000 53.2002 0.0000
# 6 0.0000 0.0000 0.0000 -5.0678 0.0000 34.6751
#
#
#
# Elastic Compliance Matrix: (Units=1/GPa)
#
#
# Indices 1 2 3 4 5 6 
#
# 1 0.013425 -0.003472 -0.005222 0.000000 -0.009415 0.000000
# 2 -0.003472 0.010124 -0.001191 0.000000 0.003719 0.000000
# 3 -0.005222 -0.001191 0.008509 0.000000 0.003990 0.000000
# 4 0.000000 0.000000 0.000000 0.031443 0.000000 0.004595
# 5 -0.009415 0.003719 0.003990 0.000000 0.025659 0.000000
# 6 0.000000 0.000000 0.000000 0.004595 0.000000 0.029511
#
#
# Mechanical properties :
#
#
# Convention : Reuss Voigt Hill
#
# Bulk Modulus (GPa) = 81.39771 85.92146 83.65959
# Shear Modulus (GPa) = 35.07845 41.83028 38.45437
#
# Velocity S-wave (km/s) = 3.94333 4.30614 4.12872
# Velocity P-wave (km/s) = 7.53762 7.92538 7.73393
#
# Compressibility (1/GPa) = 0.01228536
#
# Stress axis : x y z
#
# Youngs Moduli (GPa) = 74.48675 98.77500 117.52760
#
# Poissons Ratio (x) = 0.34299 0.61378
# Poissons Ratio (y) = 0.25865 0.14002
# Poissons Ratio (z) = 0.38900 0.11768
#
# Static dielectric constant tensor:
#      x y z
#    x 2.003730 0.000000 -0.212750 
#    y 0.000000 2.277120 0.000000 
#    z -0.212750 0.000000 2.067740 
# 
# From -- ./inp_files/17288.got.cif
#   From: 2010.05.17/outbox.cif.g08.bks.cpg/sg14_9_cif.got.tgz:17288.got - 2010.06.03 17:49:19.
