data_PCOD9253846
_publ_section_title
;
Structure prediction by ZEFSAII (Michael W. Deem and Ramdas Pophale) SiO2 
 PCOD9253846
Probable space group: C 2/C
;
_chemical_formula_sum "Si O2"
_cell_formula_units_Z 52
_cell_length_a 17.649353
_cell_length_b 8.297261
_cell_length_c 26.975949
_cell_angle_alpha 90.000000
_cell_angle_beta 148.824454
_cell_angle_gamma 90.000000
_cell_volume 2044.967766
_symmetry_space_group_name_H-M "C 2/C"
_symmetry_group_IT_number 15
_symmetry_cell_setting 'monoclinic'
loop_
_space_group_symop_operation_xyz
x,y,z
-x,y,1/2-z
-x,-y,-z
x,-y,1/2+z
1/2+x,1/2+y,z
1/2-x,1/2+y,1/2-z
1/2-x,1/2-y,-z
1/2+x,1/2-y,1/2+z
loop_
_atom_site_type_symbol
_atom_site_label
_atom_site_fract_x
_atom_site_fract_y
_atom_site_fract_z
Si Si1 0.000000 0.374009 0.250000
Si Si2 0.226795 0.651437 0.128089
Si Si3 0.035469 0.414527 0.377120
Si Si4 0.228420 0.235044 0.233851
Si Si5 0.031336 0.898746 0.969149
Si Si6 0.341539 0.546629 0.056620
Si Si7 0.915422 0.849033 0.249717
O O1 0.139282 0.259082 0.317946
O O2 0.012303 0.469437 0.308090
O O3 0.213633 0.692879 0.179221
O O4 0.283331 0.468106 0.157514
O O5 0.090055 0.723973 0.020871
O O6 0.176496 0.496852 0.480145
O O7 0.104208 0.232887 0.408730
O O8 0.882289 0.388066 0.318825
O O9 0.113465 0.110679 0.145355
O O10 0.347807 0.255492 0.258412
O O11 0.145991 0.980208 0.995683
O O12 0.000000 0.000000 0.000000
O O13 0.459221 0.454870 0.154256
O O14 0.000000 0.777735 0.250000
#
# Coordination Sequence:
#
# PCOD9253846 Si02
#       7
#     4   8   8   8   8   8   8
#     4  10  14  30  54  92 112 150 196 270 292 358
#     4  11  20  35  66  94 122 161 219 264 323 368
#     4   9  17  31  56  86 123 143 209 258 306 350
#     4  10  24  39  60  96 132 161 213 269 324 388
#     4  11  22  39  65  88 128 169 216 262 322 383
#     4  10  18  33  59  90 115 160 204 265 307 371
#     4  12  23  39  64  90 132 172 209 267 330 378
#
# _framework density 25.428272
#
# number of rings (size 3 to 8) (size 9 to 14) (size 15 to 20)
#    0.000    1.538    6.923    0.923    4.308    0.615 
#    0.000    0.000    5.077    1.846    0.000    0.000 
#    0.000    0.000    0.000    0.000    0.000    0.000 
#
# Total GULP energy -145293.413308 kJ/mol
# GULP energy per Si atom -5588.208204 kJ/mol
# Density = 2.537040 g / cm^3
# Si number density = 25.428272 Si / 1000 Ang^3
#
#
#
# Elastic Constant Matrix: (Units=GPa)
#
#
# Indices 1 2 3 4 5 6 
#
# 1 213.1531 35.2367 24.2939 0.0000 -22.3001 0.0000
# 2 35.2367 28.2702 -6.1088 0.0000 -3.2388 0.0000
# 3 24.2939 -6.1088 61.0314 0.0001 -9.3235 0.0000
# 4 0.0000 0.0000 0.0001 11.1805 0.0000 -11.6435
# 5 -22.3001 -3.2388 -9.3235 0.0000 40.1930 0.0000
# 6 0.0000 0.0000 0.0000 -11.6435 0.0000 36.8874
#
#
#
# Elastic Compliance Matrix: (Units=1/GPa)
#
#
# Indices 1 2 3 4 5 6 
#
# 1 0.006765 -0.008868 -0.003231 0.000000 0.002289 0.000000
# 2 -0.008868 0.048376 0.008518 0.000000 0.000954 0.000000
# 3 -0.003231 0.008518 0.019029 0.000000 0.003308 0.000000
# 4 0.000000 0.000000 0.000000 0.133239 0.000000 0.042057
# 5 0.002289 0.000954 0.003308 0.000000 0.026994 0.000000
# 6 0.000000 0.000000 0.000000 0.042057 0.000000 0.040385
#
#
# Mechanical properties :
#
#
# Convention : Reuss Voigt Hill
#
# Bulk Modulus (GPa) = 14.92353 45.47760 30.20057
# Shear Modulus (GPa) = 16.43182 34.25439 25.34311
#
# Velocity S-wave (km/s) = 2.54481 3.67427 3.16040
# Velocity P-wave (km/s) = 3.81003 5.99365 5.02196
#
# Compressibility (1/GPa) = 0.06700826
#
# Stress axis : x y z
#
# Youngs Moduli (GPa) = 147.81445 20.67126 52.55139
#
# Poissons Ratio (x) = 0.18332 0.16978
# Poissons Ratio (y) = 1.31085 -0.44763
# Poissons Ratio (z) = 0.47756 -0.17608
#
# Static dielectric constant tensor:
#      x y z
#    x 2.077010 0.000000 0.047650 
#    y 0.000000 2.128690 0.000000 
#    z 0.047650 0.000000 2.020610 
# 
# From -- ./inp_files/273898.got.cif
#   From: 2010.05.17/outbox.cif.g08.bks.cpg/sg15_137_cif.got.tgz:273898.got - 2010.06.03 18:47:42.
