data_PCOD9253784
_publ_section_title
;
Structure prediction by ZEFSAII (Michael W. Deem and Ramdas Pophale) SiO2 
 PCOD9253784
Probable space group: C 2/C
;
_chemical_formula_sum "Si O2"
_cell_formula_units_Z 52
_cell_length_a 23.886296
_cell_length_b 6.511533
_cell_length_c 21.034372
_cell_angle_alpha 90.000000
_cell_angle_beta 141.271080
_cell_angle_gamma 90.000000
_cell_volume 2046.838996
_symmetry_space_group_name_H-M "C 2/C"
_symmetry_group_IT_number 15
_symmetry_cell_setting 'monoclinic'
loop_
_space_group_symop_operation_xyz
x,y,z
-x,y,1/2-z
-x,-y,-z
x,-y,1/2+z
1/2+x,1/2+y,z
1/2-x,1/2+y,1/2-z
1/2-x,1/2-y,-z
1/2+x,1/2-y,1/2+z
loop_
_atom_site_type_symbol
_atom_site_label
_atom_site_fract_x
_atom_site_fract_y
_atom_site_fract_z
Si Si1 0.762625 0.519435 0.845091
Si Si2 0.536812 0.533500 0.450050
Si Si3 0.500000 0.038579 0.750000
Si Si4 0.863803 0.045971 0.589284
Si Si5 0.672458 0.964798 0.461949
Si Si6 0.620066 0.713211 0.135446
Si Si7 0.405324 0.283366 0.256752
O O1 0.694554 0.366008 0.750486
O O2 0.837949 0.595398 0.863622
O O3 0.698512 0.709237 0.813128
O O4 0.807714 0.425064 0.947161
O O5 0.588615 0.534651 0.430732
O O6 0.475592 0.728226 0.414015
O O7 0.598597 0.456740 0.561939
O O8 0.462299 0.358740 0.367062
O O9 0.411999 0.145912 0.644624
O O10 0.545435 0.908774 0.732136
O O11 0.764830 0.954529 0.505950
O O12 0.853278 0.292362 0.566171
O O13 0.905131 0.053577 0.697327
#
# Coordination Sequence:
#
# PCOD9253784 Si02
#       7
#     8   8   4   8   8   8   8
#     4  10  19  33  45  74 106 140 170 206 250 307
#     4  10  16  29  46  74  98 131 177 209 247 304
#     4  10  14  22  42  74  98 126 144 212 294 294
#     4   9  14  24  43  75 100 117 149 223 281 278
#     4   9  16  24  44  70 108 116 157 219 270 298
#     4  10  21  30  50  68 107 144 175 208 243 301
#     4   9  15  24  47  74 107 112 162 220 275 285
#
# _framework density 25.405025999999999
#
# number of rings (size 3 to 8) (size 9 to 14) (size 15 to 20)
#    0.000    2.462    4.615    0.923    0.000    0.000 
#    0.000    0.000    0.000   14.769    0.000   17.231 
#   13.846    0.000    0.000    0.000    0.000    0.000 
#
# Total GULP energy -145297.522109 kJ/mol
# GULP energy per Si atom -5588.366235 kJ/mol
# Density = 2.534720 g / cm^3
# Si number density = 25.405026 Si / 1000 Ang^3
#
#
#
# Elastic Constant Matrix: (Units=GPa)
#
#
# Indices 1 2 3 4 5 6 
#
# 1 152.1564 5.4981 33.8831 0.0000 3.7351 0.0000
# 2 5.4981 20.2282 -7.4483 0.0000 -8.8970 0.0001
# 3 33.8831 -7.4483 186.2122 0.0000 -13.0461 0.0000
# 4 0.0000 0.0000 0.0000 16.1467 0.0000 -12.0450
# 5 3.7351 -8.8970 -13.0461 0.0000 45.3350 0.0000
# 6 0.0000 0.0001 0.0000 -12.0450 0.0000 19.8866
#
#
#
# Elastic Compliance Matrix: (Units=1/GPa)
#
#
# Indices 1 2 3 4 5 6 
#
# 1 0.007070 -0.003212 -0.001531 0.000000 -0.001653 0.000000
# 2 -0.003212 0.057223 0.003754 -0.000001 0.012575 -0.000001
# 3 -0.001531 0.003754 0.005980 0.000000 0.002584 0.000000
# 4 0.000000 -0.000001 0.000000 0.112979 0.000000 0.068430
# 5 -0.001653 0.012575 0.002584 0.000000 0.025406 0.000000
# 6 0.000000 -0.000001 0.000000 0.068430 0.000000 0.091732
#
#
# Mechanical properties :
#
#
# Convention : Reuss Voigt Hill
#
# Bulk Modulus (GPa) = 14.64245 46.94028 30.79136
# Shear Modulus (GPa) = 15.37839 38.05126 26.71482
#
# Velocity S-wave (km/s) = 2.46301 3.87432 3.24629
# Velocity P-wave (km/s) = 3.72353 6.20731 5.11837
#
# Compressibility (1/GPa) = 0.06829457
#
# Stress axis : x y z
#
# Youngs Moduli (GPa) = 141.44814 17.47564 167.22571
#
# Poissons Ratio (x) = 0.05614 0.25598
# Poissons Ratio (y) = 0.45440 -0.62783
# Poissons Ratio (z) = 0.21652 -0.06561
#
# Static dielectric constant tensor:
#      x y z
#    x 2.015600 0.000000 0.065850 
#    y 0.000000 2.176970 0.000000 
#    z 0.065850 0.000000 1.994750 
# 
# From -- ./inp_files/255097.got.cif
#   From: 2010.05.17/outbox.cif.g08.bks.cpg/sg15_128_cif.got.tgz:255097.got - 2010.06.03 18:47:42.
