data_PCOD9253068
_publ_section_title
;
Structure prediction by ZEFSAII (Michael W. Deem and Ramdas Pophale) SiO2 
 PCOD9253068
Probable space group: P 21/C
;
_chemical_formula_sum "Si O2"
_cell_formula_units_Z 16
_cell_length_a 4.753248
_cell_length_b 10.731807
_cell_length_c 9.953873
_cell_angle_alpha 90.000000
_cell_angle_beta 82.586542
_cell_angle_gamma 90.000000
_cell_volume 503.512024
_symmetry_space_group_name_H-M "P 21/C"
_symmetry_group_IT_number 14
_symmetry_cell_setting 'monoclinic'
loop_
_space_group_symop_operation_xyz
x,y,z
-x,1/2+y,1/2-z
-x,-y,-z
x,1/2-y,1/2+z
loop_
_atom_site_type_symbol
_atom_site_label
_atom_site_fract_x
_atom_site_fract_y
_atom_site_fract_z
Si Si1 0.611695 0.123432 0.326850
Si Si2 0.000000 0.000000 0.000000
Si Si3 0.873554 0.045755 0.710164
Si Si4 0.500000 0.000000 0.000000
Si Si5 0.667505 0.742149 0.901761
O O1 0.416932 0.998070 0.336258
O O2 0.535436 0.186181 0.474672
O O3 0.481411 0.226135 0.230458
O O4 0.936198 0.078818 0.320949
O O5 0.195881 0.935025 0.124420
O O6 0.717681 0.044338 0.104131
O O7 0.056900 0.159237 0.644338
O O8 0.750689 0.875832 0.970684
#
# Coordination Sequence:
#
# PCOD9253068 Si02
#       5
#     4   2   4   2   4
#     4  12  29  49  81 118 160 213 269 332 408 482
#     4  12  22  50  72 114 154 202 264 324 396 486
#     4  12  27  50  80 117 160 211 271 335 406 484
#     4  12  26  48  76 114 152 212 262 316 406 476
#     4  12  28  52  81 116 165 210 268 340 400 490
#
# _framework density 31.776796999999998
#
# number of rings (size 3 to 8) (size 9 to 14) (size 15 to 20)
#    0.000    0.000    5.000    3.000    0.000   10.000 
#    0.000    0.000    0.000    0.000    0.000    0.000 
#    0.000    0.000    0.000    0.000    0.000    0.000 
#
# Total GULP energy -89461.855614 kJ/mol
# GULP energy per Si atom -5591.365976 kJ/mol
# Density = 3.170447 g / cm^3
# Si number density = 31.776797 Si / 1000 Ang^3
#
#
#
# Elastic Constant Matrix: (Units=GPa)
#
#
# Indices 1 2 3 4 5 6 
#
# 1 311.2278 26.6006 37.5383 0.0000 -27.3364 0.0000
# 2 26.6006 151.8109 69.4206 0.0000 -22.6979 0.0000
# 3 37.5383 69.4206 139.0077 0.0000 0.2727 0.0000
# 4 0.0000 0.0000 0.0000 68.4540 0.0000 -15.0064
# 5 -27.3364 -22.6979 0.2727 0.0000 65.6242 0.0000
# 6 0.0000 0.0000 0.0000 -15.0064 0.0000 67.6402
#
#
#
# Elastic Compliance Matrix: (Units=1/GPa)
#
#
# Indices 1 2 3 4 5 6 
#
# 1 0.003453 0.000053 -0.000962 0.000000 0.001461 0.000000
# 2 0.000053 0.009159 -0.004594 0.000000 0.003209 0.000000
# 3 -0.000962 -0.004594 0.009752 0.000000 -0.002030 0.000000
# 4 0.000000 0.000000 0.000000 0.015355 0.000000 0.003407
# 5 0.001461 0.003209 -0.002030 0.000000 0.016965 0.000000
# 6 0.000000 0.000000 0.000000 0.003407 0.000000 0.015540
#
#
# Mechanical properties :
#
#
# Convention : Reuss Voigt Hill
#
# Bulk Modulus (GPa) = 88.04937 96.57392 92.31165
# Shear Modulus (GPa) = 58.81270 71.57615 65.19443
#
# Velocity S-wave (km/s) = 4.30677 4.75116 4.53441
# Velocity P-wave (km/s) = 7.24568 7.78173 7.51848
#
# Compressibility (1/GPa) = 0.01135726
#
# Stress axis : x y z
#
# Youngs Moduli (GPa) = 289.61605 109.18713 102.54235
#
# Poissons Ratio (x) = -0.00581 0.09863
# Poissons Ratio (y) = -0.01542 0.47113
# Poissons Ratio (z) = 0.27857 0.50166
#
# Static dielectric constant tensor:
#      x y z
#    x 4.553550 0.000000 -1.738390 
#    y 0.000000 3.196080 0.000000 
#    z -1.738390 0.000000 4.011290 
# 
# From -- ./inp_files/20227.got.cif
#   From: 2010.05.17/outbox.cif.g08.bks.cpg/sg14_11_cif.got.tgz:20227.got - 2010.06.03 17:49:19.
