data_PCOD9253940
_publ_section_title
;
Structure prediction by ZEFSAII (Michael W. Deem and Ramdas Pophale) SiO2 
 PCOD9253940
Probable space group: C 2/C
;
_chemical_formula_sum "Si O2"
_cell_formula_units_Z 40
_cell_length_a 13.153296
_cell_length_b 23.425564
_cell_length_c 7.474766
_cell_angle_alpha 90.000000
_cell_angle_beta 131.597138
_cell_angle_gamma 90.000000
_cell_volume 1722.367659
_symmetry_space_group_name_H-M "C 2/C"
_symmetry_group_IT_number 15
_symmetry_cell_setting 'monoclinic'
loop_
_space_group_symop_operation_xyz
x,y,z
-x,y,1/2-z
-x,-y,-z
x,-y,1/2+z
1/2+x,1/2+y,z
1/2-x,1/2+y,1/2-z
1/2-x,1/2-y,-z
1/2+x,1/2-y,1/2+z
loop_
_atom_site_type_symbol
_atom_site_label
_atom_site_fract_x
_atom_site_fract_y
_atom_site_fract_z
Si Si1 0.149199 0.092408 0.459700
Si Si2 0.891302 0.660360 0.877267
Si Si3 0.858344 0.777645 0.986005
Si Si4 0.676175 0.120994 0.293205
Si Si5 0.850391 0.971230 0.158158
O O1 0.272686 0.135665 0.617217
O O2 0.146704 0.060462 0.649324
O O3 0.172551 0.038908 0.356086
O O4 0.000000 0.117617 0.250000
O O5 0.890100 0.729113 0.876510
O O6 0.856057 0.643728 0.042458
O O7 0.038344 0.631617 0.022453
O O8 0.792659 0.837350 0.853328
O O9 0.750000 0.750000 0.000000
O O10 0.000000 0.789084 0.250000
O O11 0.734750 0.058739 0.403132
O O12 0.000000 0.963401 0.250000
#
# Coordination Sequence:
#
# PCOD9253940 Si02
#       5
#     8   8   8   8   8
#     4  10  20  34  54  75 104 141 176 217 262 320
#     4   9  17  30  47  75 107 132 171 217 270 307
#     4  10  15  27  48  76 105 131 171 222 259 305
#     4   9  17  29  49  79 104 130 173 222 262 309
#     4  10  19  33  53  79 103 136 176 218 264 316
#
# _framework density 23.223846999999999
#
# number of rings (size 3 to 8) (size 9 to 14) (size 15 to 20)
#    0.000    2.400    4.000    3.000    0.000    0.800 
#    0.000    0.000    0.000    4.800    0.000    0.000 
#    0.000    0.000    0.000    0.000    0.000    0.000 
#
# Total GULP energy -111742.649514 kJ/mol
# GULP energy per Si atom -5587.132476 kJ/mol
# Density = 2.317099 g / cm^3
# Si number density = 23.223847 Si / 1000 Ang^3
#
#
#
# Elastic Constant Matrix: (Units=GPa)
#
#
# Indices 1 2 3 4 5 6 
#
# 1 55.0239 -7.2911 42.5347 0.0000 -0.3015 0.0000
# 2 -7.2911 59.1900 56.7926 0.0000 29.2515 0.0000
# 3 42.5347 56.7926 185.3189 0.0000 54.4793 0.0000
# 4 0.0000 0.0000 0.0000 26.3922 0.0000 17.0650
# 5 -0.3015 29.2515 54.4793 0.0000 48.6801 0.0000
# 6 0.0000 0.0000 0.0000 17.0650 0.0000 6.8790
#
#
#
# Elastic Compliance Matrix: (Units=1/GPa)
#
#
# Indices 1 2 3 4 5 6 
#
# 1 0.029567 0.012323 -0.012578 0.000000 0.006855 0.000000
# 2 0.012323 0.032193 -0.010477 0.000000 -0.007544 0.000000
# 3 -0.012578 -0.010477 0.014405 0.000000 -0.009904 0.000000
# 4 0.000000 0.000000 0.000000 -0.062729 0.000000 0.155615
# 5 0.006855 -0.007544 -0.009904 0.000000 0.036201 0.000000
# 6 0.000000 0.000000 0.000000 0.155615 0.000000 -0.240670
#
#
# Mechanical properties :
#
#
# Convention : Reuss Voigt Hill
#
# Bulk Modulus (GPa) = 18.28065 53.73389 36.00727
# Shear Modulus (GPa) = -33.03929 30.22335 -1.40797
#
# Velocity S-wave (km/s) = -3.77589 3.61140 -0.77947
# Velocity P-wave (km/s) = 3.33484 6.37002 3.83771
#
# Compressibility (1/GPa) = 0.05470265
#
# Stress axis : x y z
#
# Youngs Moduli (GPa) = 33.82093 31.06264 69.41951
#
# Poissons Ratio (x) = -0.38279 0.87316
# Poissons Ratio (y) = -0.41678 0.72728
# Poissons Ratio (z) = 0.42540 0.32543
#
# Static dielectric constant tensor:
#      x y z
#    x 1.948140 0.000000 -0.061430 
#    y 0.000000 1.893540 0.000000 
#    z -0.061430 0.000000 1.919200 
# 
# From -- ./inp_files/24420.got.cif
#   From: 2010.05.17/outbox.cif.g08.bks.cpg/sg15_13_cif.got.tgz:24420.got - 2010.06.03 18:47:42.
