data_PCOD9253050
_publ_section_title
;
Structure prediction by ZEFSAII (Michael W. Deem and Ramdas Pophale) SiO2 
 PCOD9253050
Probable space group: P 21/C
;
_chemical_formula_sum "Si O2"
_cell_formula_units_Z 26
_cell_length_a 14.072925
_cell_length_b 7.875489
_cell_length_c 14.323331
_cell_angle_alpha 90.000000
_cell_angle_beta 39.859695
_cell_angle_gamma 90.000000
_cell_volume 1017.426037
_symmetry_space_group_name_H-M "P 21/C"
_symmetry_group_IT_number 14
_symmetry_cell_setting 'monoclinic'
loop_
_space_group_symop_operation_xyz
x,y,z
-x,1/2+y,1/2-z
-x,-y,-z
x,1/2-y,1/2+z
loop_
_atom_site_type_symbol
_atom_site_label
_atom_site_fract_x
_atom_site_fract_y
_atom_site_fract_z
Si Si1 0.779760 0.806978 0.545360
Si Si2 0.822997 0.106354 0.760612
Si Si3 0.397055 0.358964 0.165042
Si Si4 0.000000 0.500000 0.000000
Si Si5 0.730066 0.153541 0.470622
Si Si6 0.676746 0.227872 0.207350
Si Si7 0.359152 0.350478 0.512011
O O1 0.650130 0.770113 0.717428
O O2 0.919674 0.835681 0.505622
O O3 0.762142 0.667199 0.478324
O O4 0.759546 0.977557 0.500592
O O5 0.800229 0.155292 0.667168
O O6 0.931196 0.951051 0.657922
O O7 0.670366 0.028275 0.915074
O O8 0.845696 0.265216 0.810607
O O9 0.574257 0.371495 0.035245
O O10 0.329900 0.542068 0.242655
O O11 0.347764 0.287229 0.103077
O O12 0.708771 0.278875 0.574542
O O13 0.519244 0.319001 0.344794
#
# Coordination Sequence:
#
# PCOD9253050 Si02
#       7
#     4   4   4   2   4   4   4
#     4  12  26  46  73 103 150 192 248 299 363 437
#     4  12  27  45  73 102 149 201 249 295 363 430
#     4  12  22  41  71 113 147 179 233 305 387 445
#     4  12  28  54  66  94 146 202 254 298 330 434
#     4  12  23  41  73 109 143 185 232 310 380 436
#     4  12  23  40  71 114 148 180 233 310 377 448
#     4  12  23  41  73 108 143 186 229 309 380 438
#
# _framework density 25.554683000000001
#
# number of rings (size 3 to 8) (size 9 to 14) (size 15 to 20)
#    0.000    0.000    7.692    2.769    2.154    1.231 
#    0.000    0.769    0.000    0.000    0.000    0.000 
#    0.000    0.000    0.000    0.000    0.000    0.000 
#
# Total GULP energy -144991.958485 kJ/mol
# GULP energy per Si atom -5576.613788 kJ/mol
# Density = 2.549652 g / cm^3
# Si number density = 25.554683 Si / 1000 Ang^3
#
#
#
# Elastic Constant Matrix: (Units=GPa)
#
#
# Indices 1 2 3 4 5 6 
#
# 1 106.4283 16.1147 27.2698 0.0000 11.6801 0.0000
# 2 16.1147 72.7290 -5.9531 0.0000 14.1849 0.0000
# 3 27.2698 -5.9531 95.3964 0.0000 42.7149 0.0000
# 4 0.0000 0.0000 0.0000 22.6978 0.0000 19.1200
# 5 11.6801 14.1849 42.7149 0.0000 50.2774 0.0000
# 6 0.0000 0.0000 0.0000 19.1200 0.0000 36.9028
#
#
#
# Elastic Compliance Matrix: (Units=1/GPa)
#
#
# Indices 1 2 3 4 5 6 
#
# 1 0.010702 -0.003063 -0.004074 0.000000 0.001839 0.000000
# 2 -0.003063 0.016689 0.005983 0.000000 -0.009080 0.000000
# 3 -0.004074 0.005983 0.019937 0.000000 -0.017679 0.000000
# 4 0.000000 0.000000 0.000000 0.078178 0.000000 -0.040505
# 5 0.001839 -0.009080 -0.017679 0.000000 0.037044 0.000000
# 6 0.000000 0.000000 0.000000 -0.040505 0.000000 0.048085
#
#
# Mechanical properties :
#
#
# Convention : Reuss Voigt Hill
#
# Bulk Modulus (GPa) = 22.21328 38.82405 30.51867
# Shear Modulus (GPa) = 21.93473 37.78377 29.85925
#
# Velocity S-wave (km/s) = 2.93293 3.84936 3.42196
# Velocity P-wave (km/s) = 4.49230 5.91458 5.25181
#
# Compressibility (1/GPa) = 0.04501811
#
# Stress axis : x y z
#
# Youngs Moduli (GPa) = 93.44198 59.91971 50.15909
#
# Poissons Ratio (x) = 0.18356 0.20434
# Poissons Ratio (y) = 0.28625 -0.30008
# Poissons Ratio (z) = 0.38067 -0.35848
#
# Static dielectric constant tensor:
#      x y z
#    x 1.890940 0.000000 0.173630 
#    y 0.000000 1.845810 0.000000 
#    z 0.173630 0.000000 1.747220 
# 
# From -- ./inp_files/43231.got.cif
#   From: 2010.05.17/outbox.cif.g08.bks.cpg/sg14_22_cif.got.tgz:43231.got - 2010.06.03 17:49:19.
