data_PCOD9253419
_publ_section_title
;
Structure prediction by ZEFSAII (Michael W. Deem and Ramdas Pophale) SiO2 
 PCOD9253419
Probable space group: P 21/C
;
_chemical_formula_sum "Si O2"
_cell_formula_units_Z 20
_cell_length_a 14.156939
_cell_length_b 10.808001
_cell_length_c 14.421872
_cell_angle_alpha 90.000000
_cell_angle_beta 160.325979
_cell_angle_gamma 90.000000
_cell_volume 742.914193
_symmetry_space_group_name_H-M "P 21/C"
_symmetry_group_IT_number 14
_symmetry_cell_setting 'monoclinic'
loop_
_space_group_symop_operation_xyz
x,y,z
-x,1/2+y,1/2-z
-x,-y,-z
x,1/2-y,1/2+z
loop_
_atom_site_type_symbol
_atom_site_label
_atom_site_fract_x
_atom_site_fract_y
_atom_site_fract_z
Si Si1 0.062502 0.144068 0.852514
Si Si2 0.703768 0.492645 0.275469
Si Si3 0.135364 0.009101 0.481368
Si Si4 0.523826 0.225927 0.137509
Si Si5 0.611803 0.163229 0.013646
O O1 0.918953 0.020716 0.676979
O O2 0.822630 0.235392 0.666153
O O3 0.247352 0.202959 0.941899
O O4 0.275420 0.099819 0.128947
O O5 0.000000 0.500000 0.500000
O O6 0.500000 0.500000 0.000000
O O7 0.832414 0.051498 0.239192
O O8 0.257309 0.881413 0.633431
O O9 0.478973 0.212074 0.985902
O O10 0.369203 0.110367 0.723409
O O11 0.650044 0.360488 0.272606
#
# Coordination Sequence:
#
# PCOD9253419 Si02
#       5
#     4   4   4   4   4
#     4  12  32  54  91 132 177 237 299 364 447 535
#     4  12  32  59  85 124 177 229 293 362 443 522
#     4  12  30  52  84 132 169 231 295 368 433 531
#     4  12  30  55  89 126 174 235 291 363 443 530
#     4  12  30  54  86 125 183 225 297 363 445 523
#
# _framework density 26.921008
#
# number of rings (size 3 to 8) (size 9 to 14) (size 15 to 20)
#    0.000    0.000    4.000    1.200   19.600    0.000 
#    0.000    0.000    0.000    0.000    0.000    0.000 
#    0.000    0.000    0.000    0.000    0.000    0.000 
#
# Total GULP energy -112423.690456 kJ/mol
# GULP energy per Si atom -5621.184523 kJ/mol
# Density = 2.685973 g / cm^3
# Si number density = 26.921008 Si / 1000 Ang^3
#
#
#
# Elastic Constant Matrix: (Units=GPa)
#
#
# Indices 1 2 3 4 5 6 
#
# 1 202.6030 67.1161 74.6310 0.0000 10.7948 0.0000
# 2 67.1161 162.6710 58.1889 0.0000 4.4052 0.0000
# 3 74.6310 58.1889 208.2299 0.0000 2.3646 0.0000
# 4 0.0000 0.0000 0.0000 56.6097 0.0000 2.6836
# 5 10.7948 4.4052 2.3646 0.0000 44.1947 0.0000
# 6 0.0000 0.0000 0.0000 2.6836 0.0000 49.7696
#
#
#
# Elastic Compliance Matrix: (Units=1/GPa)
#
#
# Indices 1 2 3 4 5 6 
#
# 1 0.006270 -0.001949 -0.001688 0.000000 -0.001247 0.000000
# 2 -0.001949 0.007451 -0.001381 0.000000 -0.000193 0.000000
# 3 -0.001688 -0.001381 0.005791 0.000000 0.000240 0.000000
# 4 0.000000 0.000000 0.000000 0.017710 0.000000 -0.000955
# 5 -0.001247 -0.000193 0.000240 0.000000 0.022938 0.000000
# 6 0.000000 0.000000 0.000000 -0.000955 0.000000 0.020144
#
#
# Mechanical properties :
#
#
# Convention : Reuss Voigt Hill
#
# Bulk Modulus (GPa) = 105.55344 108.15288 106.85316
# Shear Modulus (GPa) = 53.47637 55.01931 54.24784
#
# Velocity S-wave (km/s) = 4.46176 4.52567 4.49383
# Velocity P-wave (km/s) = 8.11399 8.22011 8.16722
#
# Compressibility (1/GPa) = 0.00947387
#
# Stress axis : x y z
#
# Youngs Moduli (GPa) = 159.49504 134.21174 172.68878
#
# Poissons Ratio (x) = 0.26160 0.29155
# Poissons Ratio (y) = 0.31088 0.23854
# Poissons Ratio (z) = 0.26927 0.18539
#
# Static dielectric constant tensor:
#      x y z
#    x 2.064620 0.000000 -0.065060 
#    y 0.000000 2.200470 0.000000 
#    z -0.065060 0.000000 2.083800 
# 
# From -- ./inp_files/30079.got.cif
#   From: 2010.05.17/outbox.cif.g08.bks.cpg/sg14_16_cif.got.tgz:30079.got - 2010.06.03 17:49:19.
