data_PCOD9253805
_publ_section_title
;
Structure prediction by ZEFSAII (Michael W. Deem and Ramdas Pophale) SiO2 
 PCOD9253805
Probable space group: C 2/C
;
_chemical_formula_sum "Si O2"
_cell_formula_units_Z 48
_cell_length_a 17.650555
_cell_length_b 6.799424
_cell_length_c 15.901412
_cell_angle_alpha 90.000000
_cell_angle_beta 63.336855
_cell_angle_gamma 90.000000
_cell_volume 1705.448495
_symmetry_space_group_name_H-M "C 2/C"
_symmetry_group_IT_number 15
_symmetry_cell_setting 'monoclinic'
loop_
_space_group_symop_operation_xyz
x,y,z
-x,y,1/2-z
-x,-y,-z
x,-y,1/2+z
1/2+x,1/2+y,z
1/2-x,1/2+y,1/2-z
1/2-x,1/2-y,-z
1/2+x,1/2-y,1/2+z
loop_
_atom_site_type_symbol
_atom_site_label
_atom_site_fract_x
_atom_site_fract_y
_atom_site_fract_z
Si Si1 0.426816 0.444210 0.910114
Si Si2 0.388557 0.995404 0.979520
Si Si3 0.289227 0.151714 0.181510
Si Si4 0.759260 0.946531 0.054252
Si Si5 0.900359 0.121045 0.225593
Si Si6 0.048793 0.416831 0.810555
O O1 0.526335 0.487323 0.864106
O O2 0.405984 0.436641 0.821109
O O3 0.348043 0.554879 0.992319
O O4 0.415234 0.225470 0.954226
O O5 0.500000 0.857512 0.750000
O O6 0.478776 0.892083 0.919735
O O7 0.325274 0.945716 0.933109
O O8 0.334614 0.997956 0.092843
O O9 0.360720 0.179187 0.215692
O O10 0.195224 0.095302 0.255416
O O11 0.766096 0.844768 0.139577
O O12 0.571936 0.851063 0.289855
O O13 0.750000 0.750000 0.000000
#
# Coordination Sequence:
#
# PCOD9253805 Si02
#       6
#     8   8   8   8   8   8
#     4   8  12  21  42  59  87 109 132 173 235 243
#     4   9  14  27  42  67  93 107 142 195 228 248
#     4  10  17  25  42  68  90 119 149 177 223 268
#     4   8  12  23  39  63  88 108 139 182 226 252
#     4  10  14  26  40  63  94 113 141 182 222 255
#     4  11  19  27  41  68  96 116 143 185 224 260
#
# _framework density 28.145091000000001
#
# number of rings (size 3 to 8) (size 9 to 14) (size 15 to 20)
#    0.000    3.000    8.333    0.500    0.000    0.000 
#    0.000    0.000    0.000    0.000    4.333   37.333 
#    0.000    0.000    0.000    0.000    0.000    0.000 
#
# Total GULP energy -134233.077255 kJ/mol
# GULP energy per Si atom -5593.044886 kJ/mol
# Density = 2.808103 g / cm^3
# Si number density = 28.145091 Si / 1000 Ang^3
#
#
#
# Elastic Constant Matrix: (Units=GPa)
#
#
# Indices 1 2 3 4 5 6 
#
# 1 251.7690 37.4741 72.7037 -0.0003 -43.4307 -0.0008
# 2 37.4741 96.4324 22.2904 -0.0006 -3.1517 -0.0022
# 3 72.7037 22.2904 95.1843 0.0001 -40.2194 0.0002
# 4 -0.0003 -0.0006 0.0001 18.2707 0.0001 -2.3274
# 5 -43.4307 -3.1517 -40.2194 0.0001 73.5477 0.0000
# 6 -0.0008 -0.0022 0.0002 -2.3274 0.0000 35.0548
#
#
#
# Elastic Compliance Matrix: (Units=1/GPa)
#
#
# Indices 1 2 3 4 5 6 
#
# 1 0.005316 -0.001284 -0.003195 0.000000 0.001337 0.000000
# 2 -0.001284 0.011357 -0.002333 0.000000 -0.001547 0.000001
# 3 -0.003195 -0.002333 0.016456 0.000000 0.007012 0.000000
# 4 0.000000 0.000000 0.000000 0.055199 0.000000 0.003665
# 5 0.001337 -0.001547 0.007012 0.000000 0.018154 0.000000
# 6 0.000000 0.000001 0.000000 0.003665 0.000000 0.028770
#
#
# Mechanical properties :
#
#
# Convention : Reuss Voigt Hill
#
# Bulk Modulus (GPa) = 51.26635 78.70246 64.98440
# Shear Modulus (GPa) = 32.17946 46.10245 39.14096
#
# Velocity S-wave (km/s) = 3.38500 4.05165 3.73323
# Velocity P-wave (km/s) = 5.79070 7.06482 6.45925
#
# Compressibility (1/GPa) = 0.01950597
#
# Stress axis : x y z
#
# Youngs Moduli (GPa) = 188.10227 88.04756 60.76959
#
# Poissons Ratio (x) = 0.11302 0.19416
# Poissons Ratio (y) = 0.24146 0.14177
# Poissons Ratio (z) = 0.60100 0.20541
#
# Static dielectric constant tensor:
#      x y z
#    x 2.163310 0.000000 -0.037580 
#    y 0.000000 2.351360 0.000000 
#    z -0.037580 0.000000 2.248210 
# 
# From -- ./inp_files/168229.got.cif
#   From: 2010.05.17/outbox.cif.g08.bks.cpg/sg15_85_cif.got.tgz:168229.got - 2010.06.03 18:47:42.
