data_PCOD9253453
_publ_section_title
;
Structure prediction by ZEFSAII (Michael W. Deem and Ramdas Pophale) SiO2 
 PCOD9253453
Probable space group: P 21/C
;
_chemical_formula_sum "Si O2"
_cell_formula_units_Z 24
_cell_length_a 7.897321
_cell_length_b 13.802123
_cell_length_c 9.917952
_cell_angle_alpha 90.000000
_cell_angle_beta 128.099531
_cell_angle_gamma 90.000000
_cell_volume 850.725298
_symmetry_space_group_name_H-M "P 21/C"
_symmetry_group_IT_number 14
_symmetry_cell_setting 'monoclinic'
loop_
_space_group_symop_operation_xyz
x,y,z
-x,1/2+y,1/2-z
-x,-y,-z
x,1/2-y,1/2+z
loop_
_atom_site_type_symbol
_atom_site_label
_atom_site_fract_x
_atom_site_fract_y
_atom_site_fract_z
Si Si1 0.015440 0.132576 0.895964
Si Si2 0.363183 0.754085 0.867788
Si Si3 0.094362 0.285895 0.147438
Si Si4 0.397796 0.641323 0.126739
Si Si5 0.811511 0.440803 0.620648
Si Si6 0.617349 0.548609 0.769908
O O1 0.128020 0.183841 0.821192
O O2 0.766386 0.166171 0.763933
O O3 0.039104 0.018352 0.881338
O O4 0.092085 0.180134 0.074396
O O5 0.471649 0.820388 0.808926
O O6 0.180158 0.827006 0.840065
O O7 0.492282 0.705315 0.052545
O O8 0.265429 0.351152 0.146448
O O9 0.856345 0.332145 0.002823
O O10 0.427097 0.526858 0.132925
O O11 0.779453 0.490128 0.750597
O O12 0.593563 0.441272 0.424993
#
# Coordination Sequence:
#
# PCOD9253453 Si02
#       6
#     4   4   4   4   4   4
#     4   9  18  32  50  71  96 125 160 198 235 282
#     4   9  18  32  50  71  96 125 160 198 235 282
#     4   9  17  31  50  73  95 125 162 196 235 278
#     4   9  17  31  50  73  95 125 162 196 235 278
#     4   9  18  32  48  71  99 128 157 193 244 283
#     4   9  17  30  51  71  95 128 163 197 227 283
#
# _framework density 28.211220999999998
#
# number of rings (size 3 to 8) (size 9 to 14) (size 15 to 20)
#    0.000    3.000    0.000    0.500    0.000    5.333 
#    0.000    9.167    0.000    2.000    0.000    0.000 
#    0.000    0.000    0.000    0.000    0.000    0.000 
#
# Total GULP energy -134192.070004 kJ/mol
# GULP energy per Si atom -5591.336250 kJ/mol
# Density = 2.814701 g / cm^3
# Si number density = 28.211221 Si / 1000 Ang^3
#
#
#
# Elastic Constant Matrix: (Units=GPa)
#
#
# Indices 1 2 3 4 5 6 
#
# 1 53.9351 -0.0086 15.3186 0.0000 -21.5281 0.0000
# 2 -0.0086 152.3282 26.9999 0.0000 -8.8883 0.0000
# 3 15.3186 26.9999 106.3666 0.0000 -30.8709 0.0000
# 4 0.0000 0.0000 0.0000 46.7427 0.0000 -6.8795
# 5 -21.5281 -8.8883 -30.8709 0.0000 51.8230 0.0000
# 6 0.0000 0.0000 0.0000 -6.8795 0.0000 42.1223
#
#
#
# Elastic Compliance Matrix: (Units=1/GPa)
#
#
# Indices 1 2 3 4 5 6 
#
# 1 0.022325 0.000663 -0.000796 0.000000 0.008913 0.000000
# 2 0.000663 0.006895 -0.001720 0.000000 0.000433 0.000000
# 3 -0.000796 -0.001720 0.011814 0.000000 0.006411 0.000000
# 4 0.000000 0.000000 0.000000 0.021921 0.000000 0.003580
# 5 0.008913 0.000433 0.006411 0.000000 0.026893 0.000000
# 6 0.000000 0.000000 0.000000 0.003580 0.000000 0.024325
#
#
# Mechanical properties :
#
#
# Convention : Reuss Voigt Hill
#
# Bulk Modulus (GPa) = 26.79120 44.13886 35.46503
# Shear Modulus (GPa) = 38.36676 46.15896 42.26286
#
# Velocity S-wave (km/s) = 3.69179 4.04937 3.87471
# Velocity P-wave (km/s) = 5.26210 6.12724 5.71108
#
# Compressibility (1/GPa) = 0.03732569
#
# Stress axis : x y z
#
# Youngs Moduli (GPa) = 44.79324 145.03404 84.64881
#
# Poissons Ratio (x) = -0.09609 0.06742
# Poissons Ratio (y) = -0.02968 0.14558
# Poissons Ratio (z) = 0.03567 0.24944
#
# Static dielectric constant tensor:
#      x y z
#    x 2.340130 0.000000 -0.014690 
#    y 0.000000 2.157430 0.000000 
#    z -0.014690 0.000000 2.183810 
# 
# From -- ./inp_files/24114.got.cif
#   From: 2010.05.17/outbox.cif.g08.bks.cpg/sg14_13_cif.got.tgz:24114.got - 2010.06.03 17:49:19.
