data_PCOD9253345
_publ_section_title
;
Structure prediction by ZEFSAII (Michael W. Deem and Ramdas Pophale) SiO2 
 PCOD9253345
Probable space group: P 21/C
;
_chemical_formula_sum "Si O2"
_cell_formula_units_Z 16
_cell_length_a 4.740016
_cell_length_b 13.744748
_cell_length_c 10.349597
_cell_angle_alpha 90.000000
_cell_angle_beta 94.024333
_cell_angle_gamma 90.000000
_cell_volume 672.617065
_symmetry_space_group_name_H-M "P 21/C"
_symmetry_group_IT_number 14
_symmetry_cell_setting 'monoclinic'
loop_
_space_group_symop_operation_xyz
x,y,z
-x,1/2+y,1/2-z
-x,-y,-z
x,1/2-y,1/2+z
loop_
_atom_site_type_symbol
_atom_site_label
_atom_site_fract_x
_atom_site_fract_y
_atom_site_fract_z
Si Si1 0.920176 0.969488 0.141302
Si Si2 0.189586 0.404010 0.984650
Si Si3 0.304529 0.858665 0.683435
Si Si4 0.467605 0.855850 0.246891
O O1 0.816939 0.064234 0.217918
O O2 0.665233 0.891903 0.135865
O O3 0.181829 0.917552 0.221825
O O4 0.000000 0.000000 0.000000
O O5 0.565190 0.593002 0.114904
O O6 0.350988 0.378171 0.119930
O O7 0.000000 0.500000 0.000000
O O8 0.948151 0.332033 0.924326
O O9 0.405448 0.757889 0.745350
#
# Coordination Sequence:
#
# PCOD9253345 Si02
#       4
#     4   4   4   4
#     4  12  28  52  79 116 163 208 256 322 400 471
#     4  12  26  51  83 112 153 206 274 326 383 463
#     4  12  28  50  81 117 157 208 259 329 392 463
#     4  12  28  52  80 119 156 209 265 322 396 466
#
# _framework density 23.787676999999999
#
# number of rings (size 3 to 8) (size 9 to 14) (size 15 to 20)
#    0.000    0.000    2.500    6.000    3.500    0.000 
#    9.000    0.000    0.000    0.000    0.000    0.000 
#    0.000    0.000    0.000    0.000    0.000    0.000 
#
# Total GULP energy -89712.286679 kJ/mol
# GULP energy per Si atom -5607.017917 kJ/mol
# Density = 2.373354 g / cm^3
# Si number density = 23.787677 Si / 1000 Ang^3
#
#
#
# Elastic Constant Matrix: (Units=GPa)
#
#
# Indices 1 2 3 4 5 6 
#
# 1 203.2286 86.2206 74.4994 0.0000 -6.9411 0.0000
# 2 86.2206 170.4120 91.5830 0.0000 2.5648 0.0000
# 3 74.4994 91.5830 126.3082 0.0000 -13.9792 0.0000
# 4 0.0000 0.0000 0.0000 24.3707 0.0000 13.5273
# 5 -6.9411 2.5648 -13.9792 0.0000 51.8440 0.0000
# 6 0.0000 0.0000 0.0000 13.5273 0.0000 47.5930
#
#
#
# Elastic Compliance Matrix: (Units=1/GPa)
#
#
# Indices 1 2 3 4 5 6 
#
# 1 0.006704 -0.002120 -0.002377 0.000000 0.000361 0.000000
# 2 -0.002120 0.010591 -0.006719 0.000000 -0.002619 0.000000
# 3 -0.002377 -0.006719 0.014629 0.000000 0.003959 0.000000
# 4 0.000000 0.000000 0.000000 0.048719 0.000000 -0.013847
# 5 0.000361 -0.002619 0.003959 0.000000 0.020534 0.000000
# 6 0.000000 0.000000 0.000000 -0.013847 0.000000 0.024947
#
#
# Mechanical properties :
#
#
# Convention : Reuss Voigt Hill
#
# Bulk Modulus (GPa) = 105.34803 111.61719 108.48261
# Shear Modulus (GPa) = 32.95569 41.27125 37.11347
#
# Velocity S-wave (km/s) = 3.72615 4.16983 3.95422
# Velocity P-wave (km/s) = 7.93065 8.37899 8.15790
#
# Compressibility (1/GPa) = 0.00949235
#
# Stress axis : x y z
#
# Youngs Moduli (GPa) = 149.17472 94.42094 68.35778
#
# Poissons Ratio (x) = 0.20014 0.16248
# Poissons Ratio (y) = 0.31621 0.45928
# Poissons Ratio (z) = 0.35458 0.63440
#
# Static dielectric constant tensor:
#      x y z
#    x 1.921730 0.000000 -0.002470 
#    y 0.000000 1.915160 0.000000 
#    z -0.002470 0.000000 1.940180 
# 
# From -- ./inp_files/20473.got.cif
#   From: 2010.05.17/outbox.cif.g08.bks.cpg/sg14_11_cif.got.tgz:20473.got - 2010.06.03 17:49:19.
