data_PCOD9253941
_publ_section_title
;
Structure prediction by ZEFSAII (Michael W. Deem and Ramdas Pophale) SiO2 
 PCOD9253941
Probable space group: C 2/C
;
_chemical_formula_sum "Si O2"
_cell_formula_units_Z 44
_cell_length_a 17.626591
_cell_length_b 7.182794
_cell_length_c 13.975042
_cell_angle_alpha 90.000000
_cell_angle_beta 102.108721
_cell_angle_gamma 90.000000
_cell_volume 1729.988719
_symmetry_space_group_name_H-M "C 2/C"
_symmetry_group_IT_number 15
_symmetry_cell_setting 'monoclinic'
loop_
_space_group_symop_operation_xyz
x,y,z
-x,y,1/2-z
-x,-y,-z
x,-y,1/2+z
1/2+x,1/2+y,z
1/2-x,1/2+y,1/2-z
1/2-x,1/2-y,-z
1/2+x,1/2-y,1/2+z
loop_
_atom_site_type_symbol
_atom_site_label
_atom_site_fract_x
_atom_site_fract_y
_atom_site_fract_z
Si Si1 0.862867 0.185451 0.090558
Si Si2 0.000000 0.142112 0.250000
Si Si3 0.830669 0.313545 0.729262
Si Si4 0.932908 0.595585 0.083016
Si Si5 0.410726 0.909772 0.371181
Si Si6 0.218962 0.077035 0.622212
O O1 0.931182 0.070003 0.161638
O O2 0.902649 0.381922 0.073676
O O3 0.787171 0.264150 0.127533
O O4 0.831215 0.089949 0.986766
O O5 0.946400 0.266412 0.305913
O O6 0.900358 0.323760 0.672256
O O7 0.838774 0.486512 0.805703
O O8 0.826085 0.134358 0.793866
O O9 0.756871 0.374982 0.646948
O O10 0.025240 0.576619 0.105530
O O11 0.903771 0.674507 0.974541
#
# Coordination Sequence:
#
# PCOD9253941 Si02
#       6
#     8   4   8   8   8   8
#     4   9  17  31  52  77  96 138 174 217 243 317
#     4  10  16  30  54  80  98 130 180 224 258 288
#     4  11  19  33  49  78 108 143 164 212 257 314
#     4   9  17  27  49  77 102 127 173 220 266 292
#     4  10  15  27  48  78 100 126 169 227 259 298
#     4  10  20  32  52  75 111 134 175 204 263 306
#
# _framework density 25.433691
#
# number of rings (size 3 to 8) (size 9 to 14) (size 15 to 20)
#    0.000    2.182    7.273    0.000    0.000    0.000 
#    0.000    0.909    0.000    1.091    4.727    0.000 
#    0.000    0.182    0.000    0.000    0.000    0.000 
#
# Total GULP energy -122884.294029 kJ/mol
# GULP energy per Si atom -5585.649729 kJ/mol
# Density = 2.537580 g / cm^3
# Si number density = 25.433691 Si / 1000 Ang^3
#
#
#
# Elastic Constant Matrix: (Units=GPa)
#
#
# Indices 1 2 3 4 5 6 
#
# 1 78.7856 4.6204 49.3263 0.0000 12.5614 0.0000
# 2 4.6204 51.0131 8.5501 0.0000 2.3470 0.0000
# 3 49.3263 8.5501 152.8674 0.0000 14.3099 0.0000
# 4 0.0000 0.0000 0.0000 -0.2091 0.0000 -1.2090
# 5 12.5614 2.3470 14.3099 0.0000 65.2400 0.0000
# 6 0.0000 0.0000 0.0000 -1.2090 0.0000 10.9943
#
#
#
# Elastic Compliance Matrix: (Units=1/GPa)
#
#
# Indices 1 2 3 4 5 6 
#
# 1 0.016174 -0.000535 -0.005002 0.000000 -0.001998 0.000000
# 2 -0.000535 0.019821 -0.000897 0.000000 -0.000413 0.000000
# 3 -0.005002 -0.000897 0.008283 0.000000 -0.000821 0.000000
# 4 0.000000 0.000000 0.000000 -2.923643 0.000000 -0.321499
# 5 -0.001998 -0.000413 -0.000821 0.000000 0.015908 0.000000
# 6 0.000000 0.000000 0.000000 -0.321499 0.000000 0.055603
#
#
# Mechanical properties :
#
#
# Convention : Reuss Voigt Hill
#
# Bulk Modulus (GPa) = 31.83760 45.29550 38.56655
# Shear Modulus (GPa) = -1.79564 29.88298 14.04367
#
# Velocity S-wave (km/s) = -0.84116 3.43145 2.35237
# Velocity P-wave (km/s) = 3.40612 5.79204 4.75128
#
# Compressibility (1/GPa) = 0.03140940
#
# Stress axis : x y z
#
# Youngs Moduli (GPa) = 61.82650 50.45239 120.73294
#
# Poissons Ratio (x) = 0.02698 0.60392
# Poissons Ratio (y) = 0.03306 0.10834
# Poissons Ratio (z) = 0.30926 0.04528
#
# Static dielectric constant tensor:
#      x y z
#    x 2.079260 0.000000 0.061950 
#    y 0.000000 1.998830 0.000000 
#    z 0.061950 0.000000 2.026930 
# 
# From -- ./inp_files/159415.got.cif
#   From: 2010.05.17/outbox.cif.g08.bks.cpg/sg15_80_cif.got.tgz:159415.got - 2010.06.03 18:47:42.
