data_PCOD9253980
_publ_section_title
;
Structure prediction by ZEFSAII (Michael W. Deem and Ramdas Pophale) SiO2 
 PCOD9253980
Probable space group: C 2/C
;
_chemical_formula_sum "Si O2"
_cell_formula_units_Z 56
_cell_length_a 20.295075
_cell_length_b 8.988619
_cell_length_c 16.138861
_cell_angle_alpha 90.000000
_cell_angle_beta 48.804951
_cell_angle_gamma 90.000000
_cell_volume 2215.372482
_symmetry_space_group_name_H-M "C 2/C"
_symmetry_group_IT_number 15
_symmetry_cell_setting 'monoclinic'
loop_
_space_group_symop_operation_xyz
x,y,z
-x,y,1/2-z
-x,-y,-z
x,-y,1/2+z
1/2+x,1/2+y,z
1/2-x,1/2+y,1/2-z
1/2-x,1/2-y,-z
1/2+x,1/2-y,1/2+z
loop_
_atom_site_type_symbol
_atom_site_label
_atom_site_fract_x
_atom_site_fract_y
_atom_site_fract_z
Si Si1 0.815744 0.383476 0.421932
Si Si2 0.203682 0.969008 0.900889
Si Si3 0.572783 0.470708 0.867730
Si Si4 0.903793 0.564774 0.097251
Si Si5 0.829708 0.351468 0.040686
Si Si6 0.929571 0.794302 0.931697
Si Si7 0.477009 0.235049 0.174626
O O1 0.750000 0.250000 0.500000
O O2 0.785895 0.428858 0.355530
O O3 0.806067 0.529754 0.488867
O O4 0.906994 0.311310 0.373825
O O5 0.162652 0.960018 0.843055
O O6 0.223810 0.799851 0.910521
O O7 0.126425 0.051297 0.020274
O O8 0.532014 0.327168 0.857490
O O9 0.564445 0.604405 0.809923
O O10 0.500000 0.500000 0.000000
O O11 0.911370 0.623214 0.183530
O O12 0.835300 0.444883 0.120947
O O13 0.896340 0.706308 0.041294
O O14 0.000000 0.500000 0.000000
O O15 0.928381 0.287697 0.946439
O O16 0.500000 0.208729 0.250000
#
# Coordination Sequence:
#
# PCOD9253980 Si02
#       7
#     8   8   8   8   8   8   8
#     4   9  19  29  48  86 108 135 175 240 273 312
#     4  10  16  28  51  81 110 130 182 225 266 319
#     4  10  15  29  53  76 105 140 178 218 267 316
#     4   9  16  28  47  76 100 136 172 213 266 310
#     4  10  18  31  52  81 106 141 179 224 270 319
#     4   9  15  28  48  74 108 132 174 217 268 305
#     4  11  20  31  51  85 112 141 175 223 273 326
#
# _framework density 25.277915
#
# number of rings (size 3 to 8) (size 9 to 14) (size 15 to 20)
#    0.000    2.286    5.714    1.286    0.000    0.000 
#    0.000    0.000    0.000   13.714   14.857    0.000 
#    0.000    0.000    0.000    0.000    0.000    0.000 
#
# Total GULP energy -156310.761215 kJ/mol
# GULP energy per Si atom -5582.527186 kJ/mol
# Density = 2.522038 g / cm^3
# Si number density = 25.277915 Si / 1000 Ang^3
#
#
#
# Elastic Constant Matrix: (Units=GPa)
#
#
# Indices 1 2 3 4 5 6 
#
# 1 158.3205 70.0702 48.7896 0.0000 53.1797 -0.0001
# 2 70.0702 158.1851 28.1989 0.0002 23.7263 -0.0003
# 3 48.7896 28.1989 62.1102 0.0000 19.5891 0.0000
# 4 0.0000 0.0002 0.0000 13.6808 0.0000 14.4834
# 5 53.1797 23.7263 19.5891 0.0000 49.5402 0.0000
# 6 -0.0001 -0.0003 0.0000 14.4834 0.0000 60.0380
#
#
#
# Elastic Compliance Matrix: (Units=1/GPa)
#
#
# Indices 1 2 3 4 5 6 
#
# 1 0.012766 -0.003184 -0.005417 0.000000 -0.010037 0.000000
# 2 -0.003184 0.007921 -0.001116 0.000000 0.000065 0.000000
# 3 -0.005417 -0.001116 0.021547 0.000000 -0.002170 0.000000
# 4 0.000000 0.000000 0.000000 0.098166 0.000000 -0.023681
# 5 -0.010037 0.000065 -0.002170 0.000000 0.031787 0.000000
# 6 0.000000 0.000000 0.000000 -0.023681 0.000000 0.022369
#
#
# Mechanical properties :
#
#
# Convention : Reuss Voigt Hill
#
# Bulk Modulus (GPa) = 43.85839 74.74814 59.30327
# Shear Modulus (GPa) = 22.56411 40.08893 31.32652
#
# Velocity S-wave (km/s) = 2.99095 3.98669 3.52417
# Velocity P-wave (km/s) = 5.41441 7.12926 6.33017
#
# Compressibility (1/GPa) = 0.02280065
#
# Stress axis : x y z
#
# Youngs Moduli (GPa) = 78.33079 126.24416 46.41024
#
# Poissons Ratio (x) = 0.40194 0.25141
# Poissons Ratio (y) = 0.24939 0.05179
# Poissons Ratio (z) = 0.42433 0.14088
#
# Static dielectric constant tensor:
#      x y z
#    x 2.052340 0.000000 -0.003060 
#    y 0.000000 2.051930 0.000000 
#    z -0.003060 0.000000 2.050720 
# 
# From -- ./inp_files/213369.got.cif
#   From: 2010.05.17/outbox.cif.g08.bks.cpg/sg15_107_cif.got.tgz:213369.got - 2010.06.03 18:47:42.
