data_PCOD9253922
_publ_section_title
;
Structure prediction by ZEFSAII (Michael W. Deem and Ramdas Pophale) SiO2 
 PCOD9253922
Probable space group: C 2/C
;
_chemical_formula_sum "Si O2"
_cell_formula_units_Z 44
_cell_length_a 7.178595
_cell_length_b 27.832347
_cell_length_c 8.365271
_cell_angle_alpha 90.000000
_cell_angle_beta 97.636932
_cell_angle_gamma 90.000000
_cell_volume 1656.532481
_symmetry_space_group_name_H-M "C 2/C"
_symmetry_group_IT_number 15
_symmetry_cell_setting 'monoclinic'
loop_
_space_group_symop_operation_xyz
x,y,z
-x,y,1/2-z
-x,-y,-z
x,-y,1/2+z
1/2+x,1/2+y,z
1/2-x,1/2+y,1/2-z
1/2-x,1/2-y,-z
1/2+x,1/2-y,1/2+z
loop_
_atom_site_type_symbol
_atom_site_label
_atom_site_fract_x
_atom_site_fract_y
_atom_site_fract_z
Si Si1 0.724455 0.552376 0.272023
Si Si2 0.304736 0.400719 0.044458
Si Si3 0.232145 0.198408 0.849069
Si Si4 0.222963 0.944009 0.138133
Si Si5 0.168496 0.697062 0.971198
Si Si6 0.000000 0.291054 0.750000
O O1 0.500000 0.563304 0.250000
O O2 0.741089 0.497774 0.209529
O O3 0.797062 0.558351 0.462928
O O4 0.795533 0.582815 0.128671
O O5 0.333321 0.343607 0.042398
O O6 0.503563 0.428685 0.086514
O O7 0.202606 0.413289 0.201282
O O8 0.453475 0.200911 0.895563
O O9 0.211457 0.178458 0.663264
O O10 0.138972 0.250738 0.844888
O O11 0.250000 0.750000 0.000000
O O12 0.134032 0.678737 0.147049
#
# Coordination Sequence:
#
# PCOD9253922 Si02
#       6
#     8   8   8   8   8   4
#     4  10  15  26  45  71 114 165 210 239 286 356
#     4  10  18  27  46  76 117 152 189 261 297 333
#     4  10  20  36  56  88 119 148 192 255 321 355
#     4  10  16  27  47  73 118 165 209 238 295 355
#     4   9  20  38  62  79 106 154 196 236 299 385
#     4  10  18  36  64  86 112 146 192 244 306 396
#
# _framework density 26.561505
#
# number of rings (size 3 to 8) (size 9 to 14) (size 15 to 20)
#    0.000    2.182    3.636    2.727    0.000    0.000 
#    3.273    0.000   24.000    0.000    0.000    5.091 
#    0.000    0.000    0.000    0.000    0.000    0.000 
#
# Total GULP energy -122611.363328 kJ/mol
# GULP energy per Si atom -5573.243788 kJ/mol
# Density = 2.650105 g / cm^3
# Si number density = 26.561505 Si / 1000 Ang^3
#
#
#
# Elastic Constant Matrix: (Units=GPa)
#
#
# Indices 1 2 3 4 5 6 
#
# 1 60.9387 2.6950 5.8161 0.0000 11.9616 0.0000
# 2 2.6950 80.3545 40.7444 0.0000 -4.5281 0.0000
# 3 5.8161 40.7444 229.1893 0.0000 -30.7361 0.0000
# 4 0.0000 0.0000 0.0000 26.9160 0.0000 -12.2493
# 5 11.9616 -4.5281 -30.7361 0.0000 48.2213 0.0000
# 6 0.0000 0.0000 0.0000 -12.2493 0.0000 -2.8572
#
#
#
# Elastic Compliance Matrix: (Units=1/GPa)
#
#
# Indices 1 2 3 4 5 6 
#
# 1 0.017518 -0.000333 -0.001063 0.000000 -0.005054 0.000000
# 2 -0.000333 0.013688 -0.002451 0.000000 -0.000194 0.000000
# 3 -0.001063 -0.002451 0.005282 0.000000 0.003400 0.000000
# 4 0.000000 0.000000 0.000000 0.012589 0.000000 -0.053974
# 5 -0.005054 -0.000194 0.003400 0.000000 0.024141 0.000000
# 6 0.000000 0.000000 0.000000 -0.053974 0.000000 -0.118600
#
#
# Mechanical properties :
#
#
# Convention : Reuss Voigt Hill
#
# Bulk Modulus (GPa) = 34.73036 52.11037 43.42036
# Shear Modulus (GPa) = -178.00336 35.87117 -71.06609
#
# Velocity S-wave (km/s) = -8.19518 3.67889 -5.17816
# Velocity P-wave (km/s) = 8.74324 6.14061 4.40098
#
# Compressibility (1/GPa) = 0.02879325
#
# Stress axis : x y z
#
# Youngs Moduli (GPa) = 57.08322 73.05740 189.32549
#
# Poissons Ratio (x) = 0.02435 0.20128
# Poissons Ratio (y) = 0.01902 0.46403
# Poissons Ratio (z) = 0.06069 0.17906
#
# Static dielectric constant tensor:
#      x y z
#    x 2.060300 0.000000 -0.051930 
#    y 0.000000 2.013730 0.000000 
#    z -0.051930 0.000000 2.380960 
# 
# From -- ./inp_files/25677.got.cif
#   From: 2010.05.17/outbox.cif.g08.bks.cpg/sg15_13_cif.got.tgz:25677.got - 2010.06.03 18:47:42.
