data_PCOD9253217
_publ_section_title
;
Structure prediction by ZEFSAII (Michael W. Deem and Ramdas Pophale) SiO2 
 PCOD9253217
Probable space group: P 21/C
;
_chemical_formula_sum "Si O2"
_cell_formula_units_Z 24
_cell_length_a 8.477988
_cell_length_b 14.437815
_cell_length_c 17.201428
_cell_angle_alpha 90.000000
_cell_angle_beta 33.633220
_cell_angle_gamma 90.000000
_cell_volume 1166.191982
_symmetry_space_group_name_H-M "P 21/C"
_symmetry_group_IT_number 14
_symmetry_cell_setting 'monoclinic'
loop_
_space_group_symop_operation_xyz
x,y,z
-x,1/2+y,1/2-z
-x,-y,-z
x,1/2-y,1/2+z
loop_
_atom_site_type_symbol
_atom_site_label
_atom_site_fract_x
_atom_site_fract_y
_atom_site_fract_z
Si Si1 0.258500 0.929456 0.908227
Si Si2 0.290628 0.945683 0.360545
Si Si3 0.399809 0.244186 0.489751
Si Si4 0.274277 0.918881 0.082209
Si Si5 0.769002 0.257765 0.694481
Si Si6 0.618099 0.925905 0.390607
O O1 0.225427 0.836843 0.872379
O O2 0.534388 0.987124 0.768652
O O3 0.259575 0.900899 0.996896
O O4 0.000000 0.000000 0.000000
O O5 0.255782 0.845158 0.333074
O O6 0.466193 0.932777 0.369129
O O7 0.000000 0.000000 0.500000
O O8 0.591818 0.332386 0.429021
O O9 0.514248 0.215271 0.357851
O O10 0.436374 0.171202 0.543857
O O11 0.066164 0.264166 0.618667
O O12 0.956617 0.940086 0.241426
O O13 0.500000 0.000000 0.000000
O O14 0.500000 0.000000 0.500000
#
# Coordination Sequence:
#
# PCOD9253217 Si02
#       6
#     4   4   4   4   4   4
#     4  12  25  45  75 104 141 190 240 296 360 430
#     4  12  27  47  75 107 144 191 243 298 367 431
#     4  12  27  46  74 103 145 188 241 298 365 427
#     4  12  27  47  73 105 145 188 240 298 361 432
#     4  12  25  48  71 105 143 188 244 303 358 432
#     4  12  27  48  72 105 146 189 238 297 363 431
#
# _framework density 20.579801
#
# number of rings (size 3 to 8) (size 9 to 14) (size 15 to 20)
#    0.000    0.000    3.333    7.000    4.667    0.000 
#    6.000    0.000    0.000    0.000    0.000    0.000 
#    0.000    0.000    0.000    0.000    0.000    0.000 
#
# Total GULP energy -134348.536856 kJ/mol
# GULP energy per Si atom -5597.855702 kJ/mol
# Density = 2.053296 g / cm^3
# Si number density = 20.579801 Si / 1000 Ang^3
#
#
#
# Elastic Constant Matrix: (Units=GPa)
#
#
# Indices 1 2 3 4 5 6 
#
# 1 73.8728 26.3215 10.5911 0.0000 0.3625 0.0000
# 2 26.3215 94.3204 40.5823 0.0000 -7.2276 0.0000
# 3 10.5911 40.5823 141.5292 0.0000 -13.0845 0.0000
# 4 0.0000 0.0000 0.0000 35.3075 0.0000 7.4789
# 5 0.3625 -7.2276 -13.0845 0.0000 43.6328 0.0000
# 6 0.0000 0.0000 0.0000 7.4789 0.0000 45.9493
#
#
#
# Elastic Compliance Matrix: (Units=1/GPa)
#
#
# Indices 1 2 3 4 5 6 
#
# 1 0.015061 -0.004276 0.000023 0.000000 -0.000827 0.000000
# 2 -0.004276 0.013350 -0.003394 0.000000 0.001229 0.000000
# 3 0.000023 -0.003394 0.008213 0.000000 0.001900 0.000000
# 4 0.000000 0.000000 0.000000 0.029334 0.000000 -0.004774
# 5 -0.000827 0.001229 0.001900 0.000000 0.023699 0.000000
# 6 0.000000 0.000000 0.000000 -0.004774 0.000000 0.022540
#
#
# Mechanical properties :
#
#
# Convention : Reuss Voigt Hill
#
# Bulk Modulus (GPa) = 46.88556 51.63468 49.26012
# Shear Modulus (GPa) = 37.14635 40.45975 38.80305
#
# Velocity S-wave (km/s) = 4.25313 4.43876 4.34694
# Velocity P-wave (km/s) = 6.85205 7.17040 7.01303
#
# Compressibility (1/GPa) = 0.02132853
#
# Stress axis : x y z
#
# Youngs Moduli (GPa) = 66.39566 74.90562 121.75823
#
# Poissons Ratio (x) = 0.32031 -0.00276
# Poissons Ratio (y) = 0.28392 0.41330
# Poissons Ratio (z) = -0.00150 0.25426
#
# Static dielectric constant tensor:
#      x y z
#    x 1.253670 0.000000 -0.161170 
#    y 0.000000 1.673370 0.000000 
#    z -0.161170 0.000000 1.682170 
# 
# From -- ./inp_files/17959.got.cif
#   From: 2010.05.17/outbox.cif.g08.bks.cpg/sg14_9_cif.got.tgz:17959.got - 2010.06.03 17:49:19.
