data_PCOD9253032
_publ_section_title
;
Structure prediction by ZEFSAII (Michael W. Deem and Ramdas Pophale) SiO2 
 PCOD9253032
Probable space group: P 21/C
;
_chemical_formula_sum "Si O2"
_cell_formula_units_Z 24
_cell_length_a 12.420611
_cell_length_b 16.251711
_cell_length_c 18.084204
_cell_angle_alpha 90.000000
_cell_angle_beta 19.401602
_cell_angle_gamma 90.000000
_cell_volume 1212.620038
_symmetry_space_group_name_H-M "P 21/C"
_symmetry_group_IT_number 14
_symmetry_cell_setting 'monoclinic'
loop_
_space_group_symop_operation_xyz
x,y,z
-x,1/2+y,1/2-z
-x,-y,-z
x,1/2-y,1/2+z
loop_
_atom_site_type_symbol
_atom_site_label
_atom_site_fract_x
_atom_site_fract_y
_atom_site_fract_z
Si Si1 0.642754 0.981627 0.700569
Si Si2 0.271226 0.707537 0.239384
Si Si3 0.230544 0.518367 0.612787
Si Si4 0.142975 0.347916 0.053512
Si Si5 0.631625 0.418035 0.956178
Si Si6 0.780421 0.581963 0.631776
O O1 0.676703 0.906748 0.621443
O O2 0.489317 0.056998 0.754034
O O3 0.407348 0.962928 0.921329
O O4 0.000000 0.000000 0.500000
O O5 0.342530 0.654849 0.119313
O O6 0.129864 0.795363 0.310061
O O7 0.004831 0.654850 0.456997
O O8 0.596040 0.710603 0.076979
O O9 0.500000 0.500000 0.500000
O O10 0.015811 0.593235 0.782316
O O11 0.984090 0.442994 0.759256
O O12 0.500000 0.500000 0.000000
O O13 0.394288 0.399349 0.177857
O O14 0.000000 0.500000 0.500000
#
# Coordination Sequence:
#
# PCOD9253032 Si02
#       6
#     4   4   4   4   4   4
#     4  12  23  42  72 101 132 175 231 280 327 402
#     4  12  28  44  68 100 145 174 223 283 345 394
#     4  12  23  42  72 101 132 175 231 280 327 402
#     4  12  28  46  64 106 141 178 219 283 343 394
#     4  12  21  42  72  99 124 178 231 274 327 400
#     4  12  21  42  72  99 124 178 231 274 327 400
#
# _framework density 19.791855000000002
#
# number of rings (size 3 to 8) (size 9 to 14) (size 15 to 20)
#    0.000    0.000   10.000    0.000    4.667    1.333 
#    0.000    0.000    0.000    0.000    0.000    0.000 
#    0.000    0.000    0.000    0.000    0.000    0.000 
#
# Total GULP energy -134331.468749 kJ/mol
# GULP energy per Si atom -5597.144531 kJ/mol
# Density = 1.974681 g / cm^3
# Si number density = 19.791855 Si / 1000 Ang^3
#
#
#
# Elastic Constant Matrix: (Units=GPa)
#
#
# Indices 1 2 3 4 5 6 
#
# 1 89.3034 -7.0077 46.7536 0.0000 14.0275 0.0000
# 2 -7.0077 16.8707 -1.0449 0.0000 16.1223 0.0000
# 3 46.7536 -1.0449 106.8456 0.0000 33.3713 0.0000
# 4 0.0000 0.0000 0.0000 29.0390 0.0000 -12.8612
# 5 14.0275 16.1223 33.3713 0.0000 76.0132 0.0000
# 6 0.0000 0.0000 0.0000 -12.8612 0.0000 33.8171
#
#
#
# Elastic Compliance Matrix: (Units=1/GPa)
#
#
# Indices 1 2 3 4 5 6 
#
# 1 0.015240 0.007666 -0.006035 0.000000 -0.001789 0.000000
# 2 0.007666 0.082377 0.003882 0.000000 -0.020591 0.000000
# 3 -0.006035 0.003882 0.013846 0.000000 -0.005788 0.000000
# 4 0.000000 0.000000 0.000000 0.041412 0.000000 0.015750
# 5 -0.001789 -0.020591 -0.005788 0.000000 0.020394 0.000000
# 6 0.000000 0.000000 0.000000 0.015750 0.000000 0.035561
#
#
# Mechanical properties :
#
#
# Convention : Reuss Voigt Hill
#
# Bulk Modulus (GPa) = 8.16395 32.26908 20.21652
# Shear Modulus (GPa) = 20.95271 39.39510 30.17391
#
# Velocity S-wave (km/s) = 3.25723 4.46631 3.90880
# Velocity P-wave (km/s) = 4.27550 6.55262 5.53248
#
# Compressibility (1/GPa) = 0.12248965
#
# Stress axis : x y z
#
# Youngs Moduli (GPa) = 65.61735 12.13932 72.22322
#
# Poissons Ratio (x) = -0.09306 0.43587
# Poissons Ratio (y) = -0.50303 -0.28040
# Poissons Ratio (z) = 0.39600 -0.04713
#
# Static dielectric constant tensor:
#      x y z
#    x 1.695140 0.000000 -0.032370 
#    y 0.000000 1.648750 0.000000 
#    z -0.032370 0.000000 1.683150 
# 
# From -- ./inp_files/58137.got.cif
#   From: 2010.05.17/outbox.cif.g08.bks.cpg/sg14_30_cif.got.tgz:58137.got - 2010.06.03 17:49:19.
