data_PCOD9253292
_publ_section_title
;
Structure prediction by ZEFSAII (Michael W. Deem and Ramdas Pophale) SiO2 
 PCOD9253292
Probable space group: P 21/C
;
_chemical_formula_sum "Si O2"
_cell_formula_units_Z 16
_cell_length_a 17.478284
_cell_length_b 8.005119
_cell_length_c 18.129224
_cell_angle_alpha 90.000000
_cell_angle_beta 15.400293
_cell_angle_gamma 90.000000
_cell_volume 673.612554
_symmetry_space_group_name_H-M "P 21/C"
_symmetry_group_IT_number 14
_symmetry_cell_setting 'monoclinic'
loop_
_space_group_symop_operation_xyz
x,y,z
-x,1/2+y,1/2-z
-x,-y,-z
x,1/2-y,1/2+z
loop_
_atom_site_type_symbol
_atom_site_label
_atom_site_fract_x
_atom_site_fract_y
_atom_site_fract_z
Si Si1 0.054515 0.564288 0.867222
Si Si2 0.288972 0.935707 0.632764
Si Si3 0.533652 0.936805 0.134338
Si Si4 0.302319 0.563187 0.365674
O O1 0.180070 0.749999 0.749998
O O2 0.281117 0.451631 0.611977
O O3 0.000000 0.500000 0.000000
O O4 0.748526 0.552305 0.110625
O O5 0.469806 0.947680 0.389348
O O6 0.500000 0.000000 0.500000
O O7 0.994910 0.951634 0.112001
O O8 0.422297 0.749994 0.249999
O O9 0.719759 0.999997 0.030239
#
# Coordination Sequence:
#
# PCOD9253292 Si02
#       4
#     4   4   4   4
#     4  12  26  47  72 105 145 189 238 293 354 425
#     4  12  26  47  72 105 145 189 238 293 354 425
#     4  12  26  47  74 107 143 187 237 295 358 425
#     4  12  26  47  74 107 143 187 237 295 358 425
#
# _framework density 23.752524999999999
#
# number of rings (size 3 to 8) (size 9 to 14) (size 15 to 20)
#    0.000    0.000    0.000   10.500    0.000    4.000 
#    0.000    0.000    0.000    0.000    0.000    0.000 
#    0.000    0.000    0.000    0.000    0.000    0.000 
#
# Total GULP energy -89861.494578 kJ/mol
# GULP energy per Si atom -5616.343411 kJ/mol
# Density = 2.369846 g / cm^3
# Si number density = 23.752525 Si / 1000 Ang^3
#
#
#
# Elastic Constant Matrix: (Units=GPa)
#
#
# Indices 1 2 3 4 5 6 
#
# 1 132.8087 80.8962 57.7105 0.0000 -3.8722 0.0000
# 2 80.8962 161.1871 55.0220 0.0000 2.5456 0.0000
# 3 57.7105 55.0220 147.2458 0.0000 2.4436 0.0000
# 4 0.0000 0.0000 0.0000 39.8190 0.0000 -0.7394
# 5 -3.8722 2.5456 2.4436 0.0000 56.5465 0.0000
# 6 0.0000 0.0000 0.0000 -0.7394 0.0000 32.3374
#
#
#
# Elastic Compliance Matrix: (Units=1/GPa)
#
#
# Indices 1 2 3 4 5 6 
#
# 1 0.011818 -0.004999 -0.002783 0.000000 0.001155 0.000000
# 2 -0.004999 0.009228 -0.001477 0.000000 -0.000694 0.000000
# 3 -0.002783 -0.001477 0.008442 0.000000 -0.000489 0.000000
# 4 0.000000 0.000000 0.000000 0.025124 0.000000 0.000574
# 5 0.001155 -0.000694 -0.000489 0.000000 0.017816 0.000000
# 6 0.000000 0.000000 0.000000 0.000574 0.000000 0.030937
#
#
# Mechanical properties :
#
#
# Convention : Reuss Voigt Hill
#
# Bulk Modulus (GPa) = 91.16542 92.05546 91.61044
# Shear Modulus (GPa) = 39.82753 42.24809 41.03781
#
# Velocity S-wave (km/s) = 4.09928 4.22201 4.16110
# Velocity P-wave (km/s) = 7.80193 7.91248 7.85740
#
# Compressibility (1/GPa) = 0.01096907
#
# Stress axis : x y z
#
# Youngs Moduli (GPa) = 84.61869 108.36185 118.45208
#
# Poissons Ratio (x) = 0.54174 0.32963
# Poissons Ratio (y) = 0.42304 0.17501
# Poissons Ratio (z) = 0.23548 0.16010
#
# Static dielectric constant tensor:
#      x y z
#    x 1.895470 0.000000 0.001800 
#    y 0.000000 1.814550 0.000000 
#    z 0.001800 0.000000 1.877150 
# 
# From -- ./inp_files/60030.got.cif
#   From: 2010.05.17/outbox.cif.g08.bks.cpg/sg14_31_cif.got.tgz:60030.got - 2010.06.03 17:49:19.
