data_PCOD9253219
_publ_section_title
;
Structure prediction by ZEFSAII (Michael W. Deem and Ramdas Pophale) SiO2 
 PCOD9253219
Probable space group: P 21/C
;
_chemical_formula_sum "Si O2"
_cell_formula_units_Z 16
_cell_length_a 10.478591
_cell_length_b 4.762174
_cell_length_c 20.458370
_cell_angle_alpha 90.000000
_cell_angle_beta 146.220615
_cell_angle_gamma 90.000000
_cell_volume 567.611658
_symmetry_space_group_name_H-M "P 21/C"
_symmetry_group_IT_number 14
_symmetry_cell_setting 'monoclinic'
loop_
_space_group_symop_operation_xyz
x,y,z
-x,1/2+y,1/2-z
-x,-y,-z
x,1/2-y,1/2+z
loop_
_atom_site_type_symbol
_atom_site_label
_atom_site_fract_x
_atom_site_fract_y
_atom_site_fract_z
Si Si1 0.091437 0.974203 0.691205
Si Si2 0.510974 0.616427 0.869679
Si Si3 0.351929 0.223785 0.419394
Si Si4 0.823816 0.142903 0.974152
O O1 0.266838 0.733703 0.742132
O O2 0.684788 0.621815 0.442305
O O3 0.890772 0.838679 0.648674
O O4 0.242206 0.166514 0.802126
O O5 0.498092 0.529838 0.942695
O O6 0.025454 0.668928 0.912449
O O7 0.622652 0.371534 0.873127
O O8 0.500000 0.500000 0.500000
O O9 0.000000 0.000000 0.000000
#
# Coordination Sequence:
#
# PCOD9253219 Si02
#       4
#     4   4   4   4
#     4  12  26  46  86 122 171 219 269 350 435 493
#     4  12  26  51  79 125 160 218 279 345 412 500
#     4  12  25  45  80 126 169 208 272 339 430 506
#     4  12  30  55  81 115 168 226 291 336 404 503
#
# _framework density 28.188285
#
# number of rings (size 3 to 8) (size 9 to 14) (size 15 to 20)
#    0.000    0.000    7.500    0.750    7.000    2.000 
#    4.500    0.000    0.000    0.000    0.000    0.000 
#    0.000    0.000    0.000    0.000    0.000    0.000 
#
# Total GULP energy -89800.556835 kJ/mol
# GULP energy per Si atom -5612.534802 kJ/mol
# Density = 2.812413 g / cm^3
# Si number density = 28.188285 Si / 1000 Ang^3
#
#
#
# Elastic Constant Matrix: (Units=GPa)
#
#
# Indices 1 2 3 4 5 6 
#
# 1 211.8098 114.5480 69.2195 0.0000 65.7930 0.0000
# 2 114.5480 258.8823 66.7667 0.0000 43.9492 0.0000
# 3 69.2195 66.7667 113.0897 0.0000 47.4646 0.0000
# 4 0.0000 0.0000 0.0000 49.6217 0.0000 20.4617
# 5 65.7930 43.9492 47.4646 0.0000 45.0540 0.0000
# 6 0.0000 0.0000 0.0000 20.4617 0.0000 81.0351
#
#
#
# Elastic Compliance Matrix: (Units=1/GPa)
#
#
# Indices 1 2 3 4 5 6 
#
# 1 0.009653 -0.002324 0.000768 0.000000 -0.012638 0.000000
# 2 -0.002324 0.005336 -0.001734 0.000000 0.000016 0.000000
# 3 0.000768 -0.001734 0.016415 0.000000 -0.016723 0.000000
# 4 0.000000 0.000000 0.000000 0.022495 0.000000 -0.005680
# 5 -0.012638 0.000016 -0.016723 0.000000 0.058255 0.000000
# 6 0.000000 0.000000 0.000000 -0.005680 0.000000 0.013775
#
#
# Mechanical properties :
#
#
# Convention : Reuss Voigt Hill
#
# Bulk Modulus (GPa) = 40.28395 120.53890 80.41143
# Shear Modulus (GPa) = 35.51609 57.35868 46.43738
#
# Velocity S-wave (km/s) = 3.55344 4.51581 4.06322
# Velocity P-wave (km/s) = 5.58193 8.36929 7.11347
#
# Compressibility (1/GPa) = 0.02482378
#
# Stress axis : x y z
#
# Youngs Moduli (GPa) = 103.59946 187.42361 60.91890
#
# Poissons Ratio (x) = 0.43548 -0.04679
# Poissons Ratio (y) = 0.24071 0.10566
# Poissons Ratio (z) = -0.07958 0.32506
#
# Static dielectric constant tensor:
#      x y z
#    x 2.264140 0.000000 -0.112770 
#    y 0.000000 2.414350 0.000000 
#    z -0.112770 0.000000 2.429390 
# 
# From -- ./inp_files/64251.got.cif
#   From: 2010.05.17/outbox.cif.g08.bks.cpg/sg14_33_cif.got.tgz:64251.got - 2010.06.03 17:49:19.
