data_PCOD9253331
_publ_section_title
;
Structure prediction by ZEFSAII (Michael W. Deem and Ramdas Pophale) SiO2 
 PCOD9253331
Probable space group: P 21/C
;
_chemical_formula_sum "Si O2"
_cell_formula_units_Z 28
_cell_length_a 9.523275
_cell_length_b 20.285641
_cell_length_c 8.634122
_cell_angle_alpha 90.000000
_cell_angle_beta 47.415751
_cell_angle_gamma 90.000000
_cell_volume 1228.112342
_symmetry_space_group_name_H-M "P 21/C"
_symmetry_group_IT_number 14
_symmetry_cell_setting 'monoclinic'
loop_
_space_group_symop_operation_xyz
x,y,z
-x,1/2+y,1/2-z
-x,-y,-z
x,1/2-y,1/2+z
loop_
_atom_site_type_symbol
_atom_site_label
_atom_site_fract_x
_atom_site_fract_y
_atom_site_fract_z
Si Si1 0.104390 0.106370 0.536305
Si Si2 0.682798 0.160398 0.788554
Si Si3 0.066297 0.828898 0.785209
Si Si4 0.570792 0.258046 0.088516
Si Si5 0.997279 0.519370 0.324677
Si Si6 0.156650 0.218926 0.748074
Si Si7 0.370514 0.060526 0.055392
O O1 0.175802 0.164520 0.597419
O O2 0.250263 0.091295 0.287938
O O3 0.895821 0.131077 0.629144
O O4 0.076742 0.038273 0.653837
O O5 0.623552 0.221002 0.722520
O O6 0.643008 0.185108 0.992461
O O7 0.516238 0.110688 0.870638
O O8 0.281383 0.805202 0.610135
O O9 0.074806 0.906552 0.745384
O O10 0.938852 0.783888 0.760376
O O11 0.978841 0.811743 0.018039
O O12 0.355691 0.266233 0.187710
O O13 0.000000 0.500000 0.500000
O O14 0.778664 0.530665 0.449580
O O15 0.500000 0.000000 0.000000
#
# Coordination Sequence:
#
# PCOD9253331 Si02
#       7
#     4   4   4   4   4   4   4
#     4  12  28  51  77 110 157 205 251 329 382 463
#     4  12  28  49  75 113 152 198 259 317 391 461
#     4  12  27  48  77 111 157 197 249 326 376 461
#     4  12  27  45  78 111 149 200 254 313 387 461
#     4  12  26  50  77 110 156 201 255 316 390 459
#     4  12  27  48  77 115 152 199 258 314 390 452
#     4  12  28  49  76 107 152 203 257 310 387 464
#
# _framework density 22.799216999999999
#
# number of rings (size 3 to 8) (size 9 to 14) (size 15 to 20)
#    0.000    0.000    4.286    4.714    8.000    1.143 
#    0.000    1.429    0.000    0.000    0.000    0.000 
#    0.000    0.000    0.000    0.000    0.000    0.000 
#
# Total GULP energy -156590.675248 kJ/mol
# GULP energy per Si atom -5592.524116 kJ/mol
# Density = 2.274733 g / cm^3
# Si number density = 22.799217 Si / 1000 Ang^3
#
#
#
# Elastic Constant Matrix: (Units=GPa)
#
#
# Indices 1 2 3 4 5 6 
#
# 1 107.9487 53.2945 49.1044 0.0000 14.2419 0.0000
# 2 53.2945 124.7061 3.2179 0.0000 1.9743 0.0000
# 3 49.1044 3.2179 51.4894 0.0000 -3.3757 0.0000
# 4 0.0000 0.0000 0.0000 43.3418 0.0000 4.0627
# 5 14.2419 1.9743 -3.3757 0.0000 32.8450 0.0000
# 6 0.0000 0.0000 0.0000 4.0627 0.0000 28.3094
#
#
#
# Elastic Compliance Matrix: (Units=1/GPa)
#
#
# Indices 1 2 3 4 5 6 
#
# 1 0.030843 -0.012167 -0.029683 0.000000 -0.015693 0.000000
# 2 -0.012167 0.012841 0.011171 0.000000 0.005652 0.000000
# 3 -0.029683 0.011171 0.048156 0.000000 0.017149 0.000000
# 4 0.000000 0.000000 0.000000 0.023387 0.000000 -0.003356
# 5 -0.015693 0.005652 0.017149 0.000000 0.038674 0.000000
# 6 0.000000 0.000000 0.000000 -0.003356 0.000000 0.035806
#
#
# Mechanical properties :
#
#
# Convention : Reuss Voigt Hill
#
# Bulk Modulus (GPa) = 32.80567 55.04198 43.92383
# Shear Modulus (GPa) = 19.14062 32.80107 25.97085
#
# Velocity S-wave (km/s) = 2.90061 3.79713 3.37873
# Velocity P-wave (km/s) = 5.06342 6.58928 5.87609
#
# Compressibility (1/GPa) = 0.03048253
#
# Stress axis : x y z
#
# Youngs Moduli (GPa) = 32.42184 77.87704 20.76591
#
# Poissons Ratio (x) = 0.94752 0.61640
# Poissons Ratio (y) = 0.39447 -0.23198
# Poissons Ratio (z) = 0.96238 -0.86999
#
# Static dielectric constant tensor:
#      x y z
#    x 1.845150 0.000000 0.089640 
#    y 0.000000 3.289620 0.000000 
#    z 0.089640 0.000000 2.007640 
# 
# From -- ./inp_files/10387.got.cif
#   From: 2010.05.17/outbox.cif.g08.bks.cpg/sg14_6_cif.got.tgz:10387.got - 2010.06.03 17:49:19.
