data_PCOD9253274
_publ_section_title
;
Structure prediction by ZEFSAII (Michael W. Deem and Ramdas Pophale) SiO2 
 PCOD9253274
Probable space group: P 21/C
;
_chemical_formula_sum "Si O2"
_cell_formula_units_Z 20
_cell_length_a 6.942895
_cell_length_b 13.277640
_cell_length_c 14.806882
_cell_angle_alpha 90.000000
_cell_angle_beta 147.557167
_cell_angle_gamma 90.000000
_cell_volume 732.252230
_symmetry_space_group_name_H-M "P 21/C"
_symmetry_group_IT_number 14
_symmetry_cell_setting 'monoclinic'
loop_
_space_group_symop_operation_xyz
x,y,z
-x,1/2+y,1/2-z
-x,-y,-z
x,1/2-y,1/2+z
loop_
_atom_site_type_symbol
_atom_site_label
_atom_site_fract_x
_atom_site_fract_y
_atom_site_fract_z
Si Si1 0.588651 0.216688 0.364387
Si Si2 0.670772 0.574092 0.397097
Si Si3 0.864733 0.785715 0.140457
Si Si4 0.421442 0.408217 0.035389
Si Si5 0.304549 0.402811 0.186551
O O1 0.772585 0.337323 0.181949
O O2 0.390615 0.145101 0.214314
O O3 0.109542 0.173963 0.392739
O O4 0.624540 0.320953 0.324085
O O5 0.701650 0.637623 0.501541
O O6 0.055427 0.837570 0.460093
O O7 0.628658 0.757017 0.134802
O O8 0.648765 0.549186 0.893266
O O9 0.000000 0.000000 0.000000
O O10 0.500000 0.500000 0.000000
O O11 0.347894 0.491017 0.275617
#
# Coordination Sequence:
#
# PCOD9253274 Si02
#       5
#     4   4   4   4   4
#     4  12  27  51  81 124 177 226 290 371 448 533
#     4  12  26  51  89 123 174 234 301 370 452 530
#     4  12  28  53  83 131 173 226 302 365 439 545
#     4  12  27  55  89 125 177 233 300 366 451 532
#     4  12  25  51  84 119 173 234 289 368 449 525
#
# _framework density 27.312992999999999
#
# number of rings (size 3 to 8) (size 9 to 14) (size 15 to 20)
#    0.000    0.000    4.000    5.400    0.000    2.400 
#    0.000    0.000    0.000    0.000    0.000    0.000 
#    0.000    0.000    0.000    0.000    0.000    0.000 
#
# Total GULP energy -112191.803565 kJ/mol
# GULP energy per Si atom -5609.590178 kJ/mol
# Density = 2.725083 g / cm^3
# Si number density = 27.312993 Si / 1000 Ang^3
#
#
#
# Elastic Constant Matrix: (Units=GPa)
#
#
# Indices 1 2 3 4 5 6 
#
# 1 129.2603 55.1505 60.3700 0.0000 -6.1476 0.0000
# 2 55.1505 263.7194 107.6455 0.0000 10.2812 0.0000
# 3 60.3700 107.6455 175.7958 0.0000 -2.2354 0.0000
# 4 0.0000 0.0000 0.0000 82.2226 0.0000 -6.2380
# 5 -6.1476 10.2812 -2.2354 0.0000 48.6587 0.0000
# 6 0.0000 0.0000 0.0000 -6.2380 0.0000 60.4209
#
#
#
# Elastic Compliance Matrix: (Units=1/GPa)
#
#
# Indices 1 2 3 4 5 6 
#
# 1 0.009435 -0.000942 -0.002647 0.000000 0.001269 0.000000
# 2 -0.000942 0.005222 -0.002891 0.000000 -0.001355 0.000000
# 3 -0.002647 -0.002891 0.008376 0.000000 0.000661 0.000000
# 4 0.000000 0.000000 0.000000 0.012258 0.000000 0.001266
# 5 0.001269 -0.001355 0.000661 0.000000 0.021028 0.000000
# 6 0.000000 0.000000 0.000000 0.001266 0.000000 0.016681
#
#
# Mechanical properties :
#
#
# Convention : Reuss Voigt Hill
#
# Bulk Modulus (GPa) = 99.28186 112.78970 106.03578
# Shear Modulus (GPa) = 55.97907 61.30107 58.64007
#
# Velocity S-wave (km/s) = 4.53210 4.74264 4.63856
# Velocity P-wave (km/s) = 7.98844 8.44838 8.22162
#
# Compressibility (1/GPa) = 0.01007233
#
# Stress axis : x y z
#
# Youngs Moduli (GPa) = 105.98900 191.50047 119.38522
#
# Poissons Ratio (x) = 0.18042 0.31602
# Poissons Ratio (y) = 0.09985 0.34517
# Poissons Ratio (z) = 0.28056 0.55368
#
# Static dielectric constant tensor:
#      x y z
#    x 2.320240 0.000000 0.065600 
#    y 0.000000 2.116460 0.000000 
#    z 0.065600 0.000000 2.242550 
# 
# From -- ./inp_files/54311.got.cif
#   From: 2010.05.17/outbox.cif.g08.bks.cpg/sg14_28_cif.got.tgz:54311.got - 2010.06.03 17:49:19.
