data_PCOD9253565
_publ_section_title
;
Structure prediction by ZEFSAII (Michael W. Deem and Ramdas Pophale) SiO2 
 PCOD9253565
Probable space group: P 21/C
;
_chemical_formula_sum "Si O2"
_cell_formula_units_Z 28
_cell_length_a 15.000000
_cell_length_b 9.000000
_cell_length_c 15.000000
_cell_angle_alpha 90.000000
_cell_angle_beta 140.000000
_cell_angle_gamma 90.000000
_cell_volume 1301.644910
_symmetry_space_group_name_H-M "P 21/C"
_symmetry_group_IT_number 14
_symmetry_cell_setting 'monoclinic'
loop_
_space_group_symop_operation_xyz
x,y,z
-x,1/2+y,1/2-z
-x,-y,-z
x,1/2-y,1/2+z
loop_
_atom_site_type_symbol
_atom_site_label
_atom_site_fract_x
_atom_site_fract_y
_atom_site_fract_z
Si Si1 0.927502 0.212376 0.620180
Si Si2 0.154241 0.972685 0.803231
Si Si3 0.850641 0.252593 0.361128
Si Si4 0.223895 0.958342 0.353188
Si Si5 0.498063 0.173466 0.367454
Si Si6 0.659698 0.727007 0.581006
Si Si7 0.437563 0.661831 0.768085
O O1 0.883965 0.356928 0.646364
O O2 0.934781 0.242578 0.519236
O O3 0.822718 0.087667 0.582163
O O4 0.064644 0.120862 0.749039
O O5 0.301919 0.054671 0.908077
O O6 0.129972 0.889184 0.689842
O O7 0.861619 0.383996 0.294385
O O8 0.700753 0.274573 0.292083
O O9 0.375617 0.881539 0.471515
O O10 0.232255 0.133220 0.343836
O O11 0.397794 0.253690 0.361895
O O12 0.542912 0.278637 0.318585
O O13 0.439363 0.018414 0.280345
O O14 0.557443 0.774377 0.423021
#
# Coordination Sequence:
#
# PCOD9253565 Si02
#       7
#     4   4   4   4   4   4   4
#     4  11  24  47  66  93 127 166 226 269 318 380
#     4  11  27  43  69  94 126 175 213 274 320 383
#     4  11  22  42  68  96 126 169 216 266 319 376
#     4  10  20  41  65  91 131 176 206 263 323 373
#     4  11  22  38  62  96 139 170 208 264 315 391
#     4  11  23  40  62  98 137 170 210 259 324 389
#     4  11  23  38  65  99 133 174 210 257 325 382
#
# _framework density 21.511243
#
# number of rings (size 3 to 8) (size 9 to 14) (size 15 to 20)
#    0.000    1.143    4.286    2.143    4.000    0.571 
#    0.000   10.714    0.000    0.000    0.000    0.000 
#    0.000    0.000    0.000    0.000    0.000    0.000 
#
# Total GULP energy -155973.400706 kJ/mol
# GULP energy per Si atom -5570.478597 kJ/mol
# Density = 2.146228 g / cm^3
# Si number density = 21.511243 Si / 1000 Ang^3
#
#
#
# Elastic Constant Matrix: (Units=GPa)
#
#
# Indices 1 2 3 4 5 6 
#
# 1 53.3482 15.4979 7.8386 0.0000 -23.5976 0.0000
# 2 15.4979 52.4456 0.8817 0.0000 -0.9200 0.0000
# 3 7.8386 0.8817 29.9178 0.0000 -24.2673 0.0000
# 4 0.0000 0.0000 0.0000 27.2782 0.0000 -4.9467
# 5 -23.5976 -0.9200 -24.2673 0.0000 36.9624 0.0000
# 6 0.0000 0.0000 0.0000 -4.9467 0.0000 38.6059
#
#
#
# Elastic Compliance Matrix: (Units=1/GPa)
#
#
# Indices 1 2 3 4 5 6 
#
# 1 0.033596 -0.009654 0.018579 0.000000 0.033406 0.000000
# 2 -0.009654 0.021852 -0.005717 0.000000 -0.009373 0.000000
# 3 0.018579 -0.005717 0.081785 0.000000 0.065414 0.000000
# 4 0.000000 0.000000 0.000000 0.037531 0.000000 0.004809
# 5 0.033406 -0.009373 0.065414 0.000000 0.091095 0.000000
# 6 0.000000 0.000000 0.000000 0.004809 0.000000 0.026519
#
#
# Mechanical properties :
#
#
# Convention : Reuss Voigt Hill
#
# Bulk Modulus (GPa) = 6.96151 20.46088 13.71120
# Shear Modulus (GPa) = 14.97696 28.00218 21.48957
#
# Velocity S-wave (km/s) = 2.64150 3.61189 3.16411
# Velocity P-wave (km/s) = 3.54212 5.18909 4.44259
#
# Compressibility (1/GPa) = 0.14364702
#
# Stress axis : x y z
#
# Youngs Moduli (GPa) = 29.76562 45.76263 12.22717
#
# Poissons Ratio (x) = 0.44179 -0.22716
# Poissons Ratio (y) = 0.28736 0.06991
# Poissons Ratio (z) = -0.55300 0.26165
#
# Static dielectric constant tensor:
#      x y z
#    x 1.918960 0.000000 0.172520 
#    y 0.000000 1.805560 0.000000 
#    z 0.172520 0.000000 1.944150 
# 
# From -- ./inp_files/43311.got.cif
#   From: 2010.05.17/outbox.ucp.g08.bks.cvg/sg14_22_cif.got.tgz:43311.got - 2010.06.11 12:31:08.
