data_PCOD9253945
_publ_section_title
;
Structure prediction by ZEFSAII (Michael W. Deem and Ramdas Pophale) SiO2 
 PCOD9253945
Probable space group: C 2/C
;
_chemical_formula_sum "Si O2"
_cell_formula_units_Z 32
_cell_length_a 7.715480
_cell_length_b 18.634366
_cell_length_c 13.370892
_cell_angle_alpha 90.000000
_cell_angle_beta 136.745910
_cell_angle_gamma 90.000000
_cell_volume 1317.278121
_symmetry_space_group_name_H-M "C 2/C"
_symmetry_group_IT_number 15
_symmetry_cell_setting 'monoclinic'
loop_
_space_group_symop_operation_xyz
x,y,z
-x,y,1/2-z
-x,-y,-z
x,-y,1/2+z
1/2+x,1/2+y,z
1/2-x,1/2+y,1/2-z
1/2-x,1/2-y,-z
1/2+x,1/2-y,1/2+z
loop_
_atom_site_type_symbol
_atom_site_label
_atom_site_fract_x
_atom_site_fract_y
_atom_site_fract_z
Si Si1 0.011745 0.292207 0.138649
Si Si2 0.274785 0.030284 0.082470
Si Si3 0.359116 0.918864 0.961607
Si Si4 0.321594 0.357842 0.814685
O O1 0.000000 0.311967 0.250000
O O2 0.208951 0.226846 0.209273
O O3 0.750000 0.250000 0.000000
O O4 0.059942 0.363971 0.095081
O O5 0.500000 0.001382 0.250000
O O6 0.238829 0.112935 0.100954
O O7 0.327086 0.998852 0.993959
O O8 0.000000 0.000000 0.000000
O O9 0.334100 0.902106 0.834191
O O10 0.103090 0.882496 0.901500
#
# Coordination Sequence:
#
# PCOD9253945 Si02
#       4
#     8   8   8   8
#     4  10  15  27  50  80 107 140 193 240 278 329
#     4  10  21  36  55  83 115 153 191 236 291 349
#     4   9  17  31  53  84 110 146 195 238 282 341
#     4   9  17  31  51  81 116 144 184 249 290 326
#
# _framework density 24.292515999999999
#
# number of rings (size 3 to 8) (size 9 to 14) (size 15 to 20)
#    0.000    2.500    5.000    0.750    0.000    1.000 
#    0.000    0.000    0.000    1.500    0.000    0.000 
#    0.000    0.000    0.000    0.000    0.000    0.000 
#
# Total GULP energy -89094.039321 kJ/mol
# GULP energy per Si atom -5568.377458 kJ/mol
# Density = 2.423722 g / cm^3
# Si number density = 24.292516 Si / 1000 Ang^3
#
#
#
# Elastic Constant Matrix: (Units=GPa)
#
#
# Indices 1 2 3 4 5 6 
#
# 1 83.8456 -44.1539 -10.0611 -0.0001 -25.7188 -0.0001
# 2 -44.1539 108.5449 -3.7318 0.0000 -14.1064 0.0000
# 3 -10.0611 -3.7318 56.1619 -0.0001 -6.6003 -0.0001
# 4 -0.0001 0.0000 -0.0001 40.9081 -0.0001 -2.3128
# 5 -25.7188 -14.1064 -6.6003 -0.0001 48.0391 -0.0001
# 6 -0.0001 0.0000 -0.0001 -2.3128 -0.0001 20.3871
#
#
#
# Elastic Compliance Matrix: (Units=1/GPa)
#
#
# Indices 1 2 3 4 5 6 
#
# 1 0.025270 0.012925 0.007544 0.000000 0.018361 0.000000
# 2 0.012925 0.016243 0.004847 0.000000 0.012355 0.000000
# 3 0.007544 0.004847 0.020451 0.000000 0.008272 0.000000
# 4 0.000000 0.000000 0.000000 0.024603 0.000000 0.002791
# 5 0.018361 0.012355 0.008272 0.000000 0.035411 0.000000
# 6 0.000000 0.000000 0.000000 0.002791 0.000000 0.049367
#
#
# Mechanical properties :
#
#
# Convention : Reuss Voigt Hill
#
# Bulk Modulus (GPa) = 8.88139 14.73986 11.81063
# Shear Modulus (GPa) = 31.59641 42.30016 36.94829
#
# Velocity S-wave (km/s) = 3.61039 4.17740 3.90420
# Velocity P-wave (km/s) = 4.58735 5.41741 5.01957
#
# Compressibility (1/GPa) = 0.11259501
#
# Stress axis : x y z
#
# Youngs Moduli (GPa) = 39.57218 61.56624 48.89673
#
# Poissons Ratio (x) = -0.79574 -0.36886
# Poissons Ratio (y) = -0.51147 -0.23699
# Poissons Ratio (z) = -0.29852 -0.29840
#
# Static dielectric constant tensor:
#      x y z
#    x 2.175880 0.000000 0.025580 
#    y 0.000000 2.233230 0.000000 
#    z 0.025580 0.000000 2.003570 
# 
# From -- ./inp_files/78045.got.cif
#   From: 2010.05.17/outbox.cif.g08.bks.cpg/sg15_40_cif.got.tgz:78045.got - 2010.06.03 18:47:42.
