data_PCOD9253325
_publ_section_title
;
Structure prediction by ZEFSAII (Michael W. Deem and Ramdas Pophale) SiO2 
 PCOD9253325
Probable space group: P 21/C
;
_chemical_formula_sum "Si O2"
_cell_formula_units_Z 16
_cell_length_a 17.151656
_cell_length_b 4.766109
_cell_length_c 17.229986
_cell_angle_alpha 90.000000
_cell_angle_beta 151.888513
_cell_angle_gamma 90.000000
_cell_volume 663.666419
_symmetry_space_group_name_H-M "P 21/C"
_symmetry_group_IT_number 14
_symmetry_cell_setting 'monoclinic'
loop_
_space_group_symop_operation_xyz
x,y,z
-x,1/2+y,1/2-z
-x,-y,-z
x,1/2-y,1/2+z
loop_
_atom_site_type_symbol
_atom_site_label
_atom_site_fract_x
_atom_site_fract_y
_atom_site_fract_z
Si Si1 0.856783 0.342420 0.828342
Si Si2 0.909700 0.157239 0.701650
Si Si3 0.360037 0.155816 0.327685
Si Si4 0.544113 0.349607 0.335753
O O1 0.716235 0.580103 0.693702
O O2 0.780266 0.080416 0.807686
O O3 0.915323 0.226003 0.797385
O O4 0.000000 0.500000 0.000000
O O5 0.049241 0.336078 0.779588
O O6 0.434805 0.270121 0.313897
O O7 0.500000 0.000000 0.500000
O O8 0.268812 0.747374 0.485696
O O9 0.473697 0.174329 0.200931
#
# Coordination Sequence:
#
# PCOD9253325 Si02
#       4
#     4   4   4   4
#     4  12  28  48  74 108 144 192 239 293 359 424
#     4  12  28  48  73 105 150 188 235 295 363 426
#     4  12  26  50  74 103 145 188 245 296 350 423
#     4  12  28  47  75 107 142 191 240 295 358 424
#
# _framework density 24.108498999999998
#
# number of rings (size 3 to 8) (size 9 to 14) (size 15 to 20)
#    0.000    0.000    2.500    6.000   14.000    0.000 
#    0.000    0.000    0.000    0.000    0.000    0.000 
#    0.000    0.000    0.000    0.000    0.000    0.000 
#
# Total GULP energy -89842.316538 kJ/mol
# GULP energy per Si atom -5615.144784 kJ/mol
# Density = 2.405363 g / cm^3
# Si number density = 24.108499 Si / 1000 Ang^3
#
#
#
# Elastic Constant Matrix: (Units=GPa)
#
#
# Indices 1 2 3 4 5 6 
#
# 1 122.7903 18.0925 17.7125 0.0000 -1.5072 0.0000
# 2 18.0925 102.3876 -6.7532 0.0000 7.7623 0.0000
# 3 17.7125 -6.7532 81.3202 0.0000 4.0762 0.0000
# 4 0.0000 0.0000 0.0000 49.0129 0.0000 8.2894
# 5 -1.5072 7.7623 4.0762 0.0000 26.7864 0.0000
# 6 0.0000 0.0000 0.0000 8.2894 0.0000 11.2165
#
#
#
# Elastic Compliance Matrix: (Units=1/GPa)
#
#
# Indices 1 2 3 4 5 6 
#
# 1 0.008728 -0.001783 -0.002116 0.000000 0.001330 0.000000
# 2 -0.001783 0.010429 0.001422 0.000000 -0.003339 0.000000
# 3 -0.002116 0.001422 0.013002 0.000000 -0.002510 0.000000
# 4 0.000000 0.000000 0.000000 0.023317 0.000000 -0.017232
# 5 0.001330 -0.003339 -0.002510 0.000000 0.038757 0.000000
# 6 0.000000 0.000000 0.000000 -0.017232 0.000000 0.101890
#
#
# Mechanical properties :
#
#
# Convention : Reuss Voigt Hill
#
# Bulk Modulus (GPa) = 36.75782 40.51129 38.63456
# Shear Modulus (GPa) = 23.79322 35.89958 29.84640
#
# Velocity S-wave (km/s) = 3.14494 3.86305 3.52234
# Velocity P-wave (km/s) = 5.33549 6.06117 5.70987
#
# Compressibility (1/GPa) = 0.02720509
#
# Stress axis : x y z
#
# Youngs Moduli (GPa) = 114.57173 95.88912 76.91265
#
# Poissons Ratio (x) = 0.17094 0.16273
# Poissons Ratio (y) = 0.20424 -0.10935
# Poissons Ratio (z) = 0.24241 -0.13632
#
# Static dielectric constant tensor:
#      x y z
#    x 1.870090 0.000000 0.036060 
#    y 0.000000 1.858370 0.000000 
#    z 0.036060 0.000000 1.952290 
# 
# From -- ./inp_files/46024.got.cif
#   From: 2010.05.17/outbox.cif.g08.bks.cpg/sg14_24_cif.got.tgz:46024.got - 2010.06.03 17:49:19.
