data_PCOD9253092
_publ_section_title
;
Structure prediction by ZEFSAII (Michael W. Deem and Ramdas Pophale) SiO2 
 PCOD9253092
Probable space group: P 21/C
;
_chemical_formula_sum "Si O2"
_cell_formula_units_Z 28
_cell_length_a 9.669159
_cell_length_b 18.439278
_cell_length_c 15.283026
_cell_angle_alpha 90.000000
_cell_angle_beta 156.516535
_cell_angle_gamma 90.000000
_cell_volume 1085.808626
_symmetry_space_group_name_H-M "P 21/C"
_symmetry_group_IT_number 14
_symmetry_cell_setting 'monoclinic'
loop_
_space_group_symop_operation_xyz
x,y,z
-x,1/2+y,1/2-z
-x,-y,-z
x,1/2-y,1/2+z
loop_
_atom_site_type_symbol
_atom_site_label
_atom_site_fract_x
_atom_site_fract_y
_atom_site_fract_z
Si Si1 0.762351 0.345181 0.366031
Si Si2 0.048806 0.314738 0.051527
Si Si3 0.519668 0.683495 0.523729
Si Si4 0.745054 0.032689 0.067885
Si Si5 0.646998 0.460639 0.818310
Si Si6 0.337097 0.065159 0.312990
Si Si7 0.161305 0.836077 0.286655
O O1 0.374584 0.341378 0.181429
O O2 0.774020 0.367943 0.271756
O O3 0.899664 0.262663 0.440053
O O4 0.028341 0.390771 0.580975
O O5 0.205467 0.302549 0.239143
O O6 0.750001 0.375758 0.877214
O O7 0.297684 0.617754 0.434103
O O8 0.289510 0.752652 0.367409
O O9 0.759118 0.660954 0.581092
O O10 0.604225 0.993590 0.899308
O O11 0.151756 0.025123 0.286574
O O12 0.500000 0.000000 0.000000
O O13 0.514944 0.478975 0.838296
O O14 0.000000 0.500000 0.000000
O O15 0.610062 0.121714 0.509840
#
# Coordination Sequence:
#
# PCOD9253092 Si02
#       7
#     4   4   4   4   4   4   4
#     4  12  26  43  75 110 139 188 235 300 366 425
#     4  12  23  45  71 104 146 184 237 296 364 423
#     4  12  23  49  68 106 149 183 236 299 359 420
#     4  12  29  46  72 104 144 195 241 290 354 431
#     4  12  25  48  72 101 141 194 238 289 354 432
#     4  12  25  51  74 104 145 187 239 304 360 420
#     4  12  26  43  78 109 142 182 238 304 360 424
#
# _framework density 25.787231999999999
#
# number of rings (size 3 to 8) (size 9 to 14) (size 15 to 20)
#    0.000    0.000    5.714    3.857    6.000    0.000 
#    0.000    1.429    0.000    0.000    0.000    0.000 
#    0.000    0.000    0.000    0.000    0.000    0.000 
#
# Total GULP energy -156997.616025 kJ/mol
# GULP energy per Si atom -5607.057715 kJ/mol
# Density = 2.572854 g / cm^3
# Si number density = 25.787232 Si / 1000 Ang^3
#
#
#
# Elastic Constant Matrix: (Units=GPa)
#
#
# Indices 1 2 3 4 5 6 
#
# 1 213.7335 35.2220 37.9393 0.0000 18.3638 0.0000
# 2 35.2220 112.4559 36.1385 0.0000 1.6283 0.0000
# 3 37.9393 36.1385 73.1290 0.0000 14.4653 0.0000
# 4 0.0000 0.0000 0.0000 47.9897 0.0000 9.9904
# 5 18.3638 1.6283 14.4653 0.0000 53.6527 0.0000
# 6 0.0000 0.0000 0.0000 9.9904 0.0000 36.4964
#
#
#
# Elastic Compliance Matrix: (Units=1/GPa)
#
#
# Indices 1 2 3 4 5 6 
#
# 1 0.005307 -0.000997 -0.002015 0.000000 -0.001243 0.000000
# 2 -0.000997 0.010826 -0.005108 0.000000 0.001390 0.000000
# 3 -0.002015 -0.005108 0.018039 0.000000 -0.004019 0.000000
# 4 0.000000 0.000000 0.000000 0.022097 0.000000 -0.006049
# 5 -0.001243 0.001390 -0.004019 0.000000 0.020105 0.000000
# 6 0.000000 0.000000 0.000000 -0.006049 0.000000 0.029056
#
#
# Mechanical properties :
#
#
# Convention : Reuss Voigt Hill
#
# Bulk Modulus (GPa) = 55.76227 68.65756 62.20991
# Shear Modulus (GPa) = 39.17063 46.96233 43.06648
#
# Velocity S-wave (km/s) = 3.90165 4.27212 4.09108
# Velocity P-wave (km/s) = 6.47828 7.14263 6.81855
#
# Compressibility (1/GPa) = 0.01793327
#
# Stress axis : x y z
#
# Youngs Moduli (GPa) = 188.41339 92.37181 55.43599
#
# Poissons Ratio (x) = 0.09208 0.11171
# Poissons Ratio (y) = 0.18781 0.28314
# Poissons Ratio (z) = 0.37966 0.47180
#
# Static dielectric constant tensor:
#      x y z
#    x 2.040160 0.000000 -0.081530 
#    y 0.000000 2.050230 0.000000 
#    z -0.081530 0.000000 1.541900 
# 
# From -- ./inp_files/42116.got.cif
#   From: 2010.05.17/outbox.cif.g08.bks.cpg/sg14_22_cif.got.tgz:42116.got - 2010.06.03 17:49:19.
