data_PCOD9253102
_publ_section_title
;
Structure prediction by ZEFSAII (Michael W. Deem and Ramdas Pophale) SiO2 
 PCOD9253102
Probable space group: P 21/C
;
_chemical_formula_sum "Si O2"
_cell_formula_units_Z 16
_cell_length_a 32.606700
_cell_length_b 4.979678
_cell_length_c 26.094050
_cell_angle_alpha 90.000000
_cell_angle_beta 10.180807
_cell_angle_gamma 90.000000
_cell_volume 748.895832
_symmetry_space_group_name_H-M "P 21/C"
_symmetry_group_IT_number 14
_symmetry_cell_setting 'monoclinic'
loop_
_space_group_symop_operation_xyz
x,y,z
-x,1/2+y,1/2-z
-x,-y,-z
x,1/2-y,1/2+z
loop_
_atom_site_type_symbol
_atom_site_label
_atom_site_fract_x
_atom_site_fract_y
_atom_site_fract_z
Si Si1 0.768955 0.425197 0.173341
Si Si2 0.048704 0.425831 0.722549
Si Si3 0.519353 0.912029 0.693930
Si Si4 0.981932 0.569623 0.462781
O O1 0.500000 0.500000 0.500000
O O2 0.899125 0.632032 0.051206
O O3 0.895790 0.441715 0.962173
O O4 0.804423 0.130011 0.152628
O O5 0.307630 0.524326 0.416877
O O6 0.949937 0.626044 0.801072
O O7 0.473293 0.100509 0.800063
O O8 0.765996 0.006974 0.370232
O O9 0.000000 0.500000 0.500000
#
# Coordination Sequence:
#
# PCOD9253102 Si02
#       4
#     4   4   4   4
#     4  12  27  47  66 100 141 174 220 278 332 398
#     4  12  26  43  70  99 133 177 222 273 336 390
#     4  12  23  46  70  95 134 174 226 280 322 389
#     4  12  26  46  70 100 132 181 223 272 335 394
#
# _framework density 21.364785000000001
#
# number of rings (size 3 to 8) (size 9 to 14) (size 15 to 20)
#    0.000    0.000    5.000    4.500    7.000    0.000 
#    0.000    0.000    0.000    0.000    0.000    0.000 
#    0.000    0.000    0.000    0.000    0.000    0.000 
#
# Total GULP energy -89633.842539 kJ/mol
# GULP energy per Si atom -5602.115159 kJ/mol
# Density = 2.131616 g / cm^3
# Si number density = 21.364785 Si / 1000 Ang^3
#
#
#
# Elastic Constant Matrix: (Units=GPa)
#
#
# Indices 1 2 3 4 5 6 
#
# 1 60.9983 -9.9816 12.2982 0.0000 2.0412 0.0000
# 2 -9.9816 62.7723 -16.2194 0.0000 6.1736 0.0000
# 3 12.2982 -16.2194 89.1433 0.0000 -12.7220 0.0000
# 4 0.0000 0.0000 0.0000 30.0800 0.0000 -13.4312
# 5 2.0412 6.1736 -12.7220 0.0000 31.3536 0.0000
# 6 0.0000 0.0000 0.0000 -13.4312 0.0000 36.8414
#
#
#
# Elastic Compliance Matrix: (Units=1/GPa)
#
#
# Indices 1 2 3 4 5 6 
#
# 1 0.017340 0.002409 -0.002317 0.000000 -0.002543 0.000000
# 2 0.002409 0.017193 0.002431 0.000000 -0.002556 0.000000
# 3 -0.002317 0.002431 0.012667 0.000000 0.004812 0.000000
# 4 0.000000 0.000000 0.000000 0.039709 0.000000 0.014476
# 5 -0.002543 -0.002556 0.004812 0.000000 0.034515 0.000000
# 6 0.000000 0.000000 0.000000 0.014476 0.000000 0.032421
#
#
# Mechanical properties :
#
#
# Convention : Reuss Voigt Hill
#
# Bulk Modulus (GPa) = 19.14018 20.56759 19.85388
# Shear Modulus (GPa) = 30.08163 34.77612 32.42887
#
# Velocity S-wave (km/s) = 3.75640 4.03889 3.90021
# Velocity P-wave (km/s) = 5.27184 5.60339 5.44014
#
# Compressibility (1/GPa) = 0.05224612
#
# Stress axis : x y z
#
# Youngs Moduli (GPa) = 57.66913 58.16267 78.94781
#
# Poissons Ratio (x) = -0.14010 0.18292
# Poissons Ratio (y) = -0.13891 -0.19194
# Poissons Ratio (z) = 0.13362 -0.14140
#
# Static dielectric constant tensor:
#      x y z
#    x 1.747260 0.000000 -0.005550 
#    y 0.000000 1.740280 0.000000 
#    z -0.005550 0.000000 1.743320 
# 
# From -- ./inp_files/47784.got.cif
#   From: 2010.05.17/outbox.cif.g08.bks.cpg/sg14_24_cif.got.tgz:47784.got - 2010.06.03 17:49:19.
