data_PCOD9253002
_publ_section_title
;
Structure prediction by ZEFSAII (Michael W. Deem and Ramdas Pophale) SiO2 
 PCOD9253002
Probable space group: P 21/C
;
_chemical_formula_sum "Si O2"
_cell_formula_units_Z 30
_cell_length_a 24.866023
_cell_length_b 4.768274
_cell_length_c 10.396952
_cell_angle_alpha 90.000000
_cell_angle_beta 125.281681
_cell_angle_gamma 90.000000
_cell_volume 1006.317990
_symmetry_space_group_name_H-M "P 21/C"
_symmetry_group_IT_number 14
_symmetry_cell_setting 'monoclinic'
loop_
_space_group_symop_operation_xyz
x,y,z
-x,1/2+y,1/2-z
-x,-y,-z
x,1/2-y,1/2+z
loop_
_atom_site_type_symbol
_atom_site_label
_atom_site_fract_x
_atom_site_fract_y
_atom_site_fract_z
Si Si1 0.000000 0.000000 0.500000
Si Si2 0.619868 0.318181 0.245001
Si Si3 0.894800 0.377070 0.976670
Si Si4 0.915713 0.558005 0.286066
Si Si5 0.224240 0.331882 0.426140
Si Si6 0.487399 0.325777 0.639114
Si Si7 0.644044 0.818093 0.464568
Si Si8 0.246237 0.835570 0.639954
O O1 0.060633 0.148910 0.495890
O O2 0.070589 0.699553 0.593250
O O3 0.544511 0.229222 0.113474
O O4 0.623969 0.619342 0.316088
O O5 0.679069 0.263178 0.226129
O O6 0.639303 0.120061 0.393822
O O7 0.903821 0.373266 0.140253
O O8 0.816363 0.328365 0.850432
O O9 0.030658 0.300370 0.163141
O O10 0.845873 0.715219 0.211036
O O11 0.281766 0.274141 0.402789
O O12 0.226902 0.635596 0.492272
O O13 0.244857 0.141451 0.576914
O O14 0.492774 0.626036 0.712475
O O15 0.412351 0.235655 0.507982
#
# Coordination Sequence:
#
# PCOD9253002 Si02
#       8
#     2   4   4   4   4   4   4   4
#     4  12  30  48  78 114 148 190 242 302 378 454
#     4   8  13  23  41  72 115 166 219 281 342 414
#     4  11  28  49  78 110 148 193 242 306 371 447
#     4  11  28  49  79 109 149 193 247 304 378 448
#     4   9  19  36  63  92 134 178 236 294 360 429
#     4   8  12  18  34  64 111 160 216 273 339 406
#     4   8  13  23  41  74 114 166 219 281 341 414
#     4   9  19  36  61  93 132 179 236 295 360 429
#
# _framework density 29.811653
#
# number of rings (size 3 to 8) (size 9 to 14) (size 15 to 20)
#    0.000    2.667    0.000    0.400    9.333    0.000 
#    0.000    0.000    0.000    0.000    0.000    0.933 
#    0.000    1.067    0.000   11.200    0.533    2.533 
#
# Total GULP energy -167534.315724 kJ/mol
# GULP energy per Si atom -5584.477191 kJ/mol
# Density = 2.974380 g / cm^3
# Si number density = 29.811653 Si / 1000 Ang^3
#
#
#
# Elastic Constant Matrix: (Units=GPa)
#
#
# Indices 1 2 3 4 5 6 
#
# 1 237.9409 14.7133 72.8312 0.0000 53.2853 0.0000
# 2 14.7133 111.1878 19.6362 0.0000 -19.4592 0.0000
# 3 72.8312 19.6362 132.9736 0.0000 30.9961 0.0000
# 4 0.0000 0.0000 0.0000 30.4060 0.0000 16.7031
# 5 53.2853 -19.4592 30.9961 0.0000 57.6342 0.0000
# 6 0.0000 0.0000 0.0000 16.7031 0.0000 46.7293
#
#
#
# Elastic Compliance Matrix: (Units=1/GPa)
#
#
# Indices 1 2 3 4 5 6 
#
# 1 0.005980 -0.001314 -0.001931 0.000000 -0.004934 0.000000
# 2 -0.001314 0.010616 -0.002249 0.000000 0.006008 0.000000
# 3 -0.001931 -0.002249 0.009914 0.000000 -0.004305 0.000000
# 4 0.000000 0.000000 0.000000 0.040924 0.000000 -0.014628
# 5 -0.004934 0.006008 -0.004305 0.000000 0.026256 0.000000
# 6 0.000000 0.000000 0.000000 -0.014628 0.000000 0.026629
#
#
# Mechanical properties :
#
#
# Convention : Reuss Voigt Hill
#
# Bulk Modulus (GPa) = 64.42226 77.38486 70.90356
# Shear Modulus (GPa) = 36.63533 51.94866 44.29199
#
# Velocity S-wave (km/s) = 3.50936 4.17893 3.85870
# Velocity P-wave (km/s) = 6.17070 7.02132 6.60970
#
# Compressibility (1/GPa) = 0.01552258
#
# Stress axis : x y z
#
# Youngs Moduli (GPa) = 167.22549 94.19479 100.87029
#
# Poissons Ratio (x) = 0.12374 0.19481
# Poissons Ratio (y) = 0.21968 0.22683
# Poissons Ratio (z) = 0.32296 0.21182
#
# Static dielectric constant tensor:
#      x y z
#    x 4.427630 0.000000 1.283470 
#    y 0.000000 11.266110 0.000000 
#    z 1.283470 0.000000 3.152110 
# 
# From -- ./inp_files/49490.got.cif
#   From: 2010.05.17/outbox.cif.g08.bks.cpg/sg14_25_cif.got.tgz:49490.got - 2010.06.03 17:49:19.
