data_PCOD9253894
_publ_section_title
;
Structure prediction by ZEFSAII (Michael W. Deem and Ramdas Pophale) SiO2 
 PCOD9253894
Probable space group: C 2/C
;
_chemical_formula_sum "Si O2"
_cell_formula_units_Z 40
_cell_length_a 19.104232
_cell_length_b 8.322097
_cell_length_c 13.746339
_cell_angle_alpha 90.000000
_cell_angle_beta 42.889857
_cell_angle_gamma 90.000000
_cell_volume 1487.427209
_symmetry_space_group_name_H-M "C 2/C"
_symmetry_group_IT_number 15
_symmetry_cell_setting 'monoclinic'
loop_
_space_group_symop_operation_xyz
x,y,z
-x,y,1/2-z
-x,-y,-z
x,-y,1/2+z
1/2+x,1/2+y,z
1/2-x,1/2+y,1/2-z
1/2-x,1/2-y,-z
1/2+x,1/2-y,1/2+z
loop_
_atom_site_type_symbol
_atom_site_label
_atom_site_fract_x
_atom_site_fract_y
_atom_site_fract_z
Si Si1 0.667903 0.929320 0.515487
Si Si2 0.397186 0.659801 0.589215
Si Si3 0.481562 0.901289 0.121099
Si Si4 0.605638 0.595358 0.683853
Si Si5 0.709473 0.993962 0.761293
O O1 0.631280 0.767645 0.606524
O O2 0.781639 0.987855 0.432952
O O3 0.690049 0.897824 0.377596
O O4 0.569274 0.044862 0.606318
O O5 0.495901 0.718088 0.429298
O O6 0.421085 0.629258 0.676457
O O7 0.328585 0.517962 0.615935
O O8 0.324403 0.819353 0.666921
O O9 0.362995 0.948391 0.253630
O O10 0.500000 0.000000 0.000000
O O11 0.500000 0.525216 0.750000
#
# Coordination Sequence:
#
# PCOD9253894 Si02
#       5
#     8   8   8   8   8
#     4   8  16  25  39  63  88 111 140 176 218 255
#     4   9  17  27  45  67  87 114 148 174 211 261
#     4   8  14  28  43  58  86 118 140 170 216 258
#     4  10  15  23  41  68  91 110 141 184 216 249
#     4   9  16  29  45  63  88 117 145 179 213 254
#
# _framework density 26.89207
#
# number of rings (size 3 to 8) (size 9 to 14) (size 15 to 20)
#    0.000    3.600    0.000    3.600    0.000    0.000 
#    0.000    1.000    0.000    9.600    0.000   21.000 
#    0.000    0.000    0.000    0.000    0.000    0.000 
#
# Total GULP energy -111614.448227 kJ/mol
# GULP energy per Si atom -5580.722411 kJ/mol
# Density = 2.683086 g / cm^3
# Si number density = 26.892070 Si / 1000 Ang^3
#
#
#
# Elastic Constant Matrix: (Units=GPa)
#
#
# Indices 1 2 3 4 5 6 
#
# 1 189.7915 13.4100 41.7344 0.0000 -22.7898 0.0000
# 2 13.4100 65.6281 20.8150 -0.0002 1.5054 0.0000
# 3 41.7344 20.8150 88.8448 -0.0001 -23.8164 0.0000
# 4 0.0000 -0.0002 -0.0001 29.6167 0.0000 -7.5190
# 5 -22.7898 1.5054 -23.8164 0.0000 40.0148 0.0000
# 6 0.0000 0.0000 0.0000 -7.5190 0.0000 36.7878
#
#
#
# Elastic Compliance Matrix: (Units=1/GPa)
#
#
# Indices 1 2 3 4 5 6 
#
# 1 0.006040 -0.000619 -0.002099 0.000000 0.002214 0.000000
# 2 -0.000619 0.016939 -0.004691 0.000000 -0.003782 0.000000
# 3 -0.002099 -0.004691 0.015548 0.000000 0.008235 0.000000
# 4 0.000000 0.000000 0.000000 0.035613 0.000000 0.007279
# 5 0.002214 -0.003782 0.008235 0.000000 0.031296 0.000000
# 6 0.000000 0.000000 0.000000 0.007279 0.000000 0.028671
#
#
# Mechanical properties :
#
#
# Convention : Reuss Voigt Hill
#
# Bulk Modulus (GPa) = 42.17976 55.13147 48.65561
# Shear Modulus (GPa) = 31.88217 39.17087 35.52652
#
# Velocity S-wave (km/s) = 3.44693 3.82068 3.63861
# Velocity P-wave (km/s) = 5.61789 6.32526 5.98204
#
# Compressibility (1/GPa) = 0.02370805
#
# Stress axis : x y z
#
# Youngs Moduli (GPa) = 165.56128 59.03650 64.31622
#
# Poissons Ratio (x) = 0.03657 0.13497
# Poissons Ratio (y) = 0.10254 0.30174
# Poissons Ratio (z) = 0.34745 0.27697
#
# Static dielectric constant tensor:
#      x y z
#    x 2.166870 0.000000 -0.057920 
#    y 0.000000 2.106670 0.000000 
#    z -0.057920 0.000000 2.351860 
# 
# From -- ./inp_files/103321.got.cif
#   From: 2010.05.17/outbox.cif.g08.bks.cpg/sg15_52_cif.got.tgz:103321.got - 2010.06.03 18:47:42.
