data_PCOD9253781
_publ_section_title
;
Structure prediction by ZEFSAII (Michael W. Deem and Ramdas Pophale) SiO2 
 PCOD9253781
Probable space group: C 2/C
;
_chemical_formula_sum "Si O2"
_cell_formula_units_Z 44
_cell_length_a 26.510225
_cell_length_b 7.337803
_cell_length_c 16.705226
_cell_angle_alpha 90.000000
_cell_angle_beta 29.491294
_cell_angle_gamma 90.000000
_cell_volume 1599.756865
_symmetry_space_group_name_H-M "C 2/C"
_symmetry_group_IT_number 15
_symmetry_cell_setting 'monoclinic'
loop_
_space_group_symop_operation_xyz
x,y,z
-x,y,1/2-z
-x,-y,-z
x,-y,1/2+z
1/2+x,1/2+y,z
1/2-x,1/2+y,1/2-z
1/2-x,1/2-y,-z
1/2+x,1/2-y,1/2+z
loop_
_atom_site_type_symbol
_atom_site_label
_atom_site_fract_x
_atom_site_fract_y
_atom_site_fract_z
Si Si1 0.122645 0.668916 0.756509
Si Si2 0.658370 0.640590 0.803577
Si Si3 0.702546 0.980848 0.000716
Si Si4 0.457805 0.274536 0.480044
Si Si5 0.915368 0.236060 0.444865
Si Si6 0.000000 0.104513 0.750000
O O1 0.203386 0.835052 0.635930
O O2 0.170993 0.508474 0.636349
O O3 0.097025 0.628704 0.884798
O O4 0.019491 0.737908 0.852855
O O5 0.757108 0.640277 0.611047
O O6 0.565577 0.696060 0.875003
O O7 0.671687 0.749622 0.867006
O O8 0.612909 0.451640 0.904732
O O9 0.608819 0.893059 0.083322
O O10 0.490522 0.271859 0.342124
O O11 0.915168 0.051270 0.391547
#
# Coordination Sequence:
#
# PCOD9253781 Si02
#       6
#     8   8   8   8   8   4
#     4   9  17  27  40  68  97 116 148 193 231 262
#     4   8  16  26  38  61  95 121 146 185 233 265
#     4  10  16  25  45  64  93 125 152 181 229 278
#     4   8  15  25  38  60  98 118 142 188 236 268
#     4  10  17  27  41  67  98 118 148 192 230 264
#     4  10  14  22  40  62  92 120 140 176 238 272
#
# _framework density 27.504180000000002
#
# number of rings (size 3 to 8) (size 9 to 14) (size 15 to 20)
#    0.000    2.909    1.818    3.273    2.545    0.000 
#    0.000    0.000    0.000    1.091    0.000   45.818 
#   49.091    0.000    0.000    0.000    0.000    0.000 
#
# Total GULP energy -122685.568307 kJ/mol
# GULP energy per Si atom -5576.616741 kJ/mol
# Density = 2.744158 g / cm^3
# Si number density = 27.504180 Si / 1000 Ang^3
#
#
#
# Elastic Constant Matrix: (Units=GPa)
#
#
# Indices 1 2 3 4 5 6 
#
# 1 129.1616 26.1817 98.3888 -0.0002 27.3538 -0.0002
# 2 26.1817 57.2344 40.3858 -0.0005 12.7536 -0.0020
# 3 98.3888 40.3858 219.5196 0.0014 87.7125 -0.0009
# 4 -0.0002 -0.0005 0.0014 23.5240 0.0000 -6.0184
# 5 27.3538 12.7536 87.7125 0.0000 102.3367 -0.0004
# 6 -0.0002 -0.0020 -0.0009 -6.0184 -0.0004 16.9271
#
#
#
# Elastic Compliance Matrix: (Units=1/GPa)
#
#
# Indices 1 2 3 4 5 6 
#
# 1 0.012223 -0.001842 -0.005971 0.000000 0.002080 0.000000
# 2 -0.001842 0.020425 -0.003212 0.000001 0.000700 0.000003
# 3 -0.005971 -0.003212 0.010683 -0.000001 -0.007161 0.000000
# 4 0.000000 0.000001 -0.000001 0.046764 0.000001 0.016627
# 5 0.002080 0.000700 -0.007161 0.000001 0.015266 0.000000
# 6 0.000000 0.000003 0.000000 0.016627 0.000000 0.064989
#
#
# Mechanical properties :
#
#
# Convention : Reuss Voigt Hill
#
# Bulk Modulus (GPa) = 46.98529 81.75868 64.37199
# Shear Modulus (GPa) = 25.06363 44.62151 34.84257
#
# Velocity S-wave (km/s) = 3.02199 4.03222 3.56309
# Velocity P-wave (km/s) = 5.41264 7.17418 6.35474
#
# Compressibility (1/GPa) = 0.02128326
#
# Stress axis : x y z
#
# Youngs Moduli (GPa) = 81.81128 48.95989 93.60326
#
# Poissons Ratio (x) = 0.09018 0.55887
# Poissons Ratio (y) = 0.15069 0.30062
# Poissons Ratio (z) = 0.48846 0.15724
#
# Static dielectric constant tensor:
#      x y z
#    x 2.106760 0.000000 0.068370 
#    y 0.000000 2.248590 0.000000 
#    z 0.068370 0.000000 2.272770 
# 
# From -- ./inp_files/152972.got.cif
#   From: 2010.05.17/outbox.cif.g08.bks.cpg/sg15_77_cif.got.tgz:152972.got - 2010.06.03 18:47:42.
