data_PCOD9253636
_publ_section_title
;
Structure prediction by ZEFSAII (Michael W. Deem and Ramdas Pophale) SiO2 
 PCOD9253636
Probable space group: P 21/C
;
_chemical_formula_sum "Si O2"
_cell_formula_units_Z 32
_cell_length_a 15.000000
_cell_length_b 9.000000
_cell_length_c 12.000000
_cell_angle_alpha 90.000000
_cell_angle_beta 110.000000
_cell_angle_gamma 90.000000
_cell_volume 1522.302046
_symmetry_space_group_name_H-M "P 21/C"
_symmetry_group_IT_number 14
_symmetry_cell_setting 'monoclinic'
loop_
_space_group_symop_operation_xyz
x,y,z
-x,1/2+y,1/2-z
-x,-y,-z
x,1/2-y,1/2+z
loop_
_atom_site_type_symbol
_atom_site_label
_atom_site_fract_x
_atom_site_fract_y
_atom_site_fract_z
Si Si1 0.000227 0.247611 0.000281
Si Si2 0.898080 0.003741 0.815213
Si Si3 0.509552 0.244326 0.995908
Si Si4 0.866582 0.003959 0.538986
Si Si5 0.507827 0.495383 0.184022
Si Si6 0.289255 0.067200 0.137804
Si Si7 0.304181 0.079174 0.674362
Si Si8 0.336412 0.010560 0.922623
O O1 0.079544 0.361737 0.990371
O O2 0.957971 0.144174 0.884731
O O3 0.916357 0.348421 0.013714
O O4 0.047040 0.139993 0.112399
O O5 0.882381 0.999490 0.677210
O O6 0.793597 0.002599 0.824924
O O7 0.510853 0.359942 0.098295
O O8 0.601018 0.138626 0.041682
O O9 0.505459 0.348803 0.885905
O O10 0.414814 0.143789 0.959654
O O11 0.758322 0.992286 0.450251
O O12 0.606348 0.503451 0.291113
O O13 0.414210 0.467576 0.215256
O O14 0.294228 0.243666 0.161148
O O15 0.270832 0.033212 0.001189
O O16 0.275668 0.023532 0.784440
#
# Coordination Sequence:
#
# PCOD9253636 Si02
#       8
#     4   4   4   4   4   4   4   4
#     4  10  24  50  74 110 134 176 226 292 356 416
#     4  11  25  47  77 105 140 177 230 286 352 417
#     4  10  22  40  66  90 130 187 231 287 328 393
#     4  11  25  47  77 105 140 177 230 286 352 417
#     4  11  24  41  66  98 138 183 233 274 344 400
#     4  12  26  43  67 101 138 185 232 277 341 409
#     4  12  26  43  67 101 138 185 232 277 341 409
#     4  11  24  42  62  94 138 179 233 283 332 396
#
# _framework density 21.020796000000001
#
# number of rings (size 3 to 8) (size 9 to 14) (size 15 to 20)
#    0.000    1.000    3.750    2.250    5.250    2.000 
#   11.250    0.000    0.000    0.000    0.000    0.000 
#    0.000    0.000    0.000    0.000    0.000    0.000 
#
# Total GULP energy -179128.815641 kJ/mol
# GULP energy per Si atom -5597.775489 kJ/mol
# Density = 2.097295 g / cm^3
# Si number density = 21.020796 Si / 1000 Ang^3
#
#
#
# Elastic Constant Matrix: (Units=GPa)
#
#
# Indices 1 2 3 4 5 6 
#
# 1 40.3999 9.8226 -8.1145 0.0000 14.3965 0.0000
# 2 9.8226 94.2441 29.7381 0.0000 -1.9369 0.0000
# 3 -8.1145 29.7381 116.5340 0.0000 8.9149 0.0000
# 4 0.0000 0.0000 0.0000 34.3002 0.0000 6.1872
# 5 14.3965 -1.9369 8.9149 0.0000 36.8964 0.0000
# 6 0.0000 0.0000 0.0000 6.1872 0.0000 7.1521
#
#
#
# Elastic Compliance Matrix: (Units=1/GPa)
#
#
# Indices 1 2 3 4 5 6 
#
# 1 0.031798 -0.005034 0.004552 0.000000 -0.013771 0.000000
# 2 -0.005034 0.012402 -0.003785 0.000000 0.003530 0.000000
# 3 0.004552 -0.003785 0.010204 0.000000 -0.004440 0.000000
# 4 0.000000 0.000000 0.000000 0.034545 0.000000 -0.029885
# 5 -0.013771 0.003530 -0.004440 0.000000 0.033735 0.000000
# 6 0.000000 0.000000 0.000000 -0.029885 0.000000 0.165673
#
#
# Mechanical properties :
#
#
# Convention : Reuss Voigt Hill
#
# Bulk Modulus (GPa) = 21.80046 34.89672 28.34859
# Shear Modulus (GPa) = 16.01638 30.31853 23.16745
#
# Velocity S-wave (km/s) = 2.76330 3.80190 3.32342
# Velocity P-wave (km/s) = 4.53592 5.99247 5.31433
#
# Compressibility (1/GPa) = 0.04587059
#
# Stress axis : x y z
#
# Youngs Moduli (GPa) = 31.44843 80.62962 98.00207
#
# Poissons Ratio (x) = 0.40586 -0.44612
# Poissons Ratio (y) = 0.15830 0.37098
# Poissons Ratio (z) = -0.14316 0.30522
#
# Static dielectric constant tensor:
#      x y z
#    x 1.776440 0.000000 -0.038510 
#    y 0.000000 1.729370 0.000000 
#    z -0.038510 0.000000 1.759990 
# 
# From -- ./inp_files/31858.got.cif
#   From: 2010.05.17/outbox.ucp.g08.bks.cvg/sg14_16_cif.got.tgz:31858.got - 2010.06.11 12:31:08.
