data_PCOD9253460
_publ_section_title
;
Structure prediction by ZEFSAII (Michael W. Deem and Ramdas Pophale) SiO2 
 PCOD9253460
Probable space group: P 21/C
;
_chemical_formula_sum "Si O2"
_cell_formula_units_Z 32
_cell_length_a 12.000000
_cell_length_b 15.000000
_cell_length_c 12.000000
_cell_angle_alpha 90.000000
_cell_angle_beta 130.000000
_cell_angle_gamma 90.000000
_cell_volume 1654.655997
_symmetry_space_group_name_H-M "P 21/C"
_symmetry_group_IT_number 14
_symmetry_cell_setting 'monoclinic'
loop_
_space_group_symop_operation_xyz
x,y,z
-x,1/2+y,1/2-z
-x,-y,-z
x,1/2-y,1/2+z
loop_
_atom_site_type_symbol
_atom_site_label
_atom_site_fract_x
_atom_site_fract_y
_atom_site_fract_z
Si Si1 0.323603 0.287118 0.927146
Si Si2 0.093553 0.168885 0.723797
Si Si3 0.336320 0.679845 0.859844
Si Si4 0.148926 0.087835 0.156447
Si Si5 0.812914 0.082853 0.935829
Si Si6 0.850905 0.615681 0.993927
Si Si7 0.844614 0.041551 0.625705
Si Si8 0.116331 0.820057 0.807415
O O1 0.247057 0.191033 0.879329
O O2 0.249152 0.333390 0.768745
O O3 0.266771 0.333126 0.004624
O O4 0.494971 0.296523 0.027111
O O5 0.128550 0.148503 0.617779
O O6 0.998022 0.089968 0.711903
O O7 0.986188 0.252829 0.684612
O O8 0.292013 0.637051 0.713198
O O9 0.282956 0.608586 0.919175
O O10 0.233737 0.763800 0.816176
O O11 0.211597 0.021494 0.103836
O O12 0.139759 0.026440 0.261528
O O13 0.982571 0.105918 0.012645
O O14 0.805057 0.113809 0.057135
O O15 0.815032 0.512184 0.993352
O O16 0.005473 0.632736 0.153239
#
# Coordination Sequence:
#
# PCOD9253460 Si02
#       8
#     4   4   4   4   4   4   4   4
#     4  10  21  38  50  84 113 139 182 226 270 325
#     4  10  19  33  55  79 111 143 175 222 273 324
#     4  10  22  33  56  80 113 144 174 228 274 325
#     4   9  18  33  57  82 104 137 187 229 265 312
#     4  10  17  33  55  78 105 141 182 222 268 312
#     4  10  19  34  57  80 105 144 185 226 264 321
#     4   9  18  34  55  85 105 138 186 227 269 319
#     4  10  19  34  53  82 108 138 186 222 267 320
#
# _framework density 19.339366999999999
#
# number of rings (size 3 to 8) (size 9 to 14) (size 15 to 20)
#    0.000    2.250    3.750    1.125    0.000    6.500 
#    0.000    0.000    0.000    0.750    6.500    0.000 
#    0.000    0.000    0.000    0.000    0.000    0.000 
#
# Total GULP energy -178267.865736 kJ/mol
# GULP energy per Si atom -5570.870804 kJ/mol
# Density = 1.929535 g / cm^3
# Si number density = 19.339367 Si / 1000 Ang^3
#
#
#
# Elastic Constant Matrix: (Units=GPa)
#
#
# Indices 1 2 3 4 5 6 
#
# 1 87.8186 15.9409 25.6645 0.0000 24.0527 0.0000
# 2 15.9409 25.5014 -5.9902 0.0000 1.2104 0.0000
# 3 25.6645 -5.9902 27.6990 0.0000 13.2082 0.0000
# 4 0.0000 0.0000 0.0000 18.4980 0.0000 -3.4564
# 5 24.0527 1.2104 13.2082 0.0000 24.2391 0.0000
# 6 0.0000 0.0000 0.0000 -3.4564 0.0000 15.1315
#
#
#
# Elastic Compliance Matrix: (Units=1/GPa)
#
#
# Indices 1 2 3 4 5 6 
#
# 1 0.024356 -0.019679 -0.021301 0.000000 -0.011578 0.000000
# 2 -0.019679 0.058848 0.031141 0.000000 -0.000381 0.000000
# 3 -0.021301 0.031141 0.071925 0.000000 -0.019610 0.000000
# 4 0.000000 0.000000 0.000000 0.056470 0.000000 0.012899
# 5 -0.011578 -0.000381 -0.019610 0.000000 0.063450 0.000000
# 6 0.000000 0.000000 0.000000 0.012899 0.000000 0.069034
#
#
# Mechanical properties :
#
#
# Convention : Reuss Voigt Hill
#
# Bulk Modulus (GPa) = 7.38275 23.58326 15.48300
# Shear Modulus (GPa) = 12.22762 18.60063 15.41412
#
# Velocity S-wave (km/s) = 2.51722 3.10466 2.82624
# Velocity P-wave (km/s) = 3.50347 5.00727 4.32129
#
# Compressibility (1/GPa) = 0.13545088
#
# Stress axis : x y z
#
# Youngs Moduli (GPa) = 41.05832 16.99297 13.90337
#
# Poissons Ratio (x) = 0.33440 0.29616
# Poissons Ratio (y) = 0.80798 -0.43297
# Poissons Ratio (z) = 0.87460 -0.52918
#
# Static dielectric constant tensor:
#      x y z
#    x 1.662380 0.000000 -0.022760 
#    y 0.000000 1.790140 0.000000 
#    z -0.022760 0.000000 1.658780 
# 
# From -- ./inp_files/30031.got.cif
#   From: 2010.05.17/outbox.ucp.g08.bks.cvg/sg14_16_cif.got.tgz:30031.got - 2010.06.11 12:31:08.
