data_PCOD9253066
_publ_section_title
;
Structure prediction by ZEFSAII (Michael W. Deem and Ramdas Pophale) SiO2 
 PCOD9253066
Probable space group: P 21/C
;
_chemical_formula_sum "Si O2"
_cell_formula_units_Z 28
_cell_length_a 6.854918
_cell_length_b 19.444112
_cell_length_c 12.294225
_cell_angle_alpha 90.000000
_cell_angle_beta 56.111940
_cell_angle_gamma 90.000000
_cell_volume 1360.306764
_symmetry_space_group_name_H-M "P 21/C"
_symmetry_group_IT_number 14
_symmetry_cell_setting 'monoclinic'
loop_
_space_group_symop_operation_xyz
x,y,z
-x,1/2+y,1/2-z
-x,-y,-z
x,1/2-y,1/2+z
loop_
_atom_site_type_symbol
_atom_site_label
_atom_site_fract_x
_atom_site_fract_y
_atom_site_fract_z
Si Si1 0.598732 0.830006 0.101665
Si Si2 0.374338 0.573498 0.053404
Si Si3 0.302062 0.330007 0.898335
Si Si4 0.198406 0.613977 0.878535
Si Si5 0.544523 0.613977 0.378535
Si Si6 0.906982 0.000000 0.750000
Si Si7 0.981146 0.073499 0.946596
O O1 0.646374 0.750000 0.103626
O O2 0.360086 0.850834 0.237626
O O3 0.805874 0.877357 0.086807
O O4 0.580909 0.846538 0.979679
O O5 0.520513 0.622643 0.086807
O O6 0.115431 0.555345 0.178655
O O7 0.500000 0.500000 0.000000
O O8 0.343749 0.606079 0.944121
O O9 0.335336 0.350834 0.762374
O O10 0.040267 0.346538 0.020321
O O11 0.127790 0.539405 0.852449
O O12 0.667313 0.539405 0.352449
O O13 0.268008 0.606079 0.444121
O O14 0.972740 0.055345 0.821345
O O15 0.000000 0.000000 0.000000
#
# Coordination Sequence:
#
# PCOD9253066 Si02
#       7
#     4   4   4   4   4   4   4
#     4  12  30  47  74 107 151 199 243 301 373 446
#     4  12  24  45  75 108 144 190 246 301 368 432
#     4  12  30  47  74 107 151 199 243 301 373 446
#     4  12  26  49  72 110 147 189 246 306 362 443
#     4  12  26  49  72 110 147 189 246 306 362 443
#     4  12  22  46  76 112 146 186 246 314 366 428
#     4  12  24  45  75 108 144 190 246 301 368 432
#
# _framework density 20.583591999999999
#
# number of rings (size 3 to 8) (size 9 to 14) (size 15 to 20)
#    0.000    0.000    5.714    4.286    4.000    0.000 
#    0.000    0.000    0.000    0.000    0.000    0.000 
#    0.000    0.000    0.000    0.000    0.000    0.000 
#
# Total GULP energy -156843.299201 kJ/mol
# GULP energy per Si atom -5601.546400 kJ/mol
# Density = 2.053674 g / cm^3
# Si number density = 20.583592 Si / 1000 Ang^3
#
#
#
# Elastic Constant Matrix: (Units=GPa)
#
#
# Indices 1 2 3 4 5 6 
#
# 1 122.0745 64.0602 87.7312 0.0000 -0.0001 0.0000
# 2 64.0602 136.2177 62.8286 0.0000 -0.0001 0.0000
# 3 87.7312 62.8286 151.8047 0.0000 -0.0002 0.0000
# 4 0.0000 0.0000 0.0000 15.3641 0.0000 0.0000
# 5 -0.0001 -0.0001 -0.0002 0.0000 35.2500 0.0000
# 6 0.0000 0.0000 0.0000 0.0000 0.0000 10.6541
#
#
#
# Elastic Compliance Matrix: (Units=1/GPa)
#
#
# Indices 1 2 3 4 5 6 
#
# 1 0.015531 -0.003911 -0.007357 0.000000 0.000000 0.000000
# 2 -0.003911 0.010058 -0.001903 0.000000 0.000000 0.000000
# 3 -0.007357 -0.001903 0.011627 0.000000 0.000000 0.000000
# 4 0.000000 0.000000 0.000000 0.065087 0.000000 0.000000
# 5 0.000000 0.000000 0.000000 0.000000 0.028369 0.000000
# 6 0.000000 0.000000 0.000000 0.000000 0.000000 0.093861
#
#
# Mechanical properties :
#
#
# Convention : Reuss Voigt Hill
#
# Bulk Modulus (GPa) = 91.95625 93.25966 92.60796
# Shear Modulus (GPa) = 19.64644 25.28543 22.46594
#
# Velocity S-wave (km/s) = 3.09280 3.50869 3.30729
# Velocity P-wave (km/s) = 7.58455 7.86261 7.72483
#
# Compressibility (1/GPa) = 0.01087474
#
# Stress axis : x y z
#
# Youngs Moduli (GPa) = 64.38562 99.42495 86.00723
#
# Poissons Ratio (x) = 0.38881 0.63279
# Poissons Ratio (y) = 0.25178 0.16365
# Poissons Ratio (z) = 0.47371 0.18918
#
# Static dielectric constant tensor:
#      x y z
#    x 1.732260 0.000000 0.000000 
#    y 0.000000 1.723580 0.000000 
#    z 0.000000 0.000000 1.759400 
# 
# From -- ./inp_files/21677.got.cif
#   From: 2010.05.17/outbox.cif.g08.bks.cpg/sg14_11_cif.got.tgz:21677.got - 2010.06.03 17:49:19.
