data_PCOD9253332
_publ_section_title
;
Structure prediction by ZEFSAII (Michael W. Deem and Ramdas Pophale) SiO2 
 PCOD9253332
Probable space group: P 21/C
;
_chemical_formula_sum "Si O2"
_cell_formula_units_Z 20
_cell_length_a 4.841089
_cell_length_b 8.533071
_cell_length_c 18.616760
_cell_angle_alpha 90.000000
_cell_angle_beta 99.383299
_cell_angle_gamma 90.000000
_cell_volume 758.756319
_symmetry_space_group_name_H-M "P 21/C"
_symmetry_group_IT_number 14
_symmetry_cell_setting 'monoclinic'
loop_
_space_group_symop_operation_xyz
x,y,z
-x,1/2+y,1/2-z
-x,-y,-z
x,1/2-y,1/2+z
loop_
_atom_site_type_symbol
_atom_site_label
_atom_site_fract_x
_atom_site_fract_y
_atom_site_fract_z
Si Si1 0.476539 0.534348 0.283745
Si Si2 0.560876 0.904040 0.623874
Si Si3 0.000542 0.371482 0.351492
Si Si4 0.844439 0.196036 0.992305
Si Si5 0.572076 0.745065 0.913516
O O1 0.450794 0.570715 0.199733
O O2 0.699355 0.393914 0.302872
O O3 0.593338 0.678684 0.335931
O O4 0.195662 0.481591 0.311399
O O5 0.338851 0.817526 0.563529
O O6 0.835837 0.794146 0.638793
O O7 0.589234 0.079910 0.596079
O O8 0.945293 0.419220 0.432401
O O9 0.621203 0.148533 0.043312
O O10 0.122248 0.269182 0.038896
#
# Coordination Sequence:
#
# PCOD9253332 Si02
#       5
#     4   4   4   4   4
#     4  12  29  49  76 115 154 203 248 320 386 456
#     4  12  28  51  80 108 158 199 262 309 384 450
#     4  12  27  49  76 109 155 196 251 317 387 442
#     4  12  26  50  77 113 150 201 258 316 372 455
#     4  12  28  46  81 110 150 200 261 306 381 455
#
# _framework density 26.358923999999998
#
# number of rings (size 3 to 8) (size 9 to 14) (size 15 to 20)
#    0.000    0.000    4.000    3.600    5.600    6.400 
#    0.000    0.000    0.000    0.000    0.000    0.000 
#    0.000    0.000    0.000    0.000    0.000    0.000 
#
# Total GULP energy -112147.388433 kJ/mol
# GULP energy per Si atom -5607.369422 kJ/mol
# Density = 2.629893 g / cm^3
# Si number density = 26.358924 Si / 1000 Ang^3
#
#
#
# Elastic Constant Matrix: (Units=GPa)
#
#
# Indices 1 2 3 4 5 6 
#
# 1 138.6713 7.7942 47.0562 0.0000 -22.0719 0.0000
# 2 7.7942 78.7905 13.0121 0.0000 8.7103 0.0000
# 3 47.0562 13.0121 176.7064 0.0000 -17.1872 0.0000
# 4 0.0000 0.0000 0.0000 36.9314 0.0000 -0.4786
# 5 -22.0719 8.7103 -17.1872 0.0000 32.8929 0.0000
# 6 0.0000 0.0000 0.0000 -0.4786 0.0000 41.1200
#
#
#
# Elastic Compliance Matrix: (Units=1/GPa)
#
#
# Indices 1 2 3 4 5 6 
#
# 1 0.008694 -0.001155 -0.001720 0.000000 0.005241 0.000000
# 2 -0.001155 0.013550 -0.001174 0.000000 -0.004977 0.000000
# 3 -0.001720 -0.001174 0.006449 0.000000 0.002526 0.000000
# 4 0.000000 0.000000 0.000000 0.027081 0.000000 0.000315
# 5 0.005241 -0.004977 0.002526 0.000000 0.036557 0.000000
# 6 0.000000 0.000000 0.000000 0.000315 0.000000 0.024323
#
#
# Mechanical properties :
#
#
# Convention : Reuss Voigt Hill
#
# Bulk Modulus (GPa) = 48.55770 58.87702 53.71736
# Shear Modulus (GPa) = 37.98835 43.94257 40.96546
#
# Velocity S-wave (km/s) = 3.80043 4.08743 3.94654
# Velocity P-wave (km/s) = 6.14161 6.68290 6.41797
#
# Compressibility (1/GPa) = 0.02059406
#
# Stress axis : x y z
#
# Youngs Moduli (GPa) = 115.01890 73.79905 155.05211
#
# Poissons Ratio (x) = 0.08526 0.26675
# Poissons Ratio (y) = 0.13289 0.18207
# Poissons Ratio (z) = 0.19788 0.08666
#
# Static dielectric constant tensor:
#      x y z
#    x 2.010830 0.000000 -0.005390 
#    y 0.000000 2.186850 0.000000 
#    z -0.005390 0.000000 2.009920 
# 
# From -- ./inp_files/62934.got.cif
#   From: 2010.05.17/outbox.cif.g08.bks.cpg/sg14_32_cif.got.tgz:62934.got - 2010.06.03 17:49:19.
