data_PCOD9253246
_publ_section_title
;
Structure prediction by ZEFSAII (Michael W. Deem and Ramdas Pophale) SiO2 
 PCOD9253246
Probable space group: P 21/C
;
_chemical_formula_sum "Si O2"
_cell_formula_units_Z 30
_cell_length_a 13.727699
_cell_length_b 10.085450
_cell_length_c 9.127589
_cell_angle_alpha 90.000000
_cell_angle_beta 61.158705
_cell_angle_gamma 90.000000
_cell_volume 1106.962736
_symmetry_space_group_name_H-M "P 21/C"
_symmetry_group_IT_number 14
_symmetry_cell_setting 'monoclinic'
loop_
_space_group_symop_operation_xyz
x,y,z
-x,1/2+y,1/2-z
-x,-y,-z
x,1/2-y,1/2+z
loop_
_atom_site_type_symbol
_atom_site_label
_atom_site_fract_x
_atom_site_fract_y
_atom_site_fract_z
Si Si1 0.358272 0.231466 0.180313
Si Si2 0.532882 0.623578 0.120073
Si Si3 0.820986 0.291081 0.057993
Si Si4 0.840792 0.669290 0.540676
Si Si5 0.325432 0.785537 0.581537
Si Si6 0.022402 0.143532 0.773779
Si Si7 0.632166 0.511756 0.561365
Si Si8 0.000000 0.000000 0.500000
O O1 0.431216 0.221313 0.274178
O O2 0.232070 0.215522 0.326307
O O3 0.393073 0.109050 0.054252
O O4 0.364729 0.360764 0.068841
O O5 0.437561 0.667176 0.075702
O O6 0.472299 0.506359 0.252443
O O7 0.723872 0.353787 0.027343
O O8 0.897534 0.397237 0.080763
O O9 0.902274 0.200925 0.902406
O O10 0.762819 0.205700 0.224962
O O11 0.917708 0.615625 0.614577
O O12 0.910435 0.741281 0.363764
O O13 0.744120 0.572423 0.553233
O O14 0.341438 0.633662 0.519575
O O15 0.021003 0.021694 0.664075
#
# Coordination Sequence:
#
# PCOD9253246 Si02
#       8
#     4   4   4   4   4   4   4   2
#     4  12  25  49  74 112 153 192 252 311 374 453
#     4  12  25  48  74 109 149 196 247 311 370 458
#     4  12  26  49  73 113 146 198 252 313 368 461
#     4  12  26  49  76 112 154 197 255 314 373 463
#     4  12  26  49  74 107 155 191 259 308 371 456
#     4  12  26  50  76 113 153 195 259 312 376 460
#     4  12  27  46  80 107 155 202 242 315 395 432
#     4  12  28  44  82 104 152 200 244 318 394 420
#
# _framework density 27.101184
#
# number of rings (size 3 to 8) (size 9 to 14) (size 15 to 20)
#    0.000    0.000    8.000    0.400    5.600    0.533 
#    0.000    2.000    0.000    0.000    0.000    0.000 
#    0.000    0.000    0.000    0.000    0.000    0.000 
#
# Total GULP energy -167608.660475 kJ/mol
# GULP energy per Si atom -5586.955349 kJ/mol
# Density = 2.703950 g / cm^3
# Si number density = 27.101184 Si / 1000 Ang^3
#
#
#
# Elastic Constant Matrix: (Units=GPa)
#
#
# Indices 1 2 3 4 5 6 
#
# 1 99.1140 -0.0647 24.9328 0.0000 29.5465 0.0000
# 2 -0.0647 55.0591 26.2560 0.0000 -0.1557 0.0000
# 3 24.9328 26.2560 141.9840 0.0000 0.9364 0.0000
# 4 0.0000 0.0000 0.0000 57.3455 0.0000 7.1478
# 5 29.5465 -0.1557 0.9364 0.0000 61.3288 0.0000
# 6 0.0000 0.0000 0.0000 7.1478 0.0000 38.7876
#
#
#
# Elastic Compliance Matrix: (Units=1/GPa)
#
#
# Indices 1 2 3 4 5 6 
#
# 1 0.012461 0.001121 -0.002356 0.000000 -0.005964 0.000000
# 2 0.001121 0.020020 -0.003896 0.000000 -0.000430 0.000000
# 3 -0.002356 -0.003896 0.008171 0.000000 0.001001 0.000000
# 4 0.000000 0.000000 0.000000 0.017848 0.000000 -0.003289
# 5 -0.005964 -0.000430 0.001001 0.000000 0.019163 0.000000
# 6 0.000000 0.000000 0.000000 -0.003289 0.000000 0.026388
#
#
# Mechanical properties :
#
#
# Convention : Reuss Voigt Hill
#
# Bulk Modulus (GPa) = 32.90579 44.26724 38.58652
# Shear Modulus (GPa) = 40.17916 47.82791 44.00354
#
# Velocity S-wave (km/s) = 3.85458 4.20550 4.03386
# Velocity P-wave (km/s) = 5.65496 6.32069 5.99707
#
# Compressibility (1/GPa) = 0.03038979
#
# Stress axis : x y z
#
# Youngs Moduli (GPa) = 80.25110 49.94896 122.38830
#
# Poissons Ratio (x) = -0.05601 0.28837
# Poissons Ratio (y) = -0.08999 0.47686
# Poissons Ratio (z) = 0.18909 0.19462
#
# Static dielectric constant tensor:
#      x y z
#    x 2.113580 0.000000 -0.030020 
#    y 0.000000 2.222990 0.000000 
#    z -0.030020 0.000000 2.069250 
# 
# From -- ./inp_files/15721.got.cif
#   From: 2010.05.17/outbox.cif.g08.bks.cpg/sg14_8_cif.got.tgz:15721.got - 2010.06.03 17:49:19.
