data_PCOD9253064
_publ_section_title
;
Structure prediction by ZEFSAII (Michael W. Deem and Ramdas Pophale) SiO2 
 PCOD9253064
Probable space group: P 21/C
;
_chemical_formula_sum "Si O2"
_cell_formula_units_Z 28
_cell_length_a 11.034984
_cell_length_b 13.040564
_cell_length_c 14.544508
_cell_angle_alpha 90.000000
_cell_angle_beta 144.995555
_cell_angle_gamma 90.000000
_cell_volume 1200.622652
_symmetry_space_group_name_H-M "P 21/C"
_symmetry_group_IT_number 14
_symmetry_cell_setting 'monoclinic'
loop_
_space_group_symop_operation_xyz
x,y,z
-x,1/2+y,1/2-z
-x,-y,-z
x,1/2-y,1/2+z
loop_
_atom_site_type_symbol
_atom_site_label
_atom_site_fract_x
_atom_site_fract_y
_atom_site_fract_z
Si Si1 0.081446 0.231287 0.207577
Si Si2 0.193693 0.468178 0.680133
Si Si3 0.488262 0.961029 0.781662
Si Si4 0.235130 0.574895 0.389380
Si Si5 0.473541 0.206417 0.061991
Si Si6 0.912291 0.435384 0.067168
Si Si7 0.335777 0.593837 0.908197
O O1 0.021602 0.328555 0.108067
O O2 0.203852 0.147671 0.222402
O O3 0.233048 0.276418 0.381108
O O4 0.898432 0.164085 0.141944
O O5 0.392454 0.487920 0.738401
O O6 0.146262 0.541167 0.736957
O O7 0.000000 0.500000 0.500000
O O8 0.239506 0.982766 0.606063
O O9 0.624080 0.017091 0.945853
O O10 0.504119 0.841350 0.822923
O O11 0.594087 0.373410 0.571389
O O12 0.075245 0.509616 0.223255
O O13 0.584852 0.312732 0.103494
O O14 0.746172 0.391492 0.041028
O O15 0.500000 0.500000 0.000000
#
# Coordination Sequence:
#
# PCOD9253064 Si02
#       7
#     4   4   4   4   4   4   4
#     4  12  25  47  76 107 145 194 244 307 375 436
#     4  12  25  45  74 107 146 190 252 311 361 442
#     4  12  27  47  74 108 149 195 252 301 367 447
#     4  12  26  52  75 104 155 196 237 310 373 437
#     4  12  27  48  74 108 151 197 241 310 377 436
#     4  12  25  48  74 109 146 193 250 301 371 448
#     4  12  22  46  72 100 142 190 240 302 365 426
#
# _framework density 23.321231999999998
#
# number of rings (size 3 to 8) (size 9 to 14) (size 15 to 20)
#    0.000    0.000    8.571    0.429    2.000    0.571 
#    0.000    0.000    0.000    0.000    0.000    0.000 
#    0.000    0.000    0.000    0.000    0.000    0.000 
#
# Total GULP energy -156210.822616 kJ/mol
# GULP energy per Si atom -5578.957951 kJ/mol
# Density = 2.326815 g / cm^3
# Si number density = 23.321232 Si / 1000 Ang^3
#
#
#
# Elastic Constant Matrix: (Units=GPa)
#
#
# Indices 1 2 3 4 5 6 
#
# 1 55.8707 19.7515 -3.2683 0.0000 -4.9026 0.0000
# 2 19.7515 118.9618 50.2902 0.0000 5.7175 0.0000
# 3 -3.2683 50.2902 161.5429 0.0000 -5.9124 0.0000
# 4 0.0000 0.0000 0.0000 40.3194 0.0000 8.1909
# 5 -4.9026 5.7175 -5.9124 0.0000 23.4579 0.0000
# 6 0.0000 0.0000 0.0000 8.1909 0.0000 41.6894
#
#
#
# Elastic Compliance Matrix: (Units=1/GPa)
#
#
# Indices 1 2 3 4 5 6 
#
# 1 0.020103 -0.004466 0.002009 0.000000 0.005796 0.000000
# 2 -0.004466 0.010908 -0.003651 0.000000 -0.004512 0.000000
# 3 0.002009 -0.003651 0.007485 0.000000 0.003196 0.000000
# 4 0.000000 0.000000 0.000000 0.025833 0.000000 -0.005076
# 5 0.005796 -0.004512 0.003196 0.000000 0.045746 0.000000
# 6 0.000000 0.000000 0.000000 -0.005076 0.000000 0.024984
#
#
# Mechanical properties :
#
#
# Convention : Reuss Voigt Hill
#
# Bulk Modulus (GPa) = 38.05156 52.21358 45.13257
# Shear Modulus (GPa) = 32.04406 39.06681 35.55543
#
# Velocity S-wave (km/s) = 3.71081 4.09731 3.90884
# Velocity P-wave (km/s) = 5.89168 6.69488 6.30608
#
# Compressibility (1/GPa) = 0.02628013
#
# Stress axis : x y z
#
# Youngs Moduli (GPa) = 49.74297 91.67651 133.60737
#
# Poissons Ratio (x) = 0.40940 -0.26843
# Poissons Ratio (y) = 0.22214 0.48784
# Poissons Ratio (z) = -0.09994 0.33473
#
# Static dielectric constant tensor:
#      x y z
#    x 1.895800 0.000000 -0.042310 
#    y 0.000000 1.918530 0.000000 
#    z -0.042310 0.000000 2.171790 
# 
# From -- ./inp_files/59559.got.cif
#   From: 2010.05.17/outbox.cif.g08.bks.cpg/sg14_30_cif.got.tgz:59559.got - 2010.06.03 17:49:19.
