data_PCOD9253847
_publ_section_title
;
Structure prediction by ZEFSAII (Michael W. Deem and Ramdas Pophale) SiO2 
 PCOD9253847
Probable space group: C 2/C
;
_chemical_formula_sum "Si O2"
_cell_formula_units_Z 32
_cell_length_a 11.861700
_cell_length_b 7.413966
_cell_length_c 14.387001
_cell_angle_alpha 90.000000
_cell_angle_beta 118.508884
_cell_angle_gamma 90.000000
_cell_volume 1111.807849
_symmetry_space_group_name_H-M "C 2/C"
_symmetry_group_IT_number 15
_symmetry_cell_setting 'monoclinic'
loop_
_space_group_symop_operation_xyz
x,y,z
-x,y,1/2-z
-x,-y,-z
x,-y,1/2+z
1/2+x,1/2+y,z
1/2-x,1/2+y,1/2-z
1/2-x,1/2-y,-z
1/2+x,1/2-y,1/2+z
loop_
_atom_site_type_symbol
_atom_site_label
_atom_site_fract_x
_atom_site_fract_y
_atom_site_fract_z
Si Si1 0.239782 0.227939 0.225048
Si Si2 0.371752 0.153725 0.099770
Si Si3 0.789223 0.576203 0.420385
Si Si4 0.482409 0.518495 0.102512
O O1 0.325580 0.111647 0.185097
O O2 0.298952 0.238259 0.351369
O O3 0.393541 0.987522 0.038073
O O4 0.099781 0.138615 0.182954
O O5 0.472309 0.316028 0.139484
O O6 0.722363 0.911931 0.159791
O O7 0.250000 0.250000 0.000000
O O8 0.655818 0.599270 0.423560
O O9 0.500000 0.500000 0.000000
#
# Coordination Sequence:
#
# PCOD9253847 Si02
#       4
#     8   8   8   8
#     4  10  18  32  52  82 112 144 187 233 274 336
#     4   8  16  29  50  78 111 147 179 230 280 324
#     4  10  19  30  53  84 110 146 186 230 283 327
#     4  10  14  30  56  78 105 144 190 224 272 332
#
# _framework density 28.781953999999999
#
# number of rings (size 3 to 8) (size 9 to 14) (size 15 to 20)
#    0.000    3.000    7.500    0.750    0.000    0.000 
#    0.000    1.250    0.000   13.500    0.000    0.000 
#    0.000    0.000    0.000    0.000    0.000    0.000 
#
# Total GULP energy -89555.942882 kJ/mol
# GULP energy per Si atom -5597.246430 kJ/mol
# Density = 2.871645 g / cm^3
# Si number density = 28.781954 Si / 1000 Ang^3
#
#
#
# Elastic Constant Matrix: (Units=GPa)
#
#
# Indices 1 2 3 4 5 6 
#
# 1 170.1016 36.1635 37.3943 0.0000 -33.8025 0.0000
# 2 36.1635 116.9901 26.8420 0.0000 1.3187 0.0000
# 3 37.3943 26.8420 186.7414 0.0000 -46.1309 0.0000
# 4 0.0000 0.0000 0.0000 55.0630 0.0000 -0.3866
# 5 -33.8025 1.3187 -46.1309 0.0000 52.5764 0.0000
# 6 0.0000 0.0000 0.0000 -0.3866 0.0000 61.5726
#
#
#
# Elastic Compliance Matrix: (Units=1/GPa)
#
#
# Indices 1 2 3 4 5 6 
#
# 1 0.007318 -0.002330 0.000059 0.000000 0.004815 0.000000
# 2 -0.002330 0.009703 -0.001734 0.000000 -0.003263 0.000000
# 3 0.000059 -0.001734 0.007166 0.000000 0.006369 0.000000
# 4 0.000000 0.000000 0.000000 0.018162 0.000000 0.000114
# 5 0.004815 -0.003263 0.006369 0.000000 0.027785 0.000000
# 6 0.000000 0.000000 0.000000 0.000114 0.000000 0.016242
#
#
# Mechanical properties :
#
#
# Convention : Reuss Voigt Hill
#
# Bulk Modulus (GPa) = 61.81906 74.95917 68.38911
# Shear Modulus (GPa) = 50.11147 58.73796 54.42472
#
# Velocity S-wave (km/s) = 4.17714 4.52241 4.35320
# Velocity P-wave (km/s) = 6.69251 7.30548 7.00570
#
# Compressibility (1/GPa) = 0.01617624
#
# Stress axis : x y z
#
# Youngs Moduli (GPa) = 136.64789 103.06512 139.55362
#
# Poissons Ratio (x) = 0.24014 -0.00823
# Poissons Ratio (y) = 0.31838 0.24200
# Poissons Ratio (z) = -0.00806 0.17873
#
# Static dielectric constant tensor:
#      x y z
#    x 2.256230 0.000000 0.041510 
#    y 0.000000 2.492970 0.000000 
#    z 0.041510 0.000000 2.238840 
# 
# From -- ./inp_files/194754.got.cif
#   From: 2010.05.17/outbox.cif.g08.bks.cpg/sg15_98_cif.got.tgz:194754.got - 2010.06.03 18:47:42.
