data_PCOD9253267
_publ_section_title
;
Structure prediction by ZEFSAII (Michael W. Deem and Ramdas Pophale) SiO2 
 PCOD9253267
Probable space group: P 21/C
;
_chemical_formula_sum "Si O2"
_cell_formula_units_Z 22
_cell_length_a 10.213268
_cell_length_b 16.321199
_cell_length_c 9.615892
_cell_angle_alpha 90.000000
_cell_angle_beta 149.433331
_cell_angle_gamma 90.000000
_cell_volume 815.139616
_symmetry_space_group_name_H-M "P 21/C"
_symmetry_group_IT_number 14
_symmetry_cell_setting 'monoclinic'
loop_
_space_group_symop_operation_xyz
x,y,z
-x,1/2+y,1/2-z
-x,-y,-z
x,1/2-y,1/2+z
loop_
_atom_site_type_symbol
_atom_site_label
_atom_site_fract_x
_atom_site_fract_y
_atom_site_fract_z
Si Si1 0.964643 0.232786 0.723058
Si Si2 0.767791 0.038125 0.196776
Si Si3 0.500000 0.500000 0.000000
Si Si4 0.712862 0.855319 0.643446
Si Si5 0.963926 0.936278 0.137836
Si Si6 0.328518 0.723087 0.306407
O O1 0.094477 0.144279 0.821400
O O2 0.712133 0.228532 0.395115
O O3 0.904111 0.229160 0.830564
O O4 0.106741 0.314447 0.805574
O O5 0.715987 0.133435 0.177195
O O6 0.000000 0.000000 0.500000
O O7 0.853635 0.011695 0.121750
O O8 0.500000 0.000000 0.000000
O O9 0.489817 0.419845 0.100483
O O10 0.262695 0.550051 0.876707
O O11 0.574905 0.774418 0.575897
O O12 0.801776 0.921462 0.845934
#
# Coordination Sequence:
#
# PCOD9253267 Si02
#       6
#     4   4   2   4   4   4
#     4  12  25  50  75 118 158 216 278 353 428 520
#     4  12  29  52  85 124 173 230 290 363 442 528
#     4  12  26  50  80 116 166 222 276 358 442 528
#     4  12  27  49  81 117 167 223 285 360 431 537
#     4  12  27  52  81 120 173 218 301 360 447 525
#     4  12  28  49  80 116 163 218 284 351 440 513
#
# _framework density 26.989241
#
# number of rings (size 3 to 8) (size 9 to 14) (size 15 to 20)
#    0.000    0.000    5.455    2.727    7.636    1.455 
#    0.000    0.000    0.000    0.000    0.000    0.000 
#    0.000    0.000    0.000    0.000    0.000    0.000 
#
# Total GULP energy -122645.511217 kJ/mol
# GULP energy per Si atom -5574.795964 kJ/mol
# Density = 2.692781 g / cm^3
# Si number density = 26.989241 Si / 1000 Ang^3
#
#
#
# Elastic Constant Matrix: (Units=GPa)
#
#
# Indices 1 2 3 4 5 6 
#
# 1 92.6214 16.2717 45.0754 0.0000 8.6584 0.0000
# 2 16.2717 188.5349 19.5385 0.0000 10.2391 0.0000
# 3 45.0754 19.5385 110.8256 0.0000 8.7754 0.0000
# 4 0.0000 0.0000 0.0000 44.0073 0.0000 9.1776
# 5 8.6584 10.2391 8.7754 0.0000 45.5278 0.0000
# 6 0.0000 0.0000 0.0000 9.1776 0.0000 62.6668
#
#
#
# Elastic Compliance Matrix: (Units=1/GPa)
#
#
# Indices 1 2 3 4 5 6 
#
# 1 0.013621 -0.000545 -0.005330 0.000000 -0.001441 0.000000
# 2 -0.000545 0.005474 -0.000664 0.000000 -0.000999 0.000000
# 3 -0.005330 -0.000664 0.011390 0.000000 -0.001032 0.000000
# 4 0.000000 0.000000 0.000000 0.023439 0.000000 -0.003433
# 5 -0.001441 -0.000999 -0.001032 0.000000 0.022662 0.000000
# 6 0.000000 0.000000 0.000000 -0.003433 0.000000 0.016460
#
#
# Mechanical properties :
#
#
# Convention : Reuss Voigt Hill
#
# Bulk Modulus (GPa) = 57.44907 61.52813 59.48860
# Shear Modulus (GPa) = 44.67193 51.18012 47.92603
#
# Velocity S-wave (km/s) = 4.07280 4.35939 4.21853
# Velocity P-wave (km/s) = 6.59159 6.94160 6.76886
#
# Compressibility (1/GPa) = 0.01740672
#
# Stress axis : x y z
#
# Youngs Moduli (GPa) = 73.41686 182.67455 87.79791
#
# Poissons Ratio (x) = 0.09956 0.46794
# Poissons Ratio (y) = 0.04001 0.05832
# Poissons Ratio (z) = 0.39130 0.12135
#
# Static dielectric constant tensor:
#      x y z
#    x 2.139290 0.000000 -0.097690 
#    y 0.000000 1.734540 0.000000 
#    z -0.097690 0.000000 0.569450 
# 
# From -- ./inp_files/30088.got.cif
#   From: 2010.05.17/outbox.cif.g08.bks.cpg/sg14_16_cif.got.tgz:30088.got - 2010.06.03 17:49:19.
