data_PCOD9253909
_publ_section_title
;
Structure prediction by ZEFSAII (Michael W. Deem and Ramdas Pophale) SiO2 
 PCOD9253909
Probable space group: C 2/C
;
_chemical_formula_sum "Si O2"
_cell_formula_units_Z 40
_cell_length_a 16.406897
_cell_length_b 6.514652
_cell_length_c 19.524489
_cell_angle_alpha 90.000000
_cell_angle_beta 135.449068
_cell_angle_gamma 90.000000
_cell_volume 1464.035663
_symmetry_space_group_name_H-M "C 2/C"
_symmetry_group_IT_number 15
_symmetry_cell_setting 'monoclinic'
loop_
_space_group_symop_operation_xyz
x,y,z
-x,y,1/2-z
-x,-y,-z
x,-y,1/2+z
1/2+x,1/2+y,z
1/2-x,1/2+y,1/2-z
1/2-x,1/2-y,-z
1/2+x,1/2-y,1/2+z
loop_
_atom_site_type_symbol
_atom_site_label
_atom_site_fract_x
_atom_site_fract_y
_atom_site_fract_z
Si Si1 0.125260 0.346513 0.939471
Si Si2 0.375856 0.189671 0.674962
Si Si3 0.627857 0.260469 0.593721
Si Si4 0.874278 0.750248 0.444835
Si Si5 0.376092 0.836432 0.789241
O O1 0.122374 0.544944 0.890358
O O2 0.001873 0.234763 0.847965
O O3 0.250000 0.250000 0.000000
O O4 0.119809 0.362861 0.017910
O O5 0.500000 0.303523 0.750000
O O6 0.374144 0.039900 0.740850
O O7 0.251478 0.296993 0.598089
O O8 0.502808 0.234857 0.555651
O O9 0.631079 0.502314 0.573972
O O10 0.754625 0.224292 0.701634
O O11 0.876252 0.644461 0.371231
#
# Coordination Sequence:
#
# PCOD9253909 Si02
#       5
#     8   8   8   8   8
#     4  10  15  25  44  68  95 116 142 193 235 262
#     4   9  17  29  47  72  94 116 152 194 230 265
#     4   9  17  28  43  69  95 119 152 188 229 272
#     4   9  16  27  45  66  92 124 151 182 230 278
#     4   9  17  25  41  67  96 120 145 186 232 272
#
# _framework density 27.321740999999999
#
# number of rings (size 3 to 8) (size 9 to 14) (size 15 to 20)
#    0.000    2.800    4.000    0.000    0.000    0.000 
#    0.000    0.000    0.000   31.200    0.000   33.600 
#    0.000    0.000    0.000    0.000    0.000    0.000 
#
# Total GULP energy -111710.460730 kJ/mol
# GULP energy per Si atom -5585.523037 kJ/mol
# Density = 2.725956 g / cm^3
# Si number density = 27.321741 Si / 1000 Ang^3
#
#
#
# Elastic Constant Matrix: (Units=GPa)
#
#
# Indices 1 2 3 4 5 6 
#
# 1 183.3059 26.6897 120.0200 0.0000 52.7260 0.0000
# 2 26.6897 68.9201 39.6862 0.0000 16.7444 -0.0001
# 3 120.0200 39.6862 251.5954 0.0000 86.3662 0.0000
# 4 0.0000 0.0000 0.0000 24.1105 0.0000 -3.6791
# 5 52.7260 16.7444 86.3662 0.0000 116.2567 0.0000
# 6 0.0000 -0.0001 0.0000 -3.6791 0.0000 36.5190
#
#
#
# Elastic Compliance Matrix: (Units=1/GPa)
#
#
# Indices 1 2 3 4 5 6 
#
# 1 0.008087 -0.000949 -0.003350 0.000000 -0.001042 0.000000
# 2 -0.000949 0.016099 -0.001931 0.000000 -0.000454 0.000000
# 3 -0.003350 -0.001931 0.007061 0.000000 -0.003448 0.000000
# 4 0.000000 0.000000 0.000000 0.042123 0.000000 0.004244
# 5 -0.001042 -0.000454 -0.003448 0.000000 0.011701 0.000000
# 6 0.000000 0.000000 0.000000 0.004244 0.000000 0.027811
#
#
# Mechanical properties :
#
#
# Convention : Reuss Voigt Hill
#
# Bulk Modulus (GPa) = 53.23025 97.40146 75.31586
# Shear Modulus (GPa) = 37.99241 56.53893 47.26567
#
# Velocity S-wave (km/s) = 3.73306 4.55397 4.16380
# Velocity P-wave (km/s) = 6.17301 7.96108 7.12337
#
# Compressibility (1/GPa) = 0.01878631
#
# Stress axis : x y z
#
# Youngs Moduli (GPa) = 123.65614 62.11464 141.62231
#
# Poissons Ratio (x) = 0.05897 0.47448
# Poissons Ratio (y) = 0.11739 0.27344
# Poissons Ratio (z) = 0.41429 0.11993
#
# Static dielectric constant tensor:
#      x y z
#    x 2.102870 0.000000 -0.026520 
#    y 0.000000 2.536680 0.000000 
#    z -0.026520 0.000000 2.120680 
# 
# From -- ./inp_files/150985.got.cif
#   From: 2010.05.17/outbox.cif.g08.bks.cpg/sg15_76_cif.got.tgz:150985.got - 2010.06.03 18:47:42.
