data_PCOD9253394
_publ_section_title
;
Structure prediction by ZEFSAII (Michael W. Deem and Ramdas Pophale) SiO2 
 PCOD9253394
Probable space group: P 21/C
;
_chemical_formula_sum "Si O2"
_cell_formula_units_Z 18
_cell_length_a 14.707123
_cell_length_b 4.936961
_cell_length_c 13.982325
_cell_angle_alpha 90.000000
_cell_angle_beta 139.498982
_cell_angle_gamma 90.000000
_cell_volume 659.356458
_symmetry_space_group_name_H-M "P 21/C"
_symmetry_group_IT_number 14
_symmetry_cell_setting 'monoclinic'
loop_
_space_group_symop_operation_xyz
x,y,z
-x,1/2+y,1/2-z
-x,-y,-z
x,1/2-y,1/2+z
loop_
_atom_site_type_symbol
_atom_site_label
_atom_site_fract_x
_atom_site_fract_y
_atom_site_fract_z
Si Si1 0.950198 0.935405 0.714772
Si Si2 0.620388 0.140682 0.251478
Si Si3 0.500000 0.500000 0.500000
Si Si4 0.624872 0.029094 0.476521
Si Si5 0.936564 0.253232 0.504073
O O1 0.976787 0.679851 0.664814
O O2 0.783981 0.932362 0.603494
O O3 0.026129 0.692837 0.853304
O O4 0.586481 0.090084 0.334610
O O5 0.485262 0.282163 0.087051
O O6 0.768857 0.276763 0.368661
O O7 0.621446 0.892214 0.179120
O O8 0.615111 0.291076 0.534417
O O9 0.000000 0.500000 0.500000
O O10 0.000000 0.000000 0.500000
#
# Coordination Sequence:
#
# PCOD9253394 Si02
#       5
#     4   4   2   4   4
#     4  12  28  51  83 118 166 221 276 344 425 501
#     4  12  28  50  83 117 166 219 277 353 416 505
#     4  12  28  50  82 120 162 216 282 348 422 500
#     4  12  28  51  84 119 168 218 287 346 428 506
#     4  12  29  51  78 119 165 215 279 343 418 505
#
# _framework density 27.299347999999998
#
# number of rings (size 3 to 8) (size 9 to 14) (size 15 to 20)
#    0.000    0.000    4.444    3.333   12.444    0.000 
#    0.000    0.000    0.000    0.000    0.000    0.000 
#    0.000    0.000    0.000    0.000    0.000    0.000 
#
# Total GULP energy -100299.476537 kJ/mol
# GULP energy per Si atom -5572.193141 kJ/mol
# Density = 2.723721 g / cm^3
# Si number density = 27.299348 Si / 1000 Ang^3
#
#
#
# Elastic Constant Matrix: (Units=GPa)
#
#
# Indices 1 2 3 4 5 6 
#
# 1 187.6322 66.9081 108.9509 0.0000 -32.0091 0.0000
# 2 66.9081 205.7274 16.3471 0.0000 13.3314 0.0000
# 3 108.9509 16.3471 149.8133 0.0000 0.5057 0.0000
# 4 0.0000 0.0000 0.0000 43.5440 0.0000 17.8471
# 5 -32.0091 13.3314 0.5057 0.0000 74.2092 0.0000
# 6 0.0000 0.0000 0.0000 17.8471 0.0000 36.8950
#
#
#
# Elastic Compliance Matrix: (Units=1/GPa)
#
#
# Indices 1 2 3 4 5 6 
#
# 1 0.013171 -0.003974 -0.009167 0.000000 0.006457 0.000000
# 2 -0.003974 0.006160 0.002227 0.000000 -0.002836 0.000000
# 3 -0.009167 0.002227 0.013113 0.000000 -0.004443 0.000000
# 4 0.000000 0.000000 0.000000 0.028644 0.000000 -0.013856
# 5 0.006457 -0.002836 -0.004443 0.000000 0.016800 0.000000
# 6 0.000000 0.000000 0.000000 -0.013856 0.000000 0.033806
#
#
# Mechanical properties :
#
#
# Convention : Reuss Voigt Hill
#
# Bulk Modulus (GPa) = 94.17946 103.06501 98.62223
# Shear Modulus (GPa) = 36.48019 54.32742 45.40380
#
# Velocity S-wave (km/s) = 3.65951 4.46585 4.08264
# Velocity P-wave (km/s) = 7.24084 8.02667 7.64386
#
# Compressibility (1/GPa) = 0.01061803
#
# Stress axis : x y z
#
# Youngs Moduli (GPa) = 75.92540 162.34022 76.25832
#
# Poissons Ratio (x) = 0.64507 0.69903
# Poissons Ratio (y) = 0.30170 -0.16984
# Poissons Ratio (z) = 0.69598 -0.36156
#
# Static dielectric constant tensor:
#      x y z
#    x 2.473860 0.000000 -0.061900 
#    y 0.000000 2.708810 0.000000 
#    z -0.061900 0.000000 2.256310 
# 
# From -- ./inp_files/38456.got.cif
#   From: 2010.05.17/outbox.cif.g08.bks.cpg/sg14_20_cif.got.tgz:38456.got - 2010.06.03 17:49:19.
