data_PCOD9253397
_publ_section_title
;
Structure prediction by ZEFSAII (Michael W. Deem and Ramdas Pophale) SiO2 
 PCOD9253397
Probable space group: P 21/C
;
_chemical_formula_sum "Si O2"
_cell_formula_units_Z 18
_cell_length_a 9.279029
_cell_length_b 7.659422
_cell_length_c 13.556572
_cell_angle_alpha 90.000000
_cell_angle_beta 48.316658
_cell_angle_gamma 90.000000
_cell_volume 719.566731
_symmetry_space_group_name_H-M "P 21/C"
_symmetry_group_IT_number 14
_symmetry_cell_setting 'monoclinic'
loop_
_space_group_symop_operation_xyz
x,y,z
-x,1/2+y,1/2-z
-x,-y,-z
x,1/2-y,1/2+z
loop_
_atom_site_type_symbol
_atom_site_label
_atom_site_fract_x
_atom_site_fract_y
_atom_site_fract_z
Si Si1 0.440432 0.144857 0.310585
Si Si2 0.784394 0.492880 0.555480
Si Si3 0.895644 0.515176 0.151682
Si Si4 0.849848 0.226430 0.843230
Si Si5 0.500000 0.500000 0.000000
O O1 0.327106 0.325379 0.378277
O O2 0.325091 0.053700 0.273143
O O3 0.659110 0.150379 0.172204
O O4 0.432095 0.034956 0.414798
O O5 0.788238 0.435723 0.440032
O O6 0.000000 0.500000 0.500000
O O7 0.925768 0.348050 0.206133
O O8 0.984109 0.675686 0.172187
O O9 0.000000 0.500000 0.000000
O O10 0.672495 0.355370 0.907756
#
# Coordination Sequence:
#
# PCOD9253397 Si02
#       5
#     4   4   4   4   2
#     4  12  28  51  85 123 177 224 299 363 446 522
#     4  12  29  53  87 126 171 235 292 371 440 529
#     4  12  29  55  84 130 176 231 296 370 440 537
#     4  12  30  50  90 124 176 234 297 362 451 528
#     4  12  28  50  86 124 174 228 296 362 440 536
#
# _framework density 25.015052000000001
#
# number of rings (size 3 to 8) (size 9 to 14) (size 15 to 20)
#    0.000    0.000    4.444    2.667    9.333    7.111 
#    0.000    0.000    0.000    0.000    0.000    0.000 
#    0.000    0.000    0.000    0.000    0.000    0.000 
#
# Total GULP energy -100544.968529 kJ/mol
# GULP energy per Si atom -5585.831585 kJ/mol
# Density = 2.495812 g / cm^3
# Si number density = 25.015052 Si / 1000 Ang^3
#
#
#
# Elastic Constant Matrix: (Units=GPa)
#
#
# Indices 1 2 3 4 5 6 
#
# 1 157.5446 57.8861 70.1089 0.0000 7.3231 0.0000
# 2 57.8861 83.5205 62.9569 0.0000 6.7797 0.0000
# 3 70.1089 62.9569 158.5744 0.0000 12.6449 0.0000
# 4 0.0000 0.0000 0.0000 57.8101 0.0000 0.0621
# 5 7.3231 6.7797 12.6449 0.0000 54.0795 0.0000
# 6 0.0000 0.0000 0.0000 0.0621 0.0000 45.5256
#
#
#
# Elastic Compliance Matrix: (Units=1/GPa)
#
#
# Indices 1 2 3 4 5 6 
#
# 1 0.009001 -0.004617 -0.002135 0.000000 -0.000141 0.000000
# 2 -0.004617 0.019472 -0.005650 0.000000 -0.000495 0.000000
# 3 -0.002135 -0.005650 0.009593 0.000000 -0.001246 0.000000
# 4 0.000000 0.000000 0.000000 0.017298 0.000000 -0.000024
# 5 -0.000141 -0.000495 -0.001246 0.000000 0.018864 0.000000
# 6 0.000000 0.000000 0.000000 -0.000024 0.000000 0.021966
#
#
# Mechanical properties :
#
#
# Convention : Reuss Voigt Hill
#
# Bulk Modulus (GPa) = 75.40965 86.83816 81.12390
# Shear Modulus (GPa) = 39.86678 45.39554 42.63116
#
# Velocity S-wave (km/s) = 3.99646 4.26458 4.13270
# Velocity P-wave (km/s) = 7.17682 7.68366 7.43456
#
# Compressibility (1/GPa) = 0.01326090
#
# Stress axis : x y z
#
# Youngs Moduli (GPa) = 111.10414 51.35483 104.24762
#
# Poissons Ratio (x) = 0.23712 0.22256
# Poissons Ratio (y) = 0.51301 0.58900
# Poissons Ratio (z) = 0.23720 0.29015
#
# Static dielectric constant tensor:
#      x y z
#    x 1.964610 0.000000 -0.032830 
#    y 0.000000 2.057350 0.000000 
#    z -0.032830 0.000000 1.963350 
# 
# From -- ./inp_files/22955.got.cif
#   From: 2010.05.17/outbox.cif.g08.bks.cpg/sg14_12_cif.got.tgz:22955.got - 2010.06.03 17:49:19.
