data_PCOD9253251
_publ_section_title
;
Structure prediction by ZEFSAII (Michael W. Deem and Ramdas Pophale) SiO2 
 PCOD9253251
Probable space group: P 21/C
;
_chemical_formula_sum "Si O2"
_cell_formula_units_Z 20
_cell_length_a 4.896358
_cell_length_b 21.590977
_cell_length_c 7.382254
_cell_angle_alpha 90.000000
_cell_angle_beta 102.508482
_cell_angle_gamma 90.000000
_cell_volume 761.906533
_symmetry_space_group_name_H-M "P 21/C"
_symmetry_group_IT_number 14
_symmetry_cell_setting 'monoclinic'
loop_
_space_group_symop_operation_xyz
x,y,z
-x,1/2+y,1/2-z
-x,-y,-z
x,1/2-y,1/2+z
loop_
_atom_site_type_symbol
_atom_site_label
_atom_site_fract_x
_atom_site_fract_y
_atom_site_fract_z
Si Si1 0.728582 0.314217 0.530525
Si Si2 0.919561 0.555039 0.852292
Si Si3 0.705170 0.635739 0.255250
Si Si4 0.638822 0.006376 0.824430
Si Si5 0.281375 0.673595 0.898919
O O1 0.968545 0.354423 0.661934
O O2 0.815532 0.242875 0.566438
O O3 0.690072 0.327128 0.313638
O O4 0.446978 0.330942 0.596983
O O5 0.586764 0.551610 0.802229
O O6 0.062143 0.619783 0.919849
O O7 0.938876 0.464201 0.320675
O O8 0.000000 0.500000 0.000000
O O9 0.640334 0.562848 0.247133
O O10 0.560846 0.664365 0.057635
O O11 0.500000 0.000000 0.000000
#
# Coordination Sequence:
#
# PCOD9253251 Si02
#       5
#     4   4   4   4   4
#     4  12  29  47  74 113 145 206 252 316 375 459
#     4  12  26  46  74 112 147 196 245 312 382 449
#     4  12  28  50  78 110 154 196 257 313 380 451
#     4  12  25  48  77 110 152 196 251 310 382 461
#     4  12  28  50  78 108 159 195 263 309 388 448
#
# _framework density 26.249936999999999
#
# number of rings (size 3 to 8) (size 9 to 14) (size 15 to 20)
#    0.000    0.000    4.000    4.800    2.800    3.200 
#    0.000    0.000    0.000    0.000    0.000    0.000 
#    0.000    0.000    0.000    0.000    0.000    0.000 
#
# Total GULP energy -112279.010621 kJ/mol
# GULP energy per Si atom -5613.950531 kJ/mol
# Density = 2.619019 g / cm^3
# Si number density = 26.249937 Si / 1000 Ang^3
#
#
#
# Elastic Constant Matrix: (Units=GPa)
#
#
# Indices 1 2 3 4 5 6 
#
# 1 93.6853 17.6759 5.3630 0.0000 0.0550 0.0000
# 2 17.6759 156.6329 22.7929 0.0000 -19.1668 0.0000
# 3 5.3630 22.7929 152.3962 0.0000 -23.6372 0.0000
# 4 0.0000 0.0000 0.0000 39.9236 0.0000 -2.4226
# 5 0.0550 -19.1668 -23.6372 0.0000 35.6546 0.0000
# 6 0.0000 0.0000 0.0000 -2.4226 0.0000 41.8320
#
#
#
# Elastic Compliance Matrix: (Units=1/GPa)
#
#
# Indices 1 2 3 4 5 6 
#
# 1 0.010939 -0.001300 -0.000336 0.000000 -0.000939 0.000000
# 2 -0.001300 0.007023 -0.000467 0.000000 0.003468 0.000000
# 3 -0.000336 -0.000467 0.007362 0.000000 0.004630 0.000000
# 4 0.000000 0.000000 0.000000 0.025136 0.000000 0.001456
# 5 -0.000939 0.003468 0.004630 0.000000 0.032982 0.000000
# 6 0.000000 0.000000 0.000000 0.001456 0.000000 0.023989
#
#
# Mechanical properties :
#
#
# Convention : Reuss Voigt Hill
#
# Bulk Modulus (GPa) = 47.35375 54.93090 51.14232
# Shear Modulus (GPa) = 42.13087 47.27419 44.70253
#
# Velocity S-wave (km/s) = 4.01058 4.24834 4.13117
# Velocity P-wave (km/s) = 6.28689 6.71089 6.50235
#
# Compressibility (1/GPa) = 0.02111765
#
# Stress axis : x y z
#
# Youngs Moduli (GPa) = 91.41449 142.38079 135.83987
#
# Poissons Ratio (x) = 0.18516 0.04565
# Poissons Ratio (y) = 0.11888 0.06340
# Poissons Ratio (z) = 0.03072 0.06646
#
# Static dielectric constant tensor:
#      x y z
#    x 2.030960 0.000000 -0.056860 
#    y 0.000000 2.017560 0.000000 
#    z -0.056860 0.000000 2.088630 
# 
# From -- ./inp_files/6047.got.cif
#   From: 2010.05.17/outbox.cif.g08.bks.cpg/sg14_4_cif.got.tgz:6047.got - 2010.06.03 17:49:19.
