data_PCOD9253363
_publ_section_title
;
Structure prediction by ZEFSAII (Michael W. Deem and Ramdas Pophale) SiO2 
 PCOD9253363
Probable space group: P 21/C
;
_chemical_formula_sum "Si O2"
_cell_formula_units_Z 20
_cell_length_a 19.367618
_cell_length_b 5.627001
_cell_length_c 12.804094
_cell_angle_alpha 90.000000
_cell_angle_beta 145.201971
_cell_angle_gamma 90.000000
_cell_volume 796.340416
_symmetry_space_group_name_H-M "P 21/C"
_symmetry_group_IT_number 14
_symmetry_cell_setting 'monoclinic'
loop_
_space_group_symop_operation_xyz
x,y,z
-x,1/2+y,1/2-z
-x,-y,-z
x,1/2-y,1/2+z
loop_
_atom_site_type_symbol
_atom_site_label
_atom_site_fract_x
_atom_site_fract_y
_atom_site_fract_z
Si Si1 0.862169 0.003644 0.291666
Si Si2 0.330337 0.342111 0.001889
Si Si3 0.547315 0.100884 0.168137
Si Si4 0.930702 0.381005 0.664136
Si Si5 0.276759 0.846041 0.242468
O O1 0.803332 0.761253 0.178431
O O2 0.859256 0.163704 0.184026
O O3 0.775872 0.099792 0.276009
O O4 0.000000 0.000000 0.500000
O O5 0.337161 0.530026 0.916212
O O6 0.434900 0.153563 0.103239
O O7 0.360928 0.437622 0.153453
O O8 0.625914 0.324350 0.228270
O O9 0.500000 0.000000 0.000000
O O10 0.842599 0.452972 0.459460
O O11 0.007862 0.623317 0.779647
#
# Coordination Sequence:
#
# PCOD9253363 Si02
#       5
#     4   4   4   4   4
#     4  12  27  49  77 116 159 213 273 335 411 496
#     4  12  29  49  79 113 160 206 277 339 410 500
#     4  12  27  50  78 112 156 211 270 336 421 484
#     4  12  29  48  80 116 164 217 275 336 413 488
#     4  12  27  48  78 111 160 211 267 343 407 490
#
# _framework density 25.114885999999998
#
# number of rings (size 3 to 8) (size 9 to 14) (size 15 to 20)
#    0.000    0.000    4.000    4.200   11.200    1.600 
#    0.000    0.000    0.000    0.000    0.000    0.000 
#    0.000    0.000    0.000    0.000    0.000    0.000 
#
# Total GULP energy -111873.882098 kJ/mol
# GULP energy per Si atom -5593.694105 kJ/mol
# Density = 2.505772 g / cm^3
# Si number density = 25.114886 Si / 1000 Ang^3
#
#
#
# Elastic Constant Matrix: (Units=GPa)
#
#
# Indices 1 2 3 4 5 6 
#
# 1 93.3715 11.6107 32.2213 0.0000 -16.8369 0.0000
# 2 11.6107 61.8797 41.7826 0.0000 0.6918 0.0000
# 3 32.2213 41.7826 170.5235 0.0000 -25.8468 0.0000
# 4 0.0000 0.0000 0.0000 42.9342 0.0000 -6.5389
# 5 -16.8369 0.6918 -25.8468 0.0000 50.0293 0.0000
# 6 0.0000 0.0000 0.0000 -6.5389 0.0000 35.4781
#
#
#
# Elastic Compliance Matrix: (Units=1/GPa)
#
#
# Indices 1 2 3 4 5 6 
#
# 1 0.011965 -0.001310 -0.001439 0.000000 0.003301 0.000000
# 2 -0.001310 0.019917 -0.005144 0.000000 -0.003374 0.000000
# 3 -0.001439 -0.005144 0.007957 0.000000 0.003698 0.000000
# 4 0.000000 0.000000 0.000000 0.023964 0.000000 0.004417
# 5 0.003301 -0.003374 0.003698 0.000000 0.023056 0.000000
# 6 0.000000 0.000000 0.000000 0.004417 0.000000 0.029000
#
#
# Mechanical properties :
#
#
# Convention : Reuss Voigt Hill
#
# Bulk Modulus (GPa) = 41.57615 55.22264 48.39940
# Shear Modulus (GPa) = 35.80005 41.69899 38.74952
#
# Velocity S-wave (km/s) = 3.77961 4.07913 3.93223
# Velocity P-wave (km/s) = 5.96972 6.64993 6.31898
#
# Compressibility (1/GPa) = 0.02405225
#
# Stress axis : x y z
#
# Youngs Moduli (GPa) = 83.57848 50.20750 125.67235
#
# Poissons Ratio (x) = 0.06577 0.18090
# Poissons Ratio (y) = 0.10948 0.64647
# Poissons Ratio (z) = 0.12031 0.25827
#
# Static dielectric constant tensor:
#      x y z
#    x 2.049620 0.000000 0.071080 
#    y 0.000000 2.078080 0.000000 
#    z 0.071080 0.000000 2.004790 
# 
# From -- ./inp_files/49778.got.cif
#   From: 2010.05.17/outbox.cif.g08.bks.cpg/sg14_25_cif.got.tgz:49778.got - 2010.06.03 17:49:19.
