data_PCOD9253589
_publ_section_title
;
Structure prediction by ZEFSAII (Michael W. Deem and Ramdas Pophale) SiO2 
 PCOD9253589
Probable space group: P 21/C
;
_chemical_formula_sum "Si O2"
_cell_formula_units_Z 32
_cell_length_a 21.000000
_cell_length_b 9.000000
_cell_length_c 9.000000
_cell_angle_alpha 90.000000
_cell_angle_beta 100.000000
_cell_angle_gamma 90.000000
_cell_volume 1675.157988
_symmetry_space_group_name_H-M "P 21/C"
_symmetry_group_IT_number 14
_symmetry_cell_setting 'monoclinic'
loop_
_space_group_symop_operation_xyz
x,y,z
-x,1/2+y,1/2-z
-x,-y,-z
x,1/2-y,1/2+z
loop_
_atom_site_type_symbol
_atom_site_label
_atom_site_fract_x
_atom_site_fract_y
_atom_site_fract_z
Si Si1 0.246762 0.692372 0.432018
Si Si2 0.995178 0.341581 0.920981
Si Si3 0.371592 0.599804 0.003388
Si Si4 0.398994 0.181524 0.689726
Si Si5 0.445043 0.825839 0.224110
Si Si6 0.950094 0.907215 0.879404
Si Si7 0.635435 0.958006 0.004606
Si Si8 0.855320 0.174973 0.847693
O O1 0.299981 0.825799 0.476153
O O2 0.298331 0.553885 0.444266
O O3 0.194239 0.655739 0.536775
O O4 0.195346 0.745982 0.285686
O O5 0.921340 0.274345 0.901133
O O6 0.014886 0.361695 0.758327
O O7 0.000000 0.500000 0.000000
O O8 0.050710 0.241740 0.022789
O O9 0.373231 0.429821 0.051940
O O10 0.414862 0.672732 0.152375
O O11 0.407342 0.628293 0.860143
O O12 0.478055 0.186796 0.718324
O O13 0.365827 0.336480 0.628448
O O14 0.380904 0.121234 0.846009
O O15 0.421973 0.933269 0.078964
O O16 0.888100 0.013208 0.825002
O O17 0.000000 0.000000 0.000000
#
# Coordination Sequence:
#
# PCOD9253589 Si02
#       8
#     4   4   4   4   4   4   4   4
#     4  11  23  42  61  86 120 168 210 240 296 374
#     4  11  21  39  65  97 128 156 197 260 310 347
#     4  11  22  38  61  87 121 159 203 259 304 366
#     4  12  22  39  60  87 119 158 203 266 324 362
#     4  11  21  38  61  90 116 156 207 258 322 378
#     4  10  21  38  62  96 127 159 201 249 298 350
#     4  11  24  39  59  87 123 160 205 262 310 370
#     4  11  22  41  66  88 121 166 203 240 295 373
#
# _framework density 19.102675999999999
#
# number of rings (size 3 to 8) (size 9 to 14) (size 15 to 20)
#    0.000    1.000    0.000   10.500    0.000    0.000 
#    0.000    6.250    0.000    0.000    0.000    0.000 
#    0.000    0.000    0.000    0.000    0.000    0.000 
#
# Total GULP energy -178311.310615 kJ/mol
# GULP energy per Si atom -5572.228457 kJ/mol
# Density = 1.905920 g / cm^3
# Si number density = 19.102676 Si / 1000 Ang^3
#
#
#
# Elastic Constant Matrix: (Units=GPa)
#
#
# Indices 1 2 3 4 5 6 
#
# 1 147.7105 36.6933 32.2678 0.0000 12.8877 0.0000
# 2 36.6933 110.9483 27.7646 0.0000 17.5154 0.0000
# 3 32.2678 27.7646 94.8027 0.0000 -2.6138 0.0000
# 4 0.0000 0.0000 0.0000 43.1561 0.0000 6.8980
# 5 12.8877 17.5154 -2.6138 0.0000 38.5051 0.0000
# 6 0.0000 0.0000 0.0000 6.8980 0.0000 28.4175
#
#
#
# Elastic Compliance Matrix: (Units=1/GPa)
#
#
# Indices 1 2 3 4 5 6 
#
# 1 0.007859 -0.001728 -0.002224 0.000000 -0.001996 0.000000
# 2 -0.001728 0.011004 -0.002762 0.000000 -0.004615 0.000000
# 3 -0.002224 -0.002762 0.012192 0.000000 0.002828 0.000000
# 4 0.000000 0.000000 0.000000 0.024107 0.000000 -0.005852
# 5 -0.001996 -0.004615 0.002828 0.000000 0.028930 0.000000
# 6 0.000000 0.000000 0.000000 -0.005852 0.000000 0.036610
#
#
# Mechanical properties :
#
#
# Convention : Reuss Voigt Hill
#
# Bulk Modulus (GPa) = 56.72729 60.76809 58.74769
# Shear Modulus (GPa) = 35.71281 39.13146 37.42213
#
# Velocity S-wave (km/s) = 4.32848 4.53092 4.43086
# Velocity P-wave (km/s) = 7.39875 7.69758 7.54964
#
# Compressibility (1/GPa) = 0.01762820
#
# Stress axis : x y z
#
# Youngs Moduli (GPa) = 127.24063 90.87336 82.02018
#
# Poissons Ratio (x) = 0.15699 0.18242
# Poissons Ratio (y) = 0.21982 0.22654
# Poissons Ratio (z) = 0.28299 0.25099
#
# Static dielectric constant tensor:
#      x y z
#    x 1.612190 0.000000 -0.029300 
#    y 0.000000 1.769290 0.000000 
#    z -0.029300 0.000000 1.744620 
# 
# From -- ./inp_files/18629.got.cif
#   From: 2010.05.17/outbox.ucp.g08.bks.cvg/sg14_10_cif.got.tgz:18629.got - 2010.06.11 12:31:08.
