data_PCOD9253494
_publ_section_title
;
Structure prediction by ZEFSAII (Michael W. Deem and Ramdas Pophale) SiO2 
 PCOD9253494
Probable space group: P 21/C
;
_chemical_formula_sum "Si O2"
_cell_formula_units_Z 24
_cell_length_a 12.000000
_cell_length_b 12.000000
_cell_length_c 9.000000
_cell_angle_alpha 90.000000
_cell_angle_beta 110.000000
_cell_angle_gamma 90.000000
_cell_volume 1217.841637
_symmetry_space_group_name_H-M "P 21/C"
_symmetry_group_IT_number 14
_symmetry_cell_setting 'monoclinic'
loop_
_space_group_symop_operation_xyz
x,y,z
-x,1/2+y,1/2-z
-x,-y,-z
x,1/2-y,1/2+z
loop_
_atom_site_type_symbol
_atom_site_label
_atom_site_fract_x
_atom_site_fract_y
_atom_site_fract_z
Si Si1 0.135116 0.454841 0.427810
Si Si2 0.938072 0.422933 0.092075
Si Si3 0.990741 0.325536 0.605705
Si Si4 0.196811 0.372385 0.902321
Si Si5 0.592290 0.902578 0.021901
Si Si6 0.654755 0.739856 0.288187
O O1 0.090486 0.381401 0.545343
O O2 0.267322 0.433350 0.431481
O O3 0.033919 0.424954 0.265497
O O4 0.114746 0.585128 0.446702
O O5 0.822523 0.495018 0.084645
O O6 0.935525 0.294244 0.045958
O O7 0.000000 0.500000 0.000000
O O8 0.066990 0.325860 0.793973
O O9 0.285669 0.337523 0.810972
O O10 0.248382 0.310641 0.071366
O O11 0.576440 0.830551 0.865975
O O12 0.580775 0.827573 0.161571
O O13 0.500000 0.000000 0.000000
#
# Coordination Sequence:
#
# PCOD9253494 Si02
#       6
#     4   4   4   4   4   4
#     4  10  22  37  60  86 125 163 198 248 304 360
#     4  11  22  32  57  96 127 164 201 243 303 374
#     4  10  21  36  56  91 129 160 197 244 304 363
#     4  10  19  36  61  93 122 167 202 242 307 376
#     4  11  23  43  66  90 116 163 216 258 310 366
#     4  10  21  40  67  87 124 165 204 256 310 378
#
# _framework density 19.706996
#
# number of rings (size 3 to 8) (size 9 to 14) (size 15 to 20)
#    0.000    1.667    1.667    4.000    7.000    0.000 
#    0.000    8.333    0.000    0.000    0.000    0.000 
#    0.000    0.000    0.000    0.000    0.000    0.000 
#
# Total GULP energy -133687.767636 kJ/mol
# GULP energy per Si atom -5570.323651 kJ/mol
# Density = 1.966214 g / cm^3
# Si number density = 19.706996 Si / 1000 Ang^3
#
#
#
# Elastic Constant Matrix: (Units=GPa)
#
#
# Indices 1 2 3 4 5 6 
#
# 1 60.2275 50.5344 26.7892 0.0000 -9.9639 0.0000
# 2 50.5344 197.9944 51.8332 0.0000 -17.5895 0.0000
# 3 26.7892 51.8332 83.1568 0.0000 -27.9352 0.0000
# 4 0.0000 0.0000 0.0000 29.2146 0.0000 3.5475
# 5 -9.9639 -17.5895 -27.9352 0.0000 6.9309 0.0000
# 6 0.0000 0.0000 0.0000 3.5475 0.0000 39.1911
#
#
#
# Elastic Compliance Matrix: (Units=1/GPa)
#
#
# Indices 1 2 3 4 5 6 
#
# 1 0.022203 -0.004543 -0.007143 0.000000 -0.008401 0.000000
# 2 -0.004543 0.006965 -0.002446 0.000000 0.001284 0.000000
# 3 -0.007143 -0.002446 -0.029142 0.000000 -0.133936 0.000000
# 4 0.000000 0.000000 0.000000 0.034610 0.000000 -0.003133
# 5 -0.008401 0.001284 -0.133936 0.000000 -0.404372 0.000000
# 6 0.000000 0.000000 0.000000 -0.003133 0.000000 0.025800
#
#
# Mechanical properties :
#
#
# Convention : Reuss Voigt Hill
#
# Bulk Modulus (GPa) = -35.41125 66.63249 15.61062
# Shear Modulus (GPa) = -15.38060 29.21544 6.91742
#
# Velocity S-wave (km/s) = -2.79671 3.85449 1.87557
# Velocity P-wave (km/s) = 5.33260 7.32765 3.55372
#
# Compressibility (1/GPa) = -0.02823961
#
# Stress axis : x y z
#
# Youngs Moduli (GPa) = 45.03856 143.58083 -34.31432
#
# Poissons Ratio (x) = 0.65233 -0.24510
# Poissons Ratio (y) = 0.20462 -0.08395
# Poissons Ratio (z) = 0.32171 0.35125
#
# Static dielectric constant tensor:
#      x y z
#    x 1.665900 0.000000 -0.070460 
#    y 0.000000 1.794710 0.000000 
#    z -0.070460 0.000000 1.596440 
# 
# From -- ./inp_files/12511.got.cif
#   From: 2010.05.17/outbox.ucp.g08.bks.cvg/sg14_7_cif.got.tgz:12511.got - 2010.06.11 12:31:08.
