data_PCOD9253545
_publ_section_title
;
Structure prediction by ZEFSAII (Michael W. Deem and Ramdas Pophale) SiO2 
 PCOD9253545
Probable space group: P 21/C
;
_chemical_formula_sum "Si O2"
_cell_formula_units_Z 28
_cell_length_a 9.000000
_cell_length_b 12.000000
_cell_length_c 15.000000
_cell_angle_alpha 90.000000
_cell_angle_beta 100.000000
_cell_angle_gamma 90.000000
_cell_volume 1595.388560
_symmetry_space_group_name_H-M "P 21/C"
_symmetry_group_IT_number 14
_symmetry_cell_setting 'monoclinic'
loop_
_space_group_symop_operation_xyz
x,y,z
-x,1/2+y,1/2-z
-x,-y,-z
x,1/2-y,1/2+z
loop_
_atom_site_type_symbol
_atom_site_label
_atom_site_fract_x
_atom_site_fract_y
_atom_site_fract_z
Si Si1 0.093771 0.574608 0.284963
Si Si2 0.586170 0.830559 0.718525
Si Si3 0.226880 0.751123 0.931501
Si Si4 0.779334 0.443931 0.217677
Si Si5 0.241785 0.730954 0.150340
Si Si6 0.348706 0.097688 0.878451
Si Si7 0.459188 0.120117 0.084392
O O1 0.109103 0.664314 0.368824
O O2 0.138377 0.647627 0.200937
O O3 0.213136 0.477057 0.324148
O O4 0.936050 0.510735 0.252232
O O5 0.408219 0.823119 0.677580
O O6 0.643939 0.716289 0.674197
O O7 0.600329 0.828081 0.828651
O O8 0.659876 0.951397 0.699953
O O9 0.221660 0.634846 0.872645
O O10 0.390351 0.810431 0.929641
O O11 0.207753 0.740477 0.038661
O O12 0.757300 0.351433 0.296203
O O13 0.489227 0.008183 0.888027
O O14 0.349511 0.120423 0.986193
#
# Coordination Sequence:
#
# PCOD9253545 Si02
#       7
#     4   4   4   4   4   4   4
#     4  10  24  44  64  90 133 173 200 270 317 384
#     4  12  22  38  66  96 122 169 210 269 315 370
#     4  10  22  43  65  92 127 165 212 270 317 377
#     4  11  26  42  63  96 134 165 215 259 325 388
#     4  11  23  43  68  91 128 167 217 266 318 368
#     4  10  21  38  63  89 125 160 220 252 319 370
#     4  10  20  38  65  93 120 163 213 273 308 368
#
# _framework density 17.550583
#
# number of rings (size 3 to 8) (size 9 to 14) (size 15 to 20)
#    0.000    1.429    5.714    0.857    8.000    1.714 
#    2.571    0.000    0.000    0.000    0.000    0.000 
#    0.000    0.000    0.000    0.000    0.000    0.000 
#
# Total GULP energy -155934.650723 kJ/mol
# GULP energy per Si atom -5569.094669 kJ/mol
# Density = 1.751064 g / cm^3
# Si number density = 17.550583 Si / 1000 Ang^3
#
#
#
# Elastic Constant Matrix: (Units=GPa)
#
#
# Indices 1 2 3 4 5 6 
#
# 1 71.8861 54.0241 31.7281 0.0000 7.2565 0.0000
# 2 54.0241 168.7495 73.0122 0.0000 -1.8573 0.0000
# 3 31.7281 73.0122 185.2592 0.0000 -12.1786 0.0000
# 4 0.0000 0.0000 0.0000 45.6561 0.0000 0.2546
# 5 7.2565 -1.8573 -12.1786 0.0000 20.8147 0.0000
# 6 0.0000 0.0000 0.0000 0.2546 0.0000 40.0630
#
#
#
# Elastic Compliance Matrix: (Units=1/GPa)
#
#
# Indices 1 2 3 4 5 6 
#
# 1 0.019786 -0.005692 -0.001697 0.000000 -0.008399 0.000000
# 2 -0.005692 0.008804 -0.002405 0.000000 0.001363 0.000000
# 3 -0.001697 -0.002405 0.006928 0.000000 0.004430 0.000000
# 4 0.000000 0.000000 0.000000 0.021904 0.000000 -0.000139
# 5 -0.008399 0.001363 0.004430 0.000000 0.053685 0.000000
# 6 0.000000 0.000000 0.000000 -0.000139 0.000000 0.024962
#
#
# Mechanical properties :
#
#
# Convention : Reuss Voigt Hill
#
# Bulk Modulus (GPa) = 62.78382 82.60261 72.69321
# Shear Modulus (GPa) = 31.06232 39.11546 35.08889
#
# Velocity S-wave (km/s) = 4.21155 4.72606 4.47620
# Velocity P-wave (km/s) = 7.71364 8.77203 8.25981
#
# Compressibility (1/GPa) = 0.01592767
#
# Stress axis : x y z
#
# Youngs Moduli (GPa) = 50.54129 113.58488 144.34790
#
# Poissons Ratio (x) = 0.64657 0.24500
# Poissons Ratio (y) = 0.28770 0.34719
# Poissons Ratio (z) = 0.08578 0.27320
#
# Static dielectric constant tensor:
#      x y z
#    x 1.640630 0.000000 -0.016080 
#    y 0.000000 1.607880 0.000000 
#    z -0.016080 0.000000 1.619820 
# 
# From -- ./inp_files/39749.got.cif
#   From: 2010.05.17/outbox.ucp.g08.bks.cvg/sg14_20_cif.got.tgz:39749.got - 2010.06.11 12:31:08.
