data_PCOD9253672
_publ_section_title
;
Structure prediction by ZEFSAII (Michael W. Deem and Ramdas Pophale) SiO2 
 PCOD9253672
Probable space group: P 21/C
;
_chemical_formula_sum "Si O2"
_cell_formula_units_Z 32
_cell_length_a 12.000000
_cell_length_b 12.000000
_cell_length_c 12.000000
_cell_angle_alpha 90.000000
_cell_angle_beta 110.000000
_cell_angle_gamma 90.000000
_cell_volume 1623.788849
_symmetry_space_group_name_H-M "P 21/C"
_symmetry_group_IT_number 14
_symmetry_cell_setting 'monoclinic'
loop_
_space_group_symop_operation_xyz
x,y,z
-x,1/2+y,1/2-z
-x,-y,-z
x,1/2-y,1/2+z
loop_
_atom_site_type_symbol
_atom_site_label
_atom_site_fract_x
_atom_site_fract_y
_atom_site_fract_z
Si Si1 0.521516 0.787696 0.626532
Si Si2 0.294646 0.342923 0.988408
Si Si3 0.935010 0.952817 0.651034
Si Si4 0.013282 0.399207 0.591182
Si Si5 0.083171 0.660333 0.010060
Si Si6 0.717076 0.863190 0.870698
Si Si7 0.670858 0.445824 0.851180
Si Si8 0.523980 0.471395 0.382090
O O1 0.583423 0.819235 0.532246
O O2 0.622917 0.808505 0.753819
O O3 0.413413 0.872129 0.600204
O O4 0.479415 0.661597 0.628817
O O5 0.196772 0.403144 0.879021
O O6 0.261399 0.221371 0.020190
O O7 0.304926 0.432117 0.090867
O O8 0.009249 0.938005 0.789275
O O9 0.986745 0.879234 0.567397
O O10 0.929626 0.079041 0.602319
O O11 0.153216 0.374641 0.634217
O O12 0.000000 0.500000 0.500000
O O13 0.939501 0.288528 0.531351
O O14 0.207378 0.623818 0.110259
O O15 0.648233 0.975082 0.884421
O O16 0.586762 0.469924 0.717961
O O17 0.500000 0.500000 0.500000
#
# Coordination Sequence:
#
# PCOD9253672 Si02
#       8
#     4   4   4   4   4   4   4   4
#     4  11  22  40  64  91 132 169 213 268 324 399
#     4  11  19  41  67  90 126 177 214 264 328 404
#     4  10  23  43  69  96 130 179 228 277 340 404
#     4  12  27  43  68 103 134 176 229 286 341 402
#     4  10  24  46  68  95 137 178 225 278 345 408
#     4  11  23  40  64  95 131 165 219 277 324 403
#     4  10  24  41  61  97 131 173 219 265 335 395
#     4  11  23  39  63  97 129 170 218 273 332 385
#
# _framework density 19.706996
#
# number of rings (size 3 to 8) (size 9 to 14) (size 15 to 20)
#    0.000    1.250    5.000    0.375    3.500    1.000 
#    0.000    0.000    0.000    0.000    0.000    0.000 
#    0.000    0.000    0.000    0.000    0.000    0.000 
#
# Total GULP energy -178361.348138 kJ/mol
# GULP energy per Si atom -5573.792129 kJ/mol
# Density = 1.966214 g / cm^3
# Si number density = 19.706996 Si / 1000 Ang^3
#
#
#
# Elastic Constant Matrix: (Units=GPa)
#
#
# Indices 1 2 3 4 5 6 
#
# 1 62.1665 21.7124 -1.9290 0.0000 3.7910 0.0000
# 2 21.7124 92.3798 9.4380 0.0000 1.3066 0.0000
# 3 -1.9290 9.4380 51.1162 0.0000 0.0651 0.0000
# 4 0.0000 0.0000 0.0000 69.9086 0.0000 57.0156
# 5 3.7910 1.3066 0.0651 0.0000 18.2729 0.0000
# 6 0.0000 0.0000 0.0000 57.0156 0.0000 86.7317
#
#
#
# Elastic Compliance Matrix: (Units=1/GPa)
#
#
# Indices 1 2 3 4 5 6 
#
# 1 0.017839 -0.004295 0.001471 0.000000 -0.003399 0.000000
# 2 -0.004295 0.012078 -0.002392 0.000000 0.000036 0.000000
# 3 0.001471 -0.002392 0.020061 0.000000 -0.000205 0.000000
# 4 0.000000 0.000000 0.000000 0.030838 0.000000 -0.020272
# 5 -0.003399 0.000036 -0.000205 0.000000 0.055429 0.000000
# 6 0.000000 0.000000 0.000000 -0.020272 0.000000 0.024856
#
#
# Mechanical properties :
#
#
# Convention : Reuss Voigt Hill
#
# Bulk Modulus (GPa) = 25.28794 29.34504 27.31649
# Shear Modulus (GPa) = 27.06862 46.74537 36.90699
#
# Velocity S-wave (km/s) = 3.71017 4.87562 4.33227
# Velocity P-wave (km/s) = 5.58692 6.82778 6.23828
#
# Compressibility (1/GPa) = 0.03954453
#
# Stress axis : x y z
#
# Youngs Moduli (GPa) = 56.05767 82.79371 49.84864
#
# Poissons Ratio (x) = 0.35559 -0.07330
# Poissons Ratio (y) = 0.24076 0.11925
# Poissons Ratio (z) = -0.08243 0.19806
#
# Static dielectric constant tensor:
#      x y z
#    x 1.621980 0.000000 -0.006030 
#    y 0.000000 1.654700 0.000000 
#    z -0.006030 0.000000 1.779790 
# 
# From -- ./inp_files/29411.got.cif
#   From: 2010.05.17/outbox.ucp.g08.bks.cvg/sg14_15_cif.got.tgz:29411.got - 2010.06.11 12:31:08.
