data_PCOD9253250
_publ_section_title
;
Structure prediction by ZEFSAII (Michael W. Deem and Ramdas Pophale) SiO2 
 PCOD9253250
Probable space group: P 21/C
;
_chemical_formula_sum "Si O2"
_cell_formula_units_Z 24
_cell_length_a 12.848287
_cell_length_b 8.933045
_cell_length_c 16.295152
_cell_angle_alpha 90.000000
_cell_angle_beta 146.752188
_cell_angle_gamma 90.000000
_cell_volume 1025.393955
_symmetry_space_group_name_H-M "P 21/C"
_symmetry_group_IT_number 14
_symmetry_cell_setting 'monoclinic'
loop_
_space_group_symop_operation_xyz
x,y,z
-x,1/2+y,1/2-z
-x,-y,-z
x,1/2-y,1/2+z
loop_
_atom_site_type_symbol
_atom_site_label
_atom_site_fract_x
_atom_site_fract_y
_atom_site_fract_z
Si Si1 0.180536 0.555513 0.354584
Si Si2 0.488225 0.295066 0.348624
Si Si3 0.068806 0.384580 0.114936
Si Si4 0.882662 0.350898 0.404874
Si Si5 0.111185 0.244815 0.896116
Si Si6 0.477048 0.051992 0.669345
O O1 0.381210 0.639475 0.492649
O O2 0.115902 0.475336 0.227780
O O3 0.176911 0.420363 0.415960
O O4 0.021352 0.682599 0.261100
O O5 0.266400 0.303464 0.223487
O O6 0.512747 0.406578 0.287733
O O7 0.539016 0.124557 0.358512
O O8 0.000000 0.500000 0.000000
O O9 0.908900 0.257283 0.000852
O O10 0.663156 0.387115 0.245273
O O11 0.000000 0.500000 0.500000
O O12 0.982727 0.275551 0.392407
O O13 0.288690 0.355099 0.023721
#
# Coordination Sequence:
#
# PCOD9253250 Si02
#       6
#     4   4   4   4   4   4
#     4  12  28  46  75 107 158 193 252 316 372 447
#     4  12  26  47  74 115 149 199 254 307 382 446
#     4  12  26  48  75 104 149 196 253 300 378 447
#     4  12  25  48  77 108 144 196 252 301 370 454
#     4  12  28  50  72 115 147 198 247 311 382 439
#     4  12  26  47  81 108 152 202 250 309 378 452
#
# _framework density 23.405638
#
# number of rings (size 3 to 8) (size 9 to 14) (size 15 to 20)
#    0.000    0.000    5.000    3.500   11.667    1.333 
#    0.000    2.500    0.000    0.000    0.000    0.000 
#    0.000    0.000    0.000    0.000    0.000    0.000 
#
# Total GULP energy -134328.423653 kJ/mol
# GULP energy per Si atom -5597.017652 kJ/mol
# Density = 2.335237 g / cm^3
# Si number density = 23.405638 Si / 1000 Ang^3
#
#
#
# Elastic Constant Matrix: (Units=GPa)
#
#
# Indices 1 2 3 4 5 6 
#
# 1 71.3881 30.8211 27.7932 0.0000 13.7127 0.0000
# 2 30.8211 146.8025 46.1350 0.0000 3.1504 0.0000
# 3 27.7932 46.1350 128.4967 0.0000 10.5074 0.0000
# 4 0.0000 0.0000 0.0000 57.0395 0.0000 8.1915
# 5 13.7127 3.1504 10.5074 0.0000 40.0118 0.0000
# 6 0.0000 0.0000 0.0000 8.1915 0.0000 29.5424
#
#
#
# Elastic Compliance Matrix: (Units=1/GPa)
#
#
# Indices 1 2 3 4 5 6 
#
# 1 0.017053 -0.002753 -0.002289 0.000000 -0.005027 0.000000
# 2 -0.002753 0.008123 -0.002397 0.000000 0.000933 0.000000
# 3 -0.002289 -0.002397 0.009257 0.000000 -0.001458 0.000000
# 4 0.000000 0.000000 0.000000 0.018259 0.000000 -0.005063
# 5 -0.005027 0.000933 -0.001458 0.000000 0.027025 0.000000
# 6 0.000000 0.000000 0.000000 -0.005063 0.000000 0.035254
#
#
# Mechanical properties :
#
#
# Convention : Reuss Voigt Hill
#
# Bulk Modulus (GPa) = 51.13824 61.79842 56.46833
# Shear Modulus (GPa) = 36.66544 41.44794 39.05669
#
# Velocity S-wave (km/s) = 3.96222 4.21272 4.08939
# Velocity P-wave (km/s) = 6.54434 7.07977 6.81732
#
# Compressibility (1/GPa) = 0.01955484
#
# Stress axis : x y z
#
# Youngs Moduli (GPa) = 58.63978 123.10311 108.02204
#
# Poissons Ratio (x) = 0.33891 0.24727
# Poissons Ratio (y) = 0.16144 0.25897
# Poissons Ratio (z) = 0.13423 0.29513
#
# Static dielectric constant tensor:
#      x y z
#    x 1.948300 0.000000 -0.047240 
#    y 0.000000 1.845360 0.000000 
#    z -0.047240 0.000000 1.898320 
# 
# From -- ./inp_files/59140.got.cif
#   From: 2010.05.17/outbox.cif.g08.bks.cpg/sg14_30_cif.got.tgz:59140.got - 2010.06.03 17:49:19.
