data_PCOD9253044
_publ_section_title
;
Structure prediction by ZEFSAII (Michael W. Deem and Ramdas Pophale) SiO2 
 PCOD9253044
Probable space group: P 21/C
;
_chemical_formula_sum "Si O2"
_cell_formula_units_Z 24
_cell_length_a 8.641203
_cell_length_b 14.341449
_cell_length_c 14.479878
_cell_angle_alpha 90.000000
_cell_angle_beta 141.677477
_cell_angle_gamma 90.000000
_cell_volume 1112.717981
_symmetry_space_group_name_H-M "P 21/C"
_symmetry_group_IT_number 14
_symmetry_cell_setting 'monoclinic'
loop_
_space_group_symop_operation_xyz
x,y,z
-x,1/2+y,1/2-z
-x,-y,-z
x,1/2-y,1/2+z
loop_
_atom_site_type_symbol
_atom_site_label
_atom_site_fract_x
_atom_site_fract_y
_atom_site_fract_z
Si Si1 0.511004 0.814237 0.842592
Si Si2 0.330490 0.407300 0.398060
Si Si3 0.441884 0.362401 0.241062
Si Si4 0.799960 0.985448 0.648938
Si Si5 0.761491 0.959052 0.838786
Si Si6 0.999999 0.907636 0.562031
O O1 0.425240 0.715718 0.759346
O O2 0.266656 0.877243 0.719252
O O3 0.692817 0.863453 0.855083
O O4 0.622644 0.832766 0.997092
O O5 0.500000 0.500000 0.500000
O O6 0.432303 0.368175 0.347519
O O7 0.034294 0.438617 0.252665
O O8 0.548319 0.461866 0.254993
O O9 0.157530 0.341166 0.076867
O O10 0.824248 0.944600 0.761933
O O11 0.500000 0.000000 0.500000
O O12 0.852651 0.920322 0.587345
O O13 0.000000 0.000000 0.000000
O O14 0.000000 0.000000 0.500000
#
# Coordination Sequence:
#
# PCOD9253044 Si02
#       6
#     4   4   4   4   4   4
#     4  12  27  45  74 107 143 199 250 303 368 443
#     4  12  22  49  77 103 147 203 244 300 375 444
#     4  12  27  46  73 107 147 193 249 306 368 445
#     4  12  22  39  78 105 139 191 239 297 373 434
#     4  12  24  44  69 106 148 188 244 305 363 441
#     4  12  22  47  71 101 147 195 240 304 373 436
#
# _framework density 21.568809000000002
#
# number of rings (size 3 to 8) (size 9 to 14) (size 15 to 20)
#    0.000    0.000   10.000    0.000    2.333    1.333 
#    3.000    1.667    0.000    0.000    0.000    0.000 
#    0.000    0.000    0.000    0.000    0.000    0.000 
#
# Total GULP energy -133673.626850 kJ/mol
# GULP energy per Si atom -5569.734452 kJ/mol
# Density = 2.151972 g / cm^3
# Si number density = 21.568809 Si / 1000 Ang^3
#
#
#
# Elastic Constant Matrix: (Units=GPa)
#
#
# Indices 1 2 3 4 5 6 
#
# 1 117.8228 27.8209 36.1444 0.0000 -37.7892 0.0000
# 2 27.8209 82.8318 12.7254 0.0000 -13.3907 0.0000
# 3 36.1444 12.7254 132.0369 0.0000 -11.6534 0.0000
# 4 0.0000 0.0000 0.0000 20.0146 0.0000 1.6367
# 5 -37.7892 -13.3907 -11.6534 0.0000 70.0497 0.0000
# 6 0.0000 0.0000 0.0000 1.6367 0.0000 20.2110
#
#
#
# Elastic Compliance Matrix: (Units=1/GPa)
#
#
# Indices 1 2 3 4 5 6 
#
# 1 0.011571 -0.002650 -0.002442 0.000000 0.005330 0.000000
# 2 -0.002650 0.013197 -0.000457 0.000000 0.001017 0.000000
# 3 -0.002442 -0.000457 0.008284 0.000000 -0.000027 0.000000
# 4 0.000000 0.000000 0.000000 0.050296 0.000000 -0.004073
# 5 0.005330 0.001017 -0.000027 0.000000 0.017341 0.000000
# 6 0.000000 0.000000 0.000000 -0.004073 0.000000 0.049808
#
#
# Mechanical properties :
#
#
# Convention : Reuss Voigt Hill
#
# Bulk Modulus (GPa) = 45.54636 54.00813 49.77725
# Shear Modulus (GPa) = 29.60105 39.12179 34.36142
#
# Velocity S-wave (km/s) = 3.70861 4.26351 3.99570
# Velocity P-wave (km/s) = 6.28498 7.02360 6.66453
#
# Compressibility (1/GPa) = 0.02195565
#
# Stress axis : x y z
#
# Youngs Moduli (GPa) = 86.41954 75.77317 120.71805
#
# Poissons Ratio (x) = 0.20078 0.29478
# Poissons Ratio (y) = 0.22899 0.05514
# Poissons Ratio (z) = 0.21102 0.03461
#
# Static dielectric constant tensor:
#      x y z
#    x 1.745980 0.000000 0.050240 
#    y 0.000000 1.790460 0.000000 
#    z 0.050240 0.000000 1.795170 
# 
# From -- ./inp_files/41334.got.cif
#   From: 2010.05.17/outbox.cif.g08.bks.cpg/sg14_21_cif.got.tgz:41334.got - 2010.06.03 17:49:19.
