data_PCOD9253351
_publ_section_title
;
Structure prediction by ZEFSAII (Michael W. Deem and Ramdas Pophale) SiO2 
 PCOD9253351
Probable space group: P 21/C
;
_chemical_formula_sum "Si O2"
_cell_formula_units_Z 26
_cell_length_a 4.896267
_cell_length_b 10.304165
_cell_length_c 22.720020
_cell_angle_alpha 90.000000
_cell_angle_beta 116.679025
_cell_angle_gamma 90.000000
_cell_volume 1024.232545
_symmetry_space_group_name_H-M "P 21/C"
_symmetry_group_IT_number 14
_symmetry_cell_setting 'monoclinic'
loop_
_space_group_symop_operation_xyz
x,y,z
-x,1/2+y,1/2-z
-x,-y,-z
x,1/2-y,1/2+z
loop_
_atom_site_type_symbol
_atom_site_label
_atom_site_fract_x
_atom_site_fract_y
_atom_site_fract_z
Si Si1 0.551383 0.818537 0.804738
Si Si2 0.500000 0.000000 0.000000
Si Si3 0.145507 0.977483 0.843660
Si Si4 0.043315 0.233703 0.956069
Si Si5 0.878237 0.875273 0.421305
Si Si6 0.593887 0.741525 0.675656
Si Si7 0.350862 0.052533 0.406780
O O1 0.249003 0.881711 0.801453
O O2 0.653563 0.707295 0.859479
O O3 0.536200 0.757610 0.738678
O O4 0.807846 0.932457 0.829058
O O5 0.788227 0.901601 0.024247
O O6 0.621779 0.042211 0.079289
O O7 0.191368 0.123317 0.823767
O O8 0.273191 0.334845 0.946437
O O9 0.729926 0.224379 0.889803
O O10 0.981758 0.281918 0.015996
O O11 0.686211 0.990359 0.434048
O O12 0.129531 0.937362 0.403754
O O13 0.713737 0.877582 0.660885
#
# Coordination Sequence:
#
# PCOD9253351 Si02
#       7
#     4   2   4   4   4   4   4
#     4  12  31  51  80 116 160 218 268 331 404 482
#     4  12  26  52  84 120 164 206 274 340 408 478
#     4  12  29  53  82 115 161 212 273 335 402 484
#     4  12  27  52  81 124 160 212 269 341 408 487
#     4  12  28  50  82 112 161 205 275 323 400 479
#     4  12  31  50  82 116 168 211 271 334 414 482
#     4  12  27  49  77 118 155 212 257 332 394 483
#
# _framework density 25.384861000000001
#
# number of rings (size 3 to 8) (size 9 to 14) (size 15 to 20)
#    0.000    0.000    4.615    2.769   10.769    1.231 
#    0.000    0.000    0.000    0.000    0.000    0.000 
#    0.000    0.000    0.000    0.000    0.000    0.000 
#
# Total GULP energy -145472.705754 kJ/mol
# GULP energy per Si atom -5595.104067 kJ/mol
# Density = 2.532708 g / cm^3
# Si number density = 25.384861 Si / 1000 Ang^3
#
#
#
# Elastic Constant Matrix: (Units=GPa)
#
#
# Indices 1 2 3 4 5 6 
#
# 1 96.0758 41.1881 20.8220 0.0000 -2.4320 0.0000
# 2 41.1881 87.7338 34.2433 0.0000 0.7872 0.0000
# 3 20.8220 34.2433 128.3492 0.0000 3.5610 0.0000
# 4 0.0000 0.0000 0.0000 22.9485 0.0000 -17.3558
# 5 -2.4320 0.7872 3.5610 0.0000 31.5588 0.0000
# 6 0.0000 0.0000 0.0000 -17.3558 0.0000 45.1597
#
#
#
# Elastic Compliance Matrix: (Units=1/GPa)
#
#
# Indices 1 2 3 4 5 6 
#
# 1 0.013111 -0.005942 -0.000576 0.000000 0.001224 0.000000
# 2 -0.005942 0.015416 -0.003135 0.000000 -0.000489 0.000000
# 3 -0.000576 -0.003135 0.008748 0.000000 -0.000953 0.000000
# 4 0.000000 0.000000 0.000000 0.061431 0.000000 0.023609
# 5 0.001224 -0.000489 -0.000953 0.000000 0.031901 0.000000
# 6 0.000000 0.000000 0.000000 0.023609 0.000000 0.031217
#
#
# Mechanical properties :
#
#
# Convention : Reuss Voigt Hill
#
# Bulk Modulus (GPa) = 55.65117 56.07395 55.86256
# Shear Modulus (GPa) = 26.72093 34.32711 30.52402
#
# Velocity S-wave (km/s) = 3.24795 3.68131 3.47140
# Velocity P-wave (km/s) = 6.00301 6.34089 6.17426
#
# Compressibility (1/GPa) = 0.01796907
#
# Stress axis : x y z
#
# Youngs Moduli (GPa) = 76.26952 64.86907 114.31682
#
# Poissons Ratio (x) = 0.38543 0.06582
# Poissons Ratio (y) = 0.45316 0.35843
# Poissons Ratio (z) = 0.04392 0.20339
#
# Static dielectric constant tensor:
#      x y z
#    x 1.970020 0.000000 -0.021760 
#    y 0.000000 2.011730 0.000000 
#    z -0.021760 0.000000 1.971610 
# 
# From -- ./inp_files/63591.got.cif
#   From: 2010.05.17/outbox.cif.g08.bks.cpg/sg14_32_cif.got.tgz:63591.got - 2010.06.03 17:49:19.
