data_PCOD9253299
_publ_section_title
;
Structure prediction by ZEFSAII (Michael W. Deem and Ramdas Pophale) SiO2 
 PCOD9253299
Probable space group: P 21/C
;
_chemical_formula_sum "Si O2"
_cell_formula_units_Z 20
_cell_length_a 12.141371
_cell_length_b 15.090008
_cell_length_c 8.652936
_cell_angle_alpha 90.000000
_cell_angle_beta 33.276510
_cell_angle_gamma 90.000000
_cell_volume 869.841067
_symmetry_space_group_name_H-M "P 21/C"
_symmetry_group_IT_number 14
_symmetry_cell_setting 'monoclinic'
loop_
_space_group_symop_operation_xyz
x,y,z
-x,1/2+y,1/2-z
-x,-y,-z
x,1/2-y,1/2+z
loop_
_atom_site_type_symbol
_atom_site_label
_atom_site_fract_x
_atom_site_fract_y
_atom_site_fract_z
Si Si1 0.546209 0.185986 0.692152
Si Si2 0.309304 0.452283 0.298196
Si Si3 0.215786 0.167254 0.618608
Si Si4 0.820946 0.222939 0.645791
Si Si5 0.019730 0.568081 0.835823
O O1 0.393604 0.106674 0.840334
O O2 0.697964 0.175039 0.655213
O O3 0.680221 0.201317 0.382917
O O4 0.414614 0.274348 0.870694
O O5 0.219649 0.388017 0.272410
O O6 0.149603 0.521128 0.550873
O O7 0.500000 0.500000 0.000000
O O8 0.181114 0.103293 0.512535
O O9 0.026851 0.234008 0.845999
O O10 0.870545 0.153581 0.722106
O O11 0.000000 0.500000 0.000000
#
# Coordination Sequence:
#
# PCOD9253299 Si02
#       5
#     4   4   4   4   4
#     4  12  26  47  78 102 139 194 246 287 353 440
#     4  12  27  48  72 107 148 191 232 302 369 418
#     4  12  26  51  74 101 147 194 240 291 358 435
#     4  12  26  48  74 105 141 191 245 287 355 438
#     4  12  28  44  73 110 143 185 237 305 358 413
#
# _framework density 22.992705999999998
#
# number of rings (size 3 to 8) (size 9 to 14) (size 15 to 20)
#    0.000    0.000    4.000    5.400    8.400    0.800 
#    0.000    0.000    0.000    0.000    0.000    0.000 
#    0.000    0.000    0.000    0.000    0.000    0.000 
#
# Total GULP energy -112124.924852 kJ/mol
# GULP energy per Si atom -5606.246243 kJ/mol
# Density = 2.294037 g / cm^3
# Si number density = 22.992706 Si / 1000 Ang^3
#
#
#
# Elastic Constant Matrix: (Units=GPa)
#
#
# Indices 1 2 3 4 5 6 
#
# 1 156.7978 29.6181 6.2624 0.0000 -15.5380 0.0000
# 2 29.6181 72.2668 10.4862 0.0000 -5.7579 0.0000
# 3 6.2624 10.4862 72.7471 0.0000 -0.6699 0.0000
# 4 0.0000 0.0000 0.0000 30.5740 0.0000 19.0581
# 5 -15.5380 -5.7579 -0.6699 0.0000 27.5951 0.0000
# 6 0.0000 0.0000 0.0000 19.0581 0.0000 47.4968
#
#
#
# Elastic Compliance Matrix: (Units=1/GPa)
#
#
# Indices 1 2 3 4 5 6 
#
# 1 0.007236 -0.002655 -0.000208 0.000000 0.003515 0.000000
# 2 -0.002655 0.015344 -0.001968 0.000000 0.001659 0.000000
# 3 -0.000208 -0.001968 0.014046 0.000000 -0.000187 0.000000
# 4 0.000000 0.000000 0.000000 0.043617 0.000000 -0.017501
# 5 0.003515 0.001659 -0.000187 0.000000 0.038559 0.000000
# 6 0.000000 0.000000 0.000000 -0.017501 0.000000 0.028076
#
#
# Mechanical properties :
#
#
# Convention : Reuss Voigt Hill
#
# Bulk Modulus (GPa) = 37.08704 43.83831 40.46268
# Shear Modulus (GPa) = 30.20639 38.16284 34.18461
#
# Velocity S-wave (km/s) = 3.62848 4.07846 3.86003
# Velocity P-wave (km/s) = 5.80685 6.42542 6.12395
#
# Compressibility (1/GPa) = 0.02696360
#
# Stress axis : x y z
#
# Youngs Moduli (GPa) = 138.20055 65.17377 71.19420
#
# Poissons Ratio (x) = 0.17306 0.01479
# Poissons Ratio (y) = 0.36697 0.14010
# Poissons Ratio (z) = 0.02871 0.12825
#
# Static dielectric constant tensor:
#      x y z
#    x 1.833040 0.000000 0.019130 
#    y 0.000000 1.872210 0.000000 
#    z 0.019130 0.000000 1.814660 
# 
# From -- ./inp_files/5489.got.cif
#   From: 2010.05.17/outbox.cif.g08.bks.cpg/sg14_3_cif.got.tgz:5489.got - 2010.06.03 17:49:19.
