data_PCOD9253077
_publ_section_title
;
Structure prediction by ZEFSAII (Michael W. Deem and Ramdas Pophale) SiO2 
 PCOD9253077
Probable space group: P 21/C
;
_chemical_formula_sum "Si O2"
_cell_formula_units_Z 32
_cell_length_a 24.602973
_cell_length_b 11.514850
_cell_length_c 12.556158
_cell_angle_alpha 90.000000
_cell_angle_beta 155.470492
_cell_angle_gamma 90.000000
_cell_volume 1476.794489
_symmetry_space_group_name_H-M "P 21/C"
_symmetry_group_IT_number 14
_symmetry_cell_setting 'monoclinic'
loop_
_space_group_symop_operation_xyz
x,y,z
-x,1/2+y,1/2-z
-x,-y,-z
x,1/2-y,1/2+z
loop_
_atom_site_type_symbol
_atom_site_label
_atom_site_fract_x
_atom_site_fract_y
_atom_site_fract_z
Si Si1 0.142118 0.861736 0.461491
Si Si2 0.726247 0.382923 0.584430
Si Si3 0.658139 0.734397 0.248628
Si Si4 0.848987 0.899175 0.934036
Si Si5 0.529182 0.925236 0.685821
Si Si6 0.236798 0.605628 0.582530
Si Si7 0.578952 0.157616 0.290162
Si Si8 0.763157 0.538535 0.045099
O O1 0.215515 0.741006 0.568511
O O2 0.160320 0.950816 0.396332
O O3 0.988423 0.840005 0.201058
O O4 0.203171 0.911279 0.679764
O O5 0.589142 0.451961 0.328717
O O6 0.799253 0.413746 0.605061
O O7 0.696769 0.245720 0.525579
O O8 0.735091 0.675616 0.287971
O O9 0.632253 0.642569 0.296483
O O10 0.734005 0.845319 0.428300
O O11 0.516073 0.781959 0.962565
O O12 0.845614 0.023403 0.987521
O O13 0.826489 0.924224 0.769745
O O14 0.389200 0.927987 0.376625
O O15 0.500881 0.857901 0.743973
O O16 0.633884 0.035277 0.347430
#
# Coordination Sequence:
#
# PCOD9253077 Si02
#       8
#     4   4   4   4   4   4   4   4
#     4  12  28  47  74 103 144 198 246 290 352 433
#     4  12  24  45  72 105 142 185 242 294 357 429
#     4  12  26  44  70 113 142 187 237 298 363 429
#     4  12  28  50  74 104 147 197 240 298 352 428
#     4  12  23  42  73 103 144 183 232 300 368 425
#     4  12  24  48  73 104 140 192 242 297 371 416
#     4  12  24  41  74 105 146 182 231 300 363 430
#     4  12  26  48  72 109 146 189 241 293 363 425
#
# _framework density 21.668552999999999
#
# number of rings (size 3 to 8) (size 9 to 14) (size 15 to 20)
#    0.000    0.000    6.250    3.375    3.500    1.500 
#    0.000    0.000    0.000    0.000    0.000    0.000 
#    0.000    0.000    0.000    0.000    0.000    0.000 
#
# Total GULP energy -179050.370841 kJ/mol
# GULP energy per Si atom -5595.324089 kJ/mol
# Density = 2.161923 g / cm^3
# Si number density = 21.668553 Si / 1000 Ang^3
#
#
#
# Elastic Constant Matrix: (Units=GPa)
#
#
# Indices 1 2 3 4 5 6 
#
# 1 60.0804 4.0928 36.6675 0.0000 -27.4703 0.0000
# 2 4.0928 91.5329 26.1027 0.0000 -10.0080 0.0000
# 3 36.6675 26.1027 76.7591 0.0000 -4.1918 0.0000
# 4 0.0000 0.0000 0.0000 17.6240 0.0000 -4.2765
# 5 -27.4703 -10.0080 -4.1918 0.0000 34.4093 0.0000
# 6 0.0000 0.0000 0.0000 -4.2765 0.0000 40.9818
#
#
#
# Elastic Compliance Matrix: (Units=1/GPa)
#
#
# Indices 1 2 3 4 5 6 
#
# 1 0.047898 0.008789 -0.023800 0.000000 0.037896 0.000000
# 2 0.008789 0.014035 -0.008421 0.000000 0.010073 0.000000
# 3 -0.023800 -0.008421 0.026264 0.000000 -0.018250 0.000000
# 4 0.000000 0.000000 0.000000 0.058215 0.000000 0.006075
# 5 0.037896 0.010073 -0.018250 0.000000 0.060022 0.000000
# 6 0.000000 0.000000 0.000000 0.006075 0.000000 0.025035
#
#
# Mechanical properties :
#
#
# Convention : Reuss Voigt Hill
#
# Bulk Modulus (GPa) = 24.19411 40.23314 32.21363
# Shear Modulus (GPa) = 17.11689 29.37031 23.24360
#
# Velocity S-wave (km/s) = 2.81364 3.68562 3.27874
# Velocity P-wave (km/s) = 4.66317 6.05966 5.40670
#
# Compressibility (1/GPa) = 0.04133237
#
# Stress axis : x y z
#
# Youngs Moduli (GPa) = 20.87788 71.25138 38.07519
#
# Poissons Ratio (x) = -0.62621 0.90618
# Poissons Ratio (y) = -0.18349 0.32063
# Poissons Ratio (z) = 0.49689 0.60001
#
# Static dielectric constant tensor:
#      x y z
#    x 1.797040 0.000000 -0.004780 
#    y 0.000000 1.781870 0.000000 
#    z -0.004780 0.000000 1.773730 
# 
# From -- ./inp_files/35939.got.cif
#   From: 2010.05.17/outbox.cif.g08.bks.cpg/sg14_18_cif.got.tgz:35939.got - 2010.06.03 17:49:19.
