data_PCOD9253486
_publ_section_title
;
Structure prediction by ZEFSAII (Michael W. Deem and Ramdas Pophale) SiO2 
 PCOD9253486
Probable space group: P 21/C
;
_chemical_formula_sum "Si O2"
_cell_formula_units_Z 28
_cell_length_a 12.000000
_cell_length_b 24.000000
_cell_length_c 9.000000
_cell_angle_alpha 90.000000
_cell_angle_beta 40.000000
_cell_angle_gamma 90.000000
_cell_volume 1666.105484
_symmetry_space_group_name_H-M "P 21/C"
_symmetry_group_IT_number 14
_symmetry_cell_setting 'monoclinic'
loop_
_space_group_symop_operation_xyz
x,y,z
-x,1/2+y,1/2-z
-x,-y,-z
x,1/2-y,1/2+z
loop_
_atom_site_type_symbol
_atom_site_label
_atom_site_fract_x
_atom_site_fract_y
_atom_site_fract_z
Si Si1 0.053327 0.439564 0.386012
Si Si2 0.958742 0.843555 0.853712
Si Si3 0.551818 0.560560 0.004215
Si Si4 0.743380 0.344070 0.185884
Si Si5 0.755073 0.383522 0.509877
Si Si6 0.249085 0.714564 0.245340
Si Si7 0.452536 0.344671 0.241379
O O1 0.040827 0.396288 0.535898
O O2 0.253219 0.440018 0.133471
O O3 0.000000 0.500000 0.500000
O O4 0.922641 0.417979 0.393621
O O5 0.082213 0.857131 0.587072
O O6 0.075972 0.797962 0.823788
O O7 0.754131 0.829633 0.029278
O O8 0.546126 0.602031 0.868757
O O9 0.500000 0.500000 0.000000
O O10 0.413529 0.582978 0.263105
O O11 0.749377 0.372160 0.341142
O O12 0.744785 0.277792 0.211067
O O13 0.567630 0.357010 0.271109
O O14 0.756141 0.326485 0.606626
O O15 0.422818 0.699534 0.973044
#
# Coordination Sequence:
#
# PCOD9253486 Si02
#       7
#     4   4   4   4   4   4   4
#     4  10  19  35  60  76  99 142 190 224 263 319
#     4   9  20  36  55  79 108 142 181 221 266 321
#     4  10  19  35  60  76  99 142 190 224 263 319
#     4  11  21  35  55  81 121 143 169 228 280 313
#     4  10  20  34  54  86 108 138 184 221 267 326
#     4   9  19  37  57  77 105 149 185 213 255 321
#     4   9  20  36  55  79 108 142 181 221 266 321
#
# _framework density 16.805658999999999
#
# number of rings (size 3 to 8) (size 9 to 14) (size 15 to 20)
#    0.000    2.286    1.429    2.571    0.000    2.286 
#    0.000    7.143    0.000    0.000    0.000    0.000 
#    0.000    0.000    0.000    0.000    0.000    0.000 
#
# Total GULP energy -156055.322261 kJ/mol
# GULP energy per Si atom -5573.404366 kJ/mol
# Density = 1.676741 g / cm^3
# Si number density = 16.805659 Si / 1000 Ang^3
#
#
#
# Elastic Constant Matrix: (Units=GPa)
#
#
# Indices 1 2 3 4 5 6 
#
# 1 126.1521 10.3499 70.7307 0.0000 -25.0217 0.0000
# 2 10.3499 50.0590 15.3189 0.0000 -17.5916 0.0000
# 3 70.7307 15.3189 121.1239 0.0000 -26.5352 0.0000
# 4 0.0000 0.0000 0.0000 14.4189 0.0000 -5.9277
# 5 -25.0217 -17.5916 -26.5352 0.0000 41.5187 0.0000
# 6 0.0000 0.0000 0.0000 -5.9277 0.0000 14.8609
#
#
#
# Elastic Compliance Matrix: (Units=1/GPa)
#
#
# Indices 1 2 3 4 5 6 
#
# 1 0.012170 0.000686 -0.006422 0.000000 0.003521 0.000000
# 2 0.000686 0.023598 -0.001284 0.000000 0.009592 0.000000
# 3 -0.006422 -0.001284 0.013025 0.000000 0.003910 0.000000
# 4 0.000000 0.000000 0.000000 0.082957 0.000000 0.033090
# 5 0.003521 0.009592 0.003910 0.000000 0.032770 0.000000
# 6 0.000000 0.000000 0.000000 0.033090 0.000000 0.080490
#
#
# Mechanical properties :
#
#
# Convention : Reuss Voigt Hill
#
# Bulk Modulus (GPa) = 28.77413 54.45934 41.61673
# Shear Modulus (GPa) = 18.47517 27.55539 23.01528
#
# Velocity S-wave (km/s) = 3.31923 4.05365 3.70468
# Velocity P-wave (km/s) = 5.64345 7.37463 6.56634
#
# Compressibility (1/GPa) = 0.03475344
#
# Stress axis : x y z
#
# Youngs Moduli (GPa) = 82.17199 42.37623 76.77429
#
# Poissons Ratio (x) = -0.02908 0.49305
# Poissons Ratio (y) = -0.05640 0.09858
# Poissons Ratio (z) = 0.52771 0.05441
#
# Static dielectric constant tensor:
#      x y z
#    x 1.569980 0.000000 -0.008240 
#    y 0.000000 1.559050 0.000000 
#    z -0.008240 0.000000 1.574630 
# 
# From -- ./inp_files/14258.got.cif
#   From: 2010.05.17/outbox.ucp.g08.bks.cvg/sg14_8_cif.got.tgz:14258.got - 2010.06.11 12:31:08.
