data_PCOD9253812
_publ_section_title
;
Structure prediction by ZEFSAII (Michael W. Deem and Ramdas Pophale) SiO2 
 PCOD9253812
Probable space group: C 2/C
;
_chemical_formula_sum "Si O2"
_cell_formula_units_Z 52
_cell_length_a 11.483803
_cell_length_b 18.005225
_cell_length_c 14.813129
_cell_angle_alpha 90.000000
_cell_angle_beta 91.138803
_cell_angle_gamma 90.000000
_cell_volume 3062.282848
_symmetry_space_group_name_H-M "C 2/C"
_symmetry_group_IT_number 15
_symmetry_cell_setting 'monoclinic'
loop_
_space_group_symop_operation_xyz
x,y,z
-x,y,1/2-z
-x,-y,-z
x,-y,1/2+z
1/2+x,1/2+y,z
1/2-x,1/2+y,1/2-z
1/2-x,1/2-y,-z
1/2+x,1/2-y,1/2+z
loop_
_atom_site_type_symbol
_atom_site_label
_atom_site_fract_x
_atom_site_fract_y
_atom_site_fract_z
Si Si1 0.863075 0.145582 0.266005
Si Si2 0.386711 0.932634 0.416029
Si Si3 0.202452 0.446214 0.886232
Si Si4 0.337324 0.892317 0.082927
Si Si5 0.000000 0.397924 0.750000
Si Si6 0.360800 0.816189 0.263582
Si Si7 0.320855 0.893251 0.882748
O O1 0.810226 0.098216 0.347068
O O2 0.832131 0.231551 0.285099
O O3 0.795364 0.118273 0.175733
O O4 0.000000 0.139099 0.250000
O O5 0.342863 0.918058 0.517257
O O6 0.526097 0.918381 0.416237
O O7 0.334393 0.876451 0.340807
O O8 0.355813 0.018703 0.392632
O O9 0.232157 0.531937 0.901371
O O10 0.098258 0.441071 0.809918
O O11 0.311964 0.838882 0.165449
O O12 0.312805 0.862450 0.983154
O O13 0.923785 0.357015 0.824414
O O14 0.500000 0.819186 0.250000
#
# Coordination Sequence:
#
# PCOD9253812 Si02
#       7
#     8   8   8   8   4   8   8
#     4  10  22  36  45  70 100 149 181 193 227 309
#     4  10  17  31  53  86 102 121 159 223 272 310
#     4  10  18  29  54  78 105 124 163 213 266 296
#     4  10  17  31  53  86 102 121 159 223 272 310
#     4  10  14  26  46  82 104 118 142 210 266 302
#     4   9  19  31  49  68 108 139 169 202 250 301
#     4  10  18  29  54  78 105 124 163 213 266 296
#
# _framework density 16.980796000000002
#
# number of rings (size 3 to 8) (size 9 to 14) (size 15 to 20)
#    0.000    2.154    3.077    2.769    2.154    1.231 
#    0.000    3.077    0.000    0.000   32.000    0.000 
#    0.000    0.000    0.000    0.000    0.000    0.000 
#
# Total GULP energy -144777.050367 kJ/mol
# GULP energy per Si atom -5568.348091 kJ/mol
# Density = 1.694215 g / cm^3
# Si number density = 16.980796 Si / 1000 Ang^3
#
#
#
# Elastic Constant Matrix: (Units=GPa)
#
#
# Indices 1 2 3 4 5 6 
#
# 1 53.2223 21.7642 24.9068 0.0000 -5.3627 0.0000
# 2 21.7642 48.3557 34.7547 0.0000 -14.4682 0.0000
# 3 24.9068 34.7547 131.8853 0.0000 -9.8611 0.0000
# 4 0.0000 0.0000 0.0000 10.0942 0.0000 -6.8281
# 5 -5.3627 -14.4682 -9.8611 0.0000 24.4925 0.0000
# 6 0.0000 0.0000 0.0000 -6.8281 0.0000 15.4884
#
#
#
# Elastic Compliance Matrix: (Units=1/GPa)
#
#
# Indices 1 2 3 4 5 6 
#
# 1 0.023494 -0.009500 -0.002029 0.000000 -0.001285 0.000000
# 2 -0.009500 0.033902 -0.005978 0.000000 0.015540 0.000000
# 3 -0.002029 -0.005978 0.009531 0.000000 -0.000138 0.000000
# 4 0.000000 0.000000 0.000000 0.141163 0.000000 0.062232
# 5 -0.001285 0.015540 -0.000138 0.000000 0.049671 0.000000
# 6 0.000000 0.000000 0.000000 0.062232 0.000000 0.092000
#
#
# Mechanical properties :
#
#
# Convention : Reuss Voigt Hill
#
# Bulk Modulus (GPa) = 31.33650 44.03497 37.68574
# Shear Modulus (GPa) = 12.64497 20.15086 16.39791
#
# Velocity S-wave (km/s) = 2.73181 3.44857 3.11090
# Velocity P-wave (km/s) = 5.33334 6.46880 5.92832
#
# Compressibility (1/GPa) = 0.03191167
#
# Stress axis : x y z
#
# Youngs Moduli (GPa) = 42.56341 29.49666 104.92543
#
# Poissons Ratio (x) = 0.28023 0.21295
# Poissons Ratio (y) = 0.40437 0.62723
# Poissons Ratio (z) = 0.08638 0.17633
#
# Static dielectric constant tensor:
#      x y z
#    x 1.568300 0.000000 0.008760 
#    y 0.000000 1.583130 0.000000 
#    z 0.008760 0.000000 1.615120 
# 
# From -- ./inp_files/145049.got.cif
#   From: 2010.05.17/outbox.cif.g08.bks.cpg/sg15_73_cif.got.tgz:145049.got - 2010.06.03 18:47:42.
