data_PCOD9253271
_publ_section_title
;
Structure prediction by ZEFSAII (Michael W. Deem and Ramdas Pophale) SiO2 
 PCOD9253271
Probable space group: P 21/C
;
_chemical_formula_sum "Si O2"
_cell_formula_units_Z 20
_cell_length_a 8.275332
_cell_length_b 15.626256
_cell_length_c 11.198111
_cell_angle_alpha 90.000000
_cell_angle_beta 32.738705
_cell_angle_gamma 90.000000
_cell_volume 783.120818
_symmetry_space_group_name_H-M "P 21/C"
_symmetry_group_IT_number 14
_symmetry_cell_setting 'monoclinic'
loop_
_space_group_symop_operation_xyz
x,y,z
-x,1/2+y,1/2-z
-x,-y,-z
x,1/2-y,1/2+z
loop_
_atom_site_type_symbol
_atom_site_label
_atom_site_fract_x
_atom_site_fract_y
_atom_site_fract_z
Si Si1 0.635082 0.940846 0.520284
Si Si2 0.771604 0.249203 0.957417
Si Si3 0.103203 0.818390 0.868452
Si Si4 0.487962 0.095264 0.758235
Si Si5 0.328162 0.589884 0.598981
O O1 0.436434 0.856561 0.657030
O O2 0.982643 0.925257 0.282865
O O3 0.500000 0.000000 0.500000
O O4 0.595757 0.000775 0.660609
O O5 0.947246 0.267089 0.724114
O O6 0.571399 0.165551 0.051499
O O7 0.937158 0.227086 0.978469
O O8 0.597720 0.336463 0.092923
O O9 0.867474 0.896383 0.012290
O O10 0.630568 0.124630 0.793364
O O11 0.500000 0.500000 0.500000
#
# Coordination Sequence:
#
# PCOD9253271 Si02
#       5
#     4   4   4   4   4
#     4  12  25  51  78 117 155 212 263 330 396 479
#     4  12  28  48  78 116 159 204 265 325 397 469
#     4  12  28  49  82 111 161 203 266 324 403 464
#     4  12  27  49  82 112 160 205 270 327 402 472
#     4  12  28  50  80 116 163 211 268 327 398 475
#
# _framework density 25.538844999999998
#
# number of rings (size 3 to 8) (size 9 to 14) (size 15 to 20)
#    0.000    0.000    4.000    4.800    5.600    0.000 
#    0.000    0.000    0.000    0.000    0.000    0.000 
#    0.000    0.000    0.000    0.000    0.000    0.000 
#
# Total GULP energy -112009.662295 kJ/mol
# GULP energy per Si atom -5600.483115 kJ/mol
# Density = 2.548072 g / cm^3
# Si number density = 25.538845 Si / 1000 Ang^3
#
#
#
# Elastic Constant Matrix: (Units=GPa)
#
#
# Indices 1 2 3 4 5 6 
#
# 1 135.9250 24.5578 51.2265 0.0000 30.0138 0.0000
# 2 24.5578 117.6270 35.8469 0.0000 6.2746 0.0000
# 3 51.2265 35.8469 61.2320 0.0000 -1.8380 0.0000
# 4 0.0000 0.0000 0.0000 49.5285 0.0000 9.3909
# 5 30.0138 6.2746 -1.8380 0.0000 58.6595 0.0000
# 6 0.0000 0.0000 0.0000 9.3909 0.0000 53.1943
#
#
#
# Elastic Compliance Matrix: (Units=1/GPa)
#
#
# Indices 1 2 3 4 5 6 
#
# 1 0.013305 0.001305 -0.012115 0.000000 -0.007327 0.000000
# 2 0.001305 0.010575 -0.007344 0.000000 -0.002029 0.000000
# 3 -0.012115 -0.007344 0.031004 0.000000 0.007956 0.000000
# 4 0.000000 0.000000 0.000000 0.020890 0.000000 -0.003688
# 5 -0.007327 -0.002029 0.007956 0.000000 0.021263 0.000000
# 6 0.000000 0.000000 0.000000 -0.003688 0.000000 0.019450
#
#
# Mechanical properties :
#
#
# Convention : Reuss Voigt Hill
#
# Bulk Modulus (GPa) = 53.82787 59.78294 56.80541
# Shear Modulus (GPa) = 31.44929 45.81996 38.63462
#
# Velocity S-wave (km/s) = 3.51298 4.24031 3.89367
# Velocity P-wave (km/s) = 6.13003 6.88717 6.51960
#
# Compressibility (1/GPa) = 0.01857774
#
# Stress axis : x y z
#
# Youngs Moduli (GPa) = 75.16121 94.56051 32.25340
#
# Poissons Ratio (x) = -0.12341 0.39074
# Poissons Ratio (y) = -0.09809 0.23686
# Poissons Ratio (z) = 0.91055 0.69443
#
# Static dielectric constant tensor:
#      x y z
#    x 2.009680 0.000000 0.081360 
#    y 0.000000 2.034110 0.000000 
#    z 0.081360 0.000000 2.020930 
# 
# From -- ./inp_files/26222.got.cif
#   From: 2010.05.17/outbox.cif.g08.bks.cpg/sg14_14_cif.got.tgz:26222.got - 2010.06.03 17:49:19.
