data_PCOD9253689
_publ_section_title
;
Structure prediction by ZEFSAII (Michael W. Deem and Ramdas Pophale) SiO2 
 PCOD9253689
Probable space group: P 21/C
;
_chemical_formula_sum "Si O2"
_cell_formula_units_Z 24
_cell_length_a 12.000000
_cell_length_b 12.000000
_cell_length_c 9.000000
_cell_angle_alpha 90.000000
_cell_angle_beta 70.000000
_cell_angle_gamma 90.000000
_cell_volume 1217.841637
_symmetry_space_group_name_H-M "P 21/C"
_symmetry_group_IT_number 14
_symmetry_cell_setting 'monoclinic'
loop_
_space_group_symop_operation_xyz
x,y,z
-x,1/2+y,1/2-z
-x,-y,-z
x,1/2-y,1/2+z
loop_
_atom_site_type_symbol
_atom_site_label
_atom_site_fract_x
_atom_site_fract_y
_atom_site_fract_z
Si Si1 0.372153 0.628294 0.061380
Si Si2 0.918443 0.029435 0.890369
Si Si3 0.233603 0.775709 0.902240
Si Si4 0.208056 0.326686 0.752007
Si Si5 0.652955 0.867816 0.506565
Si Si6 0.003335 0.626738 0.940602
O O1 0.333846 0.703836 0.939478
O O2 0.289233 0.673314 0.229669
O O3 0.510738 0.648149 0.042165
O O4 0.336779 0.498360 0.047926
O O5 0.818699 0.119047 0.983363
O O6 0.999937 0.098904 0.734416
O O7 0.849853 0.923362 0.835869
O O8 0.000000 0.000000 0.000000
O O9 0.124947 0.692039 0.916305
O O10 0.305986 0.360898 0.836782
O O11 0.268721 0.224433 0.626864
O O12 0.097132 0.308078 0.918171
O O13 0.000000 0.500000 0.000000
#
# Coordination Sequence:
#
# PCOD9253689 Si02
#       6
#     4   4   4   4   4   4
#     4  11  26  48  74 104 146 190 252 296 367 425
#     4  11  27  45  72 111 147 192 236 298 377 442
#     4  12  25  45  72 106 142 191 236 300 367 439
#     4  11  27  47  73 106 149 190 243 301 365 436
#     4  11  27  49  74 106 142 198 243 309 353 434
#     4  10  24  44  69 105 148 184 232 294 360 433
#
# _framework density 19.706996
#
# number of rings (size 3 to 8) (size 9 to 14) (size 15 to 20)
#    0.000    1.000    1.667    3.000   14.000    0.000 
#    0.000    1.667    0.000    0.000    0.000    0.000 
#    0.000    0.000    0.000    0.000    0.000    0.000 
#
# Total GULP energy -133769.007009 kJ/mol
# GULP energy per Si atom -5573.708625 kJ/mol
# Density = 1.966214 g / cm^3
# Si number density = 19.706996 Si / 1000 Ang^3
#
#
#
# Elastic Constant Matrix: (Units=GPa)
#
#
# Indices 1 2 3 4 5 6 
#
# 1 148.2225 59.1323 32.0329 0.0000 22.0145 0.0000
# 2 59.1323 135.7439 48.5692 0.0000 5.3680 0.0000
# 3 32.0329 48.5692 97.0225 0.0000 15.6855 0.0000
# 4 0.0000 0.0000 0.0000 49.5258 0.0000 0.0598
# 5 22.0145 5.3680 15.6855 0.0000 46.5050 0.0000
# 6 0.0000 0.0000 0.0000 0.0598 0.0000 47.6529
#
#
#
# Elastic Compliance Matrix: (Units=1/GPa)
#
#
# Indices 1 2 3 4 5 6 
#
# 1 0.008790 -0.003479 -0.000585 0.000000 -0.003562 0.000000
# 2 -0.003479 0.010363 -0.004349 0.000000 0.001918 0.000000
# 3 -0.000585 -0.004349 0.013275 0.000000 -0.003699 0.000000
# 4 0.000000 0.000000 0.000000 0.020192 0.000000 -0.000025
# 5 -0.003562 0.001918 -0.003699 0.000000 0.024216 0.000000
# 6 0.000000 0.000000 0.000000 -0.000025 0.000000 0.020985
#
#
# Mechanical properties :
#
#
# Convention : Reuss Voigt Hill
#
# Bulk Modulus (GPa) = 64.09245 73.38417 68.73831
# Shear Modulus (GPa) = 41.72049 44.82038 43.27044
#
# Velocity S-wave (km/s) = 4.60612 4.77418 4.69090
# Velocity P-wave (km/s) = 7.80268 8.22854 8.01843
#
# Compressibility (1/GPa) = 0.01560246
#
# Stress axis : x y z
#
# Youngs Moduli (GPa) = 113.76633 96.50169 75.33025
#
# Poissons Ratio (x) = 0.33573 0.04404
# Poissons Ratio (y) = 0.39579 0.32760
# Poissons Ratio (z) = 0.06651 0.41967
#
# Static dielectric constant tensor:
#      x y z
#    x 1.713720 0.000000 -0.013760 
#    y 0.000000 1.706780 0.000000 
#    z -0.013760 0.000000 1.624200 
# 
# From -- ./inp_files/12371.got.cif
#   From: 2010.05.17/outbox.ucp.g08.bks.cvg/sg14_7_cif.got.tgz:12371.got - 2010.06.11 12:31:08.
