data_PCOD9253777
_publ_section_title
;
Structure prediction by ZEFSAII (Michael W. Deem and Ramdas Pophale) SiO2 
 PCOD9253777
Probable space group: C 2/C
;
_chemical_formula_sum "Si O2"
_cell_formula_units_Z 56
_cell_length_a 21.962264
_cell_length_b 21.057928
_cell_length_c 5.360532
_cell_angle_alpha 90.000000
_cell_angle_beta 108.207679
_cell_angle_gamma 90.000000
_cell_volume 2355.007660
_symmetry_space_group_name_H-M "C 2/C"
_symmetry_group_IT_number 15
_symmetry_cell_setting 'monoclinic'
loop_
_space_group_symop_operation_xyz
x,y,z
-x,y,1/2-z
-x,-y,-z
x,-y,1/2+z
1/2+x,1/2+y,z
1/2-x,1/2+y,1/2-z
1/2-x,1/2-y,-z
1/2+x,1/2-y,1/2+z
loop_
_atom_site_type_symbol
_atom_site_label
_atom_site_fract_x
_atom_site_fract_y
_atom_site_fract_z
Si Si1 0.131122 0.140908 0.259558
Si Si2 0.027896 0.426587 0.534766
Si Si3 0.671693 0.039904 0.192148
Si Si4 0.732835 0.696019 0.679787
Si Si5 0.500000 0.329180 0.750000
Si Si6 0.000000 0.743158 0.250000
Si Si7 0.688882 0.458836 0.534492
Si Si8 0.143572 0.732968 0.470809
O O1 0.194334 0.137763 0.512531
O O2 0.065112 0.130688 0.316317
O O3 0.138509 0.095718 0.032626
O O4 0.133122 0.213479 0.169013
O O5 0.104235 0.425384 0.633688
O O6 0.000000 0.399281 0.750000
O O7 0.000000 0.500000 0.500000
O O8 0.000000 0.395716 0.250000
O O9 0.739971 0.071046 0.338083
O O10 0.670535 0.985870 0.407012
O O11 0.750000 0.750000 0.500000
O O12 0.682928 0.729215 0.806472
O O13 0.803485 0.681423 0.878641
O O14 0.497811 0.286702 0.497246
O O15 0.928745 0.711946 0.174798
O O16 0.682783 0.492323 0.260538
#
# Coordination Sequence:
#
# PCOD9253777 Si02
#       8
#     8   8   8   8   4   4   8   8
#     4  10  20  36  56  79 117 152 194 249 289 344
#     4  10  14  20  38  62  86 107 137 193 269 311
#     4  10  16  28  41  63  92 117 158 212 264 321
#     4   9  17  32  54  86 118 145 188 228 289 354
#     4  10  20  32  56  83 108 156 192 241 290 336
#     4  10  18  32  52  89 126 148 186 235 278 344
#     4  10  24  37  53  74 109 148 200 246 293 340
#     4   9  18  31  56  87 120 149 188 230 289 351
#
# _framework density 23.779114
#
# number of rings (size 3 to 8) (size 9 to 14) (size 15 to 20)
#    0.000    2.286    4.286    0.000    2.000    0.000 
#    0.000    0.714    0.000    0.000    0.000    6.000 
#    8.571    0.000    0.000    0.000    0.000    0.000 
#
# Total GULP energy -156224.490103 kJ/mol
# GULP energy per Si atom -5579.446075 kJ/mol
# Density = 2.372499 g / cm^3
# Si number density = 23.779114 Si / 1000 Ang^3
#
#
#
# Elastic Constant Matrix: (Units=GPa)
#
#
# Indices 1 2 3 4 5 6 
#
# 1 190.0727 28.5161 24.3329 0.0000 10.7755 0.0000
# 2 28.5161 45.0350 13.0146 0.0000 10.4252 0.0000
# 3 24.3329 13.0146 90.8623 0.0000 -10.1367 0.0000
# 4 0.0000 0.0000 0.0000 11.3302 0.0000 -10.7799
# 5 10.7755 10.4252 -10.1367 0.0000 37.3278 0.0000
# 6 0.0000 0.0000 0.0000 -10.7799 0.0000 28.4213
#
#
#
# Elastic Compliance Matrix: (Units=1/GPa)
#
#
# Indices 1 2 3 4 5 6 
#
# 1 0.005962 -0.003128 -0.001282 0.000000 -0.001196 0.000000
# 2 -0.003128 0.027103 -0.003907 0.000000 -0.007728 0.000000
# 3 -0.001282 -0.003907 0.012449 0.000000 0.004842 0.000000
# 4 0.000000 0.000000 0.000000 0.138093 0.000000 0.052377
# 5 -0.001196 -0.007728 0.004842 0.000000 0.030608 0.000000
# 6 0.000000 0.000000 0.000000 0.052377 0.000000 0.055051
#
#
# Mechanical properties :
#
#
# Convention : Reuss Voigt Hill
#
# Bulk Modulus (GPa) = 34.62466 50.85525 42.73995
# Shear Modulus (GPa) = 16.91892 32.75628 24.83760
#
# Velocity S-wave (km/s) = 2.67030 3.71553 3.23540
# Velocity P-wave (km/s) = 4.90916 6.31188 5.65419
#
# Compressibility (1/GPa) = 0.02888115
#
# Stress axis : x y z
#
# Youngs Moduli (GPa) = 167.71904 36.89568 80.32962
#
# Poissons Ratio (x) = 0.11541 0.10299
# Poissons Ratio (y) = 0.52463 0.31381
# Poissons Ratio (z) = 0.21503 0.14414
#
# Static dielectric constant tensor:
#      x y z
#    x 1.898350 0.000000 0.031930 
#    y 0.000000 1.860160 0.000000 
#    z 0.031930 0.000000 2.172540 
# 
# From -- ./inp_files/13946.got.cif
#   From: 2010.05.17/outbox.cif.g08.bks.cpg/sg15_7_cif.got.tgz:13946.got - 2010.06.03 18:47:42.
