data_PCOD9253937
_publ_section_title
;
Structure prediction by ZEFSAII (Michael W. Deem and Ramdas Pophale) SiO2 
 PCOD9253937
Probable space group: C 2/C
;
_chemical_formula_sum "Si O2"
_cell_formula_units_Z 64
_cell_length_a 15.823133
_cell_length_b 23.824616
_cell_length_c 7.878155
_cell_angle_alpha 90.000000
_cell_angle_beta 62.143904
_cell_angle_gamma 90.000000
_cell_volume 2625.766209
_symmetry_space_group_name_H-M "C 2/C"
_symmetry_group_IT_number 15
_symmetry_cell_setting 'monoclinic'
loop_
_space_group_symop_operation_xyz
x,y,z
-x,y,1/2-z
-x,-y,-z
x,-y,1/2+z
1/2+x,1/2+y,z
1/2-x,1/2+y,1/2-z
1/2-x,1/2-y,-z
1/2+x,1/2-y,1/2+z
loop_
_atom_site_type_symbol
_atom_site_label
_atom_site_fract_x
_atom_site_fract_y
_atom_site_fract_z
Si Si1 0.723047 0.015660 0.605909
Si Si2 0.073789 0.881551 0.820737
Si Si3 0.734736 0.283473 0.244172
Si Si4 0.894187 0.287980 0.823843
Si Si5 0.785421 0.634422 0.971901
Si Si6 0.843954 0.402909 0.768154
Si Si7 0.633982 0.378788 0.119568
Si Si8 0.132891 0.004748 0.780091
O O1 0.698943 0.080245 0.664746
O O2 0.837302 0.011444 0.549320
O O3 0.642855 0.968762 0.711926
O O4 0.753850 0.007652 0.376484
O O5 0.178160 0.868194 0.647986
O O6 0.068645 0.860695 0.020939
O O7 0.000000 0.860213 0.750000
O O8 0.069384 0.949551 0.833754
O O9 0.661644 0.231625 0.294977
O O10 0.782028 0.308517 0.368596
O O11 0.824160 0.268928 0.039863
O O12 0.669610 0.332445 0.218866
O O13 0.895898 0.355483 0.827147
O O14 0.000000 0.265879 0.750000
O O15 0.852638 0.617962 0.066487
O O16 0.732892 0.396619 0.931810
O O17 0.600415 0.434828 0.246687
#
# Coordination Sequence:
#
# PCOD9253937 Si02
#       8
#     8   8   8   8   8   8   8   8
#     4  10  15  28  53  82 107 143 192 233 279 348
#     4  10  20  30  41  70 118 156 184 235 292 339
#     4  10  21  38  66  85 106 150 193 237 292 339
#     4  10  23  42  60  85 117 150 194 242 288 341
#     4  10  19  33  58  87 108 145 204 234 282 357
#     4   9  18  33  56  80 113 150 181 236 287 329
#     4   9  17  31  49  73 104 143 196 230 277 345
#     4  10  15  27  44  70 106 147 191 226 274 348
#
# _framework density 24.373840000000001
#
# number of rings (size 3 to 8) (size 9 to 14) (size 15 to 20)
#    0.000    2.250    6.250    0.000    0.000    2.000 
#    0.000    1.250    0.000    3.000    0.000    0.000 
#    0.000    0.000    0.000    0.000    0.000    0.000 
#
# Total GULP energy -178274.651987 kJ/mol
# GULP energy per Si atom -5571.082875 kJ/mol
# Density = 2.431836 g / cm^3
# Si number density = 24.373840 Si / 1000 Ang^3
#
#
#
# Elastic Constant Matrix: (Units=GPa)
#
#
# Indices 1 2 3 4 5 6 
#
# 1 53.2007 1.3418 8.3102 0.0000 -13.2480 0.0000
# 2 1.3418 92.8536 27.0492 0.0000 -7.6108 0.0000
# 3 8.3102 27.0492 23.5815 0.0000 -8.3814 0.0000
# 4 0.0000 0.0000 0.0000 29.1527 0.0000 7.2564
# 5 -13.2480 -7.6108 -8.3814 0.0000 8.4087 0.0000
# 6 0.0000 0.0000 0.0000 7.2564 0.0000 17.6237
#
#
#
# Elastic Compliance Matrix: (Units=1/GPa)
#
#
# Indices 1 2 3 4 5 6 
#
# 1 0.032853 0.002362 0.007541 0.000000 0.061414 0.000000
# 2 0.002362 0.016540 -0.020381 0.000000 -0.001623 0.000000
# 3 0.007541 -0.020381 0.094147 0.000000 0.087275 0.000000
# 4 0.000000 0.000000 0.000000 0.038219 0.000000 -0.015736
# 5 0.061414 -0.001623 0.087275 0.000000 0.301208 0.000000
# 6 0.000000 0.000000 0.000000 -0.015736 0.000000 0.063221
#
#
# Mechanical properties :
#
#
# Convention : Reuss Voigt Hill
#
# Bulk Modulus (GPa) = 8.15773 27.00424 17.58098
# Shear Modulus (GPa) = 8.22364 19.89933 14.06149
#
# Velocity S-wave (km/s) = 1.83883 2.86041 2.40450
# Velocity P-wave (km/s) = 2.80403 4.69175 3.86491
#
# Compressibility (1/GPa) = 0.12258319
#
# Stress axis : x y z
#
# Youngs Moduli (GPa) = 30.43903 60.46050 10.62174
#
# Poissons Ratio (x) = -0.14283 -0.08010
# Poissons Ratio (y) = -0.07191 0.21648
# Poissons Ratio (z) = -0.22954 1.23226
#
# Static dielectric constant tensor:
#      x y z
#    x 1.952670 0.000000 0.095890 
#    y 0.000000 2.323840 0.000000 
#    z 0.095890 0.000000 2.107840 
# 
# From -- ./inp_files/51217.got.cif
#   From: 2010.05.17/outbox.cif.g08.bks.cpg/sg15_26_cif.got.tgz:51217.got - 2010.06.03 18:47:42.
