data_PCOD9253949
_publ_section_title
;
Structure prediction by ZEFSAII (Michael W. Deem and Ramdas Pophale) SiO2 
 PCOD9253949
Probable space group: C 2/C
;
_chemical_formula_sum "Si O2"
_cell_formula_units_Z 48
_cell_length_a 34.796537
_cell_length_b 5.387314
_cell_length_c 13.662086
_cell_angle_alpha 90.000000
_cell_angle_beta 125.286054
_cell_angle_gamma 90.000000
_cell_volume 2090.564332
_symmetry_space_group_name_H-M "C 2/C"
_symmetry_group_IT_number 15
_symmetry_cell_setting 'monoclinic'
loop_
_space_group_symop_operation_xyz
x,y,z
-x,y,1/2-z
-x,-y,-z
x,-y,1/2+z
1/2+x,1/2+y,z
1/2-x,1/2+y,1/2-z
1/2-x,1/2-y,-z
1/2+x,1/2-y,1/2+z
loop_
_atom_site_type_symbol
_atom_site_label
_atom_site_fract_x
_atom_site_fract_y
_atom_site_fract_z
Si Si1 0.962048 0.003425 0.853803
Si Si2 0.999403 0.496365 0.117198
Si Si3 0.859508 0.143653 0.513086
Si Si4 0.719426 0.497465 0.461633
Si Si5 0.396270 0.140613 0.536470
Si Si6 0.862887 0.044900 0.816976
O O1 0.910994 0.024111 0.827178
O O2 0.975977 0.249490 0.815738
O O3 0.971099 0.746049 0.812868
O O4 0.000000 0.000000 0.000000
O O5 0.946670 0.458603 0.076313
O O6 0.000000 0.500000 0.000000
O O7 0.811282 0.035541 0.484807
O O8 0.872180 0.421996 0.564543
O O9 0.895790 0.916079 0.584661
O O10 0.859519 0.163675 0.395684
O O11 0.750000 0.250000 0.500000
O O12 0.680833 0.478673 0.318693
O O13 0.750000 0.750000 0.500000
O O14 0.367544 0.213375 0.394094
#
# Coordination Sequence:
#
# PCOD9253949 Si02
#       6
#     8   8   8   8   8   8
#     4  10  17  29  56  96 123 164 211 252 296 388
#     4  10  15  27  52  92 128 156 212 245 297 370
#     4  10  22  42  66  93 125 163 217 267 327 383
#     4  12  29  47  67  95 128 165 220 281 327 393
#     4  10  19  36  64  96 126 172 204 257 317 384
#     4  10  24  39  71  91 131 173 214 254 337 372
#
# _framework density 22.960308000000001
#
# number of rings (size 3 to 8) (size 9 to 14) (size 15 to 20)
#    1.000    0.667    3.333    4.000    2.333    1.333 
#    0.000    0.000    0.000   11.000    0.000    0.000 
#    0.000    0.000    0.000    0.000    0.000    0.000 
#
# Total GULP energy -133973.494148 kJ/mol
# GULP energy per Si atom -5582.228923 kJ/mol
# Density = 2.290805 g / cm^3
# Si number density = 22.960308 Si / 1000 Ang^3
#
#
#
# Elastic Constant Matrix: (Units=GPa)
#
#
# Indices 1 2 3 4 5 6 
#
# 1 117.3468 60.4044 29.2052 0.0000 7.7375 -0.0001
# 2 60.4044 227.6903 26.0830 -0.0001 16.6986 0.0001
# 3 29.2052 26.0830 101.1927 0.0000 19.4279 0.0000
# 4 0.0000 -0.0001 0.0000 17.4066 0.0000 2.2934
# 5 7.7375 16.6986 19.4279 0.0000 39.1758 0.0000
# 6 -0.0001 0.0001 0.0000 2.2934 0.0000 30.2214
#
#
#
# Elastic Compliance Matrix: (Units=1/GPa)
#
#
# Indices 1 2 3 4 5 6 
#
# 1 0.010389 -0.002497 -0.002393 0.000000 0.000199 0.000000
# 2 -0.002497 0.005206 -0.000320 0.000000 -0.001567 0.000000
# 3 -0.002393 -0.000320 0.011647 0.000000 -0.005167 0.000000
# 4 0.000000 0.000000 0.000000 0.058030 0.000000 -0.004404
# 5 0.000199 -0.001567 -0.005167 0.000000 0.028717 0.000000
# 6 0.000000 0.000000 0.000000 -0.004404 0.000000 0.033423
#
#
# Mechanical properties :
#
#
# Convention : Reuss Voigt Hill
#
# Bulk Modulus (GPa) = 59.44538 75.29053 67.36796
# Shear Modulus (GPa) = 30.59220 39.39659 34.99440
#
# Velocity S-wave (km/s) = 3.65416 4.14678 3.90824
# Velocity P-wave (km/s) = 6.61442 7.46931 7.05482
#
# Compressibility (1/GPa) = 0.01682216
#
# Stress axis : x y z
#
# Youngs Moduli (GPa) = 96.25195 192.08953 85.85601
#
# Poissons Ratio (x) = 0.47958 0.20547
# Poissons Ratio (y) = 0.24031 0.02751
# Poissons Ratio (z) = 0.23035 0.06155
#
# Static dielectric constant tensor:
#      x y z
#    x 1.813370 0.000000 -0.000080 
#    y 0.000000 2.037360 0.000000 
#    z -0.000080 0.000000 1.880590 
# 
# From -- ./inp_files/179784.got.cif
#   From: 2010.05.17/outbox.cif.g08.bks.cpg/sg15_90_cif.got.tgz:179784.got - 2010.06.03 18:47:42.
