data_PCOD9253452
_publ_section_title
;
Structure prediction by ZEFSAII (Michael W. Deem and Ramdas Pophale) SiO2 
 PCOD9253452
Probable space group: P 21/C
;
_chemical_formula_sum "Si O2"
_cell_formula_units_Z 32
_cell_length_a 13.625808
_cell_length_b 14.649449
_cell_length_c 17.517899
_cell_angle_alpha 90.000000
_cell_angle_beta 22.553811
_cell_angle_gamma 90.000000
_cell_volume 1341.184847
_symmetry_space_group_name_H-M "P 21/C"
_symmetry_group_IT_number 14
_symmetry_cell_setting 'monoclinic'
loop_
_space_group_symop_operation_xyz
x,y,z
-x,1/2+y,1/2-z
-x,-y,-z
x,1/2-y,1/2+z
loop_
_atom_site_type_symbol
_atom_site_label
_atom_site_fract_x
_atom_site_fract_y
_atom_site_fract_z
Si Si1 0.224988 0.294255 0.799357
Si Si2 0.578047 0.089054 0.849793
Si Si3 0.915493 0.262341 0.169199
Si Si4 0.076766 0.393759 0.356273
Si Si5 0.280974 0.911926 0.733415
Si Si6 0.766329 0.901584 0.474531
Si Si7 0.579507 0.075503 0.127661
Si Si8 0.913587 0.948276 0.694971
O O1 0.230006 0.201035 0.749023
O O2 0.468490 0.360041 0.639685
O O3 0.020051 0.361557 0.904826
O O4 0.136655 0.264151 0.946560
O O5 0.682857 0.190051 0.788894
O O6 0.482374 0.030985 0.845871
O O7 0.818805 0.028891 0.706818
O O8 0.334542 0.080219 0.079495
O O9 0.833774 0.159550 0.244640
O O10 0.022810 0.323229 0.161289
O O11 0.249447 0.483089 0.235103
O O12 0.895790 0.397687 0.563044
O O13 0.873438 0.404049 0.433779
O O14 0.572655 0.889824 0.544720
O O15 0.583098 0.901672 0.680730
O O16 0.891366 0.002089 0.389287
#
# Coordination Sequence:
#
# PCOD9253452 Si02
#       8
#     4   4   4   4   4   4   4   4
#     4   9  17  30  49  73  98 127 166 205 241 288
#     4   9  17  30  49  72  97 125 159 201 245 288
#     4   9  17  30  49  73  98 127 166 205 241 288
#     4   9  18  31  48  73 103 131 162 203 247 290
#     4   9  18  31  48  73 103 131 162 203 247 290
#     4   9  17  30  50  74  99 129 163 201 245 290
#     4   9  17  30  50  74  99 129 163 201 245 290
#     4   9  17  30  49  72  97 125 159 201 245 288
#
# _framework density 23.859499
#
# number of rings (size 3 to 8) (size 9 to 14) (size 15 to 20)
#    0.000    3.000    0.000    0.750    0.000    5.000 
#    0.000    8.750    0.000    9.000    0.000    0.000 
#    0.000    0.000    0.000    0.000    0.000    0.000 
#
# Total GULP energy -178559.472713 kJ/mol
# GULP energy per Si atom -5579.983522 kJ/mol
# Density = 2.380519 g / cm^3
# Si number density = 23.859499 Si / 1000 Ang^3
#
#
#
# Elastic Constant Matrix: (Units=GPa)
#
#
# Indices 1 2 3 4 5 6 
#
# 1 61.0303 25.2183 20.4027 0.0000 -15.6771 0.0000
# 2 25.2183 132.1541 14.1966 0.0000 -26.1311 0.0000
# 3 20.4027 14.1966 63.1396 0.0000 -15.8599 0.0000
# 4 0.0000 0.0000 0.0000 14.3228 0.0000 -4.3742
# 5 -15.6771 -26.1311 -15.8599 0.0000 34.3339 0.0000
# 6 0.0000 0.0000 0.0000 -4.3742 0.0000 19.9858
#
#
#
# Elastic Compliance Matrix: (Units=1/GPa)
#
#
# Indices 1 2 3 4 5 6 
#
# 1 0.020279 -0.002311 -0.004694 0.000000 0.005332 0.000000
# 2 -0.002311 0.009177 0.000195 0.000000 0.006020 0.000000
# 3 -0.004694 0.000195 0.019016 0.000000 0.006790 0.000000
# 4 0.000000 0.000000 0.000000 0.074820 0.000000 0.016375
# 5 0.005332 0.006020 0.006790 0.000000 0.039278 0.000000
# 6 0.000000 0.000000 0.000000 0.016375 0.000000 0.053620
#
#
# Mechanical properties :
#
#
# Convention : Reuss Voigt Hill
#
# Bulk Modulus (GPa) = 28.69153 41.77324 35.23239
# Shear Modulus (GPa) = 20.71013 26.82892 23.76953
#
# Velocity S-wave (km/s) = 2.94939 3.35693 3.15973
# Velocity P-wave (km/s) = 4.86311 5.70713 5.30194
#
# Compressibility (1/GPa) = 0.03485349
#
# Stress axis : x y z
#
# Youngs Moduli (GPa) = 49.31155 108.96527 52.58664
#
# Poissons Ratio (x) = 0.25184 0.24684
# Poissons Ratio (y) = 0.11397 -0.01028
# Poissons Ratio (z) = 0.23146 -0.02130
#
# Static dielectric constant tensor:
#      x y z
#    x 1.932070 0.000000 0.028700 
#    y 0.000000 1.917870 0.000000 
#    z 0.028700 0.000000 1.959690 
# 
# From -- ./inp_files/68648.got.cif
#   From: 2010.05.17/outbox.cif.g08.bks.cpg/sg14_35_cif.got.tgz:68648.got - 2010.06.03 17:49:19.
