data_PCOD9253744
_publ_section_title
;
Structure prediction by ZEFSAII (Michael W. Deem and Ramdas Pophale) SiO2 
 PCOD9253744
Probable space group: P 21/C
;
_chemical_formula_sum "Si O2"
_cell_formula_units_Z 20
_cell_length_a 12.000000
_cell_length_b 9.000000
_cell_length_c 18.000000
_cell_angle_alpha 90.000000
_cell_angle_beta 30.000000
_cell_angle_gamma 90.000000
_cell_volume 972.000000
_symmetry_space_group_name_H-M "P 21/C"
_symmetry_group_IT_number 14
_symmetry_cell_setting 'monoclinic'
loop_
_space_group_symop_operation_xyz
x,y,z
-x,1/2+y,1/2-z
-x,-y,-z
x,1/2-y,1/2+z
loop_
_atom_site_type_symbol
_atom_site_label
_atom_site_fract_x
_atom_site_fract_y
_atom_site_fract_z
Si Si1 0.916117 0.414056 0.971596
Si Si2 0.767434 0.013908 0.841147
Si Si3 0.117804 0.644262 0.400242
Si Si4 0.063607 0.282112 0.647672
Si Si5 0.561226 0.950829 0.552274
O O1 0.713543 0.458021 0.028638
O O2 0.851794 0.257767 0.048242
O O3 0.000000 0.500000 0.000000
O O4 0.128697 0.434875 0.792900
O O5 0.721804 0.690196 0.950139
O O6 0.847119 0.185531 0.794847
O O7 0.500000 0.000000 0.000000
O O8 0.953860 0.709428 0.431096
O O9 0.000000 0.500000 0.500000
O O10 0.099900 0.438171 0.666859
O O11 0.661456 0.403199 0.773951
O O12 0.500000 0.000000 0.500000
#
# Coordination Sequence:
#
# PCOD9253744 Si02
#       5
#     4   4   4   4   4
#     4  11  25  49  72 108 150 190 249 314 367 440
#     4  11  25  46  77 100 149 197 246 303 378 442
#     4  12  27  46  74 109 148 194 247 308 375 433
#     4  11  25  49  69 113 144 191 254 296 367 461
#     4  11  26  49  76 106 154 195 248 304 372 456
#
# _framework density 20.576132000000001
#
# number of rings (size 3 to 8) (size 9 to 14) (size 15 to 20)
#    0.000    0.800    4.000    3.600    8.400    0.000 
#    0.000    0.000    0.000    0.000    0.000    0.000 
#    0.000    0.000    0.000    0.000    0.000    0.000 
#
# Total GULP energy -111354.652663 kJ/mol
# GULP energy per Si atom -5567.732633 kJ/mol
# Density = 2.052930 g / cm^3
# Si number density = 20.576132 Si / 1000 Ang^3
#
#
#
# Elastic Constant Matrix: (Units=GPa)
#
#
# Indices 1 2 3 4 5 6 
#
# 1 174.1492 49.9034 39.3238 0.0000 9.6995 0.0000
# 2 49.9034 92.2822 24.7072 0.0000 -0.7306 0.0000
# 3 39.3238 24.7072 160.4794 0.0000 -8.2590 0.0000
# 4 0.0000 0.0000 0.0000 36.9116 0.0000 8.8195
# 5 9.6995 -0.7306 -8.2590 0.0000 40.9832 0.0000
# 6 0.0000 0.0000 0.0000 8.8195 0.0000 62.8800
#
#
#
# Elastic Compliance Matrix: (Units=1/GPa)
#
#
# Indices 1 2 3 4 5 6 
#
# 1 0.007166 -0.003539 -0.001315 0.000000 -0.002024 0.000000
# 2 -0.003539 0.013051 -0.001098 0.000000 0.000849 0.000000
# 3 -0.001315 -0.001098 0.006808 0.000000 0.001664 0.000000
# 4 0.000000 0.000000 0.000000 0.028031 0.000000 -0.003932
# 5 -0.002024 0.000849 0.001664 0.000000 0.025230 0.000000
# 6 0.000000 0.000000 0.000000 -0.003932 0.000000 0.016455
#
#
# Mechanical properties :
#
#
# Convention : Reuss Voigt Hill
#
# Bulk Modulus (GPa) = 66.13811 72.75329 69.44570
# Shear Modulus (GPa) = 43.98062 49.02007 46.50035
#
# Velocity S-wave (km/s) = 4.62828 4.88625 4.75902
# Velocity P-wave (km/s) = 7.79578 8.20176 8.00134
#
# Compressibility (1/GPa) = 0.01511988
#
# Stress axis : x y z
#
# Youngs Moduli (GPa) = 139.54636 76.62275 146.87837
#
# Poissons Ratio (x) = 0.27117 0.19318
# Poissons Ratio (y) = 0.49387 0.16133
# Poissons Ratio (z) = 0.18354 0.08416
#
# Static dielectric constant tensor:
#      x y z
#    x 1.768780 0.000000 -0.001040 
#    y 0.000000 1.841690 0.000000 
#    z -0.001040 0.000000 1.745130 
# 
# From -- ./inp_files/36454.got.cif
#   From: 2010.05.17/outbox.ucp.g08.bks.cvg/sg14_19_cif.got.tgz:36454.got - 2010.06.11 12:31:08.
