data_PCOD9253667
_publ_section_title
;
Structure prediction by ZEFSAII (Michael W. Deem and Ramdas Pophale) SiO2 
 PCOD9253667
Probable space group: P 21/C
;
_chemical_formula_sum "Si O2"
_cell_formula_units_Z 24
_cell_length_a 15.000000
_cell_length_b 9.000000
_cell_length_c 9.000000
_cell_angle_alpha 90.000000
_cell_angle_beta 90.000000
_cell_angle_gamma 90.000000
_cell_volume 1215.000000
_symmetry_space_group_name_H-M "P 21/C"
_symmetry_group_IT_number 14
_symmetry_cell_setting 'monoclinic'
loop_
_space_group_symop_operation_xyz
x,y,z
-x,1/2+y,1/2-z
-x,-y,-z
x,1/2-y,1/2+z
loop_
_atom_site_type_symbol
_atom_site_label
_atom_site_fract_x
_atom_site_fract_y
_atom_site_fract_z
Si Si1 0.716589 0.600384 0.349392
Si Si2 0.594554 0.605822 0.856128
Si Si3 0.088693 0.027674 0.799410
Si Si4 0.714696 0.417975 0.645219
Si Si5 0.916867 0.829129 0.868788
Si Si6 0.612989 0.112274 0.633248
O O1 0.659222 0.751521 0.346740
O O2 0.719777 0.535101 0.513099
O O3 0.819742 0.623865 0.302284
O O4 0.664812 0.473291 0.261551
O O5 0.636291 0.483961 0.746724
O O6 0.490880 0.650863 0.829628
O O7 0.603169 0.517071 0.010195
O O8 0.078621 0.153261 0.670867
O O9 0.183391 0.935305 0.789003
O O10 0.086006 0.121029 0.956615
O O11 0.003394 0.916248 0.803830
O O12 0.675949 0.255603 0.597465
#
# Coordination Sequence:
#
# PCOD9253667 Si02
#       6
#     4   4   4   4   4   4
#     4  11  23  41  64  89 128 167 207 258 315 374
#     4  11  23  42  63  91 126 166 213 257 316 370
#     4  10  23  43  65  94 127 161 211 258 312 375
#     4  11  23  41  63  92 129 162 209 263 310 372
#     4  10  23  42  64  94 124 165 207 257 313 375
#     4  11  25  39  63  95 124 166 213 259 312 374
#
# _framework density 19.753086
#
# number of rings (size 3 to 8) (size 9 to 14) (size 15 to 20)
#    0.000    1.333    1.667    3.000    4.667    6.000 
#    3.000    0.000    0.000    0.000    0.000    0.000 
#    0.000    0.000    0.000    0.000    0.000    0.000 
#
# Total GULP energy -133798.333843 kJ/mol
# GULP energy per Si atom -5574.930577 kJ/mol
# Density = 1.970813 g / cm^3
# Si number density = 19.753086 Si / 1000 Ang^3
#
#
#
# Elastic Constant Matrix: (Units=GPa)
#
#
# Indices 1 2 3 4 5 6 
#
# 1 154.2981 13.5569 -1.6804 0.0000 10.3454 0.0000
# 2 13.5569 19.9459 -37.7298 0.0000 22.8555 0.0000
# 3 -1.6804 -37.7298 7.3512 0.0000 5.5947 0.0000
# 4 0.0000 0.0000 0.0000 36.6418 0.0000 -1.6062
# 5 10.3454 22.8555 5.5947 0.0000 20.7585 0.0000
# 6 0.0000 0.0000 0.0000 -1.6062 0.0000 48.0180
#
#
#
# Elastic Compliance Matrix: (Units=1/GPa)
#
#
# Indices 1 2 3 4 5 6 
#
# 1 0.006726 -0.000631 0.000407 0.000000 -0.002768 0.000000
# 2 -0.000631 -0.002927 -0.022468 0.000000 0.009592 0.000000
# 3 0.000407 -0.022468 0.002691 0.000000 0.023809 0.000000
# 4 0.000000 0.000000 0.000000 0.027331 0.000000 0.000914
# 5 -0.002768 0.009592 0.023809 0.000000 0.032574 0.000000
# 6 0.000000 0.000000 0.000000 0.000914 0.000000 0.020856
#
#
# Mechanical properties :
#
#
# Convention : Reuss Voigt Hill
#
# Bulk Modulus (GPa) = -25.71245 14.43206 -5.64019
# Shear Modulus (GPa) = 41.78130 34.91355 38.34742
#
# Velocity S-wave (km/s) = 4.60410 4.20872 4.41084
# Velocity P-wave (km/s) = 3.90108 5.56236 4.80408
#
# Compressibility (1/GPa) = -0.03889167
#
# Stress axis : x y z
#
# Youngs Moduli (GPa) = 148.66875 -341.63778 371.55181
#
# Poissons Ratio (x) = -0.21546 -0.15122
# Poissons Ratio (y) = 0.09376 8.34785
# Poissons Ratio (z) = -0.06051 -7.67576
#
# Static dielectric constant tensor:
#      x y z
#    x 1.713470 0.000000 -0.035870 
#    y 0.000000 1.657090 0.000000 
#    z -0.035870 0.000000 1.836770 
# 
# From -- ./inp_files/15068.got.cif
#   From: 2010.05.17/outbox.ucp.g08.bks.cvg/sg14_8_cif.got.tgz:15068.got - 2010.06.11 12:31:08.
