data_PCOD9253762
_publ_section_title
;
Structure prediction by ZEFSAII (Michael W. Deem and Ramdas Pophale) SiO2 
 PCOD9253762
Probable space group: C 2/C
;
_chemical_formula_sum "Si O2"
_cell_formula_units_Z 52
_cell_length_a 16.511189
_cell_length_b 21.109960
_cell_length_c 15.473928
_cell_angle_alpha 90.000000
_cell_angle_beta 147.870662
_cell_angle_gamma 90.000000
_cell_volume 2868.408625
_symmetry_space_group_name_H-M "C 2/C"
_symmetry_group_IT_number 15
_symmetry_cell_setting 'monoclinic'
loop_
_space_group_symop_operation_xyz
x,y,z
-x,y,1/2-z
-x,-y,-z
x,-y,1/2+z
1/2+x,1/2+y,z
1/2-x,1/2+y,1/2-z
1/2-x,1/2-y,-z
1/2+x,1/2-y,1/2+z
loop_
_atom_site_type_symbol
_atom_site_label
_atom_site_fract_x
_atom_site_fract_y
_atom_site_fract_z
Si Si1 0.255853 0.961120 0.041567
Si Si2 0.813851 0.400660 0.921723
Si Si3 0.238592 0.516149 0.276272
Si Si4 0.447081 0.587828 0.887123
Si Si5 0.602303 0.223229 0.916122
Si Si6 0.971590 0.858138 0.585168
Si Si7 0.000000 0.938943 0.250000
O O1 0.346752 0.938251 0.039810
O O2 0.158568 0.900004 0.986505
O O3 0.137995 0.014254 0.900393
O O4 0.329246 0.989577 0.195540
O O5 0.856329 0.438110 0.872765
O O6 0.629676 0.393208 0.749284
O O7 0.870696 0.329116 0.986580
O O8 0.394208 0.551765 0.447120
O O9 0.306387 0.458967 0.280022
O O10 0.454822 0.601397 0.793112
O O11 0.440509 0.640949 0.954559
O O12 0.500000 0.191932 0.750000
O O13 0.522367 0.286683 0.877520
O O14 0.750000 0.250000 0.000000
#
# Coordination Sequence:
#
# PCOD9253762 Si02
#       7
#     8   8   8   8   8   8   4
#     4  10  14  22  42  65  97 119 145 183 238 273
#     4  11  17  29  46  64  98 122 147 191 226 271
#     4   8  15  23  36  65  90 122 144 180 234 277
#     4   8  14  21  38  62  96 117 147 184 235 274
#     4  12  22  32  47  67  93 129 159 182 225 273
#     4  10  17  28  40  67  95 125 147 188 230 268
#     4  10  12  20  38  68  94 122 142 184 240 278
#
# _framework density 18.128518
#
# number of rings (size 3 to 8) (size 9 to 14) (size 15 to 20)
#    0.000    2.154    6.154    1.846    0.000    0.000 
#    0.000    0.000    0.000    0.923    0.000    9.692 
#    0.000    0.000    0.000    0.000    0.000    0.000 
#
# Total GULP energy -144846.871493 kJ/mol
# GULP energy per Si atom -5571.033519 kJ/mol
# Density = 1.808726 g / cm^3
# Si number density = 18.128518 Si / 1000 Ang^3
#
#
#
# Elastic Constant Matrix: (Units=GPa)
#
#
# Indices 1 2 3 4 5 6 
#
# 1 57.0833 17.4713 43.4909 0.0000 -31.9867 0.0000
# 2 17.4713 55.8556 31.2388 0.0000 -16.6733 0.0000
# 3 43.4909 31.2388 66.5157 0.0000 -32.4653 0.0000
# 4 0.0000 0.0000 0.0000 33.0059 0.0000 -10.5379
# 5 -31.9867 -16.6733 -32.4653 0.0000 39.7744 0.0000
# 6 0.0000 0.0000 0.0000 -10.5379 0.0000 13.3631
#
#
#
# Elastic Compliance Matrix: (Units=1/GPa)
#
#
# Indices 1 2 3 4 5 6 
#
# 1 0.042563 0.003723 -0.020129 0.000000 0.019360 0.000000
# 2 0.003723 0.024657 -0.012480 0.000000 0.003144 0.000000
# 3 -0.020129 -0.012480 0.039231 0.000000 0.010603 0.000000
# 4 0.000000 0.000000 0.000000 0.040493 0.000000 0.031932
# 5 0.019360 0.003144 0.010603 0.000000 0.050684 0.000000
# 6 0.000000 0.000000 0.000000 0.031932 0.000000 0.100014
#
#
# Mechanical properties :
#
#
# Convention : Reuss Voigt Hill
#
# Bulk Modulus (GPa) = 20.54217 40.42851 30.48534
# Shear Modulus (GPa) = 13.45390 23.04559 18.24974
#
# Velocity S-wave (km/s) = 2.72718 3.56930 3.17628
# Velocity P-wave (km/s) = 4.61223 6.27185 5.50494
#
# Compressibility (1/GPa) = 0.04868034
#
# Stress axis : x y z
#
# Youngs Moduli (GPa) = 23.49455 40.55657 25.48976
#
# Poissons Ratio (x) = -0.15100 0.51308
# Poissons Ratio (y) = -0.08748 0.31811
# Poissons Ratio (z) = 0.47292 0.50615
#
# Static dielectric constant tensor:
#      x y z
#    x 1.661470 0.000000 0.008180 
#    y 0.000000 1.608140 0.000000 
#    z 0.008180 0.000000 1.694210 
# 
# From -- ./inp_files/99078.got.cif
#   From: 2010.05.17/outbox.cif.g08.bks.cpg/sg15_50_cif.got.tgz:99078.got - 2010.06.03 18:47:42.
