data_PCOD9253377
_publ_section_title
;
Structure prediction by ZEFSAII (Michael W. Deem and Ramdas Pophale) SiO2 
 PCOD9253377
Probable space group: P 21/C
;
_chemical_formula_sum "Si O2"
_cell_formula_units_Z 12
_cell_length_a 9.284147
_cell_length_b 5.398655
_cell_length_c 13.079094
_cell_angle_alpha 90.000000
_cell_angle_beta 45.724153
_cell_angle_gamma 90.000000
_cell_volume 469.364710
_symmetry_space_group_name_H-M "P 21/C"
_symmetry_group_IT_number 14
_symmetry_cell_setting 'monoclinic'
loop_
_space_group_symop_operation_xyz
x,y,z
-x,1/2+y,1/2-z
-x,-y,-z
x,1/2-y,1/2+z
loop_
_atom_site_type_symbol
_atom_site_label
_atom_site_fract_x
_atom_site_fract_y
_atom_site_fract_z
Si Si1 0.521753 0.694905 0.673963
Si Si2 0.290524 0.856061 0.613518
Si Si3 0.914796 0.496090 0.428483
O O1 0.520867 0.454948 0.748271
O O2 0.356267 0.652530 0.667428
O O3 0.744320 0.707500 0.513974
O O4 0.214093 0.735298 0.547542
O O5 0.500000 0.000000 0.500000
O O6 0.101443 0.987367 0.759582
O O7 0.000000 0.500000 0.500000
#
# Coordination Sequence:
#
# PCOD9253377 Si02
#       3
#     4   4   4
#     4  12  27  51  83 119 169 220 279 347 424 502
#     4  12  28  52  81 121 173 217 286 352 427 504
#     4  12  28  48  84 122 161 226 281 349 423 510
#
# _framework density 25.566473999999999
#
# number of rings (size 3 to 8) (size 9 to 14) (size 15 to 20)
#    0.000    0.000    3.333    5.000    4.667    1.333 
#    0.000    0.000    0.000    0.000    0.000    0.000 
#    0.000    0.000    0.000    0.000    0.000    0.000 
#
# Total GULP energy -67187.485591 kJ/mol
# GULP energy per Si atom -5598.957133 kJ/mol
# Density = 2.550828 g / cm^3
# Si number density = 25.566474 Si / 1000 Ang^3
#
#
#
# Elastic Constant Matrix: (Units=GPa)
#
#
# Indices 1 2 3 4 5 6 
#
# 1 172.6456 81.0462 56.1639 0.0000 -13.8794 0.0000
# 2 81.0462 115.4293 56.7759 0.0000 1.1262 0.0000
# 3 56.1639 56.7759 198.6183 0.0000 -22.1040 0.0000
# 4 0.0000 0.0000 0.0000 45.7283 0.0000 -8.2858
# 5 -13.8794 1.1262 -22.1040 0.0000 54.6390 0.0000
# 6 0.0000 0.0000 0.0000 -8.2858 0.0000 55.1783
#
#
#
# Elastic Compliance Matrix: (Units=1/GPa)
#
#
# Indices 1 2 3 4 5 6 
#
# 1 0.008997 -0.006058 -0.000570 0.000000 0.002180 0.000000
# 2 -0.006058 0.014269 -0.002691 0.000000 -0.002921 0.000000
# 3 -0.000570 -0.002691 0.006236 0.000000 0.002433 0.000000
# 4 0.000000 0.000000 0.000000 0.022480 0.000000 0.003376
# 5 0.002180 -0.002921 0.002433 0.000000 0.019900 0.000000
# 6 0.000000 0.000000 0.000000 0.003376 0.000000 0.018630
#
#
# Mechanical properties :
#
#
# Convention : Reuss Voigt Hill
#
# Bulk Modulus (GPa) = 92.04477 97.18501 94.61489
# Shear Modulus (GPa) = 44.33819 50.62295 47.48057
#
# Velocity S-wave (km/s) = 4.16893 4.45461 4.31413
# Velocity P-wave (km/s) = 7.69764 8.03450 7.86787
#
# Compressibility (1/GPa) = 0.01086428
#
# Stress axis : x y z
#
# Youngs Moduli (GPa) = 111.15425 70.08348 160.36097
#
# Poissons Ratio (x) = 0.42455 0.09137
# Poissons Ratio (y) = 0.67334 0.43152
# Poissons Ratio (z) = 0.06333 0.18859
#
# Static dielectric constant tensor:
#      x y z
#    x 2.038790 0.000000 0.072230 
#    y 0.000000 2.128160 0.000000 
#    z 0.072230 0.000000 2.077560 
# 
# From -- ./inp_files/22382.got.cif
#   From: 2010.05.17/outbox.cif.g08.bks.cpg/sg14_12_cif.got.tgz:22382.got - 2010.06.03 17:49:19.
