data_PCOD9253013
_publ_section_title
;
Structure prediction by ZEFSAII (Michael W. Deem and Ramdas Pophale) SiO2 
 PCOD9253013
Probable space group: P 21/C
;
_chemical_formula_sum "Si O2"
_cell_formula_units_Z 16
_cell_length_a 5.125445
_cell_length_b 5.246540
_cell_length_c 23.575234
_cell_angle_alpha 90.000000
_cell_angle_beta 70.534896
_cell_angle_gamma 90.000000
_cell_volume 597.724016
_symmetry_space_group_name_H-M "P 21/C"
_symmetry_group_IT_number 14
_symmetry_cell_setting 'monoclinic'
loop_
_space_group_symop_operation_xyz
x,y,z
-x,1/2+y,1/2-z
-x,-y,-z
x,1/2-y,1/2+z
loop_
_atom_site_type_symbol
_atom_site_label
_atom_site_fract_x
_atom_site_fract_y
_atom_site_fract_z
Si Si1 0.711447 0.441030 0.902824
Si Si2 0.338882 0.220092 0.193002
Si Si3 0.177571 0.251315 0.501912
Si Si4 0.156794 0.103313 0.825145
O O1 0.648356 0.518618 0.842850
O O2 0.996795 0.289038 0.878714
O O3 0.747572 0.697663 0.937464
O O4 0.000000 0.500000 0.000000
O O5 0.618769 0.069763 0.160869
O O6 0.305055 0.251127 0.262608
O O7 0.073529 0.069438 0.189259
O O8 0.468859 0.223445 0.448346
O O9 0.000000 0.500000 0.500000
#
# Coordination Sequence:
#
# PCOD9253013 Si02
#       4
#     4   4   4   4
#     4  11  30  52  80 122 168 223 290 358 428 519
#     4  12  28  50  82 124 172 221 282 350 437 522
#     4  11  30  55  85 120 170 230 296 360 430 504
#     4  12  28  50  82 124 172 221 282 350 437 522
#
# _framework density 26.768207
#
# number of rings (size 3 to 8) (size 9 to 14) (size 15 to 20)
#    0.000    0.500    2.500    1.500   14.000    2.000 
#    0.000    3.750    0.000    0.000    0.000    0.000 
#    0.000    0.000    0.000    0.000    0.000    0.000 
#
# Total GULP energy -89980.169589 kJ/mol
# GULP energy per Si atom -5623.760599 kJ/mol
# Density = 2.670728 g / cm^3
# Si number density = 26.768207 Si / 1000 Ang^3
#
#
#
# Elastic Constant Matrix: (Units=GPa)
#
#
# Indices 1 2 3 4 5 6 
#
# 1 159.6318 60.6497 28.9653 0.0000 -24.7752 0.0000
# 2 60.6497 135.6421 35.8013 0.0000 -21.1474 0.0000
# 3 28.9653 35.8013 124.5888 0.0000 -21.2764 0.0000
# 4 0.0000 0.0000 0.0000 37.5727 0.0000 10.4217
# 5 -24.7752 -21.1474 -21.2764 0.0000 48.6146 0.0000
# 6 0.0000 0.0000 0.0000 10.4217 0.0000 73.6473
#
#
#
# Elastic Compliance Matrix: (Units=1/GPa)
#
#
# Indices 1 2 3 4 5 6 
#
# 1 0.007886 -0.002995 -0.000550 0.000000 0.002475 0.000000
# 2 -0.002995 0.009448 -0.001705 0.000000 0.001837 0.000000
# 3 -0.000550 -0.001705 0.009154 0.000000 0.002984 0.000000
# 4 0.000000 0.000000 0.000000 0.027702 0.000000 -0.003920
# 5 0.002475 0.001837 0.002984 0.000000 0.023937 0.000000
# 6 0.000000 0.000000 0.000000 -0.003920 0.000000 0.014133
#
#
# Mechanical properties :
#
#
# Convention : Reuss Voigt Hill
#
# Bulk Modulus (GPa) = 62.54637 74.52170 68.53404
# Shear Modulus (GPa) = 46.25780 51.59667 48.92724
#
# Velocity S-wave (km/s) = 4.16154 4.39513 4.27993
# Velocity P-wave (km/s) = 6.81966 7.32505 7.07687
#
# Compressibility (1/GPa) = 0.01598814
#
# Stress axis : x y z
#
# Youngs Moduli (GPa) = 126.80105 105.84278 109.24404
#
# Poissons Ratio (x) = 0.31701 0.06009
# Poissons Ratio (y) = 0.37978 0.18624
# Poissons Ratio (z) = 0.06975 0.18044
#
# Static dielectric constant tensor:
#      x y z
#    x 2.061510 0.000000 0.035300 
#    y 0.000000 2.113380 0.000000 
#    z 0.035300 0.000000 2.097510 
# 
# From -- ./inp_files/62817.got.cif
#   From: 2010.05.17/outbox.cif.g08.bks.cpg/sg14_32_cif.got.tgz:62817.got - 2010.06.03 17:49:19.
