data_PCOD9253857
_publ_section_title
;
Structure prediction by ZEFSAII (Michael W. Deem and Ramdas Pophale) SiO2 
 PCOD9253857
Probable space group: C 2/C
;
_chemical_formula_sum "Si O2"
_cell_formula_units_Z 48
_cell_length_a 15.528412
_cell_length_b 21.854902
_cell_length_c 13.148576
_cell_angle_alpha 90.000000
_cell_angle_beta 26.335693
_cell_angle_gamma 90.000000
_cell_volume 1979.589429
_symmetry_space_group_name_H-M "C 2/C"
_symmetry_group_IT_number 15
_symmetry_cell_setting 'monoclinic'
loop_
_space_group_symop_operation_xyz
x,y,z
-x,y,1/2-z
-x,-y,-z
x,-y,1/2+z
1/2+x,1/2+y,z
1/2-x,1/2+y,1/2-z
1/2-x,1/2-y,-z
1/2+x,1/2-y,1/2+z
loop_
_atom_site_type_symbol
_atom_site_label
_atom_site_fract_x
_atom_site_fract_y
_atom_site_fract_z
Si Si1 0.341940 0.866337 0.777941
Si Si2 0.250000 0.750000 0.000000
Si Si3 0.496604 0.835589 0.406048
Si Si4 0.440763 0.306125 0.696182
Si Si5 0.500000 0.066419 0.750000
Si Si6 0.101959 0.147990 0.823249
Si Si7 0.283642 0.461809 0.433196
O O1 0.488883 0.856032 0.530967
O O2 0.353354 0.807021 0.835506
O O3 0.337941 0.927140 0.849112
O O4 0.124618 0.861636 0.964207
O O5 0.167926 0.796891 0.179099
O O6 0.572011 0.767201 0.308462
O O7 0.272711 0.831433 0.602836
O O8 0.584873 0.889632 0.246568
O O9 0.500000 0.316725 0.750000
O O10 0.590613 0.333037 0.453462
O O11 0.671742 0.023537 0.526409
O O12 0.198479 0.085774 0.679130
O O13 0.500000 0.472013 0.250000
#
# Coordination Sequence:
#
# PCOD9253857 Si02
#       7
#     8   4   8   8   4   8   8
#     4   9  19  38  62  94 132 173 212 285 337 404
#     4  10  14  30  60  96 124 162 212 268 350 388
#     4  11  24  42  65  95 139 167 226 282 332 410
#     4  11  22  42  64  97 131 177 220 272 348 409
#     4  12  26  44  64 100 132 188 238 266 320 424
#     4   9  19  37  63  94 134 169 220 279 348 401
#     4   9  21  46  67  94 137 176 225 281 339 396
#
# _framework density 24.247453
#
# number of rings (size 3 to 8) (size 9 to 14) (size 15 to 20)
#    0.000    2.000    2.500    2.000    0.000    1.333 
#   15.000    9.167    0.000    0.000    0.000    0.000 
#    0.000    0.000    0.000    0.000    0.000    0.000 
#
# Total GULP energy -133878.818599 kJ/mol
# GULP energy per Si atom -5578.284108 kJ/mol
# Density = 2.419226 g / cm^3
# Si number density = 24.247453 Si / 1000 Ang^3
#
#
#
# Elastic Constant Matrix: (Units=GPa)
#
#
# Indices 1 2 3 4 5 6 
#
# 1 108.4770 30.3423 36.8952 0.0183 22.3351 -0.0084
# 2 30.3423 130.8635 48.2557 0.0509 15.4206 -0.0234
# 3 36.8952 48.2557 108.7468 0.0429 27.8869 -0.0208
# 4 0.0183 0.0509 0.0429 35.0797 -0.0134 -17.3013
# 5 22.3351 15.4206 27.8869 -0.0134 49.7302 0.0014
# 6 -0.0084 -0.0234 -0.0208 -17.3013 0.0014 -1.3192
#
#
#
# Elastic Compliance Matrix: (Units=1/GPa)
#
#
# Indices 1 2 3 4 5 6 
#
# 1 0.011049 -0.001320 -0.002330 -0.000001 -0.003246 0.000002
# 2 -0.001320 0.009312 -0.003616 -0.000008 -0.000267 0.000002
# 3 -0.002330 -0.003616 0.012888 -0.000010 -0.005059 0.000002
# 4 -0.000001 -0.000008 -0.000010 0.003817 0.000011 -0.050060
# 5 -0.003246 -0.000267 -0.005059 0.000011 0.024486 -0.000013
# 6 0.000002 0.000002 0.000002 -0.050060 -0.000013 -0.101499
#
#
# Mechanical properties :
#
#
# Convention : Reuss Voigt Hill
#
# Bulk Modulus (GPa) = 53.42793 64.34154 58.88474
# Shear Modulus (GPa) = -260.76061 32.20441 -114.27810
#
# Velocity S-wave (km/s) = -10.38147 3.64834 -6.87257
# Velocity P-wave (km/s) = 11.02804 6.65884 6.21600
#
# Compressibility (1/GPa) = 0.01871680
#
# Stress axis : x y z
#
# Youngs Moduli (GPa) = 90.50806 107.38284 77.58945
#
# Poissons Ratio (x) = 0.14174 0.18082
# Poissons Ratio (y) = 0.11946 0.28057
# Poissons Ratio (z) = 0.21092 0.38830
#
# Static dielectric constant tensor:
#      x y z
#    x 2.078960 0.000010 -0.085560 
#    y 0.000010 1.831820 0.000010 
#    z -0.085560 0.000010 1.985540 
# 
# From -- ./inp_files/100022.got.cif
#   From: 2010.05.17/outbox.cif.g08.bks.cpg/sg15_51_cif.got.tgz:100022.got - 2010.06.03 18:47:42.
