data_PCOD9253213
_publ_section_title
;
Structure prediction by ZEFSAII (Michael W. Deem and Ramdas Pophale) SiO2 
 PCOD9253213
Probable space group: P 21/C
;
_chemical_formula_sum "Si O2"
_cell_formula_units_Z 20
_cell_length_a 19.885827
_cell_length_b 6.954017
_cell_length_c 14.139172
_cell_angle_alpha 90.000000
_cell_angle_beta 27.961953
_cell_angle_gamma 90.000000
_cell_volume 916.789971
_symmetry_space_group_name_H-M "P 21/C"
_symmetry_group_IT_number 14
_symmetry_cell_setting 'monoclinic'
loop_
_space_group_symop_operation_xyz
x,y,z
-x,1/2+y,1/2-z
-x,-y,-z
x,1/2-y,1/2+z
loop_
_atom_site_type_symbol
_atom_site_label
_atom_site_fract_x
_atom_site_fract_y
_atom_site_fract_z
Si Si1 0.671047 0.276403 0.947797
Si Si2 0.831469 0.748513 0.963486
Si Si3 0.952160 0.468410 0.667372
Si Si4 0.349495 0.907702 0.218879
Si Si5 0.584546 0.053115 0.226565
O O1 0.805338 0.348030 0.841051
O O2 0.718554 0.183154 0.790904
O O3 0.582566 0.125173 0.121069
O O4 0.564587 0.453622 0.060649
O O5 0.751392 0.567967 0.110571
O O6 0.711133 0.899601 0.081282
O O7 0.918352 0.664418 0.766198
O O8 0.934001 0.850506 0.912065
O O9 0.000000 0.500000 0.500000
O O10 0.383735 0.735853 0.247942
O O11 0.500000 0.000000 0.000000
#
# Coordination Sequence:
#
# PCOD9253213 Si02
#       5
#     4   4   4   4   4
#     4  12  25  44  78 106 147 191 253 302 381 442
#     4  12  28  52  73 109 158 194 256 311 381 453
#     4  12  29  48  75 108 150 206 245 310 380 453
#     4  12  26  47  77 112 144 199 243 318 379 440
#     4  12  25  50  74 111 148 191 253 317 367 451
#
# _framework density 21.815245999999998
#
# number of rings (size 3 to 8) (size 9 to 14) (size 15 to 20)
#    0.000    0.000    4.000    5.400    8.400    0.800 
#    0.000    0.000    0.000    0.000    0.000    0.000 
#    0.000    0.000    0.000    0.000    0.000    0.000 
#
# Total GULP energy -112121.332645 kJ/mol
# GULP energy per Si atom -5606.066632 kJ/mol
# Density = 2.176559 g / cm^3
# Si number density = 21.815246 Si / 1000 Ang^3
#
#
#
# Elastic Constant Matrix: (Units=GPa)
#
#
# Indices 1 2 3 4 5 6 
#
# 1 82.3122 21.6931 23.1804 0.0000 7.2458 0.0000
# 2 21.6931 105.5600 36.9894 0.0000 6.5524 0.0000
# 3 23.1804 36.9894 84.4253 0.0000 15.7678 0.0000
# 4 0.0000 0.0000 0.0000 23.9469 0.0000 -2.9432
# 5 7.2458 6.5524 15.7678 0.0000 53.5246 0.0000
# 6 0.0000 0.0000 0.0000 -2.9432 0.0000 49.0389
#
#
#
# Elastic Compliance Matrix: (Units=1/GPa)
#
#
# Indices 1 2 3 4 5 6 
#
# 1 0.013462 -0.001741 -0.002786 0.000000 -0.000788 0.000000
# 2 -0.001741 0.011417 -0.004558 0.000000 0.000181 0.000000
# 3 -0.002786 -0.004558 0.015272 0.000000 -0.003564 0.000000
# 4 0.000000 0.000000 0.000000 0.042069 0.000000 0.002525
# 5 -0.000788 0.000181 -0.003564 0.000000 0.019817 0.000000
# 6 0.000000 0.000000 0.000000 0.002525 0.000000 0.020544
#
#
# Mechanical properties :
#
#
# Convention : Reuss Voigt Hill
#
# Bulk Modulus (GPa) = 45.49403 48.44701 46.97052
# Shear Modulus (GPa) = 33.76586 37.99773 35.88179
#
# Velocity S-wave (km/s) = 3.93849 4.17801 4.06002
# Velocity P-wave (km/s) = 6.44839 6.74763 6.59971
#
# Compressibility (1/GPa) = 0.02198091
#
# Stress axis : x y z
#
# Youngs Moduli (GPa) = 74.28450 87.58857 65.47814
#
# Poissons Ratio (x) = 0.15252 0.18242
# Poissons Ratio (y) = 0.12935 0.29844
# Poissons Ratio (z) = 0.20696 0.39921
#
# Static dielectric constant tensor:
#      x y z
#    x 1.774450 0.000000 0.015010 
#    y 0.000000 1.814690 0.000000 
#    z 0.015010 0.000000 1.833490 
# 
# From -- ./inp_files/49560.got.cif
#   From: 2010.05.17/outbox.cif.g08.bks.cpg/sg14_25_cif.got.tgz:49560.got - 2010.06.03 17:49:19.
