data_PCOD9253639
_publ_section_title
;
Structure prediction by ZEFSAII (Michael W. Deem and Ramdas Pophale) SiO2 
 PCOD9253639
Probable space group: P 21/C
;
_chemical_formula_sum "Si O2"
_cell_formula_units_Z 32
_cell_length_a 15.000000
_cell_length_b 12.000000
_cell_length_c 9.000000
_cell_angle_alpha 90.000000
_cell_angle_beta 90.000000
_cell_angle_gamma 90.000000
_cell_volume 1620.000000
_symmetry_space_group_name_H-M "P 21/C"
_symmetry_group_IT_number 14
_symmetry_cell_setting 'monoclinic'
loop_
_space_group_symop_operation_xyz
x,y,z
-x,1/2+y,1/2-z
-x,-y,-z
x,1/2-y,1/2+z
loop_
_atom_site_type_symbol
_atom_site_label
_atom_site_fract_x
_atom_site_fract_y
_atom_site_fract_z
Si Si1 0.732721 0.671108 0.602707
Si Si2 0.403025 0.758539 0.300501
Si Si3 0.099799 0.456381 0.557495
Si Si4 0.276397 0.644103 0.061427
Si Si5 0.974723 0.730694 0.903548
Si Si6 0.479919 0.372171 0.458194
Si Si7 0.892865 0.298908 0.349148
Si Si8 0.210176 0.113299 0.570384
O O1 0.815166 0.592627 0.537777
O O2 0.628485 0.645415 0.558562
O O3 0.743142 0.654471 0.778150
O O4 0.757196 0.797607 0.553318
O O5 0.347182 0.671535 0.195547
O O6 0.329473 0.818634 0.409991
O O7 0.462022 0.836166 0.188636
O O8 0.474940 0.699907 0.409060
O O9 0.072558 0.346075 0.650177
O O10 0.133818 0.572562 0.624331
O O11 0.000000 0.500000 0.500000
O O12 0.189930 0.720437 0.105093
O O13 0.240726 0.515794 0.049337
O O14 0.897392 0.636680 0.909992
O O15 0.065304 0.706405 0.814348
O O16 0.017244 0.762708 0.061752
O O17 0.500000 0.500000 0.500000
#
# Coordination Sequence:
#
# PCOD9253639 Si02
#       8
#     4   4   4   4   4   4   4   4
#     4  11  24  43  70  98 130 178 225 268 345 397
#     4  10  25  46  65 103 135 170 234 276 352 397
#     4   9  21  39  65  91 135 172 213 271 329 396
#     4  11  25  43  69  97 136 182 224 285 337 414
#     4  10  22  41  60  97 128 176 222 277 329 400
#     4  11  24  44  72  99 134 177 223 284 334 406
#     4  11  23  39  64  93 132 177 227 268 343 398
#     4  11  24  43  67  95 138 170 225 279 336 400
#
# _framework density 19.753086
#
# number of rings (size 3 to 8) (size 9 to 14) (size 15 to 20)
#    0.000    1.500    0.000    4.500   10.500    2.500 
#    9.000    3.125    0.000    0.000    0.000    0.000 
#    0.000    0.000    0.000    0.000    0.000    0.000 
#
# Total GULP energy -178318.171512 kJ/mol
# GULP energy per Si atom -5572.442860 kJ/mol
# Density = 1.970813 g / cm^3
# Si number density = 19.753086 Si / 1000 Ang^3
#
#
#
# Elastic Constant Matrix: (Units=GPa)
#
#
# Indices 1 2 3 4 5 6 
#
# 1 147.2033 36.8832 19.3364 0.0000 -11.1740 0.0000
# 2 36.8832 131.2910 35.2045 0.0000 -19.8517 0.0000
# 3 19.3364 35.2045 82.7314 0.0000 -9.9647 0.0000
# 4 0.0000 0.0000 0.0000 23.3807 0.0000 -5.7506
# 5 -11.1740 -19.8517 -9.9647 0.0000 42.2886 0.0000
# 6 0.0000 0.0000 0.0000 -5.7506 0.0000 45.0197
#
#
#
# Elastic Compliance Matrix: (Units=1/GPa)
#
#
# Indices 1 2 3 4 5 6 
#
# 1 0.007408 -0.001698 -0.000895 0.000000 0.000950 0.000000
# 2 -0.001698 0.009449 -0.003236 0.000000 0.003225 0.000000
# 3 -0.000895 -0.003236 0.013855 0.000000 0.001509 0.000000
# 4 0.000000 0.000000 0.000000 0.044158 0.000000 0.005640
# 5 0.000950 0.003225 0.001509 0.000000 0.025767 0.000000
# 6 0.000000 0.000000 0.000000 0.005640 0.000000 0.022933
#
#
# Mechanical properties :
#
#
# Convention : Reuss Voigt Hill
#
# Bulk Modulus (GPa) = 52.47617 60.45268 56.46442
# Shear Modulus (GPa) = 35.31621 40.12456 37.72038
#
# Velocity S-wave (km/s) = 4.23292 4.51189 4.37463
# Velocity P-wave (km/s) = 7.10732 7.60352 7.35960
#
# Compressibility (1/GPa) = 0.01905627
#
# Stress axis : x y z
#
# Youngs Moduli (GPa) = 134.98342 105.83424 72.17585
#
# Poissons Ratio (x) = 0.17967 0.06458
# Poissons Ratio (y) = 0.22916 0.23353
# Poissons Ratio (z) = 0.12077 0.34243
#
# Static dielectric constant tensor:
#      x y z
#    x 1.696530 0.000000 0.010260 
#    y 0.000000 1.696000 0.000000 
#    z 0.010260 0.000000 1.761980 
# 
# From -- ./inp_files/15823.got.cif
#   From: 2010.05.17/outbox.ucp.g08.bks.cvg/sg14_8_cif.got.tgz:15823.got - 2010.06.11 12:31:08.
