data_PCOD9253767
_publ_section_title
;
Structure prediction by ZEFSAII (Michael W. Deem and Ramdas Pophale) SiO2 
 PCOD9253767
Probable space group: C 2/C
;
_chemical_formula_sum "Si O2"
_cell_formula_units_Z 44
_cell_length_a 11.606496
_cell_length_b 8.429683
_cell_length_c 23.169097
_cell_angle_alpha 90.000000
_cell_angle_beta 107.339736
_cell_angle_gamma 90.000000
_cell_volume 2163.824982
_symmetry_space_group_name_H-M "C 2/C"
_symmetry_group_IT_number 15
_symmetry_cell_setting 'monoclinic'
loop_
_space_group_symop_operation_xyz
x,y,z
-x,y,1/2-z
-x,-y,-z
x,-y,1/2+z
1/2+x,1/2+y,z
1/2-x,1/2+y,1/2-z
1/2-x,1/2-y,-z
1/2+x,1/2-y,1/2+z
loop_
_atom_site_type_symbol
_atom_site_label
_atom_site_fract_x
_atom_site_fract_y
_atom_site_fract_z
Si Si1 0.000000 0.461521 0.750000
Si Si2 0.164716 0.930147 0.867625
Si Si3 0.938397 0.292486 0.333774
Si Si4 0.502672 0.732957 0.847576
Si Si5 0.079351 0.528696 0.067798
Si Si6 0.634418 0.499091 0.739619
O O1 0.074079 0.579970 0.719932
O O2 0.940631 0.344545 0.693973
O O3 0.085789 0.082798 0.873950
O O4 0.283528 0.917885 0.923564
O O5 0.209301 0.970862 0.808658
O O6 0.075621 0.779026 0.853932
O O7 0.916670 0.370385 0.392119
O O8 0.855472 0.144780 0.303379
O O9 0.381208 0.658935 0.799614
O O10 0.477045 0.837624 0.899053
O O11 0.000000 0.500000 0.000000
O O12 0.500000 0.486249 0.750000
#
# Coordination Sequence:
#
# PCOD9253767 Si02
#       6
#     4   8   8   8   8   8
#     4  10  12  30  56  88 112 130 172 232 282 324
#     4  10  19  39  59  79 117 149 171 233 296 315
#     4   9  18  35  57  82 117 139 176 239 274 332
#     4   9  18  35  57  82 117 139 176 239 274 332
#     4  11  25  37  53  85 111 150 203 218 251 341
#     4   8  14  33  55  84 108 135 175 224 294 331
#
# _framework density 20.334361999999999
#
# number of rings (size 3 to 8) (size 9 to 14) (size 15 to 20)
#    0.000    2.909    5.455    0.000    0.000    2.909 
#    0.000    9.091    0.000    0.000    0.000    0.000 
#    0.000    0.000    0.000    0.000    0.000    0.000 
#
# Total GULP energy -122533.421785 kJ/mol
# GULP energy per Si atom -5569.700990 kJ/mol
# Density = 2.028808 g / cm^3
# Si number density = 20.334362 Si / 1000 Ang^3
#
#
#
# Elastic Constant Matrix: (Units=GPa)
#
#
# Indices 1 2 3 4 5 6 
#
# 1 50.8220 6.5636 8.9597 0.0000 10.7715 0.0000
# 2 6.5636 85.6636 20.3743 0.0000 -7.1369 0.0000
# 3 8.9597 20.3743 87.3816 0.0000 14.2832 0.0000
# 4 0.0000 0.0000 0.0000 19.1127 0.0000 -8.2727
# 5 10.7715 -7.1369 14.2832 0.0000 25.9724 0.0000
# 6 0.0000 0.0000 0.0000 -8.2727 0.0000 20.5992
#
#
#
# Elastic Compliance Matrix: (Units=1/GPa)
#
#
# Indices 1 2 3 4 5 6 
#
# 1 0.022090 -0.002489 -0.000083 0.000000 -0.009800 0.000000
# 2 -0.002489 0.013390 -0.003996 0.000000 0.006910 0.000000
# 3 -0.000083 -0.003996 0.013799 0.000000 -0.008652 0.000000
# 4 0.000000 0.000000 0.000000 0.063329 0.000000 0.025433
# 5 -0.009800 0.006910 -0.008652 0.000000 0.049224 0.000000
# 6 0.000000 0.000000 0.000000 0.025433 0.000000 0.058759
#
#
# Mechanical properties :
#
#
# Convention : Reuss Voigt Hill
#
# Bulk Modulus (GPa) = 27.66872 32.85139 30.26006
# Shear Modulus (GPa) = 20.34379 25.66817 23.00598
#
# Velocity S-wave (km/s) = 3.16644 3.55675 3.36725
# Velocity P-wave (km/s) = 5.19662 5.74960 5.48009
#
# Compressibility (1/GPa) = 0.03614190
#
# Stress axis : x y z
#
# Youngs Moduli (GPa) = 45.27023 74.67996 72.47091
#
# Poissons Ratio (x) = 0.18590 0.00599
# Poissons Ratio (y) = 0.11269 0.28962
# Poissons Ratio (z) = 0.00374 0.29845
#
# Static dielectric constant tensor:
#      x y z
#    x 1.811470 0.000000 0.050660 
#    y 0.000000 1.769260 0.000000 
#    z 0.050660 0.000000 1.740070 
# 
# From -- ./inp_files/116232.got.cif
#   From: 2010.05.17/outbox.cif.g08.bks.cpg/sg15_59_cif.got.tgz:116232.got - 2010.06.03 18:47:42.
