data_PCOD9253344
_publ_section_title
;
Structure prediction by ZEFSAII (Michael W. Deem and Ramdas Pophale) SiO2 
 PCOD9253344
Probable space group: P 21/C
;
_chemical_formula_sum "Si O2"
_cell_formula_units_Z 16
_cell_length_a 4.730986
_cell_length_b 16.057591
_cell_length_c 9.115075
_cell_angle_alpha 90.000000
_cell_angle_beta 112.722371
_cell_angle_gamma 90.000000
_cell_volume 638.712824
_symmetry_space_group_name_H-M "P 21/C"
_symmetry_group_IT_number 14
_symmetry_cell_setting 'monoclinic'
loop_
_space_group_symop_operation_xyz
x,y,z
-x,1/2+y,1/2-z
-x,-y,-z
x,1/2-y,1/2+z
loop_
_atom_site_type_symbol
_atom_site_label
_atom_site_fract_x
_atom_site_fract_y
_atom_site_fract_z
Si Si1 0.225302 0.945184 0.872806
Si Si2 0.118139 0.711738 0.562003
Si Si3 0.458527 0.502651 0.818410
Si Si4 0.259241 0.178324 0.724412
O O1 0.345159 0.934400 0.731004
O O2 0.176312 0.861375 0.954609
O O3 0.103814 0.009667 0.203343
O O4 0.500000 0.000000 0.000000
O O5 0.447559 0.736631 0.690513
O O6 0.922287 0.677989 0.659264
O O7 0.948042 0.785200 0.444833
O O8 0.600438 0.590043 0.793365
O O9 0.500000 0.500000 0.000000
#
# Coordination Sequence:
#
# PCOD9253344 Si02
#       4
#     4   4   4   4
#     4  12  26  51  83 112 150 210 261 321 385 463
#     4  12  28  52  80 115 158 210 258 323 395 469
#     4  12  28  50  81 117 157 200 266 327 384 461
#     4  12  28  52  77 116 159 205 258 322 391 472
#
# _framework density 25.050381999999999
#
# number of rings (size 3 to 8) (size 9 to 14) (size 15 to 20)
#    0.000    0.000    2.500    6.000    3.500    0.000 
#    0.000    0.000    0.000    0.000    0.000    0.000 
#    0.000    0.000    0.000    0.000    0.000    0.000 
#
# Total GULP energy -89810.109808 kJ/mol
# GULP energy per Si atom -5613.131863 kJ/mol
# Density = 2.499337 g / cm^3
# Si number density = 25.050382 Si / 1000 Ang^3
#
#
#
# Elastic Constant Matrix: (Units=GPa)
#
#
# Indices 1 2 3 4 5 6 
#
# 1 183.4177 25.5327 47.6392 0.0000 -14.8238 0.0000
# 2 25.5327 69.8116 19.0166 0.0000 -4.6666 0.0000
# 3 47.6392 19.0166 121.7399 0.0000 -27.1749 0.0000
# 4 0.0000 0.0000 0.0000 11.2204 0.0000 20.8032
# 5 -14.8238 -4.6666 -27.1749 0.0000 68.0238 0.0000
# 6 0.0000 0.0000 0.0000 20.8032 0.0000 22.4915
#
#
#
# Elastic Compliance Matrix: (Units=1/GPa)
#
#
# Indices 1 2 3 4 5 6 
#
# 1 0.006265 -0.001693 -0.002095 0.000000 0.000412 0.000000
# 2 -0.001693 0.015419 -0.001748 0.000000 -0.000010 0.000000
# 3 -0.002095 -0.001748 0.010077 0.000000 0.003449 0.000000
# 4 0.000000 0.000000 0.000000 -0.124670 0.000000 0.115311
# 5 0.000412 -0.000010 0.003449 0.000000 0.016168 0.000000
# 6 0.000000 0.000000 0.000000 0.115311 0.000000 -0.062194
#
#
# Mechanical properties :
#
#
# Convention : Reuss Voigt Hill
#
# Bulk Modulus (GPa) = 48.33619 62.14957 55.24288
# Shear Modulus (GPa) = -41.33412 39.19920 -1.06746
#
# Velocity S-wave (km/s) = -4.06647 3.96006 -0.65349
# Velocity P-wave (km/s) = 1.64645 6.76559 4.64017
#
# Compressibility (1/GPa) = 0.02068843
#
# Stress axis : x y z
#
# Youngs Moduli (GPa) = 159.61089 64.85482 99.23447
#
# Poissons Ratio (x) = 0.10981 0.20792
# Poissons Ratio (y) = 0.27024 0.17347
# Poissons Ratio (z) = 0.33442 0.11337
#
# Static dielectric constant tensor:
#      x y z
#    x 1.983360 0.000000 -0.018800 
#    y 0.000000 1.986650 0.000000 
#    z -0.018800 0.000000 2.009320 
# 
# From -- ./inp_files/5143.got.cif
#   From: 2010.05.17/outbox.cif.g08.bks.cpg/sg14_3_cif.got.tgz:5143.got - 2010.06.03 17:49:19.
