data_PCOD9253783
_publ_section_title
;
Structure prediction by ZEFSAII (Michael W. Deem and Ramdas Pophale) SiO2 
 PCOD9253783
Probable space group: C 2/C
;
_chemical_formula_sum "Si O2"
_cell_formula_units_Z 64
_cell_length_a 17.248612
_cell_length_b 12.377071
_cell_length_c 17.493498
_cell_angle_alpha 90.000000
_cell_angle_beta 121.372366
_cell_angle_gamma 90.000000
_cell_volume 3188.642675
_symmetry_space_group_name_H-M "C 2/C"
_symmetry_group_IT_number 15
_symmetry_cell_setting 'monoclinic'
loop_
_space_group_symop_operation_xyz
x,y,z
-x,y,1/2-z
-x,-y,-z
x,-y,1/2+z
1/2+x,1/2+y,z
1/2-x,1/2+y,1/2-z
1/2-x,1/2-y,-z
1/2+x,1/2-y,1/2+z
loop_
_atom_site_type_symbol
_atom_site_label
_atom_site_fract_x
_atom_site_fract_y
_atom_site_fract_z
Si Si1 0.774482 0.454437 0.657171
Si Si2 0.415433 0.569534 0.931309
Si Si3 0.060921 0.016168 0.215664
Si Si4 0.031412 0.746521 0.657084
Si Si5 0.807530 0.737244 0.392375
Si Si6 0.133647 0.348607 0.359291
Si Si7 0.781419 0.729590 0.824646
Si Si8 0.732671 0.985623 0.666195
O O1 0.675095 0.504918 0.592146
O O2 0.842847 0.524886 0.641208
O O3 0.762866 0.325687 0.648539
O O4 0.792492 0.479772 0.756484
O O5 0.423430 0.566422 0.844198
O O6 0.397451 0.690908 0.948022
O O7 0.500000 0.500000 0.000000
O O8 0.012894 0.127087 0.164495
O O9 0.162437 0.049353 0.291067
O O10 0.000000 0.967783 0.250000
O O11 0.084270 0.693949 0.756779
O O12 0.110376 0.747156 0.633619
O O13 0.936447 0.682159 0.609888
O O14 0.728770 0.783851 0.406744
O O15 0.767873 0.762195 0.284873
O O16 0.820820 0.609151 0.403477
O O17 0.772469 0.611161 0.855929
#
# Coordination Sequence:
#
# PCOD9253783 Si02
#       8
#     8   8   8   8   8   8   8   8
#     4   9  16  27  44  68  96 126 165 201 248 300
#     4  10  19  31  48  71 101 135 165 197 249 316
#     4  11  17  27  47  74 100 125 159 212 257 297
#     4  10  14  22  42  72  95 122 149 204 269 290
#     4   9  15  27  43  66  97 125 160 204 245 290
#     4   9  14  23  40  67  95 123 144 202 263 291
#     4  10  15  26  46  70  94 126 165 206 253 294
#     4  10  15  26  46  68  95 124 162 215 251 286
#
# _framework density 20.071237
#
# number of rings (size 3 to 8) (size 9 to 14) (size 15 to 20)
#    0.000    2.250   11.250    0.000    0.000    0.000 
#    0.000    0.000    5.500    7.500    0.000    0.875 
#    0.000    0.000    0.000    0.000    0.000    0.000 
#
# Total GULP energy -178207.284584 kJ/mol
# GULP energy per Si atom -5568.977643 kJ/mol
# Density = 2.002555 g / cm^3
# Si number density = 20.071237 Si / 1000 Ang^3
#
#
#
# Elastic Constant Matrix: (Units=GPa)
#
#
# Indices 1 2 3 4 5 6 
#
# 1 87.7217 42.1348 12.0219 0.0000 7.5735 0.0000
# 2 42.1348 177.8098 17.4086 0.0000 -5.3155 0.0000
# 3 12.0219 17.4086 24.3539 0.0000 1.2076 0.0000
# 4 0.0000 0.0000 0.0000 58.5054 0.0000 59.8477
# 5 7.5735 -5.3155 1.2076 0.0000 -5.1336 0.0000
# 6 0.0000 0.0000 0.0000 59.8477 0.0000 91.5563
#
#
#
# Elastic Compliance Matrix: (Units=1/GPa)
#
#
# Indices 1 2 3 4 5 6 
#
# 1 0.011432 -0.001671 -0.005309 0.000000 0.017347 0.000000
# 2 -0.001671 0.006034 -0.003021 0.000000 -0.009423 0.000000
# 3 -0.005309 -0.003021 0.045544 0.000000 0.006009 0.000000
# 4 0.000000 0.000000 0.000000 0.051587 0.000000 -0.033721
# 5 0.017347 -0.009423 0.006009 0.000000 -0.158033 0.000000
# 6 0.000000 0.000000 0.000000 -0.033721 0.000000 0.032965
#
#
# Mechanical properties :
#
#
# Convention : Reuss Voigt Hill
#
# Bulk Modulus (GPa) = 23.25178 48.11289 35.68234
# Shear Modulus (GPa) = 209.49723 43.54030 126.51876
#
# Velocity S-wave (km/s) = 10.22758 4.66261 7.94806
# Velocity P-wave (km/s) = 12.29150 7.28078 10.10175
#
# Compressibility (1/GPa) = 0.04300747
#
# Stress axis : x y z
#
# Youngs Moduli (GPa) = 87.47289 165.72810 21.95701
#
# Poissons Ratio (x) = 0.27688 0.11657
# Poissons Ratio (y) = 0.14614 0.06634
# Poissons Ratio (z) = 0.46441 0.50071
#
# Static dielectric constant tensor:
#      x y z
#    x 1.723520 0.000000 0.025180 
#    y 0.000000 1.869480 0.000000 
#    z 0.025180 0.000000 1.815690 
# 
# From -- ./inp_files/248385.got.cif
#   From: 2010.05.17/outbox.cif.g08.bks.cpg/sg15_125_cif.got.tgz:248385.got - 2010.06.03 18:47:42.
