data_PCOD9253799
_publ_section_title
;
Structure prediction by ZEFSAII (Michael W. Deem and Ramdas Pophale) SiO2 
 PCOD9253799
Probable space group: C 2/C
;
_chemical_formula_sum "Si O2"
_cell_formula_units_Z 44
_cell_length_a 8.393789
_cell_length_b 28.656147
_cell_length_c 8.161594
_cell_angle_alpha 90.000000
_cell_angle_beta 56.240938
_cell_angle_gamma 90.000000
_cell_volume 1632.117076
_symmetry_space_group_name_H-M "C 2/C"
_symmetry_group_IT_number 15
_symmetry_cell_setting 'monoclinic'
loop_
_space_group_symop_operation_xyz
x,y,z
-x,y,1/2-z
-x,-y,-z
x,-y,1/2+z
1/2+x,1/2+y,z
1/2-x,1/2+y,1/2-z
1/2-x,1/2-y,-z
1/2+x,1/2-y,1/2+z
loop_
_atom_site_type_symbol
_atom_site_label
_atom_site_fract_x
_atom_site_fract_y
_atom_site_fract_z
Si Si1 0.000000 0.776538 0.250000
Si Si2 0.259387 0.051537 0.531937
Si Si3 0.412721 0.181845 0.966950
Si Si4 0.232484 0.449629 0.104669
Si Si5 0.338073 0.094129 0.171017
Si Si6 0.130427 0.220192 0.349238
O O1 0.169451 0.741144 0.198130
O O2 0.957924 0.805179 0.440638
O O3 0.188945 0.059568 0.757552
O O4 0.222333 0.087038 0.403274
O O5 0.492415 0.055771 0.418995
O O6 0.207883 0.000398 0.495780
O O7 0.500000 0.160101 0.750000
O O8 0.517098 0.231245 0.903835
O O9 0.446205 0.143236 0.086745
O O10 0.193269 0.195864 0.141894
O O11 0.000000 0.449549 0.250000
O O12 0.275644 0.413829 0.932636
#
# Coordination Sequence:
#
# PCOD9253799 Si02
#       6
#     4   8   8   8   8   8
#     4   8  16  32  52  76  92 126 170 226 270 326
#     4  10  16  24  41  59  90 134 170 200 248 315
#     4  11  21  35  50  75 104 143 186 225 268 317
#     4  10  14  25  38  60  90 131 173 196 248 312
#     4  10  19  26  41  68  99 135 179 213 249 319
#     4   9  19  34  54  70  99 137 178 228 279 317
#
# _framework density 26.958850000000002
#
# number of rings (size 3 to 8) (size 9 to 14) (size 15 to 20)
#    0.000    2.182    3.636    3.273    0.000    8.727 
#    0.000    0.000    0.000    0.000    0.000    0.000 
#    0.000    0.000    0.000   68.727    0.000    8.000 
#
# Total GULP energy -122624.415588 kJ/mol
# GULP energy per Si atom -5573.837072 kJ/mol
# Density = 2.689749 g / cm^3
# Si number density = 26.958850 Si / 1000 Ang^3
#
#
#
# Elastic Constant Matrix: (Units=GPa)
#
#
# Indices 1 2 3 4 5 6 
#
# 1 34.8186 14.7155 74.2794 0.0000 18.6255 0.0000
# 2 14.7155 104.3482 69.4816 0.0000 19.8857 0.0000
# 3 74.2794 69.4816 264.1408 0.0000 56.4841 0.0000
# 4 0.0000 0.0000 0.0000 39.1630 0.0000 5.5752
# 5 18.6255 19.8857 56.4841 0.0000 70.4590 0.0000
# 6 0.0000 0.0000 0.0000 5.5752 0.0000 7.7366
#
#
#
# Elastic Compliance Matrix: (Units=1/GPa)
#
#
# Indices 1 2 3 4 5 6 
#
# 1 0.074059 0.004376 -0.021153 0.000000 -0.003855 0.000000
# 2 0.004376 0.011936 -0.004106 0.000000 -0.001233 0.000000
# 3 -0.021153 -0.004106 0.011310 0.000000 -0.002316 0.000000
# 4 0.000000 0.000000 0.000000 0.028453 0.000000 -0.020504
# 5 -0.003855 -0.001233 -0.002316 0.000000 0.017416 0.000000
# 6 0.000000 0.000000 0.000000 -0.020504 0.000000 0.144032
#
#
# Mechanical properties :
#
#
# Convention : Reuss Voigt Hill
#
# Bulk Modulus (GPa) = 18.00602 80.02894 49.01748
# Shear Modulus (GPa) = 14.38905 39.79378 27.09142
#
# Velocity S-wave (km/s) = 2.31279 3.84616 3.17348
# Velocity P-wave (km/s) = 3.71828 7.03378 5.62581
#
# Compressibility (1/GPa) = 0.05553697
#
# Stress axis : x y z
#
# Youngs Moduli (GPa) = 13.50269 83.78339 88.41959
#
# Poissons Ratio (x) = -0.36660 1.87034
# Poissons Ratio (y) = -0.05908 0.36308
# Poissons Ratio (z) = 0.28562 0.34404
#
# Static dielectric constant tensor:
#      x y z
#    x 2.517450 0.000000 0.030480 
#    y 0.000000 2.072940 0.000000 
#    z 0.030480 0.000000 2.299780 
# 
# From -- ./inp_files/35044.got.cif
#   From: 2010.05.17/outbox.cif.g08.bks.cpg/sg15_18_cif.got.tgz:35044.got - 2010.06.03 18:47:42.
