data_PCOD9253188
_publ_section_title
;
Structure prediction by ZEFSAII (Michael W. Deem and Ramdas Pophale) SiO2 
 PCOD9253188
Probable space group: P 21/C
;
_chemical_formula_sum "Si O2"
_cell_formula_units_Z 24
_cell_length_a 10.963946
_cell_length_b 9.523907
_cell_length_c 9.191229
_cell_angle_alpha 90.000000
_cell_angle_beta 69.753477
_cell_angle_gamma 90.000000
_cell_volume 900.444108
_symmetry_space_group_name_H-M "P 21/C"
_symmetry_group_IT_number 14
_symmetry_cell_setting 'monoclinic'
loop_
_space_group_symop_operation_xyz
x,y,z
-x,1/2+y,1/2-z
-x,-y,-z
x,1/2-y,1/2+z
loop_
_atom_site_type_symbol
_atom_site_label
_atom_site_fract_x
_atom_site_fract_y
_atom_site_fract_z
Si Si1 0.733521 0.041007 0.985625
Si Si2 0.363452 0.668261 0.041663
Si Si3 0.943005 0.824850 0.370339
Si Si4 0.120268 0.560833 0.300228
Si Si5 0.464213 0.332218 0.294166
Si Si6 0.225376 0.352708 0.780327
O O1 0.607115 0.958895 0.094762
O O2 0.846546 0.000462 0.054147
O O3 0.746458 0.997235 0.813027
O O4 0.716312 0.206556 0.003312
O O5 0.258283 0.567974 0.158617
O O6 0.447829 0.745664 0.129774
O O7 0.456266 0.610456 0.877426
O O8 0.880287 0.864815 0.549326
O O9 0.833351 0.743121 0.323353
O O10 0.060223 0.715587 0.336044
O O11 0.031261 0.039478 0.739056
O O12 0.353471 0.224737 0.284306
#
# Coordination Sequence:
#
# PCOD9253188 Si02
#       6
#     4   4   4   4   4   4
#     4  12  27  52  77 122 165 211 275 332 411 490
#     4  12  28  47  80 124 165 213 269 334 411 496
#     4  12  29  53  84 118 163 216 280 342 399 493
#     4  12  31  54  82 120 165 219 278 339 409 485
#     4  12  24  48  80 121 164 210 261 336 410 492
#     4  12  26  48  83 119 161 214 269 328 419 472
#
# _framework density 26.653516
#
# number of rings (size 3 to 8) (size 9 to 14) (size 15 to 20)
#    0.000    0.000    6.667    0.500    7.000    2.667 
#    0.000    1.667    0.000    0.000    0.000    0.000 
#    0.000    0.000    0.000    0.000    0.000    0.000 
#
# Total GULP energy -134919.292133 kJ/mol
# GULP energy per Si atom -5621.637172 kJ/mol
# Density = 2.659285 g / cm^3
# Si number density = 26.653516 Si / 1000 Ang^3
#
#
#
# Elastic Constant Matrix: (Units=GPa)
#
#
# Indices 1 2 3 4 5 6 
#
# 1 104.3746 16.9042 40.9287 0.0000 13.1860 0.0000
# 2 16.9042 91.6012 48.6284 0.0000 -5.7040 0.0000
# 3 40.9287 48.6284 199.9493 0.0000 -15.1826 0.0000
# 4 0.0000 0.0000 0.0000 44.6792 0.0000 1.4201
# 5 13.1860 -5.7040 -15.1826 0.0000 50.1447 0.0000
# 6 0.0000 0.0000 0.0000 1.4201 0.0000 52.6016
#
#
#
# Elastic Compliance Matrix: (Units=1/GPa)
#
#
# Indices 1 2 3 4 5 6 
#
# 1 0.011130 -0.001064 -0.002304 0.000000 -0.003745 0.000000
# 2 -0.001064 0.012650 -0.002792 0.000000 0.000873 0.000000
# 3 -0.002304 -0.002792 0.006319 0.000000 0.002201 0.000000
# 4 0.000000 0.000000 0.000000 0.022401 0.000000 -0.000605
# 5 -0.003745 0.000873 0.002201 0.000000 0.021693 0.000000
# 6 0.000000 0.000000 0.000000 -0.000605 0.000000 0.019027
#
#
# Mechanical properties :
#
#
# Convention : Reuss Voigt Hill
#
# Bulk Modulus (GPa) = 56.24827 67.64973 61.94900
# Shear Modulus (GPa) = 44.85639 48.78269 46.81954
#
# Velocity S-wave (km/s) = 4.10682 4.28279 4.19573
# Velocity P-wave (km/s) = 6.60585 7.06347 6.83849
#
# Compressibility (1/GPa) = 0.01777833
#
# Stress axis : x y z
#
# Youngs Moduli (GPa) = 89.84915 79.05106 158.24957
#
# Poissons Ratio (x) = 0.08412 0.36458
# Poissons Ratio (y) = 0.09561 0.44190
# Poissons Ratio (z) = 0.20699 0.22074
#
# Static dielectric constant tensor:
#      x y z
#    x 2.051940 0.000000 -0.039940 
#    y 0.000000 2.056000 0.000000 
#    z -0.039940 0.000000 2.047910 
# 
# From -- ./inp_files/12366.got.cif
#   From: 2010.05.17/outbox.cif.g08.bks.cpg/sg14_7_cif.got.tgz:12366.got - 2010.06.03 17:49:19.
