data_PCOD9253395
_publ_section_title
;
Structure prediction by ZEFSAII (Michael W. Deem and Ramdas Pophale) SiO2 
 PCOD9253395
Probable space group: P 21/C
;
_chemical_formula_sum "Si O2"
_cell_formula_units_Z 14
_cell_length_a 9.256329
_cell_length_b 7.114446
_cell_length_c 17.234172
_cell_angle_alpha 90.000000
_cell_angle_beta 26.610682
_cell_angle_gamma 90.000000
_cell_volume 508.365833
_symmetry_space_group_name_H-M "P 21/C"
_symmetry_group_IT_number 14
_symmetry_cell_setting 'monoclinic'
loop_
_space_group_symop_operation_xyz
x,y,z
-x,1/2+y,1/2-z
-x,-y,-z
x,1/2-y,1/2+z
loop_
_atom_site_type_symbol
_atom_site_label
_atom_site_fract_x
_atom_site_fract_y
_atom_site_fract_z
Si Si1 0.000000 0.500000 0.500000
Si Si2 0.435103 0.813904 0.385405
Si Si3 0.120747 0.012554 0.247368
Si Si4 0.073548 0.883786 0.827563
O O1 0.770735 0.304927 0.575564
O O2 0.170073 0.359917 0.485482
O O3 0.634586 0.671305 0.343352
O O4 0.208934 0.937798 0.549541
O O5 0.708690 0.966053 0.224865
O O6 0.056223 0.016779 0.186707
O O7 0.217689 0.805335 0.226290
#
# Coordination Sequence:
#
# PCOD9253395 Si02
#       4
#     2   4   4   4
#     4  12  30  50  76 118 170 208 266 334 420 472
#     4  12  28  54  77 125 157 222 269 336 405 484
#     4  12  28  51  88 118 166 217 279 329 402 488
#     4  12  28  50  82 121 163 214 272 338 402 486
#
# _framework density 27.539224999999998
#
# number of rings (size 3 to 8) (size 9 to 14) (size 15 to 20)
#    0.000    0.000    5.714    0.857    8.000    3.429 
#    0.000    0.000    0.000    0.000    0.000    0.000 
#    0.000    0.000    0.000    0.000    0.000    0.000 
#
# Total GULP energy -78139.167236 kJ/mol
# GULP energy per Si atom -5581.369088 kJ/mol
# Density = 2.747654 g / cm^3
# Si number density = 27.539225 Si / 1000 Ang^3
#
#
#
# Elastic Constant Matrix: (Units=GPa)
#
#
# Indices 1 2 3 4 5 6 
#
# 1 288.8651 123.7657 70.2197 0.0000 30.5385 0.0000
# 2 123.7657 183.2325 49.1485 0.0000 -8.3747 0.0000
# 3 70.2197 49.1485 138.0730 0.0000 -0.5189 0.0000
# 4 0.0000 0.0000 0.0000 54.8777 0.0000 6.1724
# 5 30.5385 -8.3747 -0.5189 0.0000 45.0069 0.0000
# 6 0.0000 0.0000 0.0000 6.1724 0.0000 64.2869
#
#
#
# Elastic Compliance Matrix: (Units=1/GPa)
#
#
# Indices 1 2 3 4 5 6 
#
# 1 0.006033 -0.003834 -0.001722 0.000000 -0.004827 0.000000
# 2 -0.003834 0.008525 -0.001069 0.000000 0.004176 0.000000
# 3 -0.001722 -0.001069 0.008503 0.000000 0.001067 0.000000
# 4 0.000000 0.000000 0.000000 0.018421 0.000000 -0.001769
# 5 -0.004827 0.004176 0.001067 0.000000 0.026283 0.000000
# 6 0.000000 0.000000 0.000000 -0.001769 0.000000 0.015725
#
#
# Mechanical properties :
#
#
# Convention : Reuss Voigt Hill
#
# Bulk Modulus (GPa) = 101.92217 121.82647 111.87432
# Shear Modulus (GPa) = 49.99457 57.30342 53.64900
#
# Velocity S-wave (km/s) = 4.26537 4.56652 4.41851
# Velocity P-wave (km/s) = 7.83249 8.49339 8.16963
#
# Compressibility (1/GPa) = 0.00981141
#
# Stress axis : x y z
#
# Youngs Moduli (GPa) = 165.74317 117.30363 117.60996
#
# Poissons Ratio (x) = 0.44976 0.20250
# Poissons Ratio (y) = 0.63548 0.12571
# Poissons Ratio (z) = 0.28537 0.12539
#
# Static dielectric constant tensor:
#      x y z
#    x 2.089660 0.000000 0.080690 
#    y 0.000000 2.116350 0.000000 
#    z 0.080690 0.000000 2.449040 
# 
# From -- ./inp_files/54397.got.cif
#   From: 2010.05.17/outbox.cif.g08.bks.cpg/sg14_28_cif.got.tgz:54397.got - 2010.06.03 17:49:19.
