data_PCOD9253428
_publ_section_title
;
Structure prediction by ZEFSAII (Michael W. Deem and Ramdas Pophale) SiO2 
 PCOD9253428
Probable space group: P 21/C
;
_chemical_formula_sum "Si O2"
_cell_formula_units_Z 32
_cell_length_a 20.789002
_cell_length_b 7.239232
_cell_length_c 28.503771
_cell_angle_alpha 90.000000
_cell_angle_beta 19.393434
_cell_angle_gamma 90.000000
_cell_volume 1424.412953
_symmetry_space_group_name_H-M "P 21/C"
_symmetry_group_IT_number 14
_symmetry_cell_setting 'monoclinic'
loop_
_space_group_symop_operation_xyz
x,y,z
-x,1/2+y,1/2-z
-x,-y,-z
x,1/2-y,1/2+z
loop_
_atom_site_type_symbol
_atom_site_label
_atom_site_fract_x
_atom_site_fract_y
_atom_site_fract_z
Si Si1 0.810093 0.220386 0.848797
Si Si2 0.069080 0.276007 0.090339
Si Si3 0.827458 0.725097 0.083695
Si Si4 0.825468 0.720301 0.333421
Si Si5 0.431390 0.223966 0.909184
Si Si6 0.933431 0.689743 0.158600
Si Si7 0.182847 0.725086 0.905999
Si Si8 0.565262 0.810223 0.842686
O O1 0.886281 0.296732 0.746529
O O2 0.979191 0.250041 0.770810
O O3 0.791152 0.000041 0.854422
O O4 0.607494 0.284045 0.009825
O O5 0.016838 0.490467 0.116554
O O6 0.136243 0.205540 0.993493
O O7 0.248842 0.250022 0.001156
O O8 0.811885 0.500007 0.094060
O O9 0.643750 0.784691 0.241241
O O10 0.018125 0.771994 0.981874
O O11 0.644957 0.796654 0.487849
O O12 0.861756 0.783975 0.255553
O O13 0.617301 0.294432 0.752969
O O14 0.483190 0.009483 0.883380
O O15 0.751783 0.663866 0.248206
O O16 0.103759 0.784664 0.011240
#
# Coordination Sequence:
#
# PCOD9253428 Si02
#       8
#     4   4   4   4   4   4   4   4
#     4   9  18  30  45  67  96 123 152 193 236 277
#     4   9  16  25  39  63  93 118 145 185 232 276
#     4   8  14  25  40  59  85 113 144 187 231 268
#     4   9  18  30  45  67  96 123 152 193 236 277
#     4   9  16  25  39  63  93 118 145 185 232 276
#     4   9  17  29  46  67  90 118 155 195 230 271
#     4   8  14  25  40  59  85 113 144 187 231 268
#     4   9  17  29  46  67  90 118 155 195 230 271
#
# _framework density 22.465395000000001
#
# number of rings (size 3 to 8) (size 9 to 14) (size 15 to 20)
#    0.000    3.250    0.000    2.250    0.000    6.500 
#    0.000    0.000    0.000    0.750    0.000   10.500 
#    0.000   72.000    0.000    0.000    0.000    0.000 
#
# Total GULP energy -178325.142306 kJ/mol
# GULP energy per Si atom -5572.660697 kJ/mol
# Density = 2.241426 g / cm^3
# Si number density = 22.465395 Si / 1000 Ang^3
#
#
#
# Elastic Constant Matrix: (Units=GPa)
#
#
# Indices 1 2 3 4 5 6 
#
# 1 143.3554 17.6932 87.5524 0.0000 63.6007 0.0000
# 2 17.6932 102.0518 19.2633 0.0000 2.3323 0.0000
# 3 87.5524 19.2633 230.1011 0.0000 66.3058 0.0000
# 4 0.0000 0.0000 0.0000 -6.5389 0.0000 -13.7287
# 5 63.6007 2.3323 66.3058 0.0000 53.1952 0.0000
# 6 0.0000 0.0000 0.0000 -13.7287 0.0000 2.6220
#
#
#
# Elastic Compliance Matrix: (Units=1/GPa)
#
#
# Indices 1 2 3 4 5 6 
#
# 1 0.015409 -0.002152 -0.000626 0.000000 -0.017549 0.000000
# 2 -0.002152 0.010287 -0.001020 0.000000 0.003394 0.000000
# 3 -0.000626 -0.001020 0.006930 0.000000 -0.007845 0.000000
# 4 0.000000 0.000000 0.000000 -0.012751 0.000000 -0.066766
# 5 -0.017549 0.003394 -0.007845 0.000000 0.049409 0.000000
# 6 0.000000 0.000000 0.000000 -0.066766 0.000000 0.031800
#
#
# Mechanical properties :
#
#
# Convention : Reuss Voigt Hill
#
# Bulk Modulus (GPa) = 39.95368 80.50291 60.22830
# Shear Modulus (GPa) = 42.72572 33.25563 37.99067
#
# Velocity S-wave (km/s) = 4.36575 3.85165 4.11673
# Velocity P-wave (km/s) = 6.57542 7.46272 7.03308
#
# Compressibility (1/GPa) = 0.02502898
#
# Stress axis : x y z
#
# Youngs Moduli (GPa) = 64.89566 97.20887 144.29762
#
# Poissons Ratio (x) = 0.20923 0.09036
# Poissons Ratio (y) = 0.13968 0.14722
# Poissons Ratio (z) = 0.04064 0.09918
#
# Static dielectric constant tensor:
#      x y z
#    x 1.798560 0.000000 0.101230 
#    y 0.000000 1.812270 0.000000 
#    z 0.101230 0.000000 1.866040 
# 
# From -- ./inp_files/80522.got.cif
#   From: 2010.05.17/outbox.cif.g08.bks.cpg/sg14_41_cif.got.tgz:80522.got - 2010.06.03 17:49:19.
