data_PCOD9253536
_publ_section_title
;
Structure prediction by ZEFSAII (Michael W. Deem and Ramdas Pophale) SiO2 
 PCOD9253536
Probable space group: P 21/C
;
_chemical_formula_sum "Si O2"
_cell_formula_units_Z 32
_cell_length_a 12.000000
_cell_length_b 15.000000
_cell_length_c 9.000000
_cell_angle_alpha 90.000000
_cell_angle_beta 110.000000
_cell_angle_gamma 90.000000
_cell_volume 1522.302046
_symmetry_space_group_name_H-M "P 21/C"
_symmetry_group_IT_number 14
_symmetry_cell_setting 'monoclinic'
loop_
_space_group_symop_operation_xyz
x,y,z
-x,1/2+y,1/2-z
-x,-y,-z
x,1/2-y,1/2+z
loop_
_atom_site_type_symbol
_atom_site_label
_atom_site_fract_x
_atom_site_fract_y
_atom_site_fract_z
Si Si1 0.417324 0.811286 0.028387
Si Si2 0.688468 0.078307 0.255831
Si Si3 0.997461 0.210299 0.798968
Si Si4 0.480204 0.863286 0.370438
Si Si5 0.123085 0.446324 0.231373
Si Si6 0.080234 0.088707 0.362682
Si Si7 0.673065 0.993909 0.570646
Si Si8 0.173267 0.738341 0.040591
O O1 0.496846 0.834425 0.207217
O O2 0.285625 0.794027 0.036398
O O3 0.411783 0.886032 0.898763
O O4 0.447147 0.721388 0.954345
O O5 0.778395 0.161625 0.326249
O O6 0.751592 0.994700 0.208673
O O7 0.660019 0.049147 0.410138
O O8 0.897082 0.194213 0.627498
O O9 0.924945 0.205261 0.918031
O O10 0.097964 0.136939 0.824102
O O11 0.050753 0.309701 0.808857
O O12 0.590191 0.909659 0.501025
O O13 0.377509 0.938823 0.330139
O O14 0.028673 0.523894 0.220821
O O15 0.101877 0.415297 0.051058
O O16 0.196122 0.043156 0.345708
#
# Coordination Sequence:
#
# PCOD9253536 Si02
#       8
#     4   4   4   4   4   4   4   4
#     4  12  22  39  67  94 118 158 207 263 305 363
#     4  11  21  41  65  92 120 162 207 249 311 371
#     4  12  21  36  58  92 125 161 202 244 302 373
#     4  11  23  42  64  91 120 155 210 262 310 356
#     4  10  20  37  61  87 126 162 197 245 302 374
#     4  10  20  38  60  86 119 169 199 236 311 374
#     4  10  23  42  64  87 120 163 204 259 311 364
#     4  12  20  34  61  92 120 155 205 248 296 363
#
# _framework density 21.020796000000001
#
# number of rings (size 3 to 8) (size 9 to 14) (size 15 to 20)
#    0.000    1.000    6.250    1.500    1.750    0.500 
#    6.750    1.250    0.000    0.000    0.000    0.000 
#    0.000    0.000    0.000    0.000    0.000    0.000 
#
# Total GULP energy -178778.160914 kJ/mol
# GULP energy per Si atom -5586.817529 kJ/mol
# Density = 2.097295 g / cm^3
# Si number density = 21.020796 Si / 1000 Ang^3
#
#
#
# Elastic Constant Matrix: (Units=GPa)
#
#
# Indices 1 2 3 4 5 6 
#
# 1 7.8491 -6.9880 -2.5143 0.0000 3.3394 0.0000
# 2 -6.9880 84.4081 22.0334 0.0000 3.3017 0.0000
# 3 -2.5143 22.0334 50.6917 0.0000 -0.4222 0.0000
# 4 0.0000 0.0000 0.0000 24.0838 0.0000 -4.0617
# 5 3.3394 3.3017 -0.4222 0.0000 6.4656 0.0000
# 6 0.0000 0.0000 0.0000 -4.0617 0.0000 33.7323
#
#
#
# Elastic Compliance Matrix: (Units=1/GPa)
#
#
# Indices 1 2 3 4 5 6 
#
# 1 0.191912 0.020216 -0.000180 0.000000 -0.109457 0.000000
# 2 0.020216 0.015837 -0.006039 0.000000 -0.018923 0.000000
# 3 -0.000180 -0.006039 0.022382 0.000000 0.004638 0.000000
# 4 0.000000 0.000000 0.000000 0.042382 0.000000 0.005103
# 5 -0.109457 -0.018923 0.004638 0.000000 0.221164 0.000000
# 6 0.000000 0.000000 0.000000 0.005103 0.000000 0.030260
#
#
# Mechanical properties :
#
#
# Convention : Reuss Voigt Hill
#
# Bulk Modulus (GPa) = 3.87407 18.66792 11.27099
# Shear Modulus (GPa) = 8.59130 21.55086 15.07108
#
# Velocity S-wave (km/s) = 2.02384 3.20537 2.68052
# Velocity P-wave (km/s) = 2.70337 4.75386 3.86700
#
# Compressibility (1/GPa) = 0.25812675
#
# Stress axis : x y z
#
# Youngs Moduli (GPa) = 5.21072 63.14178 44.67969
#
# Poissons Ratio (x) = -1.27650 0.00804
# Poissons Ratio (y) = -0.10534 0.26981
# Poissons Ratio (z) = 0.00094 0.38129
#
# Static dielectric constant tensor:
#      x y z
#    x 1.798470 0.000000 -0.022230 
#    y 0.000000 1.778720 0.000000 
#    z -0.022230 0.000000 1.750040 
# 
# From -- ./inp_files/13382.got.cif
#   From: 2010.05.17/outbox.ucp.g08.bks.cvg/sg14_7_cif.got.tgz:13382.got - 2010.06.11 12:31:08.
