data_PCOD9253506
_publ_section_title
;
Structure prediction by ZEFSAII (Michael W. Deem and Ramdas Pophale) SiO2 
 PCOD9253506
Probable space group: P 21/C
;
_chemical_formula_sum "Si O2"
_cell_formula_units_Z 32
_cell_length_a 15.000000
_cell_length_b 21.000000
_cell_length_c 15.000000
_cell_angle_alpha 90.000000
_cell_angle_beta 160.000000
_cell_angle_gamma 90.000000
_cell_volume 1616.045177
_symmetry_space_group_name_H-M "P 21/C"
_symmetry_group_IT_number 14
_symmetry_cell_setting 'monoclinic'
loop_
_space_group_symop_operation_xyz
x,y,z
-x,1/2+y,1/2-z
-x,-y,-z
x,1/2-y,1/2+z
loop_
_atom_site_type_symbol
_atom_site_label
_atom_site_fract_x
_atom_site_fract_y
_atom_site_fract_z
Si Si1 0.552896 0.669330 0.675070
Si Si2 0.471726 0.572828 0.444555
Si Si3 0.545342 0.538436 0.135137
Si Si4 0.997702 0.154658 0.261105
Si Si5 0.997552 0.510365 0.300154
Si Si6 0.505411 0.687064 0.127870
Si Si7 0.050920 0.202337 0.815647
Si Si8 0.984361 0.415851 0.128569
O O1 0.434450 0.620630 0.491587
O O2 0.592785 0.741886 0.675660
O O3 0.311411 0.667347 0.517300
O O4 0.817218 0.648485 0.975882
O O5 0.500000 0.500000 0.500000
O O6 0.754794 0.594054 0.680245
O O7 0.258526 0.575744 0.165793
O O8 0.555116 0.616180 0.132642
O O9 0.790141 0.512405 0.425291
O O10 0.500000 0.500000 0.000000
O O11 0.282002 0.520144 0.939521
O O12 0.020437 0.087352 0.229246
O O13 0.084244 0.225762 0.309115
O O14 0.048357 0.476184 0.252833
O O15 0.678584 0.683733 0.381585
O O16 0.194128 0.698020 0.845997
O O17 0.961389 0.148427 0.663367
#
# Coordination Sequence:
#
# PCOD9253506 Si02
#       8
#     4   4   4   4   4   4   4   4
#     4  10  21  39  61  87 125 163 199 237 296 363
#     4  12  24  38  57  92 125 158 198 244 301 352
#     4  12  24  41  62  88 121 153 200 253 303 358
#     4  10  21  39  64  89 118 158 198 247 293 351
#     4  12  23  41  64  91 117 156 201 246 306 352
#     4  10  19  40  62  83 115 160 198 234 294 364
#     4  10  20  38  63  85 113 151 204 239 285 359
#     4  12  22  38  63  85 122 158 199 249 286 359
#
# _framework density 19.801427
#
# number of rings (size 3 to 8) (size 9 to 14) (size 15 to 20)
#    0.000    1.000    2.500    5.250    0.000    0.000 
#    4.500    0.000    0.000    0.000    0.000    0.000 
#    0.000    0.000    0.000    0.000    0.000    0.000 
#
# Total GULP energy -178232.129448 kJ/mol
# GULP energy per Si atom -5569.754045 kJ/mol
# Density = 1.975636 g / cm^3
# Si number density = 19.801427 Si / 1000 Ang^3
#
#
#
# Elastic Constant Matrix: (Units=GPa)
#
#
# Indices 1 2 3 4 5 6 
#
# 1 8.8849 10.1767 2.0808 0.0000 -10.2757 0.0000
# 2 10.1767 187.0580 12.2172 0.0000 -32.6640 0.0000
# 3 2.0808 12.2172 141.2354 0.0000 -21.6549 0.0000
# 4 0.0000 0.0000 0.0000 38.5056 0.0000 -5.0715
# 5 -10.2757 -32.6640 -21.6549 0.0000 38.8300 0.0000
# 6 0.0000 0.0000 0.0000 -5.0715 0.0000 23.9399
#
#
#
# Elastic Compliance Matrix: (Units=1/GPa)
#
#
# Indices 1 2 3 4 5 6 
#
# 1 0.165265 -0.001414 0.004604 0.000000 0.045113 0.000000
# 2 -0.001414 0.006289 0.000252 0.000000 0.005057 0.000000
# 3 0.004604 0.000252 0.007884 0.000000 0.005827 0.000000
# 4 0.000000 0.000000 0.000000 0.026716 0.000000 0.005659
# 5 0.045113 0.005057 0.005827 0.000000 0.045195 0.000000
# 6 0.000000 0.000000 0.000000 0.005659 0.000000 0.042970
#
#
# Mechanical properties :
#
#
# Convention : Reuss Voigt Hill
#
# Bulk Modulus (GPa) = 5.36701 42.90309 24.13505
# Shear Modulus (GPa) = 14.30437 41.10202 27.70320
#
# Velocity S-wave (km/s) = 2.69065 4.56094 3.74445
# Velocity P-wave (km/s) = 3.51697 7.03206 5.55963
#
# Compressibility (1/GPa) = 0.18632348
#
# Stress axis : x y z
#
# Youngs Moduli (GPa) = 6.05088 158.99563 126.83545
#
# Poissons Ratio (x) = 0.22486 -0.58400
# Poissons Ratio (y) = 0.00856 -0.03198
# Poissons Ratio (z) = -0.02786 -0.04009
#
# Static dielectric constant tensor:
#      x y z
#    x 6.131490 0.000000 0.496750 
#    y 0.000000 1.688170 0.000000 
#    z 0.496750 0.000000 1.710280 
# 
# From -- ./inp_files/47609.got.cif
#   From: 2010.05.17/outbox.ucp.g08.bks.cvg/sg14_24_cif.got.tgz:47609.got - 2010.06.11 12:31:08.
