data_PCOD9253622
_publ_section_title
;
Structure prediction by ZEFSAII (Michael W. Deem and Ramdas Pophale) SiO2 
 PCOD9253622
Probable space group: P 21/C
;
_chemical_formula_sum "Si O2"
_cell_formula_units_Z 24
_cell_length_a 15.000000
_cell_length_b 9.000000
_cell_length_c 9.000000
_cell_angle_alpha 90.000000
_cell_angle_beta 80.000000
_cell_angle_gamma 90.000000
_cell_volume 1196.541420
_symmetry_space_group_name_H-M "P 21/C"
_symmetry_group_IT_number 14
_symmetry_cell_setting 'monoclinic'
loop_
_space_group_symop_operation_xyz
x,y,z
-x,1/2+y,1/2-z
-x,-y,-z
x,1/2-y,1/2+z
loop_
_atom_site_type_symbol
_atom_site_label
_atom_site_fract_x
_atom_site_fract_y
_atom_site_fract_z
Si Si1 0.232097 0.961853 0.171552
Si Si2 0.072040 0.335479 0.827664
Si Si3 0.570836 0.924644 0.870067
Si Si4 0.459342 0.624881 0.907314
Si Si5 0.253807 0.671763 0.996792
Si Si6 0.101205 0.037353 0.649880
O O1 0.218791 0.835081 0.051342
O O2 0.240962 0.873751 0.327615
O O3 0.148030 0.071445 0.216501
O O4 0.323844 0.057517 0.114984
O O5 0.085841 0.162887 0.780049
O O6 0.974366 0.407140 0.817107
O O7 0.086398 0.374205 0.997862
O O8 0.530662 0.758573 0.859721
O O9 0.563224 0.030694 0.731054
O O10 0.500000 0.000000 0.000000
O O11 0.500000 0.500000 0.000000
O O12 0.361812 0.678445 0.997130
O O13 0.197958 0.547100 0.106105
#
# Coordination Sequence:
#
# PCOD9253622 Si02
#       6
#     4   4   4   4   4   4
#     4  10  22  39  60  88 120 156 201 246 298 357
#     4  10  22  40  61  89 121 154 197 247 296 363
#     4  11  22  40  60  86 121 160 202 251 302 355
#     4  11  24  39  60  87 120 159 204 251 302 360
#     4  10  22  39  59  87 119 156 197 245 297 356
#     4  10  22  40  62  89 121 154 198 245 301 358
#
# _framework density 20.05781
#
# number of rings (size 3 to 8) (size 9 to 14) (size 15 to 20)
#    0.000    1.667    1.667    2.000    4.667    2.000 
#    3.000    0.000    0.000    0.000    0.000    0.000 
#    0.000    0.000    0.000    0.000    0.000    0.000 
#
# Total GULP energy -133976.522596 kJ/mol
# GULP energy per Si atom -5582.355108 kJ/mol
# Density = 2.001216 g / cm^3
# Si number density = 20.057810 Si / 1000 Ang^3
#
#
#
# Elastic Constant Matrix: (Units=GPa)
#
#
# Indices 1 2 3 4 5 6 
#
# 1 82.1379 22.6472 17.2030 0.0000 -27.7502 0.0000
# 2 22.6472 109.1760 6.0292 0.0000 -9.2924 0.0000
# 3 17.2030 6.0292 33.0470 0.0000 -19.8717 0.0000
# 4 0.0000 0.0000 0.0000 45.9985 0.0000 -11.4543
# 5 -27.7502 -9.2924 -19.8717 0.0000 25.6997 0.0000
# 6 0.0000 0.0000 0.0000 -11.4543 0.0000 36.7782
#
#
#
# Elastic Compliance Matrix: (Units=1/GPa)
#
#
# Indices 1 2 3 4 5 6 
#
# 1 0.020116 -0.002347 0.004687 0.000000 0.024497 0.000000
# 2 -0.002347 0.009731 0.000072 0.000000 0.001040 0.000000
# 3 0.004687 0.000072 0.057688 0.000000 0.049693 0.000000
# 4 0.000000 0.000000 0.000000 0.023568 0.000000 0.007340
# 5 0.024497 0.001040 0.049693 0.000000 0.104162 0.000000
# 6 0.000000 0.000000 0.000000 0.007340 0.000000 0.029476
#
#
# Mechanical properties :
#
#
# Convention : Reuss Voigt Hill
#
# Bulk Modulus (GPa) = 10.82740 35.12443 22.97592
# Shear Modulus (GPa) = 18.47036 33.59404 26.03220
#
# Velocity S-wave (km/s) = 3.03785 4.09695 3.60649
# Velocity P-wave (km/s) = 4.20887 6.31898 5.36862
#
# Compressibility (1/GPa) = 0.09235824
#
# Stress axis : x y z
#
# Youngs Moduli (GPa) = 49.71111 102.76580 17.33454
#
# Poissons Ratio (x) = 0.24116 -0.08124
# Poissons Ratio (y) = 0.11666 -0.00124
# Poissons Ratio (z) = -0.23297 -0.00735
#
# Static dielectric constant tensor:
#      x y z
#    x 1.744660 0.000000 -0.001990 
#    y 0.000000 1.670880 0.000000 
#    z -0.001990 0.000000 1.690190 
# 
# From -- ./inp_files/15024.got.cif
#   From: 2010.05.17/outbox.ucp.g08.bks.cvg/sg14_8_cif.got.tgz:15024.got - 2010.06.11 12:31:08.
