data_PCOD9253888
_publ_section_title
;
Structure prediction by ZEFSAII (Michael W. Deem and Ramdas Pophale) SiO2 
 PCOD9253888
Probable space group: C 2/C
;
_chemical_formula_sum "Si O2"
_cell_formula_units_Z 36
_cell_length_a 6.750644
_cell_length_b 30.446693
_cell_length_c 8.016463
_cell_angle_alpha 90.000000
_cell_angle_beta 103.488809
_cell_angle_gamma 90.000000
_cell_volume 1602.212067
_symmetry_space_group_name_H-M "C 2/C"
_symmetry_group_IT_number 15
_symmetry_cell_setting 'monoclinic'
loop_
_space_group_symop_operation_xyz
x,y,z
-x,y,1/2-z
-x,-y,-z
x,-y,1/2+z
1/2+x,1/2+y,z
1/2-x,1/2+y,1/2-z
1/2-x,1/2-y,-z
1/2+x,1/2-y,1/2+z
loop_
_atom_site_type_symbol
_atom_site_label
_atom_site_fract_x
_atom_site_fract_y
_atom_site_fract_z
Si Si1 0.116033 0.194353 0.097533
Si Si2 0.280191 0.596389 0.397202
Si Si3 0.500000 0.743529 0.750000
Si Si4 0.245218 0.961062 0.304359
Si Si5 0.259454 0.559410 0.067037
O O1 0.192483 0.146892 0.051416
O O2 0.303302 0.226217 0.180024
O O3 0.000000 0.187704 0.250000
O O4 0.987592 0.215006 0.918435
O O5 0.183106 0.568209 0.526357
O O6 0.188225 0.593772 0.192995
O O7 0.503464 0.573409 0.417195
O O8 0.000000 0.955559 0.250000
O O9 0.272405 0.012252 0.351019
O O10 0.317765 0.947068 0.135642
#
# Coordination Sequence:
#
# PCOD9253888 Si02
#       5
#     8   8   4   8   8
#     4  11  22  42  64  88 120 151 199 242 303 359
#     4  10  18  25  45  75 105 146 185 230 275 337
#     4  10  26  42  62  90 116 154 190 254 308 356
#     4  10  15  22  38  67 117 142 179 236 270 318
#     4  10  15  24  38  70 114 143 182 232 274 317
#
# _framework density 22.468937
#
# number of rings (size 3 to 8) (size 9 to 14) (size 15 to 20)
#    0.000    1.778    6.667    2.000    4.667    0.000 
#    0.000    0.000    0.000    0.000    0.000    1.556 
#    0.000    0.000    0.000    0.000    0.000    0.000 
#
# Total GULP energy -100520.486870 kJ/mol
# GULP energy per Si atom -5584.471493 kJ/mol
# Density = 2.241780 g / cm^3
# Si number density = 22.468937 Si / 1000 Ang^3
#
#
#
# Elastic Constant Matrix: (Units=GPa)
#
#
# Indices 1 2 3 4 5 6 
#
# 1 47.9615 4.9355 27.2337 0.0000 -9.3101 0.0000
# 2 4.9355 128.4824 40.3969 0.0000 -3.6057 0.0000
# 3 27.2337 40.3969 156.8117 0.0000 -1.1403 0.0000
# 4 0.0000 0.0000 0.0000 15.3075 0.0000 -12.1927
# 5 -9.3101 -3.6057 -1.1403 0.0000 55.4998 0.0000
# 6 0.0000 0.0000 0.0000 -12.1927 0.0000 6.2613
#
#
#
# Elastic Compliance Matrix: (Units=1/GPa)
#
#
# Indices 1 2 3 4 5 6 
#
# 1 0.023994 0.000534 -0.004276 0.000000 0.003972 0.000000
# 2 0.000534 0.008495 -0.002277 0.000000 0.000595 0.000000
# 3 -0.004276 -0.002277 0.007701 0.000000 -0.000707 0.000000
# 4 0.000000 0.000000 0.000000 -0.118548 0.000000 -0.230849
# 5 0.003972 0.000595 -0.000707 0.000000 0.018708 0.000000
# 6 0.000000 0.000000 0.000000 -0.230849 0.000000 -0.289823
#
#
# Mechanical properties :
#
#
# Convention : Reuss Voigt Hill
#
# Bulk Modulus (GPa) = 35.51997 53.15420 44.33708
# Shear Modulus (GPa) = -15.24154 32.79301 8.77574
#
# Velocity S-wave (km/s) = -2.60732 3.82446 1.97843
# Velocity P-wave (km/s) = 2.60358 6.57344 4.99944
#
# Compressibility (1/GPa) = 0.02815318
#
# Stress axis : x y z
#
# Youngs Moduli (GPa) = 41.67706 117.71296 129.85181
#
# Poissons Ratio (x) = -0.06288 0.55522
# Poissons Ratio (y) = -0.02226 0.29566
# Poissons Ratio (z) = 0.17820 0.26802
#
# Static dielectric constant tensor:
#      x y z
#    x 1.981890 0.000000 0.068450 
#    y 0.000000 1.748930 0.000000 
#    z 0.068450 0.000000 1.874350 
# 
# From -- ./inp_files/24648.got.cif
#   From: 2010.05.17/outbox.cif.g08.bks.cpg/sg15_13_cif.got.tgz:24648.got - 2010.06.03 18:47:42.
