data_PCOD9253594
_publ_section_title
;
Structure prediction by ZEFSAII (Michael W. Deem and Ramdas Pophale) SiO2 
 PCOD9253594
Probable space group: P 21/C
;
_chemical_formula_sum "Si O2"
_cell_formula_units_Z 32
_cell_length_a 12.000000
_cell_length_b 9.000000
_cell_length_c 15.000000
_cell_angle_alpha 90.000000
_cell_angle_beta 110.000000
_cell_angle_gamma 90.000000
_cell_volume 1522.302046
_symmetry_space_group_name_H-M "P 21/C"
_symmetry_group_IT_number 14
_symmetry_cell_setting 'monoclinic'
loop_
_space_group_symop_operation_xyz
x,y,z
-x,1/2+y,1/2-z
-x,-y,-z
x,1/2-y,1/2+z
loop_
_atom_site_type_symbol
_atom_site_label
_atom_site_fract_x
_atom_site_fract_y
_atom_site_fract_z
Si Si1 0.644997 0.718437 0.147113
Si Si2 0.376796 0.774676 0.102836
Si Si3 0.073649 0.629755 0.756339
Si Si4 0.274478 0.523674 0.948119
Si Si5 0.642985 0.010267 0.054056
Si Si6 0.113149 0.313350 0.690641
Si Si7 0.879003 0.586930 0.941942
Si Si8 0.245158 0.864009 0.729899
O O1 0.519548 0.774884 0.149759
O O2 0.637488 0.564708 0.091844
O O3 0.747917 0.691342 0.246899
O O4 0.684441 0.844509 0.087425
O O5 0.325059 0.735789 0.185231
O O6 0.342001 0.641025 0.026971
O O7 0.323040 0.912763 0.030891
O O8 0.170410 0.596222 0.860250
O O9 0.063504 0.476513 0.699257
O O10 0.131051 0.763931 0.718052
O O11 0.954348 0.693768 0.765495
O O12 0.204699 0.415307 0.995565
O O13 0.687673 0.095055 0.157915
O O14 0.500000 0.000000 0.000000
O O15 0.092926 0.250082 0.586880
O O16 0.804319 0.501403 0.843068
O O17 0.000000 0.500000 0.000000
#
# Coordination Sequence:
#
# PCOD9253594 Si02
#       8
#     4   4   4   4   4   4   4   4
#     4  10  22  41  61  95 127 169 218 269 328 388
#     4  10  22  42  66  97 132 172 220 265 335 401
#     4  11  23  40  67  93 127 175 217 275 331 399
#     4  10  21  39  66  92 129 173 214 269 331 397
#     4  10  21  42  65  94 132 174 212 269 327 388
#     4  11  23  41  64  94 128 174 222 269 335 394
#     4  11  22  41  64  94 132 172 222 271 334 399
#     4  11  23  43  67  96 136 176 215 276 335 392
#
# _framework density 21.020796000000001
#
# number of rings (size 3 to 8) (size 9 to 14) (size 15 to 20)
#    0.000    1.500    3.750    1.125    1.750    1.000 
#   13.500    0.625    0.000    0.000    0.000    0.000 
#    0.000    0.000    0.000    0.000    0.000    0.000 
#
# Total GULP energy -178485.136744 kJ/mol
# GULP energy per Si atom -5577.660523 kJ/mol
# Density = 2.097295 g / cm^3
# Si number density = 21.020796 Si / 1000 Ang^3
#
#
#
# Elastic Constant Matrix: (Units=GPa)
#
#
# Indices 1 2 3 4 5 6 
#
# 1 51.4728 -19.2374 -8.7511 0.0000 -2.4039 0.0000
# 2 -19.2374 27.4752 -12.5006 0.0000 -1.6472 0.0000
# 3 -8.7511 -12.5006 44.6880 0.0000 8.7361 0.0000
# 4 0.0000 0.0000 0.0000 25.4850 0.0000 1.9481
# 5 -2.4039 -1.6472 8.7361 0.0000 23.4914 0.0000
# 6 0.0000 0.0000 0.0000 1.9481 0.0000 28.1212
#
#
#
# Elastic Compliance Matrix: (Units=1/GPa)
#
#
# Indices 1 2 3 4 5 6 
#
# 1 0.033170 0.029999 0.014895 0.000000 -0.000041 0.000000
# 2 0.029999 0.068887 0.025450 0.000000 -0.001564 0.000000
# 3 0.014895 0.025450 0.034257 0.000000 -0.009431 0.000000
# 4 0.000000 0.000000 0.000000 0.039448 0.000000 -0.002733
# 5 -0.000041 -0.001564 -0.009431 0.000000 0.045962 0.000000
# 6 0.000000 0.000000 0.000000 -0.002733 0.000000 0.035750
#
#
# Mechanical properties :
#
#
# Convention : Reuss Voigt Hill
#
# Bulk Modulus (GPa) = 3.61006 4.73978 4.17492
# Shear Modulus (GPa) = 23.90995 26.36119 25.13557
#
# Velocity S-wave (km/s) = 3.37626 3.54510 3.46171
# Velocity P-wave (km/s) = 4.11338 4.36081 4.23891
#
# Compressibility (1/GPa) = 0.27700363
#
# Stress axis : x y z
#
# Youngs Moduli (GPa) = 30.14761 14.51659 29.19109
#
# Poissons Ratio (x) = -0.43549 -0.43481
# Poissons Ratio (y) = -0.90441 -0.74292
# Poissons Ratio (z) = -0.44906 -0.36945
#
# Static dielectric constant tensor:
#      x y z
#    x 1.765470 0.000000 -0.025340 
#    y 0.000000 1.812240 0.000000 
#    z -0.025340 0.000000 1.752640 
# 
# From -- ./inp_files/43783.got.cif
#   From: 2010.05.17/outbox.ucp.g08.bks.cvg/sg14_22_cif.got.tgz:43783.got - 2010.06.11 12:31:08.
