data_PCOD9253149
_publ_section_title
;
Structure prediction by ZEFSAII (Michael W. Deem and Ramdas Pophale) SiO2 
 PCOD9253149
Probable space group: P 21/C
;
_chemical_formula_sum "Si O2"
_cell_formula_units_Z 16
_cell_length_a 11.535207
_cell_length_b 9.013635
_cell_length_c 5.609771
_cell_angle_alpha 90.000000
_cell_angle_beta 93.999945
_cell_angle_gamma 90.000000
_cell_volume 581.850366
_symmetry_space_group_name_H-M "P 21/C"
_symmetry_group_IT_number 14
_symmetry_cell_setting 'monoclinic'
loop_
_space_group_symop_operation_xyz
x,y,z
-x,1/2+y,1/2-z
-x,-y,-z
x,1/2-y,1/2+z
loop_
_atom_site_type_symbol
_atom_site_label
_atom_site_fract_x
_atom_site_fract_y
_atom_site_fract_z
Si Si1 0.038894 0.118360 0.197690
Si Si2 0.212155 0.119148 0.574074
Si Si3 0.466800 0.172446 0.467122
Si Si4 0.778135 0.180000 0.228523
O O1 0.122295 0.030802 0.391294
O O2 0.248991 0.996789 0.772707
O O3 0.918562 0.190368 0.260416
O O4 0.000000 0.000000 0.000000
O O5 0.126954 0.251590 0.635078
O O6 0.325802 0.174141 0.455937
O O7 0.502076 0.238533 0.213786
O O8 0.500000 0.000000 0.500000
O O9 0.735796 0.250330 0.973486
#
# Coordination Sequence:
#
# PCOD9253149 Si02
#       4
#     4   4   4   4
#     4  12  24  44  73 112 159 211 274 318 398 494
#     4  12  26  47  80 111 163 219 270 331 419 483
#     4  12  29  56  92 123 164 220 291 366 437 504
#     4  12  27  42  67 109 160 210 258 318 384 487
#
# _framework density 27.498481000000002
#
# number of rings (size 3 to 8) (size 9 to 14) (size 15 to 20)
#    0.000    0.000    5.000    4.500    0.000    4.000 
#    0.000    0.000    0.000    0.000    0.000    0.000 
#    0.000    0.000    0.000    0.000    0.000    0.000 
#
# Total GULP energy -89701.606417 kJ/mol
# GULP energy per Si atom -5606.350401 kJ/mol
# Density = 2.743589 g / cm^3
# Si number density = 27.498481 Si / 1000 Ang^3
#
#
#
# Elastic Constant Matrix: (Units=GPa)
#
#
# Indices 1 2 3 4 5 6 
#
# 1 123.9686 23.5105 42.4643 0.0000 -11.3642 0.0000
# 2 23.5105 195.9913 80.9061 0.0000 -23.8126 0.0000
# 3 42.4643 80.9061 196.6486 0.0000 -13.0559 0.0000
# 4 0.0000 0.0000 0.0000 58.9567 0.0000 -16.0534
# 5 -11.3642 -23.8126 -13.0559 0.0000 54.3652 0.0000
# 6 0.0000 0.0000 0.0000 -16.0534 0.0000 42.5702
#
#
#
# Elastic Compliance Matrix: (Units=1/GPa)
#
#
# Indices 1 2 3 4 5 6 
#
# 1 0.008820 -0.000175 -0.001743 0.000000 0.001349 0.000000
# 2 -0.000175 0.006399 -0.002451 0.000000 0.002178 0.000000
# 3 -0.001743 -0.002451 0.006478 0.000000 0.000118 0.000000
# 4 0.000000 0.000000 0.000000 0.018903 0.000000 0.007128
# 5 0.001349 0.002178 0.000118 0.000000 0.019658 0.000000
# 6 0.000000 0.000000 0.000000 0.007128 0.000000 0.026179
#
#
# Mechanical properties :
#
#
# Convention : Reuss Voigt Hill
#
# Bulk Modulus (GPa) = 77.15654 90.04114 83.59884
# Shear Modulus (GPa) = 50.25409 55.82693 53.04051
#
# Velocity S-wave (km/s) = 4.27959 4.51064 4.39663
# Velocity P-wave (km/s) = 7.24840 7.74229 7.49941
#
# Compressibility (1/GPa) = 0.01296066
#
# Stress axis : x y z
#
# Youngs Moduli (GPa) = 113.37284 156.26341 154.37519
#
# Poissons Ratio (x) = 0.02728 0.26913
# Poissons Ratio (y) = 0.01979 0.37831
# Poissons Ratio (z) = 0.19765 0.38294
#
# Static dielectric constant tensor:
#      x y z
#    x 2.135840 0.000000 -0.049190 
#    y 0.000000 2.209820 0.000000 
#    z -0.049190 0.000000 2.584820 
# 
# From -- ./inp_files/4022.got.cif
#   From: 2010.05.17/outbox.cif.g08.bks.cpg/sg14_3_cif.got.tgz:4022.got - 2010.06.03 17:49:19.
