data_PCOD9253125
_publ_section_title
;
Structure prediction by ZEFSAII (Michael W. Deem and Ramdas Pophale) SiO2 
 PCOD9253125
Probable space group: P 21/C
;
_chemical_formula_sum "Si O2"
_cell_formula_units_Z 24
_cell_length_a 11.000904
_cell_length_b 5.040803
_cell_length_c 14.308747
_cell_angle_alpha 90.000000
_cell_angle_beta 75.881349
_cell_angle_gamma 90.000000
_cell_volume 769.499954
_symmetry_space_group_name_H-M "P 21/C"
_symmetry_group_IT_number 14
_symmetry_cell_setting 'monoclinic'
loop_
_space_group_symop_operation_xyz
x,y,z
-x,1/2+y,1/2-z
-x,-y,-z
x,1/2-y,1/2+z
loop_
_atom_site_type_symbol
_atom_site_label
_atom_site_fract_x
_atom_site_fract_y
_atom_site_fract_z
Si Si1 0.641531 0.544548 0.571858
Si Si2 0.107689 0.488417 0.365387
Si Si3 0.500000 0.500000 0.000000
Si Si4 0.000000 0.500000 0.000000
Si Si5 0.227507 0.672102 0.085212
Si Si6 0.843541 0.492070 0.232108
Si Si7 0.444628 0.158548 0.209328
O O1 0.748363 0.510914 0.629375
O O2 0.721802 0.443230 0.469877
O O3 0.523323 0.331419 0.595394
O O4 0.578598 0.820002 0.562142
O O5 0.085423 0.811024 0.362933
O O6 0.107456 0.291551 0.274379
O O7 0.033737 0.294116 0.447005
O O8 0.640983 0.461713 0.913226
O O9 0.857061 0.488335 0.971106
O O10 0.149448 0.787232 0.185809
O O11 0.694237 0.544575 0.254367
O O12 0.527801 0.920885 0.238267
#
# Coordination Sequence:
#
# PCOD9253125 Si02
#       7
#     4   4   2   2   4   4   4
#     4  12  26  46  81 121 169 219 280 351 429 522
#     4  12  28  51  82 116 165 214 289 346 436 500
#     4  12  26  46  78 122 162 210 282 352 414 506
#     4  12  30  58  82 114 160 230 276 346 420 524
#     4  12  30  49  83 119 170 217 288 343 433 508
#     4  12  27  48  78 123 160 217 277 362 417 512
#     4  12  24  40  74 117 165 209 268 347 427 497
#
# _framework density 31.189088000000002
#
# number of rings (size 3 to 8) (size 9 to 14) (size 15 to 20)
#    0.000    0.000    6.667    1.500    4.667    4.000 
#    0.000    0.000    0.000    0.000    0.000    0.000 
#    0.000    0.000    0.000    0.000    0.000    0.000 
#
# Total GULP energy -133768.854812 kJ/mol
# GULP energy per Si atom -5573.702284 kJ/mol
# Density = 3.111810 g / cm^3
# Si number density = 31.189088 Si / 1000 Ang^3
#
#
#
# Elastic Constant Matrix: (Units=GPa)
#
#
# Indices 1 2 3 4 5 6 
#
# 1 268.5595 47.5428 15.2080 0.0000 -30.4112 0.0000
# 2 47.5428 250.0775 14.1904 0.0000 -15.8325 0.0000
# 3 15.2080 14.1904 43.5107 0.0000 -21.5165 0.0000
# 4 0.0000 0.0000 0.0000 31.4793 0.0000 -24.0591
# 5 -30.4112 -15.8325 -21.5165 0.0000 58.1125 0.0000
# 6 0.0000 0.0000 0.0000 -24.0591 0.0000 12.2907
#
#
#
# Elastic Compliance Matrix: (Units=1/GPa)
#
#
# Indices 1 2 3 4 5 6 
#
# 1 0.004062 -0.000639 -0.000302 0.000000 0.001840 0.000000
# 2 -0.000639 0.004202 -0.000914 0.000000 0.000472 0.000000
# 3 -0.000302 -0.000914 0.028382 0.000000 0.010102 0.000000
# 4 0.000000 0.000000 0.000000 -0.064034 0.000000 -0.125347
# 5 0.001840 0.000472 0.010102 0.000000 0.022040 0.000000
# 6 0.000000 0.000000 0.000000 -0.125347 0.000000 -0.164006
#
#
# Mechanical properties :
#
#
# Convention : Reuss Voigt Hill
#
# Bulk Modulus (GPa) = 30.36006 79.55890 54.95948
# Shear Modulus (GPa) = -32.32732 52.72360 10.19814
#
# Velocity S-wave (km/s) = -3.22296 4.11597 1.81021
# Velocity P-wave (km/s) = 2.02351 6.93918 4.69349
#
# Compressibility (1/GPa) = 0.03293801
#
# Stress axis : x y z
#
# Youngs Moduli (GPa) = 246.17969 237.98652 35.23404
#
# Poissons Ratio (x) = 0.15199 0.01063
# Poissons Ratio (y) = 0.15722 0.03219
# Poissons Ratio (z) = 0.07424 0.21743
#
# Static dielectric constant tensor:
#      x y z
#    x 2.339320 0.000000 -0.069220 
#    y 0.000000 2.411370 0.000000 
#    z -0.069220 0.000000 3.051740 
# 
# From -- ./inp_files/56576.got.cif
#   From: 2010.05.17/outbox.cif.g08.bks.cpg/sg14_29_cif.got.tgz:56576.got - 2010.06.03 17:49:19.
