data_PCOD9253089
_publ_section_title
;
Structure prediction by ZEFSAII (Michael W. Deem and Ramdas Pophale) SiO2 
 PCOD9253089
Probable space group: P 21/C
;
_chemical_formula_sum "Si O2"
_cell_formula_units_Z 24
_cell_length_a 14.336012
_cell_length_b 8.360632
_cell_length_c 14.490732
_cell_angle_alpha 90.000000
_cell_angle_beta 141.489274
_cell_angle_gamma 90.000000
_cell_volume 1081.457722
_symmetry_space_group_name_H-M "P 21/C"
_symmetry_group_IT_number 14
_symmetry_cell_setting 'monoclinic'
loop_
_space_group_symop_operation_xyz
x,y,z
-x,1/2+y,1/2-z
-x,-y,-z
x,1/2-y,1/2+z
loop_
_atom_site_type_symbol
_atom_site_label
_atom_site_fract_x
_atom_site_fract_y
_atom_site_fract_z
Si Si1 0.836704 0.189852 0.089060
Si Si2 0.315887 0.339127 0.845541
Si Si3 0.201722 0.652411 0.652431
Si Si4 0.396690 0.846643 0.931748
Si Si5 0.836950 0.574659 0.093293
Si Si6 0.907328 0.661170 0.947647
O O1 0.721042 0.133813 0.077178
O O2 0.835487 0.382783 0.088313
O O3 0.001853 0.128830 0.242371
O O4 0.793501 0.134171 0.953379
O O5 0.258376 0.496797 0.749192
O O6 0.486416 0.296237 0.956598
O O7 0.286578 0.362214 0.931168
O O8 0.208151 0.200054 0.722677
O O9 0.032195 0.699482 0.548450
O O10 0.305426 0.796728 0.769918
O O11 0.500000 0.000000 0.000000
O O12 0.824993 0.643702 0.981310
O O13 0.000000 0.500000 0.000000
#
# Coordination Sequence:
#
# PCOD9253089 Si02
#       6
#     4   4   4   4   4   4
#     4  12  28  44  79 107 144 194 246 302 366 443
#     4  12  27  46  75 106 148 192 240 311 362 436
#     4  12  25  47  72 108 146 187 252 298 364 435
#     4  12  29  50  71 105 152 189 239 306 382 432
#     4  12  24  45  77 107 144 190 251 291 370 427
#     4  12  23  43  75 112 142 189 247 307 357 433
#
# _framework density 22.192267999999999
#
# number of rings (size 3 to 8) (size 9 to 14) (size 15 to 20)
#    0.000    0.000    6.667    2.000    4.667    2.667 
#    0.000    0.000    0.000    0.000    0.000    0.000 
#    0.000    0.000    0.000    0.000    0.000    0.000 
#
# Total GULP energy -134562.690470 kJ/mol
# GULP energy per Si atom -5606.778770 kJ/mol
# Density = 2.214176 g / cm^3
# Si number density = 22.192268 Si / 1000 Ang^3
#
#
#
# Elastic Constant Matrix: (Units=GPa)
#
#
# Indices 1 2 3 4 5 6 
#
# 1 97.5632 10.6814 5.6658 0.0000 -23.1363 0.0000
# 2 10.6814 55.7561 -0.5829 0.0000 -2.7827 0.0000
# 3 5.6658 -0.5829 47.1240 0.0000 0.1563 0.0000
# 4 0.0000 0.0000 0.0000 36.7566 0.0000 8.0636
# 5 -23.1363 -2.7827 0.1563 0.0000 40.6889 0.0000
# 6 0.0000 0.0000 0.0000 8.0636 0.0000 38.6686
#
#
#
# Elastic Compliance Matrix: (Units=1/GPa)
#
#
# Indices 1 2 3 4 5 6 
#
# 1 0.012167 -0.002008 -0.001510 0.000000 0.006787 0.000000
# 2 -0.002008 0.018330 0.000468 0.000000 0.000110 0.000000
# 3 -0.001510 0.000468 0.021411 0.000000 -0.000909 0.000000
# 4 0.000000 0.000000 0.000000 0.028510 0.000000 -0.005945
# 5 0.006787 0.000110 -0.000909 0.000000 0.028447 0.000000
# 6 0.000000 0.000000 0.000000 -0.005945 0.000000 0.027101
#
#
# Mechanical properties :
#
#
# Convention : Reuss Voigt Hill
#
# Bulk Modulus (GPa) = 21.83054 25.77466 23.80260
# Shear Modulus (GPa) = 31.77929 35.53476 33.65703
#
# Velocity S-wave (km/s) = 3.78828 4.00587 3.89859
# Velocity P-wave (km/s) = 5.38453 5.74765 5.56905
#
# Compressibility (1/GPa) = 0.04580740
#
# Stress axis : x y z
#
# Youngs Moduli (GPa) = 82.19162 54.55444 46.70504
#
# Poissons Ratio (x) = 0.10954 0.07053
# Poissons Ratio (y) = 0.16503 -0.02185
# Poissons Ratio (z) = 0.12412 -0.02552
#
# Static dielectric constant tensor:
#      x y z
#    x 1.782950 0.000000 -0.002110 
#    y 0.000000 2.127350 0.000000 
#    z -0.002110 0.000000 1.786980 
# 
# From -- ./inp_files/46622.got.cif
#   From: 2010.05.17/outbox.cif.g08.bks.cpg/sg14_24_cif.got.tgz:46622.got - 2010.06.03 17:49:19.
