data_PCOD9253142
_publ_section_title
;
Structure prediction by ZEFSAII (Michael W. Deem and Ramdas Pophale) SiO2 
 PCOD9253142
Probable space group: P 21/C
;
_chemical_formula_sum "Si O2"
_cell_formula_units_Z 16
_cell_length_a 16.914007
_cell_length_b 4.773551
_cell_length_c 8.418074
_cell_angle_alpha 90.000000
_cell_angle_beta 105.528792
_cell_angle_gamma 90.000000
_cell_volume 654.863442
_symmetry_space_group_name_H-M "P 21/C"
_symmetry_group_IT_number 14
_symmetry_cell_setting 'monoclinic'
loop_
_space_group_symop_operation_xyz
x,y,z
-x,1/2+y,1/2-z
-x,-y,-z
x,1/2-y,1/2+z
loop_
_atom_site_type_symbol
_atom_site_label
_atom_site_fract_x
_atom_site_fract_y
_atom_site_fract_z
Si Si1 0.468019 0.647199 0.824879
Si Si2 0.031176 0.343456 0.360186
Si Si3 0.780589 0.648627 0.481276
Si Si4 0.281582 0.656380 0.238022
O O1 0.478789 0.417841 0.692069
O O2 0.374354 0.738151 0.791012
O O3 0.500000 0.500000 0.000000
O O4 0.126097 0.269849 0.433682
O O5 0.019967 0.569019 0.212718
O O6 0.000000 0.500000 0.500000
O O7 0.775241 0.420796 0.336545
O O8 0.743293 0.492100 0.612649
O O9 0.730138 0.920485 0.403088
#
# Coordination Sequence:
#
# PCOD9253142 Si02
#       4
#     4   4   4   4
#     4  12  27  49  75 106 142 186 236 290 352 422
#     4  12  24  43  70 104 141 185 236 293 351 419
#     4  12  25  46  70 103 142 187 235 291 355 420
#     4  12  26  46  71 101 140 186 234 290 353 423
#
# _framework density 24.432573000000001
#
# number of rings (size 3 to 8) (size 9 to 14) (size 15 to 20)
#    0.000    0.000    0.000   10.500    0.000    4.000 
#    0.000    2.500    0.000    0.000    0.000    0.000 
#    0.000    0.000    0.000    0.000    0.000    0.000 
#
# Total GULP energy -89923.522893 kJ/mol
# GULP energy per Si atom -5620.220181 kJ/mol
# Density = 2.437696 g / cm^3
# Si number density = 24.432573 Si / 1000 Ang^3
#
#
#
# Elastic Constant Matrix: (Units=GPa)
#
#
# Indices 1 2 3 4 5 6 
#
# 1 119.4838 15.5372 55.9364 0.0000 19.7844 0.0000
# 2 15.5372 111.8215 39.7215 0.0000 18.9287 0.0000
# 3 55.9364 39.7215 119.1335 0.0000 23.6958 0.0000
# 4 0.0000 0.0000 0.0000 68.0660 0.0000 -5.0806
# 5 19.7844 18.9287 23.6958 0.0000 42.7672 0.0000
# 6 0.0000 0.0000 0.0000 -5.0806 0.0000 34.6608
#
#
#
# Elastic Compliance Matrix: (Units=1/GPa)
#
#
# Indices 1 2 3 4 5 6 
#
# 1 0.010999 0.000648 -0.004845 0.000000 -0.002690 0.000000
# 2 0.000648 0.010522 -0.003177 0.000000 -0.003197 0.000000
# 3 -0.004845 -0.003177 0.012365 0.000000 -0.003204 0.000000
# 4 0.000000 0.000000 0.000000 0.014854 0.000000 0.002177
# 5 -0.002690 -0.003197 -0.003204 0.000000 0.027817 0.000000
# 6 0.000000 0.000000 0.000000 0.002177 0.000000 0.029170
#
#
# Mechanical properties :
#
#
# Convention : Reuss Voigt Hill
#
# Bulk Modulus (GPa) = 52.24958 63.64767 57.94863
# Shear Modulus (GPa) = 39.41496 45.04839 42.23167
#
# Velocity S-wave (km/s) = 4.02084 4.29859 4.16203
# Velocity P-wave (km/s) = 6.55651 7.12349 6.84587
#
# Compressibility (1/GPa) = 0.01913891
#
# Stress axis : x y z
#
# Youngs Moduli (GPa) = 90.91864 95.03525 80.87084
#
# Poissons Ratio (x) = -0.06161 0.39184
# Poissons Ratio (y) = -0.05895 0.25692
# Poissons Ratio (z) = 0.44053 0.30192
#
# Static dielectric constant tensor:
#      x y z
#    x 1.851510 0.000000 -0.055900 
#    y 0.000000 1.925130 0.000000 
#    z -0.055900 0.000000 1.991040 
# 
# From -- ./inp_files/14739.got.cif
#   From: 2010.05.17/outbox.cif.g08.bks.cpg/sg14_8_cif.got.tgz:14739.got - 2010.06.03 17:49:19.
