data_PCOD9253433
_publ_section_title
;
Structure prediction by ZEFSAII (Michael W. Deem and Ramdas Pophale) SiO2 
 PCOD9253433
Probable space group: P 21/C
;
_chemical_formula_sum "Si O2"
_cell_formula_units_Z 32
_cell_length_a 11.918127
_cell_length_b 7.175698
_cell_length_c 18.596228
_cell_angle_alpha 90.000000
_cell_angle_beta 111.867202
_cell_angle_gamma 90.000000
_cell_volume 1475.938350
_symmetry_space_group_name_H-M "P 21/C"
_symmetry_group_IT_number 14
_symmetry_cell_setting 'monoclinic'
loop_
_space_group_symop_operation_xyz
x,y,z
-x,1/2+y,1/2-z
-x,-y,-z
x,1/2-y,1/2+z
loop_
_atom_site_type_symbol
_atom_site_label
_atom_site_fract_x
_atom_site_fract_y
_atom_site_fract_z
Si Si1 0.096115 0.625186 0.749065
Si Si2 0.086969 0.710871 0.586796
Si Si3 0.395011 0.258805 0.136249
Si Si4 0.857742 0.807509 0.275576
Si Si5 0.648264 0.305834 0.844000
Si Si6 0.650312 0.312037 0.176445
Si Si7 0.605082 0.725132 0.197507
Si Si8 0.129985 0.279402 0.561636
O O1 0.074889 0.733941 0.669450
O O2 0.133692 0.415344 0.736483
O O3 0.211988 0.716210 0.817045
O O4 0.972484 0.612779 0.762657
O O5 0.218712 0.778665 0.592408
O O6 0.092802 0.488504 0.574640
O O7 0.970703 0.787698 0.517769
O O8 0.387532 0.478926 0.154537
O O9 0.520867 0.223363 0.125322
O O10 0.393342 0.171722 0.216379
O O11 0.268640 0.212624 0.068221
O O12 0.722007 0.857167 0.216974
O O13 0.867592 0.836400 0.363424
O O14 0.657934 0.239302 0.763585
O O15 0.530301 0.201937 0.848233
O O16 0.627238 0.533582 0.160840
#
# Coordination Sequence:
#
# PCOD9253433 Si02
#       8
#     4   4   4   4   4   4   4   4
#     4   9  17  29  45  65  88 114 144 177 215 258
#     4   9  18  32  47  63  88 120 147 175 217 263
#     4   9  15  24  42  66  87 108 142 185 219 250
#     4   9  17  29  45  65  88 114 144 177 215 258
#     4   9  15  24  42  66  87 108 142 185 219 250
#     4   8  15  27  41  60  88 117 142 174 218 260
#     4   8  15  27  41  60  88 117 142 174 218 260
#     4   9  18  32  47  63  88 120 147 175 217 263
#
# _framework density 21.681121999999998
#
# number of rings (size 3 to 8) (size 9 to 14) (size 15 to 20)
#    0.000    3.250    0.000    2.250    0.000    5.500 
#    0.000    0.000    0.000    1.500    0.000   10.500 
#    0.000    0.000    0.000    0.000    0.000    0.000 
#
# Total GULP energy -178204.529449 kJ/mol
# GULP energy per Si atom -5568.891545 kJ/mol
# Density = 2.163177 g / cm^3
# Si number density = 21.681122 Si / 1000 Ang^3
#
#
#
# Elastic Constant Matrix: (Units=GPa)
#
#
# Indices 1 2 3 4 5 6 
#
# 1 179.8366 -5.3612 59.5424 0.0000 54.1780 0.0000
# 2 -5.3612 46.4214 -0.9473 0.0000 -5.6012 0.0000
# 3 59.5424 -0.9473 64.4385 0.0000 45.3718 0.0000
# 4 0.0000 0.0000 0.0000 11.6273 0.0000 4.6923
# 5 54.1780 -5.6012 45.3718 0.0000 39.3322 0.0000
# 6 0.0000 0.0000 0.0000 4.6923 0.0000 26.5637
#
#
#
# Elastic Compliance Matrix: (Units=1/GPa)
#
#
# Indices 1 2 3 4 5 6 
#
# 1 0.009600 -0.000824 0.002720 0.000000 -0.016478 0.000000
# 2 -0.000824 0.023267 -0.010804 0.000000 0.016912 0.000000
# 3 0.002720 -0.010804 0.088235 0.000000 -0.107069 0.000000
# 4 0.000000 0.000000 0.000000 0.092606 0.000000 -0.016358
# 5 -0.016478 0.016912 -0.107069 0.000000 0.174040 0.000000
# 6 0.000000 0.000000 0.000000 -0.016358 0.000000 0.040535
#
#
# Mechanical properties :
#
#
# Convention : Reuss Voigt Hill
#
# Bulk Modulus (GPa) = 9.68201 44.12936 26.90568
# Shear Modulus (GPa) = 10.40522 31.33550 20.87036
#
# Velocity S-wave (km/s) = 2.19309 3.80582 3.10595
# Velocity P-wave (km/s) = 3.29972 6.30162 5.02984
#
# Compressibility (1/GPa) = 0.10328439
#
# Stress axis : x y z
#
# Youngs Moduli (GPa) = 104.17017 42.97981 11.33334
#
# Poissons Ratio (x) = 0.03542 -0.03082
# Poissons Ratio (y) = 0.08584 0.12245
# Poissons Ratio (z) = -0.28333 0.46437
#
# Static dielectric constant tensor:
#      x y z
#    x 1.859510 0.000000 0.072560 
#    y 0.000000 1.887740 0.000000 
#    z 0.072560 0.000000 1.780910 
# 
# From -- ./inp_files/66878.got.cif
#   From: 2010.05.17/outbox.cif.g08.bks.cpg/sg14_34_cif.got.tgz:66878.got - 2010.06.03 17:49:19.
