data_PCOD9253698
_publ_section_title
;
Structure prediction by ZEFSAII (Michael W. Deem and Ramdas Pophale) SiO2 
 PCOD9253698
Probable space group: P 21/C
;
_chemical_formula_sum "Si O2"
_cell_formula_units_Z 32
_cell_length_a 15.000000
_cell_length_b 18.000000
_cell_length_c 12.000000
_cell_angle_alpha 90.000000
_cell_angle_beta 150.000000
_cell_angle_gamma 90.000000
_cell_volume 1620.000000
_symmetry_space_group_name_H-M "P 21/C"
_symmetry_group_IT_number 14
_symmetry_cell_setting 'monoclinic'
loop_
_space_group_symop_operation_xyz
x,y,z
-x,1/2+y,1/2-z
-x,-y,-z
x,1/2-y,1/2+z
loop_
_atom_site_type_symbol
_atom_site_label
_atom_site_fract_x
_atom_site_fract_y
_atom_site_fract_z
Si Si1 0.734851 0.130783 0.444687
Si Si2 0.181437 0.303078 0.015191
Si Si3 0.998815 0.650557 0.408901
Si Si4 0.894276 0.185190 0.384596
Si Si5 0.101779 0.369798 0.459233
Si Si6 0.464685 0.438717 0.801216
Si Si7 0.583776 0.210687 0.868649
Si Si8 0.387872 0.600082 0.805485
O O1 0.813361 0.139804 0.403621
O O2 0.905670 0.109749 0.704963
O O3 0.579786 0.073784 0.314336
O O4 0.645990 0.208390 0.390933
O O5 0.105109 0.340602 0.819743
O O6 0.078823 0.334768 0.015535
O O7 0.121231 0.217069 0.950867
O O8 0.396612 0.297999 0.233513
O O9 0.068908 0.732430 0.524140
O O10 0.887242 0.621847 0.394636
O O11 0.173080 0.600310 0.580730
O O12 0.742891 0.186867 0.124642
O O13 0.260575 0.412628 0.570592
O O14 0.463867 0.523613 0.839206
O O15 0.542462 0.391860 0.991897
O O16 0.567324 0.162690 0.737343
#
# Coordination Sequence:
#
# PCOD9253698 Si02
#       8
#     4   4   4   4   4   4   4   4
#     4  12  22  39  63  92 127 162 202 261 306 362
#     4  11  22  35  61  94 120 155 204 253 310 362
#     4  11  19  38  61  91 125 152 203 256 307 360
#     4  11  21  37  60  92 121 157 200 260 301 361
#     4  11  21  36  60  91 126 155 200 253 315 364
#     4  11  25  41  62  94 129 162 206 253 319 374
#     4  12  22  39  66  90 123 163 210 258 303 364
#     4  11  22  43  64  90 126 168 205 255 313 375
#
# _framework density 19.753086
#
# number of rings (size 3 to 8) (size 9 to 14) (size 15 to 20)
#    0.000    0.750    8.750    0.750    0.000    3.500 
#    2.250    0.625    0.000    1.500    0.000    0.000 
#    0.000    0.000    0.000    0.000    0.000    0.000 
#
# Total GULP energy -178615.742525 kJ/mol
# GULP energy per Si atom -5581.741954 kJ/mol
# Density = 1.970813 g / cm^3
# Si number density = 19.753086 Si / 1000 Ang^3
#
#
#
# Elastic Constant Matrix: (Units=GPa)
#
#
# Indices 1 2 3 4 5 6 
#
# 1 119.7285 -8.3949 30.1690 0.0000 16.4567 0.0000
# 2 -8.3949 13.9821 5.4730 0.0000 -3.4306 0.0000
# 3 30.1690 5.4730 69.7821 0.0000 17.6000 0.0000
# 4 0.0000 0.0000 0.0000 15.1269 0.0000 -2.2778
# 5 16.4567 -3.4306 17.6000 0.0000 46.9439 0.0000
# 6 0.0000 0.0000 0.0000 -2.2778 0.0000 21.7358
#
#
#
# Elastic Compliance Matrix: (Units=1/GPa)
#
#
# Indices 1 2 3 4 5 6 
#
# 1 0.010254 0.007693 -0.004718 0.000000 -0.001264 0.000000
# 2 0.007693 0.082646 -0.011763 0.000000 0.007753 0.000000
# 3 -0.004718 -0.011763 0.018877 0.000000 -0.006283 0.000000
# 4 0.000000 0.000000 0.000000 0.067167 0.000000 0.007039
# 5 -0.001264 0.007753 -0.006283 0.000000 0.024667 0.000000
# 6 0.000000 0.000000 0.000000 0.007039 0.000000 0.046745
#
#
# Mechanical properties :
#
#
# Convention : Reuss Voigt Hill
#
# Bulk Modulus (GPa) = 10.61555 28.66519 19.64037
# Shear Modulus (GPa) = 16.70384 28.51103 22.60743
#
# Velocity S-wave (km/s) = 2.91113 3.80329 3.38672
# Velocity P-wave (km/s) = 4.08477 5.81635 5.02570
#
# Compressibility (1/GPa) = 0.09420139
#
# Stress axis : x y z
#
# Youngs Moduli (GPa) = 97.52153 12.09984 52.97372
#
# Poissons Ratio (x) = -0.09309 0.24992
# Poissons Ratio (y) = -0.75026 0.62315
# Poissons Ratio (z) = 0.46009 0.14233
#
# Static dielectric constant tensor:
#      x y z
#    x 1.721630 0.000000 0.024300 
#    y 0.000000 1.702240 0.000000 
#    z 0.024300 0.000000 1.706020 
# 
# From -- ./inp_files/33049.got.cif
#   From: 2010.05.17/outbox.ucp.g08.bks.cvg/sg14_17_cif.got.tgz:33049.got - 2010.06.11 12:31:08.
