data_PCOD9253972
_publ_section_title
;
Structure prediction by ZEFSAII (Michael W. Deem and Ramdas Pophale) SiO2 
 PCOD9253972
Probable space group: C 2/C
;
_chemical_formula_sum "Si O2"
_cell_formula_units_Z 40
_cell_length_a 12.142410
_cell_length_b 13.113077
_cell_length_c 16.069784
_cell_angle_alpha 90.000000
_cell_angle_beta 145.239959
_cell_angle_gamma 90.000000
_cell_volume 1458.819714
_symmetry_space_group_name_H-M "C 2/C"
_symmetry_group_IT_number 15
_symmetry_cell_setting 'monoclinic'
loop_
_space_group_symop_operation_xyz
x,y,z
-x,y,1/2-z
-x,-y,-z
x,-y,1/2+z
1/2+x,1/2+y,z
1/2-x,1/2+y,1/2-z
1/2-x,1/2-y,-z
1/2+x,1/2-y,1/2+z
loop_
_atom_site_type_symbol
_atom_site_label
_atom_site_fract_x
_atom_site_fract_y
_atom_site_fract_z
Si Si1 0.108301 0.665070 0.098752
Si Si2 0.808675 0.990412 0.939221
Si Si3 0.965360 0.181021 0.091529
Si Si4 0.087503 0.391101 0.172928
Si Si5 0.997900 0.814965 0.348142
O O1 0.988959 0.701455 0.104497
O O2 0.319175 0.639423 0.262637
O O3 0.092002 0.770278 0.032854
O O4 0.047673 0.587060 0.989815
O O5 0.638659 0.021483 0.769933
O O6 0.831634 0.083489 0.019561
O O7 0.842070 0.886181 0.008437
O O8 0.000000 0.000000 0.000000
O O9 0.989898 0.289172 0.153578
O O10 0.284632 0.354922 0.246515
O O11 0.000000 0.817176 0.250000
#
# Coordination Sequence:
#
# PCOD9253972 Si02
#       5
#     8   8   8   8   8
#     4   9  16  29  47  72  91 114 157 194 233 259
#     4  10  15  29  48  66  94 120 155 191 225 275
#     4   9  13  27  47  70  88 110 156 197 228 252
#     4   8  15  29  46  71  86 114 161 192 225 256
#     4  10  19  29  46  69 100 129 147 176 235 294
#
# _framework density 27.419426000000001
#
# number of rings (size 3 to 8) (size 9 to 14) (size 15 to 20)
#    1.200    1.600    6.000    0.000    0.000    0.800 
#    0.000    4.000    0.000    1.200    0.000    0.000 
#    0.000    0.000    0.000    0.000    0.000    0.000 
#
# Total GULP energy -111414.872988 kJ/mol
# GULP energy per Si atom -5570.743649 kJ/mol
# Density = 2.735702 g / cm^3
# Si number density = 27.419426 Si / 1000 Ang^3
#
#
#
# Elastic Constant Matrix: (Units=GPa)
#
#
# Indices 1 2 3 4 5 6 
#
# 1 120.9031 25.3076 31.4416 0.0006 -33.1867 0.0004
# 2 25.3076 87.8550 64.7783 0.0005 -0.2286 0.0003
# 3 31.4416 64.7783 187.9026 0.0014 -36.2269 0.0013
# 4 0.0006 0.0005 0.0014 21.1432 0.0009 -6.4604
# 5 -33.1867 -0.2286 -36.2269 0.0009 35.2029 0.0007
# 6 0.0004 0.0003 0.0013 -6.4604 0.0007 7.4921
#
#
#
# Elastic Compliance Matrix: (Units=1/GPa)
#
#
# Indices 1 2 3 4 5 6 
#
# 1 0.012801 -0.005583 0.002623 -0.000002 0.014731 -0.000004
# 2 -0.005583 0.019047 -0.008262 0.000002 -0.013642 0.000004
# 3 0.002623 -0.008262 0.010227 -0.000003 0.012943 -0.000005
# 4 -0.000002 0.000002 -0.000003 0.064216 -0.000008 0.055374
# 5 0.014731 -0.013642 0.012943 -0.000008 0.055525 -0.000014
# 6 -0.000004 0.000004 -0.000005 0.055374 -0.000014 0.181222
#
#
# Mechanical properties :
#
#
# Convention : Reuss Voigt Hill
#
# Bulk Modulus (GPa) = 50.94279 71.07953 61.01116
# Shear Modulus (GPa) = 13.43988 31.10984 22.27486
#
# Velocity S-wave (km/s) = 2.21636 3.37202 2.85331
# Velocity P-wave (km/s) = 5.01688 6.41405 5.75800
#
# Compressibility (1/GPa) = 0.01962986
#
# Stress axis : x y z
#
# Youngs Moduli (GPa) = 78.11830 52.50087 97.78164
#
# Poissons Ratio (x) = 0.29311 -0.25645
# Poissons Ratio (y) = 0.43613 0.80791
# Poissons Ratio (z) = -0.20488 0.43378
#
# Static dielectric constant tensor:
#      x y z
#    x 2.293050 0.000000 0.088100 
#    y 0.000000 2.203530 0.000000 
#    z 0.088100 0.000000 2.103880 
# 
# From -- ./inp_files/211126.got.cif
#   From: 2010.05.17/outbox.cif.g08.bks.cpg/sg15_106_cif.got.tgz:211126.got - 2010.06.03 18:47:42.
