data_PCOD9253874
_publ_section_title
;
Structure prediction by ZEFSAII (Michael W. Deem and Ramdas Pophale) SiO2 
 PCOD9253874
Probable space group: C 2/C
;
_chemical_formula_sum "Si O2"
_cell_formula_units_Z 48
_cell_length_a 17.021140
_cell_length_b 25.384853
_cell_length_c 11.884566
_cell_angle_alpha 90.000000
_cell_angle_beta 150.032551
_cell_angle_gamma 90.000000
_cell_volume 2565.009597
_symmetry_space_group_name_H-M "C 2/C"
_symmetry_group_IT_number 15
_symmetry_cell_setting 'monoclinic'
loop_
_space_group_symop_operation_xyz
x,y,z
-x,y,1/2-z
-x,-y,-z
x,-y,1/2+z
1/2+x,1/2+y,z
1/2-x,1/2+y,1/2-z
1/2-x,1/2-y,-z
1/2+x,1/2-y,1/2+z
loop_
_atom_site_type_symbol
_atom_site_label
_atom_site_fract_x
_atom_site_fract_y
_atom_site_fract_z
Si Si1 0.376392 0.824323 0.835182
Si Si2 0.505199 0.075266 0.890611
Si Si3 0.621206 0.240943 0.503914
Si Si4 0.258719 0.360613 0.069167
Si Si5 0.000000 0.435081 0.750000
Si Si6 0.000000 0.928858 0.250000
Si Si7 0.198849 0.509662 0.300971
O O1 0.515456 0.786067 0.967154
O O2 0.224785 0.788987 0.677095
O O3 0.315866 0.853803 0.647765
O O4 0.441780 0.867397 0.001362
O O5 0.500000 0.074404 0.750000
O O6 0.340990 0.052169 0.737547
O O7 0.632565 0.035276 0.104562
O O8 0.500000 0.254592 0.250000
O O9 0.741497 0.196498 0.603756
O O10 0.420590 0.390590 0.245342
O O11 0.132937 0.398647 0.972643
O O12 0.094250 0.467518 0.774585
O O13 0.130173 0.967073 0.464945
#
# Coordination Sequence:
#
# PCOD9253874 Si02
#       7
#     8   8   8   8   4   4   8
#     4  11  21  34  56  82 116 153 202 237 296 350
#     4  11  22  39  62  82 117 169 203 230 285 377
#     4  10  20  33  56  90 119 150 189 258 302 342
#     4  10  17  30  56  90 122 145 179 246 314 349
#     4  10  14  34  59  88 116 147 188 234 310 354
#     4  10  20  32  61  94 124 139 190 262 294 350
#     4  10  21  37  63  89 116 152 199 245 302 347
#
# _framework density 18.713380999999998
#
# number of rings (size 3 to 8) (size 9 to 14) (size 15 to 20)
#    0.000    1.667    6.667    2.000    3.500    0.000 
#    0.000    1.667    3.667    0.000    0.000    0.000 
#    0.000    0.000    0.000    0.000    0.000    0.000 
#
# Total GULP energy -133783.122661 kJ/mol
# GULP energy per Si atom -5574.296778 kJ/mol
# Density = 1.867079 g / cm^3
# Si number density = 18.713381 Si / 1000 Ang^3
#
#
#
# Elastic Constant Matrix: (Units=GPa)
#
#
# Indices 1 2 3 4 5 6 
#
# 1 64.8345 38.5855 51.6880 0.0000 1.3268 0.0000
# 2 38.5855 117.0864 62.7207 0.0000 7.4907 0.0000
# 3 51.6880 62.7207 103.8626 0.0000 8.3950 0.0000
# 4 0.0000 0.0000 0.0000 50.3804 0.0000 7.8417
# 5 1.3268 7.4907 8.3950 0.0000 38.9501 0.0000
# 6 0.0000 0.0000 0.0000 7.8417 0.0000 16.7868
#
#
#
# Elastic Compliance Matrix: (Units=1/GPa)
#
#
# Indices 1 2 3 4 5 6 
#
# 1 0.026193 -0.002502 -0.011695 0.000000 0.002110 0.000000
# 2 -0.002502 0.012888 -0.006457 0.000000 -0.001002 0.000000
# 3 -0.011695 -0.006457 0.019555 0.000000 -0.002575 0.000000
# 4 0.000000 0.000000 0.000000 0.021405 0.000000 -0.009999
# 5 0.002110 -0.001002 -0.002575 0.000000 0.026350 0.000000
# 6 0.000000 0.000000 0.000000 -0.009999 0.000000 0.064242
#
#
# Mechanical properties :
#
#
# Convention : Reuss Voigt Hill
#
# Bulk Modulus (GPa) = 57.70559 65.75243 61.72901
# Shear Modulus (GPa) = 22.96560 30.07607 26.52084
#
# Velocity S-wave (km/s) = 3.50698 4.01333 3.76867
# Velocity P-wave (km/s) = 6.87765 7.52919 7.21078
#
# Compressibility (1/GPa) = 0.01732934
#
# Stress axis : x y z
#
# Youngs Moduli (GPa) = 38.17771 77.59097 51.13727
#
# Poissons Ratio (x) = 0.19415 0.59804
# Poissons Ratio (y) = 0.09553 0.33018
# Poissons Ratio (z) = 0.44648 0.50098
#
# Static dielectric constant tensor:
#      x y z
#    x 1.677330 0.000000 0.035860 
#    y 0.000000 1.788250 0.000000 
#    z 0.035860 0.000000 1.655640 
# 
# From -- ./inp_files/108316.got.cif
#   From: 2010.05.17/outbox.cif.g08.bks.cpg/sg15_55_cif.got.tgz:108316.got - 2010.06.03 18:47:42.
