data_PCOD9253312
_publ_section_title
;
Structure prediction by ZEFSAII (Michael W. Deem and Ramdas Pophale) SiO2 
 PCOD9253312
Probable space group: P 21/C
;
_chemical_formula_sum "Si O2"
_cell_formula_units_Z 24
_cell_length_a 8.873445
_cell_length_b 17.995606
_cell_length_c 7.448993
_cell_angle_alpha 90.000000
_cell_angle_beta 55.483414
_cell_angle_gamma 90.000000
_cell_volume 980.084650
_symmetry_space_group_name_H-M "P 21/C"
_symmetry_group_IT_number 14
_symmetry_cell_setting 'monoclinic'
loop_
_space_group_symop_operation_xyz
x,y,z
-x,1/2+y,1/2-z
-x,-y,-z
x,1/2-y,1/2+z
loop_
_atom_site_type_symbol
_atom_site_label
_atom_site_fract_x
_atom_site_fract_y
_atom_site_fract_z
Si Si1 0.503875 0.693570 0.766377
Si Si2 0.652085 0.085062 0.925105
Si Si3 0.170961 0.053118 0.360244
Si Si4 0.541298 0.920500 0.562612
Si Si5 0.096056 0.315272 0.634217
Si Si6 0.847698 0.304580 0.479690
O O1 0.457564 0.635130 0.640506
O O2 0.714420 0.714619 0.581681
O O3 0.505064 0.646032 0.949022
O O4 0.345263 0.757158 0.876253
O O5 0.833870 0.134121 0.833238
O O6 0.684891 0.004219 0.826387
O O7 0.580400 0.086063 0.176821
O O8 0.255704 0.079959 0.490832
O O9 0.137499 0.117270 0.240136
O O10 0.000000 0.000000 0.500000
O O11 0.500000 0.000000 0.500000
O O12 0.937610 0.337738 0.598630
O O13 0.998710 0.253332 0.816095
#
# Coordination Sequence:
#
# PCOD9253312 Si02
#       6
#     4   4   4   4   4   4
#     4  12  27  53  80 115 162 212 269 340 404 481
#     4  12  26  53  79 112 168 212 270 341 399 483
#     4  12  28  50  78 123 163 207 275 340 398 487
#     4  12  26  48  82 113 148 212 265 319 412 477
#     4  12  29  49  83 117 161 215 271 333 410 485
#     4  12  29  51  79 118 161 216 273 335 410 481
#
# _framework density 24.487683000000001
#
# number of rings (size 3 to 8) (size 9 to 14) (size 15 to 20)
#    0.000    0.000    5.000    3.500    7.000    0.667 
#    0.000    0.000    0.000    0.000    0.000    0.000 
#    0.000    0.000    0.000    0.000    0.000    0.000 
#
# Total GULP energy -134422.753732 kJ/mol
# GULP energy per Si atom -5600.948072 kJ/mol
# Density = 2.443195 g / cm^3
# Si number density = 24.487683 Si / 1000 Ang^3
#
#
#
# Elastic Constant Matrix: (Units=GPa)
#
#
# Indices 1 2 3 4 5 6 
#
# 1 206.8451 55.8026 40.2169 0.0000 12.7666 0.0000
# 2 55.8026 113.3383 26.7608 0.0000 7.5214 0.0000
# 3 40.2169 26.7608 118.3560 0.0000 -11.5112 0.0000
# 4 0.0000 0.0000 0.0000 23.2680 0.0000 14.3900
# 5 12.7666 7.5214 -11.5112 0.0000 52.8765 0.0000
# 6 0.0000 0.0000 0.0000 14.3900 0.0000 49.6822
#
#
#
# Elastic Compliance Matrix: (Units=1/GPa)
#
#
# Indices 1 2 3 4 5 6 
#
# 1 0.005887 -0.002429 -0.001589 0.000000 -0.001422 0.000000
# 2 -0.002429 0.010498 -0.001672 0.000000 -0.001271 0.000000
# 3 -0.001589 -0.001672 0.009632 0.000000 0.002718 0.000000
# 4 0.000000 0.000000 0.000000 0.052356 0.000000 -0.015164
# 5 -0.001422 -0.001271 0.002718 0.000000 0.020028 0.000000
# 6 0.000000 0.000000 0.000000 -0.015164 0.000000 0.024520
#
#
# Mechanical properties :
#
#
# Convention : Reuss Voigt Hill
#
# Bulk Modulus (GPa) = 68.32427 76.01110 72.16769
# Shear Modulus (GPa) = 35.92507 46.21595 41.07051
#
# Velocity S-wave (km/s) = 3.83439 4.34904 4.09979
# Velocity P-wave (km/s) = 6.89677 7.50511 7.20736
#
# Compressibility (1/GPa) = 0.01463609
#
# Stress axis : x y z
#
# Youngs Moduli (GPa) = 169.88010 95.25609 103.82506
#
# Poissons Ratio (x) = 0.23134 0.16502
# Poissons Ratio (y) = 0.41257 0.17360
# Poissons Ratio (z) = 0.27000 0.15927
#
# Static dielectric constant tensor:
#      x y z
#    x 2.156450 0.000000 -0.182790 
#    y 0.000000 1.732090 0.000000 
#    z -0.182790 0.000000 2.132790 
# 
# From -- ./inp_files/10123.got.cif
#   From: 2010.05.17/outbox.cif.g08.bks.cpg/sg14_6_cif.got.tgz:10123.got - 2010.06.03 17:49:19.
