data_PCOD9253831
_publ_section_title
;
Structure prediction by ZEFSAII (Michael W. Deem and Ramdas Pophale) SiO2 
 PCOD9253831
Probable space group: C 2/C
;
_chemical_formula_sum "Si O2"
_cell_formula_units_Z 52
_cell_length_a 15.295388
_cell_length_b 19.858537
_cell_length_c 7.039920
_cell_angle_alpha 90.000000
_cell_angle_beta 77.641874
_cell_angle_gamma 90.000000
_cell_volume 2088.786235
_symmetry_space_group_name_H-M "C 2/C"
_symmetry_group_IT_number 15
_symmetry_cell_setting 'monoclinic'
loop_
_space_group_symop_operation_xyz
x,y,z
-x,y,1/2-z
-x,-y,-z
x,-y,1/2+z
1/2+x,1/2+y,z
1/2-x,1/2+y,1/2-z
1/2-x,1/2-y,-z
1/2+x,1/2-y,1/2+z
loop_
_atom_site_type_symbol
_atom_site_label
_atom_site_fract_x
_atom_site_fract_y
_atom_site_fract_z
Si Si1 0.974107 0.234019 0.985529
Si Si2 0.500000 0.500000 0.000000
Si Si3 0.646716 0.383645 0.037629
Si Si4 0.804245 0.406445 0.511107
Si Si5 0.384039 0.371442 0.994439
Si Si6 0.175128 0.562021 0.941801
Si Si7 0.499849 0.884521 0.461861
O O1 0.888478 0.185575 0.033613
O O2 0.000000 0.239117 0.750000
O O3 0.054396 0.194038 0.051728
O O4 0.961587 0.309087 0.062106
O O5 0.576934 0.442348 0.013778
O O6 0.436046 0.441197 0.932357
O O7 0.633828 0.377310 0.271101
O O8 0.750211 0.402199 0.964277
O O9 0.708751 0.370688 0.575003
O O10 0.799326 0.484050 0.575492
O O11 0.817146 0.409432 0.275493
O O12 0.895197 0.377995 0.559559
O O13 0.071702 0.572530 0.046163
O O14 0.500000 0.914812 0.250000
#
# Coordination Sequence:
#
# PCOD9253831 Si02
#       7
#     8   4   8   8   8   8   8
#     4   9  19  36  55  75 103 143 179 211 259 319
#     4  10  14  28  52  74 102 132 170 204 260 316
#     4   9  18  32  52  77 106 137 171 215 266 313
#     4  10  20  36  55  79 107 138 175 218 267 310
#     4   9  18  32  52  77 106 137 171 215 266 313
#     4  10  20  36  55  79 107 138 175 218 267 310
#     4  10  22  37  53  74 109 144 176 221 260 301
#
# _framework density 24.894843000000002
#
# number of rings (size 3 to 8) (size 9 to 14) (size 15 to 20)
#    0.000    2.462    1.538    1.846    0.000    2.462 
#    0.000    7.692    0.000    0.000    0.000    0.000 
#    0.000    0.000    0.000    0.000    0.000    0.000 
#
# Total GULP energy -144946.213436 kJ/mol
# GULP energy per Si atom -5574.854363 kJ/mol
# Density = 2.483818 g / cm^3
# Si number density = 24.894843 Si / 1000 Ang^3
#
#
#
# Elastic Constant Matrix: (Units=GPa)
#
#
# Indices 1 2 3 4 5 6 
#
# 1 210.7253 30.0036 35.4184 0.0000 10.1667 0.0000
# 2 30.0036 67.6830 1.7609 0.0000 4.0972 0.0000
# 3 35.4184 1.7609 82.5577 0.0000 10.8291 0.0000
# 4 0.0000 0.0000 0.0000 -303.0896 0.0000 92.0773
# 5 10.1667 4.0972 10.8291 0.0000 30.8070 0.0000
# 6 0.0000 0.0000 0.0000 92.0773 0.0000 -23.0855
#
#
#
# Elastic Compliance Matrix: (Units=1/GPa)
#
#
# Indices 1 2 3 4 5 6 
#
# 1 0.005483 -0.002329 -0.002208 0.000000 -0.000724 0.000000
# 2 -0.002329 0.015885 0.000877 0.000000 -0.001652 0.000000
# 3 -0.002208 0.000877 0.013587 0.000000 -0.004164 0.000000
# 4 0.000000 0.000000 0.000000 0.015585 0.000000 0.062162
# 5 -0.000724 -0.001652 -0.004164 0.000000 0.034383 0.000000
# 6 0.000000 0.000000 0.000000 0.062162 0.000000 0.204618
#
#
# Mechanical properties :
#
#
# Convention : Reuss Voigt Hill
#
# Bulk Modulus (GPa) = 36.18552 55.03687 45.61120
# Shear Modulus (GPa) = 16.33597 -39.48809 -11.57606
#
# Velocity S-wave (km/s) = 2.56442 -3.98703 -2.15872
# Velocity P-wave (km/s) = 4.83065 0.98007 3.48538
#
# Compressibility (1/GPa) = 0.02763536
#
# Stress axis : x y z
#
# Youngs Moduli (GPa) = 182.37614 62.95411 73.59755
#
# Poissons Ratio (x) = 0.14665 0.16249
# Poissons Ratio (y) = 0.42483 -0.06456
# Poissons Ratio (z) = 0.40264 -0.05523
#
# Static dielectric constant tensor:
#      x y z
#    x 1.943370 0.000000 -0.020080 
#    y 0.000000 1.857250 0.000000 
#    z -0.020080 0.000000 2.073510 
# 
# From -- ./inp_files/40771.got.cif
#   From: 2010.05.17/outbox.cif.g08.bks.cpg/sg15_21_cif.got.tgz:40771.got - 2010.06.03 18:47:42.
