data_PCOD9253613
_publ_section_title
;
Structure prediction by ZEFSAII (Michael W. Deem and Ramdas Pophale) SiO2 
 PCOD9253613
Probable space group: P 21/C
;
_chemical_formula_sum "Si O2"
_cell_formula_units_Z 32
_cell_length_a 21.000000
_cell_length_b 9.000000
_cell_length_c 27.000000
_cell_angle_alpha 90.000000
_cell_angle_beta 160.000000
_cell_angle_gamma 90.000000
_cell_volume 1745.328791
_symmetry_space_group_name_H-M "P 21/C"
_symmetry_group_IT_number 14
_symmetry_cell_setting 'monoclinic'
loop_
_space_group_symop_operation_xyz
x,y,z
-x,1/2+y,1/2-z
-x,-y,-z
x,1/2-y,1/2+z
loop_
_atom_site_type_symbol
_atom_site_label
_atom_site_fract_x
_atom_site_fract_y
_atom_site_fract_z
Si Si1 0.162303 0.486933 0.888722
Si Si2 0.062493 0.222007 0.173548
Si Si3 0.227439 0.668584 0.217377
Si Si4 0.188031 0.843278 0.922113
Si Si5 0.936493 0.836659 0.938584
Si Si6 0.637074 0.896715 0.252600
Si Si7 0.890114 0.548796 0.034999
Si Si8 0.567404 0.619911 0.005100
O O1 0.169792 0.666707 0.896965
O O2 0.180862 0.423704 0.959612
O O3 0.322090 0.442183 0.964122
O O4 0.956071 0.432144 0.719393
O O5 0.081540 0.156465 0.133297
O O6 0.265458 0.215911 0.347604
O O7 0.912693 0.136737 0.098236
O O8 0.977269 0.384715 0.103110
O O9 0.307309 0.516677 0.250059
O O10 0.392262 0.777586 0.358472
O O11 0.069535 0.641100 0.144789
O O12 0.105368 0.737032 0.083265
O O13 0.409806 0.882773 0.085959
O O14 0.746252 0.757860 0.819337
O O15 0.000000 0.000000 0.000000
O O16 0.729966 0.940749 0.374556
O O17 0.500000 0.500000 0.000000
#
# Coordination Sequence:
#
# PCOD9253613 Si02
#       8
#     4   4   4   4   4   4   4   4
#     4  10  25  45  65  93 135 169 214 275 331 383
#     4  10  21  44  61  92 133 165 219 272 320 388
#     4  11  23  40  70  95 130 175 216 271 321 393
#     4  10  25  43  66  92 130 171 217 275 324 391
#     4  11  22  41  65  93 135 169 210 279 329 381
#     4  11  23  43  66  98 125 172 229 261 325 405
#     4  10  21  44  66  93 127 170 220 267 318 388
#     4  11  26  41  65 103 132 170 219 267 336 395
#
# _framework density 18.334654
#
# number of rings (size 3 to 8) (size 9 to 14) (size 15 to 20)
#    0.000    1.500    2.500    1.500   10.500    1.500 
#    4.500    0.000    0.000    0.000    0.000    0.000 
#    0.000    0.000    0.000    0.000    0.000    0.000 
#
# Total GULP energy -178210.661664 kJ/mol
# GULP energy per Si atom -5569.083177 kJ/mol
# Density = 1.829292 g / cm^3
# Si number density = 18.334654 Si / 1000 Ang^3
#
#
#
# Elastic Constant Matrix: (Units=GPa)
#
#
# Indices 1 2 3 4 5 6 
#
# 1 140.8501 23.2067 52.3108 0.0000 -7.2243 0.0000
# 2 23.2067 60.6077 35.4781 0.0000 2.1505 0.0000
# 3 52.3108 35.4781 162.2612 0.0000 9.1198 0.0000
# 4 0.0000 0.0000 0.0000 39.4438 0.0000 -1.9232
# 5 -7.2243 2.1505 9.1198 0.0000 40.2973 0.0000
# 6 0.0000 0.0000 0.0000 -1.9232 0.0000 25.5877
#
#
#
# Elastic Compliance Matrix: (Units=1/GPa)
#
#
# Indices 1 2 3 4 5 6 
#
# 1 0.008421 -0.001882 -0.002425 0.000000 0.002159 0.000000
# 2 -0.001882 0.019342 -0.003591 0.000000 -0.000557 0.000000
# 3 -0.002425 -0.003591 0.007843 0.000000 -0.002018 0.000000
# 4 0.000000 0.000000 0.000000 0.025446 0.000000 0.001913
# 5 0.002159 -0.000557 -0.002018 0.000000 0.025689 0.000000
# 6 0.000000 0.000000 0.000000 0.001913 0.000000 0.039225
#
#
# Mechanical properties :
#
#
# Convention : Reuss Voigt Hill
#
# Bulk Modulus (GPa) = 50.47668 65.07891 57.77779
# Shear Modulus (GPa) = 33.70070 37.91400 35.80735
#
# Velocity S-wave (km/s) = 4.29194 4.55234 4.42406
# Velocity P-wave (km/s) = 7.22160 7.95008 7.59458
#
# Compressibility (1/GPa) = 0.01981113
#
# Stress axis : x y z
#
# Youngs Moduli (GPa) = 118.75041 51.70102 127.49841
#
# Poissons Ratio (x) = 0.09728 0.30915
# Poissons Ratio (y) = 0.22344 0.45787
# Poissons Ratio (z) = 0.28794 0.18567
#
# Static dielectric constant tensor:
#      x y z
#    x 1.681920 0.000000 -0.003590 
#    y 0.000000 1.678880 0.000000 
#    z -0.003590 0.000000 1.617410 
# 
# From -- ./inp_files/78021.got.cif
#   From: 2010.05.17/outbox.ucp.g08.bks.cvg/sg14_40_cif.got.tgz:78021.got - 2010.06.11 12:31:08.
