data_PCOD9253311
_publ_section_title
;
Structure prediction by ZEFSAII (Michael W. Deem and Ramdas Pophale) SiO2 
 PCOD9253311
Probable space group: P 21/C
;
_chemical_formula_sum "Si O2"
_cell_formula_units_Z 20
_cell_length_a 5.298378
_cell_length_b 8.134752
_cell_length_c 19.107236
_cell_angle_alpha 90.000000
_cell_angle_beta 76.260963
_cell_angle_gamma 90.000000
_cell_volume 799.977272
_symmetry_space_group_name_H-M "P 21/C"
_symmetry_group_IT_number 14
_symmetry_cell_setting 'monoclinic'
loop_
_space_group_symop_operation_xyz
x,y,z
-x,1/2+y,1/2-z
-x,-y,-z
x,1/2-y,1/2+z
loop_
_atom_site_type_symbol
_atom_site_label
_atom_site_fract_x
_atom_site_fract_y
_atom_site_fract_z
Si Si1 0.623616 0.801184 0.174889
Si Si2 0.977439 0.819885 0.404932
Si Si3 0.952891 0.162347 0.960628
Si Si4 0.550246 0.669970 0.332820
Si Si5 0.619869 0.394725 0.928822
O O1 0.896303 0.842432 0.121298
O O2 0.636718 0.749186 0.253893
O O3 0.513270 0.649993 0.135411
O O4 0.471945 0.973793 0.175718
O O5 0.952210 0.798221 0.490140
O O6 0.763719 0.713306 0.377256
O O7 0.268187 0.754112 0.368887
O O8 0.886350 0.005484 0.393817
O O9 0.665452 0.215814 0.960173
O O10 0.000000 0.000000 0.000000
O O11 0.500000 0.500000 0.000000
#
# Coordination Sequence:
#
# PCOD9253311 Si02
#       5
#     4   4   4   4   4
#     4  12  29  49  81 114 161 211 268 328 405 474
#     4  12  27  50  80 115 160 202 268 323 401 469
#     4  12  26  48  81 114 155 209 268 330 394 471
#     4  12  30  50  80 116 163 214 261 333 402 486
#     4  12  27  47  82 119 154 204 267 333 396 471
#
# _framework density 25.000707999999999
#
# number of rings (size 3 to 8) (size 9 to 14) (size 15 to 20)
#    0.000    0.000    4.000    4.200    8.400    1.600 
#    0.000    0.000    0.000    0.000    0.000    0.000 
#    0.000    0.000    0.000    0.000    0.000    0.000 
#
# Total GULP energy -111913.667146 kJ/mol
# GULP energy per Si atom -5595.683357 kJ/mol
# Density = 2.494381 g / cm^3
# Si number density = 25.000708 Si / 1000 Ang^3
#
#
#
# Elastic Constant Matrix: (Units=GPa)
#
#
# Indices 1 2 3 4 5 6 
#
# 1 96.0843 1.8974 43.4325 0.0000 -0.7991 0.0000
# 2 1.8974 99.2669 13.2371 0.0000 -6.9665 0.0000
# 3 43.4325 13.2371 150.0322 0.0000 -11.9550 0.0000
# 4 0.0000 0.0000 0.0000 51.5460 0.0000 11.3169
# 5 -0.7991 -6.9665 -11.9550 0.0000 37.3832 0.0000
# 6 0.0000 0.0000 0.0000 11.3169 0.0000 51.5464
#
#
#
# Elastic Compliance Matrix: (Units=1/GPa)
#
#
# Indices 1 2 3 4 5 6 
#
# 1 0.012006 0.000186 -0.003559 0.000000 -0.000847 0.000000
# 2 0.000186 0.010297 -0.000830 0.000000 0.001657 0.000000
# 3 -0.003559 -0.000830 0.007953 0.000000 0.002313 0.000000
# 4 0.000000 0.000000 0.000000 0.020383 0.000000 -0.004475
# 5 -0.000847 0.001657 0.002313 0.000000 0.027780 0.000000
# 6 0.000000 0.000000 0.000000 -0.004475 0.000000 0.020382
#
#
# Mechanical properties :
#
#
# Convention : Reuss Voigt Hill
#
# Bulk Modulus (GPa) = 45.76985 51.39084 48.58035
# Shear Modulus (GPa) = 43.67108 47.21621 45.44365
#
# Velocity S-wave (km/s) = 4.18400 4.35051 4.26807
# Velocity P-wave (km/s) = 6.45665 6.77025 6.61531
#
# Compressibility (1/GPa) = 0.02184844
#
# Stress axis : x y z
#
# Youngs Moduli (GPa) = 83.29339 97.11258 125.73611
#
# Poissons Ratio (x) = -0.01804 0.44755
# Poissons Ratio (y) = -0.01547 0.10439
# Poissons Ratio (z) = 0.29647 0.08062
#
# Static dielectric constant tensor:
#      x y z
#    x 2.112170 0.000000 -0.043750 
#    y 0.000000 2.098300 0.000000 
#    z -0.043750 0.000000 1.919260 
# 
# From -- ./inp_files/52637.got.cif
#   From: 2010.05.17/outbox.cif.g08.bks.cpg/sg14_27_cif.got.tgz:52637.got - 2010.06.03 17:49:19.
