data_PCOD9253699
_publ_section_title
;
Structure prediction by ZEFSAII (Michael W. Deem and Ramdas Pophale) SiO2 
 PCOD9253699
Probable space group: P 21/C
;
_chemical_formula_sum "Si O2"
_cell_formula_units_Z 32
_cell_length_a 9.000000
_cell_length_b 15.000000
_cell_length_c 24.000000
_cell_angle_alpha 90.000000
_cell_angle_beta 150.000000
_cell_angle_gamma 90.000000
_cell_volume 1620.000000
_symmetry_space_group_name_H-M "P 21/C"
_symmetry_group_IT_number 14
_symmetry_cell_setting 'monoclinic'
loop_
_space_group_symop_operation_xyz
x,y,z
-x,1/2+y,1/2-z
-x,-y,-z
x,1/2-y,1/2+z
loop_
_atom_site_type_symbol
_atom_site_label
_atom_site_fract_x
_atom_site_fract_y
_atom_site_fract_z
Si Si1 0.135403 0.735210 0.559440
Si Si2 0.734656 0.846331 0.089691
Si Si3 0.119829 0.870354 0.951917
Si Si4 0.183386 0.207511 0.249370
Si Si5 0.891693 0.415024 0.753046
Si Si6 0.199424 0.068665 0.999242
Si Si7 0.794657 0.835229 0.541614
Si Si8 0.869086 0.383358 0.185771
O O1 0.018081 0.707342 0.460651
O O2 0.474740 0.765961 0.655413
O O3 0.050497 0.642657 0.565572
O O4 0.959108 0.808850 0.537718
O O5 0.708908 0.757151 0.045089
O O6 0.035700 0.849911 0.222169
O O7 0.461304 0.854949 0.043509
O O8 0.743282 0.925436 0.048513
O O9 0.928010 0.858681 0.834760
O O10 0.103539 0.966293 0.976360
O O11 0.076193 0.151860 0.270502
O O12 0.006087 0.302583 0.192760
O O13 0.531554 0.408948 0.630355
O O14 0.988405 0.386498 0.846196
O O15 0.988093 0.518553 0.775579
O O16 0.484808 0.886616 0.434212
#
# Coordination Sequence:
#
# PCOD9253699 Si02
#       8
#     4   4   4   4   4   4   4   4
#     4  11  26  41  61  95 140 176 205 270 350 396
#     4  11  20  39  69  96 129 164 229 284 323 383
#     4  12  21  41  68  99 133 164 233 277 335 387
#     4  12  24  42  66 100 132 175 216 288 334 394
#     4  12  23  43  74  96 130 173 234 276 332 398
#     4  11  23  41  70 105 124 172 228 292 326 384
#     4  11  25  42  62  96 137 181 217 264 339 414
#     4  12  23  42  71  96 129 177 231 279 331 392
#
# _framework density 19.753086
#
# number of rings (size 3 to 8) (size 9 to 14) (size 15 to 20)
#    0.000    0.500    6.250    2.625    1.750    1.000 
#    0.000    0.625    0.000    0.000    0.000    0.000 
#    0.000    0.000    0.000    0.000    0.000    0.000 
#
# Total GULP energy -178454.956588 kJ/mol
# GULP energy per Si atom -5576.717393 kJ/mol
# Density = 1.970813 g / cm^3
# Si number density = 19.753086 Si / 1000 Ang^3
#
#
#
# Elastic Constant Matrix: (Units=GPa)
#
#
# Indices 1 2 3 4 5 6 
#
# 1 50.1298 20.2110 1.9171 0.0000 -2.9479 0.0000
# 2 20.2110 92.4525 13.2718 0.0000 14.5196 0.0000
# 3 1.9171 13.2718 91.2561 0.0000 4.5177 0.0000
# 4 0.0000 0.0000 0.0000 29.8490 0.0000 1.7208
# 5 -2.9479 14.5196 4.5177 0.0000 33.6015 0.0000
# 6 0.0000 0.0000 0.0000 1.7208 0.0000 31.2193
#
#
#
# Elastic Compliance Matrix: (Units=1/GPa)
#
#
# Indices 1 2 3 4 5 6 
#
# 1 0.022466 -0.005618 0.000128 0.000000 0.004381 0.000000
# 2 -0.005618 0.013202 -0.001505 0.000000 -0.005995 0.000000
# 3 0.000128 -0.001505 0.011216 0.000000 -0.000846 0.000000
# 4 0.000000 0.000000 0.000000 0.033609 0.000000 -0.001852
# 5 0.004381 -0.005995 -0.000846 0.000000 0.032849 0.000000
# 6 0.000000 0.000000 0.000000 -0.001852 0.000000 0.032134
#
#
# Mechanical properties :
#
#
# Convention : Reuss Voigt Hill
#
# Bulk Modulus (GPa) = 30.40008 33.84870 32.12439
# Shear Modulus (GPa) = 29.33750 32.16319 30.75034
#
# Velocity S-wave (km/s) = 3.85802 4.03955 3.94983
# Velocity P-wave (km/s) = 5.93879 6.23942 6.09096
#
# Compressibility (1/GPa) = 0.03289466
#
# Stress axis : x y z
#
# Youngs Moduli (GPa) = 44.51200 75.74568 89.15607
#
# Poissons Ratio (x) = 0.42552 -0.01143
# Poissons Ratio (y) = 0.25006 0.13420
# Poissons Ratio (z) = -0.00570 0.11401
#
# Static dielectric constant tensor:
#      x y z
#    x 1.727320 0.000000 -0.013330 
#    y 0.000000 1.716510 0.000000 
#    z -0.013330 0.000000 1.712330 
# 
# From -- ./inp_files/72493.got.cif
#   From: 2010.05.17/outbox.ucp.g08.bks.cvg/sg14_37_cif.got.tgz:72493.got - 2010.06.11 12:31:08.
