data_PCOD9253796
_publ_section_title
;
Structure prediction by ZEFSAII (Michael W. Deem and Ramdas Pophale) SiO2 
 PCOD9253796
Probable space group: C 2/C
;
_chemical_formula_sum "Si O2"
_cell_formula_units_Z 40
_cell_length_a 6.932093
_cell_length_b 14.823215
_cell_length_c 21.193591
_cell_angle_alpha 90.000000
_cell_angle_beta 141.126473
_cell_angle_gamma 90.000000
_cell_volume 1366.773759
_symmetry_space_group_name_H-M "C 2/C"
_symmetry_group_IT_number 15
_symmetry_cell_setting 'monoclinic'
loop_
_space_group_symop_operation_xyz
x,y,z
-x,y,1/2-z
-x,-y,-z
x,-y,1/2+z
1/2+x,1/2+y,z
1/2-x,1/2+y,1/2-z
1/2-x,1/2-y,-z
1/2+x,1/2-y,1/2+z
loop_
_atom_site_type_symbol
_atom_site_label
_atom_site_fract_x
_atom_site_fract_y
_atom_site_fract_z
Si Si1 0.861792 0.990500 0.284227
Si Si2 0.472788 0.653107 0.096027
Si Si3 0.267699 0.484042 0.999573
Si Si4 0.690136 0.809750 0.216487
Si Si5 0.575033 0.806857 0.903411
O O1 0.605105 0.913319 0.209076
O O2 0.000000 0.997958 0.250000
O O3 0.066097 0.949945 0.393926
O O4 0.828006 0.090065 0.304724
O O5 0.198323 0.587288 0.003798
O O6 0.428413 0.748783 0.117559
O O7 0.689215 0.673742 0.092910
O O8 0.500000 0.500000 0.000000
O O9 0.023737 0.408119 0.918072
O O10 0.000000 0.812841 0.250000
O O11 0.807718 0.753703 0.306483
O O12 0.750000 0.750000 0.000000
#
# Coordination Sequence:
#
# PCOD9253796 Si02
#       5
#     8   8   8   8   8
#     4   9  16  27  44  65  90 121 151 181 223 267
#     4   8  17  27  39  67  95 117 146 181 226 271
#     4   8  15  26  41  67  94 117 141 186 230 265
#     4   9  16  25  43  69  88 114 151 189 221 262
#     4  10  14  24  44  71  95 109 143 192 234 257
#
# _framework density 29.265998
#
# number of rings (size 3 to 8) (size 9 to 14) (size 15 to 20)
#    1.200    2.000    2.000    0.000    0.000    0.000 
#    0.000    0.000    0.000    4.800    0.000    4.200 
#    0.000    0.000    0.000    0.000    0.000    0.000 
#
# Total GULP energy -111828.634778 kJ/mol
# GULP energy per Si atom -5591.431739 kJ/mol
# Density = 2.919939 g / cm^3
# Si number density = 29.265998 Si / 1000 Ang^3
#
#
#
# Elastic Constant Matrix: (Units=GPa)
#
#
# Indices 1 2 3 4 5 6 
#
# 1 126.9834 36.4670 70.7948 0.0000 -28.8961 0.0004
# 2 36.4670 242.8765 66.8450 -0.0005 3.0021 -0.0001
# 3 70.7948 66.8450 172.5922 -0.0005 -34.5167 0.0001
# 4 0.0000 -0.0005 -0.0005 62.9678 -0.0003 -9.9692
# 5 -28.8961 3.0021 -34.5167 -0.0003 58.5245 0.0002
# 6 0.0004 -0.0001 0.0001 -9.9692 0.0002 9.8770
#
#
#
# Elastic Compliance Matrix: (Units=1/GPa)
#
#
# Indices 1 2 3 4 5 6 
#
# 1 0.010770 -0.000698 -0.003488 0.000000 0.003296 -0.000001
# 2 -0.000698 0.004767 -0.001902 0.000000 -0.001711 0.000000
# 3 -0.003488 -0.001902 0.008658 0.000000 0.003481 0.000000
# 4 0.000000 0.000000 0.000000 0.018902 0.000000 0.019078
# 5 0.003296 -0.001711 0.003481 0.000000 0.020855 0.000000
# 6 -0.000001 0.000000 0.000000 0.019078 0.000000 0.120502
#
#
# Mechanical properties :
#
#
# Convention : Reuss Voigt Hill
#
# Bulk Modulus (GPa) = 83.20595 98.96284 91.08440
# Shear Modulus (GPa) = 24.92074 50.83020 37.87547
#
# Velocity S-wave (km/s) = 2.92126 4.17206 3.60137
# Velocity P-wave (km/s) = 6.31435 7.55622 6.96302
#
# Compressibility (1/GPa) = 0.01201837
#
# Stress axis : x y z
#
# Youngs Moduli (GPa) = 92.84777 209.78723 115.50262
#
# Poissons Ratio (x) = 0.14639 0.40292
# Poissons Ratio (y) = 0.06479 0.21970
# Poissons Ratio (z) = 0.32389 0.39903
#
# Static dielectric constant tensor:
#      x y z
#    x 2.349930 0.000000 -0.000420 
#    y 0.000000 2.316510 0.000000 
#    z -0.000420 0.000000 2.304200 
# 
# From -- ./inp_files/237868.got.cif
#   From: 2010.05.17/outbox.cif.g08.bks.cpg/sg15_119_cif.got.tgz:237868.got - 2010.06.03 18:47:42.
