data_PCOD9253602
_publ_section_title
;
Structure prediction by ZEFSAII (Michael W. Deem and Ramdas Pophale) SiO2 
 PCOD9253602
Probable space group: P 21/C
;
_chemical_formula_sum "Si O2"
_cell_formula_units_Z 32
_cell_length_a 12.000000
_cell_length_b 18.000000
_cell_length_c 15.000000
_cell_angle_alpha 90.000000
_cell_angle_beta 30.000000
_cell_angle_gamma 90.000000
_cell_volume 1620.000000
_symmetry_space_group_name_H-M "P 21/C"
_symmetry_group_IT_number 14
_symmetry_cell_setting 'monoclinic'
loop_
_space_group_symop_operation_xyz
x,y,z
-x,1/2+y,1/2-z
-x,-y,-z
x,1/2-y,1/2+z
loop_
_atom_site_type_symbol
_atom_site_label
_atom_site_fract_x
_atom_site_fract_y
_atom_site_fract_z
Si Si1 0.011504 0.195793 0.045662
Si Si2 0.835675 0.860476 0.498065
Si Si3 0.431445 0.726105 0.240926
Si Si4 0.925520 0.373115 0.793972
Si Si5 0.466883 0.308782 0.150239
Si Si6 0.647512 0.799598 0.928895
Si Si7 0.846215 0.474672 0.309098
Si Si8 0.388287 0.436612 0.677585
O O1 0.813623 0.201421 0.113014
O O2 0.941887 0.149578 0.179835
O O3 0.063965 0.281295 0.039156
O O4 0.234338 0.162144 0.849279
O O5 0.610822 0.838652 0.602395
O O6 0.755724 0.907849 0.639545
O O7 0.002600 0.904468 0.319052
O O8 0.455101 0.751008 0.326755
O O9 0.512408 0.789631 0.114745
O O10 0.093411 0.314544 0.726799
O O11 0.014767 0.454684 0.753805
O O12 0.671762 0.363916 0.999223
O O13 0.411602 0.268302 0.095396
O O14 0.584841 0.870703 0.913387
O O15 0.642473 0.460528 0.518239
O O16 0.737223 0.499007 0.289703
#
# Coordination Sequence:
#
# PCOD9253602 Si02
#       8
#     4   4   4   4   4   4   4   4
#     4  11  22  40  62  94 129 159 218 267 314 370
#     4  11  22  41  62  95 123 171 213 256 320 380
#     4  11  22  37  64  96 127 164 210 266 314 376
#     4  11  23  40  63  94 128 167 206 261 325 372
#     4  11  22  37  63  92 122 165 204 261 319 367
#     4  11  19  39  63  95 126 154 207 267 315 368
#     4  10  24  39  62  90 132 167 206 262 313 384
#     4  10  21  41  62  93 128 165 206 260 325 373
#
# _framework density 19.753086
#
# number of rings (size 3 to 8) (size 9 to 14) (size 15 to 20)
#    0.000    1.250    6.250    1.875    1.750    1.000 
#    4.500    0.625    0.000    1.500    0.000    0.000 
#    0.000    0.000    0.000    0.000    0.000    0.000 
#
# Total GULP energy -178607.403195 kJ/mol
# GULP energy per Si atom -5581.481350 kJ/mol
# Density = 1.970813 g / cm^3
# Si number density = 19.753086 Si / 1000 Ang^3
#
#
#
# Elastic Constant Matrix: (Units=GPa)
#
#
# Indices 1 2 3 4 5 6 
#
# 1 45.2376 -23.7167 -13.4548 0.0000 -9.5464 0.0000
# 2 -23.7167 8.1873 -6.8216 0.0000 -6.1309 0.0000
# 3 -13.4548 -6.8216 58.6576 0.0000 -23.1205 0.0000
# 4 0.0000 0.0000 0.0000 18.6437 0.0000 -14.9016
# 5 -9.5464 -6.1309 -23.1205 0.0000 35.8853 0.0000
# 6 0.0000 0.0000 0.0000 -14.9016 0.0000 17.7126
#
#
#
# Elastic Compliance Matrix: (Units=1/GPa)
#
#
# Indices 1 2 3 4 5 6 
#
# 1 -0.005920 -0.039795 -0.012448 0.000000 -0.016394 0.000000
# 2 -0.039795 -0.044730 -0.028839 0.000000 -0.036809 0.000000
# 3 -0.012448 -0.028839 0.010176 0.000000 -0.001682 0.000000
# 4 0.000000 0.000000 0.000000 0.163745 0.000000 0.137758
# 5 -0.016394 -0.036809 -0.001682 0.000000 0.016133 0.000000
# 6 0.000000 0.000000 0.000000 0.137758 0.000000 0.172352
#
#
# Mechanical properties :
#
#
# Convention : Reuss Voigt Hill
#
# Bulk Modulus (GPa) = -4.93494 2.67737 -1.12878
# Shear Modulus (GPa) = 12.30389 24.85335 18.57862
#
# Velocity S-wave (km/s) = 2.49847 3.55096 3.07015
# Velocity P-wave (km/s) = 2.41235 4.26272 3.46339
#
# Compressibility (1/GPa) = -0.20263668
#
# Stress axis : x y z
#
# Youngs Moduli (GPa) = -168.92518 -22.35661 98.26946
#
# Poissons Ratio (x) = -0.88969 1.22322
# Poissons Ratio (y) = -6.72245 2.83396
# Poissons Ratio (z) = -2.10271 -0.64474
#
# Static dielectric constant tensor:
#      x y z
#    x 1.708220 0.000000 -0.023540 
#    y 0.000000 1.696770 0.000000 
#    z -0.023540 0.000000 1.718440 
# 
# From -- ./inp_files/45366.got.cif
#   From: 2010.05.17/outbox.ucp.g08.bks.cvg/sg14_23_cif.got.tgz:45366.got - 2010.06.11 12:31:08.
