data_PCOD9253115
_publ_section_title
;
Structure prediction by ZEFSAII (Michael W. Deem and Ramdas Pophale) SiO2 
 PCOD9253115
Probable space group: P 21/C
;
_chemical_formula_sum "Si O2"
_cell_formula_units_Z 16
_cell_length_a 8.430530
_cell_length_b 16.021599
_cell_length_c 8.383303
_cell_angle_alpha 90.000000
_cell_angle_beta 33.480909
_cell_angle_gamma 90.000000
_cell_volume 624.664303
_symmetry_space_group_name_H-M "P 21/C"
_symmetry_group_IT_number 14
_symmetry_cell_setting 'monoclinic'
loop_
_space_group_symop_operation_xyz
x,y,z
-x,1/2+y,1/2-z
-x,-y,-z
x,1/2-y,1/2+z
loop_
_atom_site_type_symbol
_atom_site_label
_atom_site_fract_x
_atom_site_fract_y
_atom_site_fract_z
Si Si1 0.915333 0.505117 0.255256
Si Si2 0.578875 0.723526 0.967287
Si Si3 0.520032 0.064895 0.630734
Si Si4 0.834466 0.180617 0.906373
O O1 0.617084 0.530137 0.589986
O O2 0.965576 0.410741 0.272782
O O3 0.000000 0.500000 0.000000
O O4 0.140593 0.571637 0.133506
O O5 0.613360 0.653601 0.801537
O O6 0.893338 0.739280 0.777604
O O7 0.382759 0.681183 0.265086
O O8 0.374650 0.795129 0.065316
O O9 0.500000 0.000000 0.500000
#
# Coordination Sequence:
#
# PCOD9253115 Si02
#       4
#     4   4   4   4
#     4  12  26  46  77 109 148 188 255 312 364 433
#     4  12  27  47  77 106 152 196 247 304 378 447
#     4  12  23  48  77 104 141 198 246 305 365 440
#     4  12  26  50  71 111 149 196 246 305 373 451
#
# _framework density 25.613757
#
# number of rings (size 3 to 8) (size 9 to 14) (size 15 to 20)
#    0.000    0.000    5.000    4.500    3.500    0.000 
#    0.000    0.000    0.000    0.000    0.000    0.000 
#    0.000    0.000    0.000    0.000    0.000    0.000 
#
# Total GULP energy -89499.496012 kJ/mol
# GULP energy per Si atom -5593.718501 kJ/mol
# Density = 2.555546 g / cm^3
# Si number density = 25.613757 Si / 1000 Ang^3
#
#
#
# Elastic Constant Matrix: (Units=GPa)
#
#
# Indices 1 2 3 4 5 6 
#
# 1 59.8988 23.5915 61.0522 0.0000 -18.5513 0.0000
# 2 23.5915 74.7693 24.2372 0.0000 -2.7948 0.0000
# 3 61.0522 24.2372 180.0051 0.0000 3.1598 0.0000
# 4 0.0000 0.0000 0.0000 28.2296 0.0000 -1.3335
# 5 -18.5513 -2.7948 3.1598 0.0000 67.4181 0.0000
# 6 0.0000 0.0000 0.0000 -1.3335 0.0000 27.5455
#
#
#
# Elastic Compliance Matrix: (Units=1/GPa)
#
#
# Indices 1 2 3 4 5 6 
#
# 1 0.032727 -0.006620 -0.010370 0.000000 0.009217 0.000000
# 2 -0.006620 0.015354 0.000199 0.000000 -0.001194 0.000000
# 3 -0.010370 0.000199 0.009103 0.000000 -0.003272 0.000000
# 4 0.000000 0.000000 0.000000 0.035505 0.000000 0.001719
# 5 0.009217 -0.001194 -0.003272 0.000000 0.017473 0.000000
# 6 0.000000 0.000000 0.000000 0.001719 0.000000 0.036387
#
#
# Mechanical properties :
#
#
# Convention : Reuss Voigt Hill
#
# Bulk Modulus (GPa) = 42.37035 59.15945 50.76490
# Shear Modulus (GPa) = 26.59594 38.35814 32.47704
#
# Velocity S-wave (km/s) = 3.22583 3.87403 3.56470
# Velocity P-wave (km/s) = 5.51839 6.56945 6.06673
#
# Compressibility (1/GPa) = 0.02360141
#
# Stress axis : x y z
#
# Youngs Moduli (GPa) = 30.55609 65.12918 109.84957
#
# Poissons Ratio (x) = 0.43115 1.13918
# Poissons Ratio (y) = 0.20228 -0.02184
# Poissons Ratio (z) = 0.31688 -0.01295
#
# Static dielectric constant tensor:
#      x y z
#    x 2.144010 0.000000 0.046490 
#    y 0.000000 1.999490 0.000000 
#    z 0.046490 0.000000 1.985490 
# 
# From -- ./inp_files/5138.got.cif
#   From: 2010.05.17/outbox.cif.g08.bks.cpg/sg14_3_cif.got.tgz:5138.got - 2010.06.03 17:49:19.
