data_PCOD9253260
_publ_section_title
;
Structure prediction by ZEFSAII (Michael W. Deem and Ramdas Pophale) SiO2 
 PCOD9253260
Probable space group: P 21/C
;
_chemical_formula_sum "Si O2"
_cell_formula_units_Z 28
_cell_length_a 14.603121
_cell_length_b 8.602579
_cell_length_c 14.757683
_cell_angle_alpha 90.000000
_cell_angle_beta 40.725630
_cell_angle_gamma 90.000000
_cell_volume 1209.571172
_symmetry_space_group_name_H-M "P 21/C"
_symmetry_group_IT_number 14
_symmetry_cell_setting 'monoclinic'
loop_
_space_group_symop_operation_xyz
x,y,z
-x,1/2+y,1/2-z
-x,-y,-z
x,1/2-y,1/2+z
loop_
_atom_site_type_symbol
_atom_site_label
_atom_site_fract_x
_atom_site_fract_y
_atom_site_fract_z
Si Si1 0.362292 0.898888 0.117834
Si Si2 0.956429 0.436846 0.631154
Si Si3 0.408584 0.361945 0.306732
Si Si4 0.011652 0.440774 0.093549
Si Si5 0.181407 0.495225 0.606816
Si Si6 0.636205 0.050238 0.341847
Si Si7 0.681223 0.977061 0.664437
O O1 0.385041 0.733549 0.144426
O O2 0.281229 0.880528 0.083414
O O3 0.284232 0.989245 0.256792
O O4 0.500000 0.000000 0.000000
O O5 0.791552 0.475495 0.767410
O O6 0.000000 0.500000 0.500000
O O7 0.978551 0.247081 0.622136
O O8 0.064069 0.521506 0.618732
O O9 0.297690 0.386775 0.471921
O O10 0.365690 0.473009 0.255559
O O11 0.394656 0.187682 0.284043
O O12 0.566792 0.402097 0.215014
O O13 0.917078 0.542397 0.233030
O O14 0.174193 0.466830 0.997848
O O15 0.000000 0.500000 0.000000
O O16 0.500000 0.000000 0.500000
#
# Coordination Sequence:
#
# PCOD9253260 Si02
#       7
#     4   4   4   4   4   4   4
#     4  12  25  49  76 108 155 194 249 316 372 452
#     4  12  26  52  74 112 156 191 253 316 376 452
#     4  12  27  48  77 109 150 197 251 313 375 453
#     4  12  26  49  77 112 148 200 248 309 382 447
#     4  12  26  47  75 110 150 200 249 306 388 438
#     4  12  27  50  75 113 147 198 254 309 379 449
#     4  12  25  50  74 110 150 195 255 306 379 445
#
# _framework density 23.148700000000002
#
# number of rings (size 3 to 8) (size 9 to 14) (size 15 to 20)
#    0.000    0.000    7.143    1.714    2.000    1.143 
#    5.143    0.000    0.000    0.000    0.000    0.000 
#    0.000    0.000    0.000    0.000    0.000    0.000 
#
# Total GULP energy -156324.079603 kJ/mol
# GULP energy per Si atom -5583.002843 kJ/mol
# Density = 2.309601 g / cm^3
# Si number density = 23.148700 Si / 1000 Ang^3
#
#
#
# Elastic Constant Matrix: (Units=GPa)
#
#
# Indices 1 2 3 4 5 6 
#
# 1 147.4875 31.0176 40.5613 0.0000 -11.3104 0.0000
# 2 31.0176 90.4682 28.7545 0.0000 4.6303 0.0000
# 3 40.5613 28.7545 157.2942 0.0000 -23.9435 0.0000
# 4 0.0000 0.0000 0.0000 21.4708 0.0000 3.4355
# 5 -11.3104 4.6303 -23.9435 0.0000 56.9367 0.0000
# 6 0.0000 0.0000 0.0000 3.4355 0.0000 23.9645
#
#
#
# Elastic Compliance Matrix: (Units=1/GPa)
#
#
# Indices 1 2 3 4 5 6 
#
# 1 0.007729 -0.002260 -0.001408 0.000000 0.001127 0.000000
# 2 -0.002260 0.012610 -0.002080 0.000000 -0.002349 0.000000
# 3 -0.001408 -0.002080 0.007569 0.000000 0.003072 0.000000
# 4 0.000000 0.000000 0.000000 0.047668 0.000000 -0.006834
# 5 0.001127 -0.002349 0.003072 0.000000 0.019270 0.000000
# 6 0.000000 0.000000 0.000000 -0.006834 0.000000 0.042708
#
#
# Mechanical properties :
#
#
# Convention : Reuss Voigt Hill
#
# Bulk Modulus (GPa) = 60.93554 66.21298 63.57426
# Shear Modulus (GPa) = 32.35793 40.13549 36.24671
#
# Velocity S-wave (km/s) = 3.74281 4.16842 3.96134
# Velocity P-wave (km/s) = 6.71259 7.19952 6.96031
#
# Compressibility (1/GPa) = 0.01641078
#
# Stress axis : x y z
#
# Youngs Moduli (GPa) = 129.37768 79.30332 132.12507
#
# Poissons Ratio (x) = 0.17923 0.18609
# Poissons Ratio (y) = 0.29240 0.27481
# Poissons Ratio (z) = 0.18222 0.16495
#
# Static dielectric constant tensor:
#      x y z
#    x 1.901270 0.000000 -0.065420 
#    y 0.000000 1.853530 0.000000 
#    z -0.065420 0.000000 1.903700 
# 
# From -- ./inp_files/46697.got.cif
#   From: 2010.05.17/outbox.cif.g08.bks.cpg/sg14_24_cif.got.tgz:46697.got - 2010.06.03 17:49:19.
