data_PCOD9253775
_publ_section_title
;
Structure prediction by ZEFSAII (Michael W. Deem and Ramdas Pophale) SiO2 
 PCOD9253775
Probable space group: C 2/C
;
_chemical_formula_sum "Si O2"
_cell_formula_units_Z 48
_cell_length_a 17.066533
_cell_length_b 7.835484
_cell_length_c 19.004757
_cell_angle_alpha 90.000000
_cell_angle_beta 44.514496
_cell_angle_gamma 90.000000
_cell_volume 1781.751112
_symmetry_space_group_name_H-M "C 2/C"
_symmetry_group_IT_number 15
_symmetry_cell_setting 'monoclinic'
loop_
_space_group_symop_operation_xyz
x,y,z
-x,y,1/2-z
-x,-y,-z
x,-y,1/2+z
1/2+x,1/2+y,z
1/2-x,1/2+y,1/2-z
1/2-x,1/2-y,-z
1/2+x,1/2-y,1/2+z
loop_
_atom_site_type_symbol
_atom_site_label
_atom_site_fract_x
_atom_site_fract_y
_atom_site_fract_z
Si Si1 0.388417 0.164102 0.658038
Si Si2 0.427060 0.192622 0.176508
Si Si3 0.820924 0.362940 0.042404
Si Si4 0.045459 0.039341 0.292615
Si Si5 0.704087 0.501340 0.494417
Si Si6 0.411377 0.659349 0.540438
O O1 0.326315 0.131856 0.623430
O O2 0.377088 0.336895 0.711140
O O3 0.514607 0.196248 0.545454
O O4 0.380696 0.997452 0.711494
O O5 0.415913 0.342685 0.241090
O O6 0.375627 0.278582 0.139958
O O7 0.555782 0.159260 0.070705
O O8 0.761959 0.507874 0.032916
O O9 0.763801 0.182781 0.058717
O O10 0.928898 0.011337 0.407867
O O11 0.000000 0.120302 0.250000
O O12 0.701430 0.373805 0.431099
O O13 0.500000 0.500000 0.500000
#
# Coordination Sequence:
#
# PCOD9253775 Si02
#       6
#     8   8   8   8   8   8
#     4  10  18  31  51  74  99 132 164 202 253 301
#     4  10  18  31  51  76 100 129 165 206 255 302
#     4   9  15  28  49  80 105 122 152 214 266 298
#     4  10  20  35  52  68  94 139 182 203 234 300
#     4   9  16  27  51  77 102 128 161 205 259 300
#     4  10  13  28  47  73 102 126 155 194 255 310
#
# _framework density 26.939789000000001
#
# number of rings (size 3 to 8) (size 9 to 14) (size 15 to 20)
#    0.000    2.333    6.667    2.000    0.000    0.667 
#    0.000    7.500    3.667    0.000    0.000    0.000 
#    0.000    0.000    0.000    0.000    0.000    0.000 
#
# Total GULP energy -133866.258643 kJ/mol
# GULP energy per Si atom -5577.760777 kJ/mol
# Density = 2.687847 g / cm^3
# Si number density = 26.939789 Si / 1000 Ang^3
#
#
#
# Elastic Constant Matrix: (Units=GPa)
#
#
# Indices 1 2 3 4 5 6 
#
# 1 170.3496 61.3200 44.9545 0.0000 45.8489 0.0000
# 2 61.3200 150.5591 25.0662 0.0001 25.2340 -0.0002
# 3 44.9545 25.0662 64.7775 0.0000 11.0800 0.0000
# 4 0.0000 0.0001 0.0000 22.3271 0.0000 12.9196
# 5 45.8489 25.2340 11.0800 0.0000 51.3433 0.0000
# 6 0.0000 -0.0002 0.0000 12.9196 0.0000 44.2178
#
#
#
# Elastic Compliance Matrix: (Units=1/GPa)
#
#
# Indices 1 2 3 4 5 6 
#
# 1 0.009628 -0.002025 -0.004774 0.000000 -0.006572 0.000000
# 2 -0.002025 0.008002 -0.001379 0.000000 -0.001827 0.000000
# 3 -0.004774 -0.001379 0.019146 0.000000 0.000809 0.000000
# 4 0.000000 0.000000 0.000000 0.053902 0.000000 -0.015749
# 5 -0.006572 -0.001827 0.000809 0.000000 0.026069 0.000000
# 6 0.000000 0.000000 0.000000 -0.015749 0.000000 0.027217
#
#
# Mechanical properties :
#
#
# Convention : Reuss Voigt Hill
#
# Bulk Modulus (GPa) = 48.96999 72.04086 60.50543
# Shear Modulus (GPa) = 29.91758 40.53400 35.22579
#
# Velocity S-wave (km/s) = 3.33608 3.88314 3.61996
# Velocity P-wave (km/s) = 5.74946 6.84869 6.32301
#
# Compressibility (1/GPa) = 0.02042067
#
# Stress axis : x y z
#
# Youngs Moduli (GPa) = 103.86528 124.96197 52.23129
#
# Poissons Ratio (x) = 0.25304 0.24934
# Poissons Ratio (y) = 0.21032 0.07202
# Poissons Ratio (z) = 0.49584 0.17230
#
# Static dielectric constant tensor:
#      x y z
#    x 2.184240 0.000000 0.055250 
#    y 0.000000 2.189210 0.000000 
#    z 0.055250 0.000000 2.318170 
# 
# From -- ./inp_files/246642.got.cif
#   From: 2010.05.17/outbox.cif.g08.bks.cpg/sg15_124_cif.got.tgz:246642.got - 2010.06.03 18:47:42.
