data_PCOD9253585
_publ_section_title
;
Structure prediction by ZEFSAII (Michael W. Deem and Ramdas Pophale) SiO2 
 PCOD9253585
Probable space group: P 21/C
;
_chemical_formula_sum "Si O2"
_cell_formula_units_Z 24
_cell_length_a 15.000000
_cell_length_b 18.000000
_cell_length_c 15.000000
_cell_angle_alpha 90.000000
_cell_angle_beta 20.000000
_cell_angle_gamma 90.000000
_cell_volume 1385.181580
_symmetry_space_group_name_H-M "P 21/C"
_symmetry_group_IT_number 14
_symmetry_cell_setting 'monoclinic'
loop_
_space_group_symop_operation_xyz
x,y,z
-x,1/2+y,1/2-z
-x,-y,-z
x,1/2-y,1/2+z
loop_
_atom_site_type_symbol
_atom_site_label
_atom_site_fract_x
_atom_site_fract_y
_atom_site_fract_z
Si Si1 0.375003 0.525003 0.907020
Si Si2 0.063395 0.521887 0.543455
Si Si3 0.347248 0.132937 0.338719
Si Si4 0.103085 0.684300 0.599327
Si Si5 0.410156 0.410977 0.572479
Si Si6 0.850901 0.143646 0.519170
O O1 0.665408 0.515767 0.676455
O O2 0.346317 0.453274 0.869943
O O3 0.289314 0.597593 0.930331
O O4 0.168154 0.512506 0.180016
O O5 0.070790 0.611819 0.561637
O O6 0.000000 0.500000 0.500000
O O7 0.358832 0.125953 0.219258
O O8 0.112037 0.171746 0.618132
O O9 0.613278 0.171311 0.123009
O O10 0.101696 0.768115 0.554541
O O11 0.500000 0.500000 0.500000
O O12 0.645674 0.370591 0.294911
O O13 0.132455 0.395336 0.780860
#
# Coordination Sequence:
#
# PCOD9253585 Si02
#       6
#     4   4   4   4   4   4
#     4  10  21  37  65  86 119 164 201 257 314 375
#     4  10  21  41  64  87 118 165 221 253 302 375
#     4  10  21  41  63  88 123 170 206 242 326 383
#     4  10  23  42  62  87 131 170 201 265 320 368
#     4  12  24  39  69  97 129 165 213 263 316 391
#     4  12  24  41  62  98 134 159 214 269 323 374
#
# _framework density 17.326248
#
# number of rings (size 3 to 8) (size 9 to 14) (size 15 to 20)
#    0.000    1.333    1.667    4.000    4.667    0.000 
#    9.000    0.000    0.000    0.000    0.000    0.000 
#    0.000    0.000    0.000    0.000    0.000    0.000 
#
# Total GULP energy -133684.918748 kJ/mol
# GULP energy per Si atom -5570.204948 kJ/mol
# Density = 1.728681 g / cm^3
# Si number density = 17.326248 Si / 1000 Ang^3
#
#
#
# Elastic Constant Matrix: (Units=GPa)
#
#
# Indices 1 2 3 4 5 6 
#
# 1 134.3672 54.5089 61.1545 0.0000 11.3178 0.0000
# 2 54.5089 137.2451 42.5036 0.0000 3.6372 0.0000
# 3 61.1545 42.5036 177.4036 0.0000 3.3346 0.0000
# 4 0.0000 0.0000 0.0000 32.0039 0.0000 0.2341
# 5 11.3178 3.6372 3.3346 0.0000 45.4114 0.0000
# 6 0.0000 0.0000 0.0000 0.2341 0.0000 36.8538
#
#
#
# Elastic Compliance Matrix: (Units=1/GPa)
#
#
# Indices 1 2 3 4 5 6 
#
# 1 0.010113 -0.003126 -0.002698 0.000000 -0.002072 0.000000
# 2 -0.003126 0.008847 -0.001045 0.000000 0.000147 0.000000
# 3 -0.002698 -0.001045 0.006813 0.000000 0.000256 0.000000
# 4 0.000000 0.000000 0.000000 0.031248 0.000000 -0.000198
# 5 -0.002072 0.000147 0.000256 0.000000 0.022507 0.000000
# 6 0.000000 0.000000 0.000000 -0.000198 0.000000 0.027136
#
#
# Mechanical properties :
#
#
# Convention : Reuss Voigt Hill
#
# Bulk Modulus (GPa) = 83.09316 85.03888 84.06602
# Shear Modulus (GPa) = 40.18881 42.24374 41.21628
#
# Velocity S-wave (km/s) = 4.82138 4.94310 4.88262
# Velocity P-wave (km/s) = 8.89136 9.04249 8.96724
#
# Compressibility (1/GPa) = 0.01203468
#
# Stress axis : x y z
#
# Youngs Moduli (GPa) = 98.88278 113.02678 146.78802
#
# Poissons Ratio (x) = 0.35332 0.39607
# Poissons Ratio (y) = 0.30911 0.15338
# Poissons Ratio (z) = 0.26681 0.11810
#
# Static dielectric constant tensor:
#      x y z
#    x 1.612010 0.000000 0.003060 
#    y 0.000000 1.601770 0.000000 
#    z 0.003060 0.000000 1.615810 
# 
# From -- ./inp_files/47513.got.cif
#   From: 2010.05.17/outbox.ucp.g08.bks.cvg/sg14_24_cif.got.tgz:47513.got - 2010.06.11 12:31:08.
