data_PCOD9253786
_publ_section_title
;
Structure prediction by ZEFSAII (Michael W. Deem and Ramdas Pophale) SiO2 
 PCOD9253786
Probable space group: C 2/C
;
_chemical_formula_sum "Si O2"
_cell_formula_units_Z 52
_cell_length_a 16.378061
_cell_length_b 17.054225
_cell_length_c 22.566697
_cell_angle_alpha 90.000000
_cell_angle_beta 155.951907
_cell_angle_gamma 90.000000
_cell_volume 2568.583059
_symmetry_space_group_name_H-M "C 2/C"
_symmetry_group_IT_number 15
_symmetry_cell_setting 'monoclinic'
loop_
_space_group_symop_operation_xyz
x,y,z
-x,y,1/2-z
-x,-y,-z
x,-y,1/2+z
1/2+x,1/2+y,z
1/2-x,1/2+y,1/2-z
1/2-x,1/2-y,-z
1/2+x,1/2-y,1/2+z
loop_
_atom_site_type_symbol
_atom_site_label
_atom_site_fract_x
_atom_site_fract_y
_atom_site_fract_z
Si Si1 0.425242 0.110884 0.001586
Si Si2 0.011811 0.021569 0.376148
Si Si3 0.140363 0.447051 0.174871
Si Si4 0.500000 0.579453 0.750000
Si Si5 0.218152 0.259701 0.565581
Si Si6 0.185104 0.808072 0.742209
Si Si7 0.641309 0.880470 0.422325
O O1 0.589671 0.174858 0.129488
O O2 0.507331 0.026171 0.078362
O O3 0.405420 0.101481 0.916456
O O4 0.207372 0.126119 0.884179
O O5 0.901495 0.105318 0.302595
O O6 0.243698 0.047200 0.532316
O O7 0.875609 0.970398 0.330579
O O8 0.992442 0.976133 0.301943
O O9 0.067189 0.407026 0.186981
O O10 0.291905 0.264853 0.680505
O O11 0.328052 0.191893 0.601502
O O12 0.247955 0.342878 0.551883
O O13 0.982558 0.236437 0.406494
#
# Coordination Sequence:
#
# PCOD9253786 Si02
#       7
#     8   8   8   4   8   8   8
#     4   9  16  25  44  67 105 122 165 210 259 295
#     4   9  17  25  47  72 111 118 160 215 265 295
#     4   9  15  26  41  70 100 135 147 210 266 297
#     4  10  14  22  44  74  94 128 148 214 280 276
#     4  10  21  30  50  69 107 144 160 207 245 303
#     4  10  19  34  45  75 104 135 168 202 252 301
#     4  10  17  29  43  72 104 132 163 192 261 312
#
# _framework density 20.244624000000002
#
# number of rings (size 3 to 8) (size 9 to 14) (size 15 to 20)
#    0.000    2.462    3.077    1.846    0.000    4.923 
#    0.000    0.000    0.000    0.923    0.000   17.231 
#    0.000    0.000    0.000    0.000    0.000    0.000 
#
# Total GULP energy -144860.561952 kJ/mol
# GULP energy per Si atom -5571.560075 kJ/mol
# Density = 2.019855 g / cm^3
# Si number density = 20.244624 Si / 1000 Ang^3
#
#
#
# Elastic Constant Matrix: (Units=GPa)
#
#
# Indices 1 2 3 4 5 6 
#
# 1 68.2050 22.6765 6.8495 0.0093 37.4383 -0.0025
# 2 22.6765 44.7295 10.0709 -0.0096 11.2378 0.0017
# 3 6.8495 10.0709 53.6388 -0.0226 26.7579 0.0098
# 4 0.0093 -0.0096 -0.0226 6.7038 0.0025 8.5042
# 5 37.4383 11.2378 26.7579 0.0025 41.8142 0.0013
# 6 -0.0025 0.0017 0.0098 8.5042 0.0013 27.6288
#
#
#
# Elastic Compliance Matrix: (Units=1/GPa)
#
#
# Indices 1 2 3 4 5 6 
#
# 1 0.045519 -0.015323 0.022535 0.000017 -0.051058 -0.000006
# 2 -0.015323 0.029265 -0.009487 0.000045 0.011925 -0.000014
# 3 0.022535 -0.009487 0.038692 0.000185 -0.042387 -0.000066
# 4 0.000017 0.000045 0.000185 0.244727 -0.000158 -0.075328
# 5 -0.051058 0.011925 -0.042387 -0.000158 0.093550 0.000054
# 6 -0.000006 -0.000014 -0.000066 -0.075328 0.000054 0.059380
#
#
# Mechanical properties :
#
#
# Convention : Reuss Voigt Hill
#
# Bulk Modulus (GPa) = 9.18051 27.30744 18.24397
# Shear Modulus (GPa) = 9.05812 23.69447 16.37630
#
# Velocity S-wave (km/s) = 2.11756 3.42483 2.84724
# Velocity P-wave (km/s) = 3.24397 5.39975 4.45425
#
# Compressibility (1/GPa) = 0.10892644
#
# Stress axis : x y z
#
# Youngs Moduli (GPa) = 21.96871 34.17079 25.84534
#
# Poissons Ratio (x) = 0.52359 -0.58242
# Poissons Ratio (y) = 0.33662 0.24519
# Poissons Ratio (z) = -0.49506 0.32417
#
# Static dielectric constant tensor:
#      x y z
#    x 1.756770 0.000000 0.062670 
#    y 0.000000 1.741060 -0.000020 
#    z 0.062670 -0.000020 1.822110 
# 
# From -- ./inp_files/245047.got.cif
#   From: 2010.05.17/outbox.cif.g08.bks.cpg/sg15_123_cif.got.tgz:245047.got - 2010.06.03 18:47:42.
