data_PCOD9253487
_publ_section_title
;
Structure prediction by ZEFSAII (Michael W. Deem and Ramdas Pophale) SiO2 
 PCOD9253487
Probable space group: P 21/C
;
_chemical_formula_sum "Si O2"
_cell_formula_units_Z 32
_cell_length_a 6.000000
_cell_length_b 15.000000
_cell_length_c 18.000000
_cell_angle_alpha 90.000000
_cell_angle_beta 90.000000
_cell_angle_gamma 90.000000
_cell_volume 1620.000000
_symmetry_space_group_name_H-M "P 21/C"
_symmetry_group_IT_number 14
_symmetry_cell_setting 'monoclinic'
loop_
_space_group_symop_operation_xyz
x,y,z
-x,1/2+y,1/2-z
-x,-y,-z
x,1/2-y,1/2+z
loop_
_atom_site_type_symbol
_atom_site_label
_atom_site_fract_x
_atom_site_fract_y
_atom_site_fract_z
Si Si1 0.058407 0.091898 0.320109
Si Si2 0.753661 0.036800 0.027072
Si Si3 0.275527 0.420658 0.342578
Si Si4 0.365984 0.929917 0.283893
Si Si5 0.319351 0.487797 0.092687
Si Si6 0.654904 0.870951 0.533642
Si Si7 0.109947 0.781691 0.201102
Si Si8 0.406455 0.801013 0.057113
O O1 0.199740 0.126621 0.391489
O O2 0.985002 0.183531 0.279242
O O3 0.205826 0.016858 0.278196
O O4 0.853130 0.034402 0.352148
O O5 0.771886 0.011944 0.113769
O O6 0.736517 0.138143 0.998573
O O7 0.500000 0.000000 0.000000
O O8 0.000000 0.000000 0.000000
O O9 0.435441 0.439945 0.274493
O O10 0.415394 0.362567 0.400970
O O11 0.073968 0.356637 0.319273
O O12 0.485009 0.936114 0.363405
O O13 0.251091 0.835621 0.263276
O O14 0.440162 0.567590 0.049659
O O15 0.216903 0.418324 0.034023
O O16 0.551443 0.775023 0.518391
O O17 0.253971 0.766369 0.125595
#
# Coordination Sequence:
#
# PCOD9253487 Si02
#       8
#     4   4   4   4   4   4   4   4
#     4  11  21  39  65  93 118 170 220 262 324 399
#     4  10  20  35  60  91 129 161 214 275 325 379
#     4  10  20  38  59  87 125 165 208 261 320 393
#     4  10  24  38  59  90 129 168 211 263 327 395
#     4  10  21  39  58  87 127 154 204 269 328 384
#     4  10  20  36  62  91 118 157 209 274 323 380
#     4  11  20  37  66  89 120 168 219 258 318 406
#     4  10  19  35  60  93 117 159 213 265 325 387
#
# _framework density 19.753086
#
# number of rings (size 3 to 8) (size 9 to 14) (size 15 to 20)
#    0.000    1.750    3.750    1.125    0.000    0.000 
#    0.000    5.000    0.000    0.000    0.000    0.000 
#    0.000    0.000    0.000    0.000    0.000    0.000 
#
# Total GULP energy -178176.065948 kJ/mol
# GULP energy per Si atom -5568.002061 kJ/mol
# Density = 1.970813 g / cm^3
# Si number density = 19.753086 Si / 1000 Ang^3
#
#
#
# Elastic Constant Matrix: (Units=GPa)
#
#
# Indices 1 2 3 4 5 6 
#
# 1 61.4904 13.4581 0.2964 0.0000 0.5637 0.0000
# 2 13.4581 97.4519 33.1293 0.0000 4.3838 0.0000
# 3 0.2964 33.1293 36.8795 0.0000 1.5891 0.0000
# 4 0.0000 0.0000 0.0000 28.3545 0.0000 -1.9490
# 5 0.5637 4.3838 1.5891 0.0000 2.8555 0.0000
# 6 0.0000 0.0000 0.0000 -1.9490 0.0000 35.6192
#
#
#
# Elastic Compliance Matrix: (Units=1/GPa)
#
#
# Indices 1 2 3 4 5 6 
#
# 1 0.016973 -0.003315 0.002834 0.000000 0.000161 0.000000
# 2 -0.003315 0.016138 -0.013761 0.000000 -0.016463 0.000000
# 3 0.002834 -0.013761 0.039515 0.000000 -0.001424 0.000000
# 4 0.000000 0.000000 0.000000 0.035401 0.000000 0.001937
# 5 0.000161 -0.016463 -0.001424 0.000000 0.376230 0.000000
# 6 0.000000 0.000000 0.000000 0.001937 0.000000 0.028181
#
#
# Mechanical properties :
#
#
# Convention : Reuss Voigt Hill
#
# Bulk Modulus (GPa) = 22.65323 32.17662 27.41492
# Shear Modulus (GPa) = 8.99871 23.29504 16.14687
#
# Velocity S-wave (km/s) = 2.13670 3.43784 2.86218
# Velocity P-wave (km/s) = 4.19290 5.66419 4.98315
#
# Compressibility (1/GPa) = 0.04414382
#
# Stress axis : x y z
#
# Youngs Moduli (GPa) = 58.91695 61.96592 25.30653
#
# Poissons Ratio (x) = 0.20540 -0.07173
# Poissons Ratio (y) = 0.19530 0.34824
# Poissons Ratio (z) = -0.16699 0.85271
#
# Static dielectric constant tensor:
#      x y z
#    x 1.605420 0.000000 0.046270 
#    y 0.000000 1.707570 0.000000 
#    z 0.046270 0.000000 1.725750 
# 
# From -- ./inp_files/53478.got.cif
#   From: 2010.05.17/outbox.ucp.g08.bks.cvg/sg14_27_cif.got.tgz:53478.got - 2010.06.11 12:31:08.
