data_PCOD9253978
_publ_section_title
;
Structure prediction by ZEFSAII (Michael W. Deem and Ramdas Pophale) SiO2 
 PCOD9253978
Probable space group: C 2/C
;
_chemical_formula_sum "Si O2"
_cell_formula_units_Z 56
_cell_length_a 25.794716
_cell_length_b 9.603543
_cell_length_c 14.747476
_cell_angle_alpha 90.000000
_cell_angle_beta 43.379040
_cell_angle_gamma 90.000000
_cell_volume 2509.134386
_symmetry_space_group_name_H-M "C 2/C"
_symmetry_group_IT_number 15
_symmetry_cell_setting 'monoclinic'
loop_
_space_group_symop_operation_xyz
x,y,z
-x,y,1/2-z
-x,-y,-z
x,-y,1/2+z
1/2+x,1/2+y,z
1/2-x,1/2+y,1/2-z
1/2-x,1/2-y,-z
1/2+x,1/2-y,1/2+z
loop_
_atom_site_type_symbol
_atom_site_label
_atom_site_fract_x
_atom_site_fract_y
_atom_site_fract_z
Si Si1 0.972165 0.591288 0.623093
Si Si2 0.375120 0.244393 0.032461
Si Si3 0.693564 0.965714 0.408319
Si Si4 0.906372 0.256324 0.060579
Si Si5 0.045797 0.701648 0.279753
Si Si6 0.802402 0.250842 0.829124
Si Si7 0.697631 0.476723 0.891024
O O1 0.906058 0.684250 0.662845
O O2 0.949941 0.467069 0.718392
O O3 0.000000 0.500000 0.500000
O O4 0.038912 0.689886 0.574101
O O5 0.344593 0.245267 0.176208
O O6 0.355364 0.393919 0.015291
O O7 0.328547 0.122088 0.042271
O O8 0.619743 0.875736 0.477798
O O9 0.749849 0.884198 0.401019
O O10 0.737945 0.963103 0.256410
O O11 0.853318 0.127786 0.105093
O O12 0.994142 0.232879 0.925535
O O13 0.130963 0.749363 0.183573
O O14 0.000000 0.745287 0.250000
O O15 0.745204 0.381594 0.899239
#
# Coordination Sequence:
#
# PCOD9253978 Si02
#       7
#     8   8   8   8   8   8   8
#     4  10  16  30  54  74 103 133 173 223 264 304
#     4  10  15  29  52  82 102 131 170 217 269 317
#     4   9  16  29  50  76 106 133 166 216 264 310
#     4  10  18  34  54  80 109 134 171 226 267 306
#     4  11  21  34  55  77 104 146 188 216 258 321
#     4   9  17  32  48  77 106 132 171 220 264 307
#     4   9  19  28  52  85 109 129 169 222 276 317
#
# _framework density 22.318453999999999
#
# number of rings (size 3 to 8) (size 9 to 14) (size 15 to 20)
#    0.000    2.286    5.714    1.714    0.000    0.571 
#    0.000    2.857    0.000    1.714    0.000    0.000 
#    0.000    0.000    0.000    0.000    0.000    0.000 
#
# Total GULP energy -156165.851070 kJ/mol
# GULP energy per Si atom -5577.351824 kJ/mol
# Density = 2.226766 g / cm^3
# Si number density = 22.318454 Si / 1000 Ang^3
#
#
#
# Elastic Constant Matrix: (Units=GPa)
#
#
# Indices 1 2 3 4 5 6 
#
# 1 159.0317 50.7958 15.8139 0.0000 -39.9060 0.0000
# 2 50.7958 79.0869 -13.2529 0.0001 -22.0949 -0.0001
# 3 15.8139 -13.2529 33.9892 0.0000 -11.2010 0.0000
# 4 0.0000 0.0001 0.0000 13.0618 0.0000 -15.4821
# 5 -39.9060 -22.0949 -11.2010 0.0000 35.1515 0.0000
# 6 0.0000 -0.0001 0.0000 -15.4821 0.0000 20.0647
#
#
#
# Elastic Compliance Matrix: (Units=1/GPa)
#
#
# Indices 1 2 3 4 5 6 
#
# 1 0.010155 -0.005460 -0.004677 0.000000 0.006606 0.000000
# 2 -0.005460 0.022293 0.015428 -0.000002 0.012730 -0.000001
# 3 -0.004677 0.015428 0.043641 -0.000002 0.018294 -0.000001
# 4 0.000000 -0.000002 -0.000002 0.896286 -0.000001 0.691581
# 5 0.006606 0.012730 0.018294 -0.000001 0.049779 -0.000001
# 6 0.000000 -0.000001 -0.000001 0.691581 -0.000001 0.583467
#
#
# Mechanical properties :
#
#
# Convention : Reuss Voigt Hill
#
# Bulk Modulus (GPa) = 11.53792 42.09127 26.81459
# Shear Modulus (GPa) = 3.07895 28.23898 15.65897
#
# Velocity S-wave (km/s) = 1.17582 3.56093 2.65168
# Velocity P-wave (km/s) = 2.65034 5.98392 4.62772
#
# Compressibility (1/GPa) = 0.08667077
#
# Stress axis : x y z
#
# Youngs Moduli (GPa) = 98.47537 44.85691 22.91403
#
# Poissons Ratio (x) = 0.24494 0.10716
# Poissons Ratio (y) = 0.53772 -0.35352
# Poissons Ratio (z) = 0.46055 -0.69205
#
# Static dielectric constant tensor:
#      x y z
#    x 1.851720 0.000000 0.040830 
#    y 0.000000 1.846930 0.000000 
#    z 0.040830 0.000000 1.877340 
# 
# From -- ./inp_files/218495.got.cif
#   From: 2010.05.17/outbox.cif.g08.bks.cpg/sg15_110_cif.got.tgz:218495.got - 2010.06.03 18:47:42.
