data_PCOD9253209
_publ_section_title
;
Structure prediction by ZEFSAII (Michael W. Deem and Ramdas Pophale) SiO2 
 PCOD9253209
Probable space group: P 21/C
;
_chemical_formula_sum "Si O2"
_cell_formula_units_Z 20
_cell_length_a 8.722289
_cell_length_b 21.958316
_cell_length_c 7.751167
_cell_angle_alpha 90.000000
_cell_angle_beta 34.134641
_cell_angle_gamma 90.000000
_cell_volume 833.043090
_symmetry_space_group_name_H-M "P 21/C"
_symmetry_group_IT_number 14
_symmetry_cell_setting 'monoclinic'
loop_
_space_group_symop_operation_xyz
x,y,z
-x,1/2+y,1/2-z
-x,-y,-z
x,1/2-y,1/2+z
loop_
_atom_site_type_symbol
_atom_site_label
_atom_site_fract_x
_atom_site_fract_y
_atom_site_fract_z
Si Si1 0.050400 0.409074 0.110463
Si Si2 0.977228 0.860259 0.742487
Si Si3 0.546505 0.162389 0.228536
Si Si4 0.543760 0.206534 0.607926
Si Si5 0.224063 0.981837 0.654909
O O1 0.147801 0.477513 0.058975
O O2 0.752524 0.386367 0.450259
O O3 0.100604 0.389726 0.867349
O O4 0.260176 0.370113 0.028149
O O5 0.194149 0.806371 0.516404
O O6 0.159175 0.912406 0.667461
O O7 0.714153 0.833048 0.084940
O O8 0.633803 0.187451 0.332559
O O9 0.489297 0.221531 0.165040
O O10 0.500000 0.000000 0.500000
O O11 0.000000 0.000000 0.000000
#
# Coordination Sequence:
#
# PCOD9253209 Si02
#       5
#     4   4   4   4   4
#     4  12  25  44  68  99 134 174 221 275 331 392
#     4  12  25  44  68  99 134 174 221 275 331 392
#     4  12  25  44  68  98 134 176 221 272 330 395
#     4  12  25  44  68  98 134 176 221 272 330 395
#     4  12  25  44  69  98 133 176 223 274 331 394
#
# _framework density 24.008362000000002
#
# number of rings (size 3 to 8) (size 9 to 14) (size 15 to 20)
#    0.000    0.000    0.000   12.600    0.000    0.000 
#    0.000    6.000    0.000    0.000    0.000    0.000 
#    0.000    0.000    0.000    0.000    0.000    0.000 
#
# Total GULP energy -111874.904861 kJ/mol
# GULP energy per Si atom -5593.745243 kJ/mol
# Density = 2.395372 g / cm^3
# Si number density = 24.008362 Si / 1000 Ang^3
#
#
#
# Elastic Constant Matrix: (Units=GPa)
#
#
# Indices 1 2 3 4 5 6 
#
# 1 70.6395 16.8746 21.0840 0.0000 -1.5183 0.0000
# 2 16.8746 87.6633 16.9785 0.0000 2.6742 0.0000
# 3 21.0840 16.9785 131.8907 0.0000 -18.7939 0.0000
# 4 0.0000 0.0000 0.0000 30.9054 0.0000 4.0065
# 5 -1.5183 2.6742 -18.7939 0.0000 37.1016 0.0000
# 6 0.0000 0.0000 0.0000 4.0065 0.0000 33.7595
#
#
#
# Elastic Compliance Matrix: (Units=1/GPa)
#
#
# Indices 1 2 3 4 5 6 
#
# 1 0.015406 -0.002535 -0.002178 0.000000 -0.000290 0.000000
# 2 -0.002535 0.012220 -0.001410 0.000000 -0.001699 0.000000
# 3 -0.002178 -0.001410 0.008745 0.000000 0.004442 0.000000
# 4 0.000000 0.000000 0.000000 0.032862 0.000000 -0.003900
# 5 -0.000290 -0.001699 0.004442 0.000000 0.029314 0.000000
# 6 0.000000 0.000000 0.000000 -0.003900 0.000000 0.030084
#
#
# Mechanical properties :
#
#
# Convention : Reuss Voigt Hill
#
# Bulk Modulus (GPa) = 41.45020 44.45195 42.95107
# Shear Modulus (GPa) = 33.57561 36.03708 34.80635
#
# Velocity S-wave (km/s) = 3.74370 3.87851 3.81170
# Velocity P-wave (km/s) = 5.99912 6.21389 6.10745
#
# Compressibility (1/GPa) = 0.02412534
#
# Stress axis : x y z
#
# Youngs Moduli (GPa) = 64.91105 81.83223 114.35540
#
# Poissons Ratio (x) = 0.20743 0.24904
# Poissons Ratio (y) = 0.16454 0.16124
# Poissons Ratio (z) = 0.14136 0.11538
#
# Static dielectric constant tensor:
#      x y z
#    x 1.917810 0.000000 0.015970 
#    y 0.000000 1.954690 0.000000 
#    z 0.015970 0.000000 1.827550 
# 
# From -- ./inp_files/10772.got.cif
#   From: 2010.05.17/outbox.cif.g08.bks.cpg/sg14_6_cif.got.tgz:10772.got - 2010.06.03 17:49:19.
