data_PCOD9253753
_publ_section_title
;
Structure prediction by ZEFSAII (Michael W. Deem and Ramdas Pophale) SiO2 
 PCOD9253753
Probable space group: P 21/C
;
_chemical_formula_sum "Si O2"
_cell_formula_units_Z 20
_cell_length_a 9.000000
_cell_length_b 12.000000
_cell_length_c 9.000000
_cell_angle_alpha 90.000000
_cell_angle_beta 80.000000
_cell_angle_gamma 90.000000
_cell_volume 957.233136
_symmetry_space_group_name_H-M "P 21/C"
_symmetry_group_IT_number 14
_symmetry_cell_setting 'monoclinic'
loop_
_space_group_symop_operation_xyz
x,y,z
-x,1/2+y,1/2-z
-x,-y,-z
x,1/2-y,1/2+z
loop_
_atom_site_type_symbol
_atom_site_label
_atom_site_fract_x
_atom_site_fract_y
_atom_site_fract_z
Si Si1 0.529667 0.126873 0.926881
Si Si2 0.876749 0.478799 0.890183
Si Si3 0.285151 0.796785 0.391603
Si Si4 0.782361 0.668623 0.694875
Si Si5 0.028125 0.329596 0.633121
O O1 0.644475 0.141749 0.766036
O O2 0.374312 0.169100 0.872143
O O3 0.602123 0.206036 0.046440
O O4 0.500000 0.000000 0.000000
O O5 0.783657 0.578479 0.829008
O O6 0.972240 0.434841 0.734301
O O7 0.762322 0.387502 0.976228
O O8 0.000000 0.500000 0.000000
O O9 0.125304 0.742171 0.367595
O O10 0.848479 0.773468 0.776942
O O11 0.901551 0.648708 0.540413
#
# Coordination Sequence:
#
# PCOD9253753 Si02
#       5
#     4   4   4   4   4
#     4  12  29  49  75 110 155 204 245 311 391 451
#     4  12  25  43  78 111 143 194 251 312 368 440
#     4  12  25  51  75 107 154 198 252 311 374 450
#     4  12  25  45  72 110 145 195 253 306 375 447
#     4  12  23  47  75 105 147 190 255 310 361 449
#
# _framework density 20.893552
#
# number of rings (size 3 to 8) (size 9 to 14) (size 15 to 20)
#    0.000    0.000    6.000    3.000    2.800    0.800 
#    3.600    0.000    0.000    0.000    0.000    0.000 
#    0.000    0.000    0.000    0.000    0.000    0.000 
#
# Total GULP energy -111630.722899 kJ/mol
# GULP energy per Si atom -5581.536145 kJ/mol
# Density = 2.084600 g / cm^3
# Si number density = 20.893552 Si / 1000 Ang^3
#
#
#
# Elastic Constant Matrix: (Units=GPa)
#
#
# Indices 1 2 3 4 5 6 
#
# 1 132.2664 25.2162 15.6564 0.0000 14.6509 0.0000
# 2 25.2162 71.2280 19.0456 0.0000 2.8718 0.0000
# 3 15.6564 19.0456 140.8554 0.0000 -6.9838 0.0000
# 4 0.0000 0.0000 0.0000 62.8923 0.0000 3.7168
# 5 14.6509 2.8718 -6.9838 0.0000 48.4130 0.0000
# 6 0.0000 0.0000 0.0000 3.7168 0.0000 32.0201
#
#
#
# Elastic Compliance Matrix: (Units=1/GPa)
#
#
# Indices 1 2 3 4 5 6 
#
# 1 0.008434 -0.002699 -0.000696 0.000000 -0.002492 0.000000
# 2 -0.002699 0.015494 -0.001813 0.000000 -0.000364 0.000000
# 3 -0.000696 -0.001813 0.007491 0.000000 0.001399 0.000000
# 4 0.000000 0.000000 0.000000 0.016010 0.000000 -0.001858
# 5 -0.002492 -0.000364 0.001399 0.000000 0.021633 0.000000
# 6 0.000000 0.000000 0.000000 -0.001858 0.000000 0.031446
#
#
# Mechanical properties :
#
#
# Convention : Reuss Voigt Hill
#
# Bulk Modulus (GPa) = 47.61236 51.57625 49.59430
# Shear Modulus (GPa) = 42.39945 47.62718 45.01331
#
# Velocity S-wave (km/s) = 4.50967 4.77961 4.64660
# Velocity P-wave (km/s) = 7.06779 7.42956 7.25093
#
# Compressibility (1/GPa) = 0.02100295
#
# Stress axis : x y z
#
# Youngs Moduli (GPa) = 118.57411 64.53942 133.48717
#
# Poissons Ratio (x) = 0.17419 0.09291
# Poissons Ratio (y) = 0.32004 0.24202
# Poissons Ratio (z) = 0.08253 0.11702
#
# Static dielectric constant tensor:
#      x y z
#    x 1.777260 0.000000 -0.021650 
#    y 0.000000 1.842290 0.000000 
#    z -0.021650 0.000000 1.710990 
# 
# From -- ./inp_files/7857.got.cif
#   From: 2010.05.17/outbox.ucp.g08.bks.cvg/sg14_4_cif.got.tgz:7857.got - 2010.06.11 12:31:08.
