data_PCOD9253109
_publ_section_title
;
Structure prediction by ZEFSAII (Michael W. Deem and Ramdas Pophale) SiO2 
 PCOD9253109
Probable space group: P 21/C
;
_chemical_formula_sum "Si O2"
_cell_formula_units_Z 32
_cell_length_a 15.866538
_cell_length_b 4.951667
_cell_length_c 29.945635
_cell_angle_alpha 90.000000
_cell_angle_beta 146.687004
_cell_angle_gamma 90.000000
_cell_volume 1292.133705
_symmetry_space_group_name_H-M "P 21/C"
_symmetry_group_IT_number 14
_symmetry_cell_setting 'monoclinic'
loop_
_space_group_symop_operation_xyz
x,y,z
-x,1/2+y,1/2-z
-x,-y,-z
x,1/2-y,1/2+z
loop_
_atom_site_type_symbol
_atom_site_label
_atom_site_fract_x
_atom_site_fract_y
_atom_site_fract_z
Si Si1 0.105104 0.667156 0.960049
Si Si2 0.331093 0.386930 0.434244
Si Si3 0.136581 0.567420 0.261966
Si Si4 0.392527 0.492743 0.032029
Si Si5 0.037623 0.596687 0.344082
Si Si6 0.123092 0.336258 0.525621
Si Si7 0.437788 0.008547 0.848331
Si Si8 0.548740 0.883295 0.798217
O O1 0.232568 0.518690 0.986921
O O2 0.053954 0.429517 0.970945
O O3 0.486718 0.243101 0.093207
O O4 0.177025 0.923719 0.016528
O O5 0.500000 0.500000 0.500000
O O6 0.232475 0.472031 0.347447
O O7 0.215672 0.509621 0.420782
O O8 0.358066 0.083377 0.465137
O O9 0.992760 0.366842 0.196941
O O10 0.256095 0.510640 0.275049
O O11 0.069290 0.864343 0.223860
O O12 0.496102 0.739801 0.094477
O O13 0.279633 0.237218 0.120057
O O14 0.995938 0.683325 0.376167
O O15 0.000000 0.500000 0.500000
O O16 0.483090 0.987758 0.816541
O O17 0.449773 0.638522 0.734232
#
# Coordination Sequence:
#
# PCOD9253109 Si02
#       8
#     4   4   4   4   4   4   4   4
#     4  12  24  48  79 106 152 207 270 319 390 474
#     4  12  27  49  80 118 150 212 274 320 383 471
#     4  12  28  50  74 112 165 204 258 330 404 465
#     4  12  23  46  77 113 147 197 276 326 370 455
#     4  12  28  51  74 112 159 210 252 330 400 462
#     4  12  26  47  78 114 153 204 264 329 397 481
#     4  12  25  47  77 109 153 208 259 321 393 471
#     4  12  26  47  74 111 156 197 252 324 399 472
#
# _framework density 24.765239000000001
#
# number of rings (size 3 to 8) (size 9 to 14) (size 15 to 20)
#    0.000    0.000    3.750    6.375    0.000    5.500 
#    0.000    0.000    0.000    0.000    0.000    0.000 
#    0.000    0.000    0.000    0.000    0.000    0.000 
#
# Total GULP energy -178987.855054 kJ/mol
# GULP energy per Si atom -5593.370470 kJ/mol
# Density = 2.470887 g / cm^3
# Si number density = 24.765239 Si / 1000 Ang^3
#
#
#
# Elastic Constant Matrix: (Units=GPa)
#
#
# Indices 1 2 3 4 5 6 
#
# 1 93.0943 15.3293 39.6145 0.0000 -3.4145 0.0000
# 2 15.3293 172.6802 49.3085 0.0000 -20.0018 0.0000
# 3 39.6145 49.3085 113.5177 0.0000 -7.9471 0.0000
# 4 0.0000 0.0000 0.0000 56.7084 0.0000 -9.7388
# 5 -3.4145 -20.0018 -7.9471 0.0000 28.5922 0.0000
# 6 0.0000 0.0000 0.0000 -9.7388 0.0000 42.7654
#
#
#
# Elastic Compliance Matrix: (Units=1/GPa)
#
#
# Indices 1 2 3 4 5 6 
#
# 1 0.012623 0.000201 -0.004464 0.000000 0.000408 0.000000
# 2 0.000201 0.007071 -0.002849 0.000000 0.004179 0.000000
# 3 -0.004464 -0.002849 0.011654 0.000000 0.000713 0.000000
# 4 0.000000 0.000000 0.000000 0.018352 0.000000 0.004179
# 5 0.000408 0.004179 0.000713 0.000000 0.038145 0.000000
# 6 0.000000 0.000000 0.000000 0.004179 0.000000 0.024335
#
#
# Mechanical properties :
#
#
# Convention : Reuss Voigt Hill
#
# Bulk Modulus (GPa) = 58.39465 65.31076 61.85270
# Shear Modulus (GPa) = 37.84681 43.94921 40.89801
#
# Velocity S-wave (km/s) = 3.91349 4.21721 4.06819
# Velocity P-wave (km/s) = 6.63709 7.08113 6.86270
#
# Compressibility (1/GPa) = 0.01712486
#
# Stress axis : x y z
#
# Youngs Moduli (GPa) = 79.21934 141.42845 85.80396
#
# Poissons Ratio (x) = -0.02847 0.38303
# Poissons Ratio (y) = -0.01595 0.24446
# Poissons Ratio (z) = 0.35364 0.40293
#
# Static dielectric constant tensor:
#      x y z
#    x 2.032270 0.000000 -0.083270 
#    y 0.000000 1.986410 0.000000 
#    z -0.083270 0.000000 2.016390 
# 
# From -- ./inp_files/77661.got.cif
#   From: 2010.05.17/outbox.cif.g08.bks.cpg/sg14_39_cif.got.tgz:77661.got - 2010.06.03 17:49:19.
