data_PCOD9253193
_publ_section_title
;
Structure prediction by ZEFSAII (Michael W. Deem and Ramdas Pophale) SiO2 
 PCOD9253193
Probable space group: P 21/C
;
_chemical_formula_sum "Si O2"
_cell_formula_units_Z 20
_cell_length_a 20.414477
_cell_length_b 7.757531
_cell_length_c 13.362182
_cell_angle_alpha 90.000000
_cell_angle_beta 157.042316
_cell_angle_gamma 90.000000
_cell_volume 825.392953
_symmetry_space_group_name_H-M "P 21/C"
_symmetry_group_IT_number 14
_symmetry_cell_setting 'monoclinic'
loop_
_space_group_symop_operation_xyz
x,y,z
-x,1/2+y,1/2-z
-x,-y,-z
x,1/2-y,1/2+z
loop_
_atom_site_type_symbol
_atom_site_label
_atom_site_fract_x
_atom_site_fract_y
_atom_site_fract_z
Si Si1 0.459977 0.461468 0.121625
Si Si2 0.880387 0.160613 0.848511
Si Si3 0.891227 0.090186 0.522994
Si Si4 0.197551 0.623627 0.459513
Si Si5 0.572046 0.567491 0.494949
O O1 0.641331 0.498978 0.326471
O O2 0.488864 0.470235 0.282524
O O3 0.433997 0.268149 0.044240
O O4 0.303126 0.585255 0.877392
O O5 0.970289 0.275131 0.057893
O O6 0.847944 0.287303 0.709888
O O7 0.000000 0.000000 0.000000
O O8 0.783011 0.207507 0.445124
O O9 0.039518 0.981488 0.778893
O O10 0.767914 0.975201 0.283869
O O11 0.500000 0.500000 0.500000
#
# Coordination Sequence:
#
# PCOD9253193 Si02
#       5
#     4   4   4   4   4
#     4  12  25  47  76 111 146 194 258 308 369 468
#     4  12  26  46  71 107 146 193 245 310 383 440
#     4  12  26  48  71 105 148 198 247 312 377 439
#     4  12  26  47  72 107 147 196 255 305 372 455
#     4  12  24  49  75 106 154 196 248 314 380 449
#
# _framework density 24.230882999999999
#
# number of rings (size 3 to 8) (size 9 to 14) (size 15 to 20)
#    0.000    0.000    6.000    3.000    2.800    0.800 
#    7.200    0.000    0.000    0.000    0.000    0.000 
#    0.000    0.000    0.000    0.000    0.000    0.000 
#
# Total GULP energy -111835.173369 kJ/mol
# GULP energy per Si atom -5591.758668 kJ/mol
# Density = 2.417573 g / cm^3
# Si number density = 24.230883 Si / 1000 Ang^3
#
#
#
# Elastic Constant Matrix: (Units=GPa)
#
#
# Indices 1 2 3 4 5 6 
#
# 1 53.0488 7.7792 4.1913 0.0000 -6.1963 0.0000
# 2 7.7792 46.3659 19.8131 0.0000 -0.6828 0.0000
# 3 4.1913 19.8131 95.3491 0.0000 14.9160 0.0000
# 4 0.0000 0.0000 0.0000 59.8691 0.0000 2.1879
# 5 -6.1963 -0.6828 14.9160 0.0000 36.5945 0.0000
# 6 0.0000 0.0000 0.0000 2.1879 0.0000 48.0278
#
#
#
# Elastic Compliance Matrix: (Units=1/GPa)
#
#
# Indices 1 2 3 4 5 6 
#
# 1 0.019767 -0.002907 -0.000833 0.000000 0.003632 0.000000
# 2 -0.002907 0.024333 -0.005258 0.000000 0.002105 0.000000
# 3 -0.000833 -0.005258 0.012448 0.000000 -0.005313 0.000000
# 4 0.000000 0.000000 0.000000 0.016731 0.000000 -0.000762
# 5 0.003632 0.002105 -0.005313 0.000000 0.030146 0.000000
# 6 0.000000 0.000000 0.000000 -0.000762 0.000000 0.020856
#
#
# Mechanical properties :
#
#
# Convention : Reuss Voigt Hill
#
# Bulk Modulus (GPa) = 25.93873 28.70344 27.32109
# Shear Modulus (GPa) = 32.23147 39.76363 35.99755
#
# Velocity S-wave (km/s) = 3.65112 4.05536 3.85854
# Velocity P-wave (km/s) = 5.33876 5.81373 5.58130
#
# Compressibility (1/GPa) = 0.03855239
#
# Stress axis : x y z
#
# Youngs Moduli (GPa) = 50.58952 41.09640 80.33368
#
# Poissons Ratio (x) = 0.11947 0.06692
# Poissons Ratio (y) = 0.14706 0.42238
# Poissons Ratio (z) = 0.04214 0.21608
#
# Static dielectric constant tensor:
#      x y z
#    x 2.032890 0.000000 0.033180 
#    y 0.000000 1.878560 0.000000 
#    z 0.033180 0.000000 1.901670 
# 
# From -- ./inp_files/33702.got.cif
#   From: 2010.05.17/outbox.cif.g08.bks.cpg/sg14_17_cif.got.tgz:33702.got - 2010.06.03 17:49:19.
