data_PCOD9253446
_publ_section_title
;
Structure prediction by ZEFSAII (Michael W. Deem and Ramdas Pophale) SiO2 
 PCOD9253446
Probable space group: P 21/C
;
_chemical_formula_sum "Si O2"
_cell_formula_units_Z 32
_cell_length_a 10.748228
_cell_length_b 7.507592
_cell_length_c 19.719233
_cell_angle_alpha 90.000000
_cell_angle_beta 73.055140
_cell_angle_gamma 90.000000
_cell_volume 1522.128890
_symmetry_space_group_name_H-M "P 21/C"
_symmetry_group_IT_number 14
_symmetry_cell_setting 'monoclinic'
loop_
_space_group_symop_operation_xyz
x,y,z
-x,1/2+y,1/2-z
-x,-y,-z
x,1/2-y,1/2+z
loop_
_atom_site_type_symbol
_atom_site_label
_atom_site_fract_x
_atom_site_fract_y
_atom_site_fract_z
Si Si1 0.835488 0.029336 0.297937
Si Si2 0.839259 0.837880 0.571902
Si Si3 0.907512 0.373029 0.646402
Si Si4 0.128112 0.743684 0.989448
Si Si5 0.804097 0.870276 0.859258
Si Si6 0.874927 0.972356 0.707767
Si Si7 0.338329 0.830081 0.563728
Si Si8 0.629036 0.736670 0.997854
O O1 0.833887 0.021597 0.217098
O O2 0.726698 0.145346 0.352469
O O3 0.980009 0.096974 0.295968
O O4 0.822564 0.832932 0.330552
O O5 0.816547 0.859466 0.655489
O O6 0.724834 0.750606 0.546855
O O7 0.979552 0.747956 0.538202
O O8 0.854588 0.039362 0.539856
O O9 0.855780 0.369377 0.578406
O O10 0.060799 0.418682 0.624795
O O11 0.894424 0.169818 0.675530
O O12 0.233402 0.763326 0.031529
O O13 0.795784 0.975324 0.790134
O O14 0.684782 0.861752 0.929594
O O15 0.478827 0.740509 0.539751
O O16 0.356505 0.032211 0.531873
#
# Coordination Sequence:
#
# PCOD9253446 Si02
#       8
#     4   4   4   4   4   4   4   4
#     4   9  16  27  43  64  89 113 139 176 218 255
#     4   9  14  24  42  63  84 108 144 182 210 244
#     4   9  16  26  44  66  86 111 143 178 213 253
#     4   9  14  24  42  63  84 108 144 182 210 244
#     4   9  16  27  43  64  89 113 139 176 218 255
#     4   9  16  26  44  66  86 111 143 178 213 253
#     4   9  16  26  42  64  87 111 142 180 217 250
#     4   9  16  26  42  64  87 111 142 180 217 250
#
# _framework density 21.023188000000001
#
# number of rings (size 3 to 8) (size 9 to 14) (size 15 to 20)
#    0.000    3.000    2.500    0.000    0.000    0.000 
#    0.000    1.250    0.000    3.000    0.000    0.000 
#    0.000    0.000    0.000    0.000    0.000    0.000 
#
# Total GULP energy -178681.167390 kJ/mol
# GULP energy per Si atom -5583.786481 kJ/mol
# Density = 2.097534 g / cm^3
# Si number density = 21.023188 Si / 1000 Ang^3
#
#
#
# Elastic Constant Matrix: (Units=GPa)
#
#
# Indices 1 2 3 4 5 6 
#
# 1 90.5427 60.8236 -11.1130 0.0000 -13.3486 0.0000
# 2 60.8236 25.2691 111.1477 0.0000 0.1799 0.0000
# 3 -11.1130 111.1477 -76.5438 0.0000 -20.0957 0.0000
# 4 0.0000 0.0000 0.0000 24.4941 0.0000 1.0020
# 5 -13.3486 0.1799 -20.0957 0.0000 26.7691 0.0000
# 6 0.0000 0.0000 0.0000 1.0020 0.0000 15.7869
#
#
#
# Elastic Compliance Matrix: (Units=1/GPa)
#
#
# Indices 1 2 3 4 5 6 
#
# 1 0.012343 -0.002712 -0.006141 0.000000 0.001564 0.000000
# 2 -0.002712 0.006830 0.008920 0.000000 0.005298 0.000000
# 3 -0.006141 0.008920 0.001336 0.000000 -0.002119 0.000000
# 4 0.000000 0.000000 0.000000 0.040932 0.000000 -0.002598
# 5 0.001564 0.005298 -0.002119 0.000000 0.036510 0.000000
# 6 0.000000 0.000000 0.000000 -0.002598 0.000000 0.063509
#
#
# Mechanical properties :
#
#
# Convention : Reuss Voigt Hill
#
# Bulk Modulus (GPa) = 48.44208 40.10941 44.27574
# Shear Modulus (GPa) = 29.72549 5.30398 17.51474
#
# Velocity S-wave (km/s) = 3.76432 1.59009 2.88950
# Velocity P-wave (km/s) = 6.47964 4.74250 5.67789
#
# Compressibility (1/GPa) = 0.02064321
#
# Stress axis : x y z
#
# Youngs Moduli (GPa) = 81.01644 146.42264 748.59900
#
# Poissons Ratio (x) = 0.39710 4.59681
# Poissons Ratio (y) = 0.21972 -6.67741
# Poissons Ratio (z) = 0.49749 -1.30607
#
# Static dielectric constant tensor:
#      x y z
#    x 1.693060 0.000000 0.013270 
#    y 0.000000 1.865840 0.000000 
#    z 0.013270 0.000000 1.771700 
# 
# From -- ./inp_files/57354.got.cif
#   From: 2010.05.17/outbox.cif.g08.bks.cpg/sg14_29_cif.got.tgz:57354.got - 2010.06.03 17:49:19.
