data_PCOD9253682
_publ_section_title
;
Structure prediction by ZEFSAII (Michael W. Deem and Ramdas Pophale) SiO2 
 PCOD9253682
Probable space group: P 21/C
;
_chemical_formula_sum "Si O2"
_cell_formula_units_Z 28
_cell_length_a 15.000000
_cell_length_b 9.000000
_cell_length_c 12.000000
_cell_angle_alpha 90.000000
_cell_angle_beta 120.000000
_cell_angle_gamma 90.000000
_cell_volume 1402.961154
_symmetry_space_group_name_H-M "P 21/C"
_symmetry_group_IT_number 14
_symmetry_cell_setting 'monoclinic'
loop_
_space_group_symop_operation_xyz
x,y,z
-x,1/2+y,1/2-z
-x,-y,-z
x,1/2-y,1/2+z
loop_
_atom_site_type_symbol
_atom_site_label
_atom_site_fract_x
_atom_site_fract_y
_atom_site_fract_z
Si Si1 0.841080 0.381907 0.210249
Si Si2 0.938017 0.141819 0.992995
Si Si3 0.495444 0.748269 0.498315
Si Si4 0.643540 0.514499 0.179998
Si Si5 0.410573 0.009359 0.092128
Si Si6 0.990072 0.934840 0.367719
Si Si7 0.197610 0.566530 0.390470
O O1 0.903420 0.303729 0.350326
O O2 0.762047 0.494093 0.218636
O O3 0.914251 0.453336 0.160628
O O4 0.782401 0.238971 0.125648
O O5 0.003556 0.258863 0.104147
O O6 0.846502 0.084598 0.013012
O O7 0.000000 0.000000 0.000000
O O8 0.415583 0.874896 0.412337
O O9 0.516914 0.640611 0.406912
O O10 0.458890 0.644667 0.577684
O O11 0.596854 0.836642 0.598743
O O12 0.615725 0.511983 0.293808
O O13 0.302795 0.022358 0.958654
O O14 0.000000 0.000000 0.500000
O O15 0.888786 0.991997 0.241482
#
# Coordination Sequence:
#
# PCOD9253682 Si02
#       7
#     4   4   4   4   4   4   4
#     4  11  22  40  66  94 125 169 211 253 318 377
#     4  11  22  40  64  87 126 168 204 263 311 368
#     4  10  24  42  64  97 127 159 213 266 317 387
#     4  11  22  43  68  93 126 168 210 261 323 382
#     4  11  22  42  67  93 126 166 209 265 322 374
#     4  11  24  41  62  92 129 166 212 257 309 378
#     4  11  22  40  63  94 125 167 211 255 312 380
#
# _framework density 19.957787
#
# number of rings (size 3 to 8) (size 9 to 14) (size 15 to 20)
#    0.000    1.143    5.714    0.857    0.000    1.143 
#    2.571    1.429    0.000    0.000    0.000    0.000 
#    0.000    0.000    0.000    0.000    0.000    0.000 
#
# Total GULP energy -156028.429775 kJ/mol
# GULP energy per Si atom -5572.443921 kJ/mol
# Density = 1.991236 g / cm^3
# Si number density = 19.957787 Si / 1000 Ang^3
#
#
#
# Elastic Constant Matrix: (Units=GPa)
#
#
# Indices 1 2 3 4 5 6 
#
# 1 73.1020 44.7039 28.9440 0.0000 -21.9327 0.0000
# 2 44.7039 78.1619 21.2176 0.0000 -0.0153 0.0000
# 3 28.9440 21.2176 71.0935 0.0000 -17.3609 0.0000
# 4 0.0000 0.0000 0.0000 20.4364 0.0000 -1.5578
# 5 -21.9327 -0.0153 -17.3609 0.0000 36.2384 0.0000
# 6 0.0000 0.0000 0.0000 -1.5578 0.0000 30.3314
#
#
#
# Elastic Compliance Matrix: (Units=1/GPa)
#
#
# Indices 1 2 3 4 5 6 
#
# 1 0.029786 -0.016138 -0.003295 0.000000 0.016442 0.000000
# 2 -0.016138 0.022829 -0.002974 0.000000 -0.011182 0.000000
# 3 -0.003295 -0.002974 0.017902 0.000000 0.006581 0.000000
# 4 0.000000 0.000000 0.000000 0.049125 0.000000 0.002523
# 5 0.016442 -0.011182 0.006581 0.000000 0.040694 0.000000
# 6 0.000000 0.000000 0.000000 0.002523 0.000000 0.033099
#
#
# Mechanical properties :
#
#
# Convention : Reuss Voigt Hill
#
# Bulk Modulus (GPa) = 38.90570 45.78759 42.34664
# Shear Modulus (GPa) = 20.25792 25.90071 23.07931
#
# Velocity S-wave (km/s) = 3.18942 3.60637 3.40429
# Velocity P-wave (km/s) = 5.75322 6.35085 6.05941
#
# Compressibility (1/GPa) = 0.02570318
#
# Stress axis : x y z
#
# Youngs Moduli (GPa) = 33.57246 43.80378 55.85945
#
# Poissons Ratio (x) = 0.70692 0.18407
# Poissons Ratio (y) = 0.54180 0.16611
# Poissons Ratio (z) = 0.11063 0.13026
#
# Static dielectric constant tensor:
#      x y z
#    x 1.718870 0.000000 0.122210 
#    y 0.000000 1.601640 0.000000 
#    z 0.122210 0.000000 1.840910 
# 
# From -- ./inp_files/31467.got.cif
#   From: 2010.05.17/outbox.ucp.g08.bks.cvg/sg14_16_cif.got.tgz:31467.got - 2010.06.11 12:31:08.
