data_PCOD9253967
_publ_section_title
;
Structure prediction by ZEFSAII (Michael W. Deem and Ramdas Pophale) SiO2 
 PCOD9253967
Probable space group: C 2/C
;
_chemical_formula_sum "Si O2"
_cell_formula_units_Z 60
_cell_length_a 10.751198
_cell_length_b 14.876017
_cell_length_c 23.871898
_cell_angle_alpha 90.000000
_cell_angle_beta 51.304420
_cell_angle_gamma 90.000000
_cell_volume 2979.830062
_symmetry_space_group_name_H-M "C 2/C"
_symmetry_group_IT_number 15
_symmetry_cell_setting 'monoclinic'
loop_
_space_group_symop_operation_xyz
x,y,z
-x,y,1/2-z
-x,-y,-z
x,-y,1/2+z
1/2+x,1/2+y,z
1/2-x,1/2+y,1/2-z
1/2-x,1/2-y,-z
1/2+x,1/2-y,1/2+z
loop_
_atom_site_type_symbol
_atom_site_label
_atom_site_fract_x
_atom_site_fract_y
_atom_site_fract_z
Si Si1 0.928123 0.901473 0.630522
Si Si2 0.594515 0.454209 0.026164
Si Si3 0.930658 0.273434 0.466022
Si Si4 0.358118 0.064835 0.364431
Si Si5 0.540738 0.875891 0.148094
Si Si6 0.278946 0.737050 0.247660
Si Si7 0.371351 0.287687 0.097429
Si Si8 0.000000 0.715457 0.250000
O O1 0.775952 0.949675 0.645982
O O2 0.871242 0.854565 0.703868
O O3 0.969032 0.814317 0.580787
O O4 0.073358 0.971207 0.581159
O O5 0.505224 0.363492 0.069227
O O6 0.500000 0.500000 0.000000
O O7 0.764656 0.432861 0.950023
O O8 0.750000 0.250000 0.500000
O O9 0.977260 0.355360 0.413139
O O10 0.933466 0.278940 0.531641
O O11 0.443899 0.152949 0.317578
O O12 0.472100 0.979569 0.334074
O O13 0.410618 0.814425 0.214196
O O14 0.716411 0.840882 0.116621
O O15 0.185472 0.736358 0.331839
O O16 0.155034 0.761874 0.232457
#
# Coordination Sequence:
#
# PCOD9253967 Si02
#       8
#     8   8   8   8   8   8   8   4
#     4   9  16  32  48  79 118 149 183 245 289 333
#     4  10  15  28  56  86 114 139 194 245 283 336
#     4   9  16  27  47  81 125 150 172 231 300 346
#     4  10  18  32  58  83 108 146 202 241 284 336
#     4  10  19  31  56  93 115 144 188 250 297 344
#     4  10  23  34  53  81 122 159 193 241 299 349
#     4  11  18  31  55  94 117 144 192 246 293 354
#     4  10  24  42  54  78 120 162 198 246 292 348
#
# _framework density 20.135375
#
# number of rings (size 3 to 8) (size 9 to 14) (size 15 to 20)
#    0.000    2.133    5.333    1.200    1.867    0.000 
#    0.000    0.667    0.000    0.800   31.200    0.000 
#    0.000    0.000    0.000    0.000    0.000    0.000 
#
# Total GULP energy -167130.518806 kJ/mol
# GULP energy per Si atom -5571.017294 kJ/mol
# Density = 2.008955 g / cm^3
# Si number density = 20.135375 Si / 1000 Ang^3
#
#
#
# Elastic Constant Matrix: (Units=GPa)
#
#
# Indices 1 2 3 4 5 6 
#
# 1 30.5458 22.4091 12.6878 0.0000 -3.3814 0.0000
# 2 22.4091 56.5887 45.6426 0.0000 8.7227 0.0000
# 3 12.6878 45.6426 145.6140 0.0000 18.4094 0.0000
# 4 0.0000 0.0000 0.0000 21.1254 0.0000 -2.6496
# 5 -3.3814 8.7227 18.4094 0.0000 27.2417 0.0000
# 6 0.0000 0.0000 0.0000 -2.6496 0.0000 19.9320
#
#
#
# Elastic Compliance Matrix: (Units=1/GPa)
#
#
# Indices 1 2 3 4 5 6 
#
# 1 0.050473 -0.022897 0.001159 0.000000 0.012813 0.000000
# 2 -0.022897 0.034236 -0.007644 0.000000 -0.008639 0.000000
# 3 0.001159 -0.007644 0.009660 0.000000 -0.003937 0.000000
# 4 0.000000 0.000000 0.000000 0.048139 0.000000 0.006399
# 5 0.012813 -0.008639 -0.003937 0.000000 0.043725 0.000000
# 6 0.000000 0.000000 0.000000 0.006399 0.000000 0.051021
#
#
# Mechanical properties :
#
#
# Convention : Reuss Voigt Hill
#
# Bulk Modulus (GPa) = 28.08614 43.80303 35.94458
# Shear Modulus (GPa) = 16.23981 23.79376 20.01679
#
# Velocity S-wave (km/s) = 2.84303 3.44130 3.15637
# Velocity P-wave (km/s) = 4.97554 6.13120 5.58335
#
# Compressibility (1/GPa) = 0.03560475
#
# Stress axis : x y z
#
# Youngs Moduli (GPa) = 19.81276 29.20940 103.51869
#
# Poissons Ratio (x) = 0.66882 -0.12002
# Poissons Ratio (y) = 0.45366 0.79128
# Poissons Ratio (z) = -0.02297 0.22327
#
# Static dielectric constant tensor:
#      x y z
#    x 1.749480 0.000000 -0.025160 
#    y 0.000000 1.736120 0.000000 
#    z -0.025160 0.000000 1.804870 
# 
# From -- ./inp_files/269949.got.cif
#   From: 2010.05.17/outbox.cif.g08.bks.cpg/sg15_135_cif.got.tgz:269949.got - 2010.06.03 18:47:42.
