data_PCOD9253196
_publ_section_title
;
Structure prediction by ZEFSAII (Michael W. Deem and Ramdas Pophale) SiO2 
 PCOD9253196
Probable space group: P 21/C
;
_chemical_formula_sum "Si O2"
_cell_formula_units_Z 20
_cell_length_a 8.940717
_cell_length_b 14.665139
_cell_length_c 6.963437
_cell_angle_alpha 90.000000
_cell_angle_beta 128.367703
_cell_angle_gamma 90.000000
_cell_volume 715.850485
_symmetry_space_group_name_H-M "P 21/C"
_symmetry_group_IT_number 14
_symmetry_cell_setting 'monoclinic'
loop_
_space_group_symop_operation_xyz
x,y,z
-x,1/2+y,1/2-z
-x,-y,-z
x,1/2-y,1/2+z
loop_
_atom_site_type_symbol
_atom_site_label
_atom_site_fract_x
_atom_site_fract_y
_atom_site_fract_z
Si Si1 0.623561 0.625001 0.430263
Si Si2 0.775053 0.470839 0.294555
Si Si3 0.265510 0.761029 0.152420
Si Si4 0.026655 0.261113 0.827195
Si Si5 0.184433 0.453096 0.054754
O O1 0.647140 0.546383 0.292694
O O2 0.445933 0.693102 0.293297
O O3 0.807825 0.686963 0.535291
O O4 0.251762 0.525553 0.954020
O O5 0.718886 0.371620 0.326473
O O6 0.000000 0.500000 0.500000
O O7 0.114112 0.362405 0.891227
O O8 0.024999 0.741814 0.961543
O O9 0.215716 0.746528 0.363229
O O10 0.336613 0.076490 0.833760
O O11 0.000000 0.500000 0.000000
#
# Coordination Sequence:
#
# PCOD9253196 Si02
#       5
#     4   4   4   4   4
#     4  12  28  53  85 128 175 228 294 361 432 526
#     4  12  24  55  89 125 172 233 294 356 440 530
#     4  12  28  50  85 126 170 227 287 364 440 518
#     4  12  24  49  80 117 174 227 280 351 442 513
#     4  12  24  49  90 119 167 231 287 358 431 514
#
# _framework density 27.938796
#
# number of rings (size 3 to 8) (size 9 to 14) (size 15 to 20)
#    0.000    0.000    8.000    0.000    2.800    0.000 
#    3.600    4.000    4.400    0.000    0.000    0.000 
#    0.000    0.000    0.000    0.000    0.000    0.000 
#
# Total GULP energy -112187.603693 kJ/mol
# GULP energy per Si atom -5609.380185 kJ/mol
# Density = 2.787521 g / cm^3
# Si number density = 27.938796 Si / 1000 Ang^3
#
#
#
# Elastic Constant Matrix: (Units=GPa)
#
#
# Indices 1 2 3 4 5 6 
#
# 1 216.7677 78.4409 103.6125 0.0000 -4.7290 0.0000
# 2 78.4409 219.0681 73.1250 0.0000 18.4560 0.0000
# 3 103.6125 73.1250 177.5965 0.0000 16.9750 0.0000
# 4 0.0000 0.0000 0.0000 63.5360 0.0000 0.6404
# 5 -4.7290 18.4560 16.9750 0.0000 48.1166 0.0000
# 6 0.0000 0.0000 0.0000 0.6404 0.0000 85.4834
#
#
#
# Elastic Compliance Matrix: (Units=1/GPa)
#
#
# Indices 1 2 3 4 5 6 
#
# 1 0.006975 -0.001476 -0.003706 0.000000 0.002559 0.000000
# 2 -0.001476 0.005685 -0.001301 0.000000 -0.001867 0.000000
# 3 -0.003706 -0.001301 0.008606 0.000000 -0.002901 0.000000
# 4 0.000000 0.000000 0.000000 0.015740 0.000000 -0.000118
# 5 0.002559 -0.001867 -0.002901 0.000000 0.022774 0.000000
# 6 0.000000 0.000000 0.000000 -0.000118 0.000000 0.011699
#
#
# Mechanical properties :
#
#
# Convention : Reuss Voigt Hill
#
# Bulk Modulus (GPa) = 120.49455 124.86546 122.68001
# Shear Modulus (GPa) = 57.33213 63.31079 60.32146
#
# Velocity S-wave (km/s) = 4.53488 4.76547 4.65161
# Velocity P-wave (km/s) = 8.40487 8.66425 8.53554
#
# Compressibility (1/GPa) = 0.00829913
#
# Stress axis : x y z
#
# Youngs Moduli (GPa) = 143.37872 175.90542 116.19875
#
# Poissons Ratio (x) = 0.25962 0.43063
# Poissons Ratio (y) = 0.21161 0.15121
# Poissons Ratio (z) = 0.53135 0.22890
#
# Static dielectric constant tensor:
#      x y z
#    x 2.499840 0.000000 -0.166440 
#    y 0.000000 2.042850 0.000000 
#    z -0.166440 0.000000 2.429800 
# 
# From -- ./inp_files/44512.got.cif
#   From: 2010.05.17/outbox.cif.g08.bks.cpg/sg14_23_cif.got.tgz:44512.got - 2010.06.03 17:49:19.
