data_PCOD9253277
_publ_section_title
;
Structure prediction by ZEFSAII (Michael W. Deem and Ramdas Pophale) SiO2 
 PCOD9253277
Probable space group: P 21/C
;
_chemical_formula_sum "Si O2"
_cell_formula_units_Z 16
_cell_length_a 11.409415
_cell_length_b 8.795923
_cell_length_c 9.239859
_cell_angle_alpha 90.000000
_cell_angle_beta 39.811332
_cell_angle_gamma 90.000000
_cell_volume 593.700783
_symmetry_space_group_name_H-M "P 21/C"
_symmetry_group_IT_number 14
_symmetry_cell_setting 'monoclinic'
loop_
_space_group_symop_operation_xyz
x,y,z
-x,1/2+y,1/2-z
-x,-y,-z
x,1/2-y,1/2+z
loop_
_atom_site_type_symbol
_atom_site_label
_atom_site_fract_x
_atom_site_fract_y
_atom_site_fract_z
Si Si1 0.239637 0.459597 0.994340
Si Si2 0.370464 0.571327 0.275658
Si Si3 0.074216 0.164957 0.070138
Si Si4 0.254743 0.850397 0.212603
O O1 0.428538 0.495896 0.894973
O O2 0.266947 0.501099 0.799605
O O3 0.189089 0.283407 0.056765
O O4 0.072393 0.563359 0.205070
O O5 0.219034 0.451208 0.364463
O O6 0.375999 0.723314 0.176356
O O7 0.305251 0.617836 0.499543
O O8 0.947172 0.273686 0.093105
#
# Coordination Sequence:
#
# PCOD9253277 Si02
#       4
#     4   4   4   4
#     4  12  26  50  77 113 154 200 253 313 381 449
#     4  12  28  51  80 113 155 199 256 315 380 451
#     4  12  26  48  79 111 156 199 249 316 377 453
#     4  12  25  53  75 115 151 204 253 314 378 452
#
# _framework density 26.949601000000001
#
# number of rings (size 3 to 8) (size 9 to 14) (size 15 to 20)
#    0.000    0.000    5.000    3.750    0.000    1.000 
#    4.500    0.000    0.000    0.000    0.000    0.000 
#    0.000    0.000    0.000    0.000    0.000    0.000 
#
# Total GULP energy -89881.001757 kJ/mol
# GULP energy per Si atom -5617.562610 kJ/mol
# Density = 2.688826 g / cm^3
# Si number density = 26.949601 Si / 1000 Ang^3
#
#
#
# Elastic Constant Matrix: (Units=GPa)
#
#
# Indices 1 2 3 4 5 6 
#
# 1 90.3930 12.6332 52.6125 0.0000 -4.0444 0.0000
# 2 12.6332 104.9974 56.8402 0.0000 -4.3901 0.0000
# 3 52.6125 56.8402 135.9964 0.0000 -1.3664 0.0000
# 4 0.0000 0.0000 0.0000 35.7294 0.0000 -4.2580
# 5 -4.0444 -4.3901 -1.3664 0.0000 40.5225 0.0000
# 6 0.0000 0.0000 0.0000 -4.2580 0.0000 68.2560
#
#
#
# Elastic Compliance Matrix: (Units=1/GPa)
#
#
# Indices 1 2 3 4 5 6 
#
# 1 0.014583 0.001747 -0.006357 0.000000 0.001430 0.000000
# 2 0.001747 0.012573 -0.005917 0.000000 0.001337 0.000000
# 3 -0.006357 -0.005917 0.012277 0.000000 -0.000862 0.000000
# 4 0.000000 0.000000 0.000000 0.028198 0.000000 0.001759
# 5 0.001430 0.001337 -0.000862 0.000000 0.024936 0.000000
# 6 0.000000 0.000000 0.000000 0.001759 0.000000 0.014760
#
#
# Mechanical properties :
#
#
# Convention : Reuss Voigt Hill
#
# Bulk Modulus (GPa) = 54.41496 63.95096 59.18296
# Shear Modulus (GPa) = 37.17222 42.85498 40.01360
#
# Velocity S-wave (km/s) = 3.71795 3.99204 3.85743
# Velocity P-wave (km/s) = 6.21821 6.71043 6.46900
#
# Compressibility (1/GPa) = 0.01837730
#
# Stress axis : x y z
#
# Youngs Moduli (GPa) = 68.57340 79.53492 81.45264
#
# Poissons Ratio (x) = -0.13893 0.51782
# Poissons Ratio (y) = -0.11978 0.48198
# Poissons Ratio (z) = 0.43594 0.47063
#
# Static dielectric constant tensor:
#      x y z
#    x 2.122700 0.000000 0.014500 
#    y 0.000000 2.058970 0.000000 
#    z 0.014500 0.000000 2.075660 
# 
# From -- ./inp_files/27678.got.cif
#   From: 2010.05.17/outbox.cif.g08.bks.cpg/sg14_14_cif.got.tgz:27678.got - 2010.06.03 17:49:19.
