data_PCOD9253691
_publ_section_title
;
Structure prediction by ZEFSAII (Michael W. Deem and Ramdas Pophale) SiO2 
 PCOD9253691
Probable space group: P 21/C
;
_chemical_formula_sum "Si O2"
_cell_formula_units_Z 32
_cell_length_a 9.000000
_cell_length_b 24.000000
_cell_length_c 12.000000
_cell_angle_alpha 90.000000
_cell_angle_beta 140.000000
_cell_angle_gamma 90.000000
_cell_volume 1666.105484
_symmetry_space_group_name_H-M "P 21/C"
_symmetry_group_IT_number 14
_symmetry_cell_setting 'monoclinic'
loop_
_space_group_symop_operation_xyz
x,y,z
-x,1/2+y,1/2-z
-x,-y,-z
x,1/2-y,1/2+z
loop_
_atom_site_type_symbol
_atom_site_label
_atom_site_fract_x
_atom_site_fract_y
_atom_site_fract_z
Si Si1 0.852887 0.354571 0.712287
Si Si2 0.740106 0.336737 0.388006
Si Si3 0.631187 0.896648 0.472402
Si Si4 0.222950 0.988253 0.549345
Si Si5 0.499379 0.550385 0.410420
Si Si6 0.401539 0.709654 0.246234
Si Si7 0.864751 0.852150 0.066479
Si Si8 0.269428 0.629219 0.962861
O O1 0.788312 0.343905 0.546647
O O2 0.708559 0.408654 0.670878
O O3 0.761825 0.307171 0.743843
O O4 0.126579 0.363823 0.881702
O O5 0.533360 0.375800 0.222898
O O6 0.654857 0.273402 0.315882
O O7 0.972272 0.352183 0.450429
O O8 0.708338 0.960399 0.491257
O O9 0.477231 0.884376 0.494703
O O10 0.433304 0.976575 0.754598
O O11 0.187899 0.930523 0.463619
O O12 0.000000 0.000000 0.500000
O O13 0.500000 0.500000 0.500000
O O14 0.721654 0.590949 0.516439
O O15 0.664467 0.694304 0.434529
O O16 0.347620 0.669018 0.109573
O O17 0.053777 0.843607 0.272762
#
# Coordination Sequence:
#
# PCOD9253691 Si02
#       8
#     4   4   4   4   4   4   4   4
#     4  11  24  44  67  99 133 174 229 282 334 418
#     4  11  27  44  68  99 138 181 231 285 353 402
#     4  11  25  43  68 102 139 174 230 277 350 413
#     4  12  21  42  68 100 139 178 227 280 339 421
#     4  11  22  42  70  99 139 180 227 274 349 408
#     4  11  25  46  69  98 133 182 233 282 344 412
#     4  10  24  46  66  99 140 173 229 285 339 409
#     4  11  23  44  69 101 136 180 222 287 347 407
#
# _framework density 19.206467
#
# number of rings (size 3 to 8) (size 9 to 14) (size 15 to 20)
#    0.000    1.000    3.750    2.625    5.250    3.000 
#    0.000    1.875    0.000    0.000    0.000    0.000 
#    0.000    0.000    0.000    0.000    0.000    0.000 
#
# Total GULP energy -178788.371449 kJ/mol
# GULP energy per Si atom -5587.136608 kJ/mol
# Density = 1.916275 g / cm^3
# Si number density = 19.206467 Si / 1000 Ang^3
#
#
#
# Elastic Constant Matrix: (Units=GPa)
#
#
# Indices 1 2 3 4 5 6 
#
# 1 122.1528 25.7670 52.4929 0.0000 6.7882 0.0000
# 2 25.7670 83.3219 14.2752 0.0000 6.1603 0.0000
# 3 52.4929 14.2752 112.4783 0.0000 4.1283 0.0000
# 4 0.0000 0.0000 0.0000 31.0075 0.0000 -5.1851
# 5 6.7882 6.1603 4.1283 0.0000 45.6880 0.0000
# 6 0.0000 0.0000 0.0000 -5.1851 0.0000 31.4291
#
#
#
# Elastic Compliance Matrix: (Units=1/GPa)
#
#
# Indices 1 2 3 4 5 6 
#
# 1 0.010764 -0.002465 -0.004680 0.000000 -0.000844 0.000000
# 2 -0.002465 0.012939 -0.000443 0.000000 -0.001338 0.000000
# 3 -0.004680 -0.000443 0.011140 0.000000 -0.000252 0.000000
# 4 0.000000 0.000000 0.000000 0.033165 0.000000 0.005471
# 5 -0.000844 -0.001338 -0.000252 0.000000 0.022216 0.000000
# 6 0.000000 0.000000 0.000000 0.005471 0.000000 0.032720
#
#
# Mechanical properties :
#
#
# Convention : Reuss Voigt Hill
#
# Bulk Modulus (GPa) = 50.84258 55.89146 53.36702
# Shear Modulus (GPa) = 34.56008 36.65277 35.60642
#
# Velocity S-wave (km/s) = 4.24653 4.37321 4.31034
# Velocity P-wave (km/s) = 7.11148 7.39348 7.25385
#
# Compressibility (1/GPa) = 0.01966855
#
# Stress axis : x y z
#
# Youngs Moduli (GPa) = 92.89912 77.28790 89.76580
#
# Poissons Ratio (x) = 0.19049 0.42009
# Poissons Ratio (y) = 0.22896 0.03974
# Poissons Ratio (z) = 0.43476 0.03422
#
# Static dielectric constant tensor:
#      x y z
#    x 1.654710 0.000000 -0.007660 
#    y 0.000000 1.678590 0.000000 
#    z -0.007660 0.000000 1.675070 
# 
# From -- ./inp_files/27035.got.cif
#   From: 2010.05.17/outbox.ucp.g08.bks.cvg/sg14_14_cif.got.tgz:27035.got - 2010.06.11 12:31:08.
