data_PCOD9253814
_publ_section_title
;
Structure prediction by ZEFSAII (Michael W. Deem and Ramdas Pophale) SiO2 
 PCOD9253814
Probable space group: C 2/C
;
_chemical_formula_sum "Si O2"
_cell_formula_units_Z 60
_cell_length_a 15.503925
_cell_length_b 15.321740
_cell_length_c 26.812464
_cell_angle_alpha 90.000000
_cell_angle_beta 154.140567
_cell_angle_gamma 90.000000
_cell_volume 2778.030787
_symmetry_space_group_name_H-M "C 2/C"
_symmetry_group_IT_number 15
_symmetry_cell_setting 'monoclinic'
loop_
_space_group_symop_operation_xyz
x,y,z
-x,y,1/2-z
-x,-y,-z
x,-y,1/2+z
1/2+x,1/2+y,z
1/2-x,1/2+y,1/2-z
1/2-x,1/2-y,-z
1/2+x,1/2-y,1/2+z
loop_
_atom_site_type_symbol
_atom_site_label
_atom_site_fract_x
_atom_site_fract_y
_atom_site_fract_z
Si Si1 0.156644 0.478372 0.249282
Si Si2 0.189034 0.852675 0.018509
Si Si3 0.228985 0.150672 0.150396
Si Si4 0.762608 0.653136 0.856606
Si Si5 0.000000 0.345986 0.250000
Si Si6 0.379509 0.092635 0.521184
Si Si7 0.622592 0.445269 0.492343
Si Si8 0.860398 0.924704 0.110358
O O1 0.126049 0.576449 0.253226
O O2 0.100733 0.405217 0.260311
O O3 0.390683 0.466185 0.365910
O O4 0.038278 0.460537 0.137584
O O5 0.269485 0.845661 0.004244
O O6 0.325246 0.800088 0.128456
O O7 0.960225 0.839248 0.911223
O O8 0.215702 0.957507 0.045276
O O9 0.307718 0.247804 0.187549
O O10 0.160049 0.112083 0.060840
O O11 0.762041 0.633612 0.914912
O O12 0.590955 0.592363 0.743227
O O13 0.978793 0.636479 0.945753
O O14 0.214635 0.023425 0.418279
O O15 0.679642 0.406009 0.468555
#
# Coordination Sequence:
#
# PCOD9253814 Si02
#       8
#     8   8   8   8   4   8   8   8
#     4  10  18  33  61  92 118 159 199 244 306 378
#     4   9  18  31  59  90 116 157 195 239 295 377
#     4  11  21  36  58  92 134 153 189 261 325 361
#     4  11  24  42  61  87 123 164 203 264 305 348
#     4  10  14  26  52  88 116 146 196 228 286 358
#     4  10  21  40  67  85 114 168 218 244 292 362
#     4  10  17  37  60  87 122 160 203 242 301 373
#     4  10  23  43  60  85 117 165 214 248 288 372
#
# _framework density 21.598032
#
# number of rings (size 3 to 8) (size 9 to 14) (size 15 to 20)
#    0.000    1.867    4.000    1.200    0.000    2.133 
#    2.400    0.000    0.000    1.600    0.000    0.000 
#    0.000    0.000    0.000    0.000    0.000    0.000 
#
# Total GULP energy -167384.526352 kJ/mol
# GULP energy per Si atom -5579.484212 kJ/mol
# Density = 2.154887 g / cm^3
# Si number density = 21.598032 Si / 1000 Ang^3
#
#
#
# Elastic Constant Matrix: (Units=GPa)
#
#
# Indices 1 2 3 4 5 6 
#
# 1 124.3814 14.9671 17.2300 -0.0007 13.9100 0.0004
# 2 14.9671 79.0918 16.8152 -0.0003 -2.2227 0.0000
# 3 17.2300 16.8152 61.0560 -0.0024 2.5774 0.0016
# 4 -0.0007 -0.0003 -0.0024 18.5531 0.0001 1.4513
# 5 13.9100 -2.2227 2.5774 0.0001 30.5633 -0.0001
# 6 0.0004 0.0000 0.0016 1.4513 -0.0001 11.0489
#
#
#
# Elastic Compliance Matrix: (Units=1/GPa)
#
#
# Indices 1 2 3 4 5 6 
#
# 1 0.008926 -0.001383 -0.001969 0.000000 -0.003997 0.000000
# 2 -0.001383 0.013695 -0.003462 0.000000 0.001917 0.000001
# 3 -0.001969 -0.003462 0.017924 0.000002 -0.000867 -0.000003
# 4 0.000000 0.000000 0.000002 0.054459 -0.000001 -0.007153
# 5 -0.003997 0.001917 -0.000867 -0.000001 0.034751 0.000001
# 6 0.000000 0.000001 -0.000003 -0.007153 0.000001 0.091446
#
#
# Mechanical properties :
#
#
# Convention : Reuss Voigt Hill
#
# Bulk Modulus (GPa) = 37.15212 40.28375 38.71794
# Shear Modulus (GPa) = 20.50842 26.40086 23.45464
#
# Velocity S-wave (km/s) = 3.08482 3.50004 3.29897
# Velocity P-wave (km/s) = 5.47057 5.91826 5.69881
#
# Compressibility (1/GPa) = 0.02691636
#
# Stress axis : x y z
#
# Youngs Moduli (GPa) = 112.03263 73.01816 55.79000
#
# Poissons Ratio (x) = 0.10097 0.10987
# Poissons Ratio (y) = 0.15491 0.19317
# Poissons Ratio (z) = 0.22063 0.25282
#
# Static dielectric constant tensor:
#      x y z
#    x 1.826950 0.000000 0.034290 
#    y 0.000000 1.793820 0.000000 
#    z 0.034290 0.000000 1.838660 
# 
# From -- ./inp_files/296709.got.cif
#   From: 2010.05.17/outbox.cif.g08.bks.cpg/sg15_149_cif.got.tgz:296709.got - 2010.06.03 18:47:42.
