data_PCOD9253564
_publ_section_title
;
Structure prediction by ZEFSAII (Michael W. Deem and Ramdas Pophale) SiO2 
 PCOD9253564
Probable space group: P 21/C
;
_chemical_formula_sum "Si O2"
_cell_formula_units_Z 28
_cell_length_a 15.000000
_cell_length_b 21.000000
_cell_length_c 9.000000
_cell_angle_alpha 90.000000
_cell_angle_beta 30.000000
_cell_angle_gamma 90.000000
_cell_volume 1417.500000
_symmetry_space_group_name_H-M "P 21/C"
_symmetry_group_IT_number 14
_symmetry_cell_setting 'monoclinic'
loop_
_space_group_symop_operation_xyz
x,y,z
-x,1/2+y,1/2-z
-x,-y,-z
x,1/2-y,1/2+z
loop_
_atom_site_type_symbol
_atom_site_label
_atom_site_fract_x
_atom_site_fract_y
_atom_site_fract_z
Si Si1 0.617480 0.906060 0.211875
Si Si2 0.077688 0.571235 0.861399
Si Si3 0.428062 0.515749 0.444323
Si Si4 0.108757 0.189989 0.207206
Si Si5 0.019711 0.178071 0.993272
Si Si6 0.221214 0.047855 0.730594
Si Si7 0.794005 0.410729 0.657521
O O1 0.750513 0.939833 0.135466
O O2 0.417990 0.912281 0.560169
O O3 0.624310 0.948430 0.054846
O O4 0.686613 0.834227 0.098885
O O5 0.266181 0.564319 0.672265
O O6 0.108780 0.583667 0.641221
O O7 0.000000 0.500000 0.000000
O O8 0.977593 0.631979 0.074077
O O9 0.500000 0.500000 0.500000
O O10 0.587476 0.545056 0.120858
O O11 0.085300 0.258330 0.317048
O O12 0.026973 0.190092 0.159104
O O13 0.130408 0.112488 0.804093
O O14 0.835577 0.153556 0.187986
O O15 0.159010 0.974028 0.813555
#
# Coordination Sequence:
#
# PCOD9253564 Si02
#       7
#     4   4   4   4   4   4   4
#     4  10  20  44  62  89 124 167 201 261 311 375
#     4  12  22  39  66  96 129 168 204 265 308 371
#     4  11  22  34  61  99 127 153 205 258 313 366
#     4  11  25  44  63  86 131 166 215 250 323 373
#     4  11  25  42  63  92 120 171 209 261 307 383
#     4  10  20  41  65  91 126 163 205 256 320 369
#     4  11  21  40  69  94 129 159 214 259 318 366
#
# _framework density 19.753086
#
# number of rings (size 3 to 8) (size 9 to 14) (size 15 to 20)
#    0.000    1.143    4.286    3.000    6.000    1.143 
#    2.571    1.429    0.000    0.000    0.000    0.000 
#    0.000    0.000    0.000    0.000    0.000    0.000 
#
# Total GULP energy -156044.158732 kJ/mol
# GULP energy per Si atom -5573.005669 kJ/mol
# Density = 1.970813 g / cm^3
# Si number density = 19.753086 Si / 1000 Ang^3
#
#
#
# Elastic Constant Matrix: (Units=GPa)
#
#
# Indices 1 2 3 4 5 6 
#
# 1 57.0689 20.8971 17.8514 0.0000 9.8168 0.0000
# 2 20.8971 145.4313 46.3046 0.0000 5.5649 0.0000
# 3 17.8514 46.3046 66.8187 0.0000 6.8329 0.0000
# 4 0.0000 0.0000 0.0000 31.3384 0.0000 6.1777
# 5 9.8168 5.5649 6.8329 0.0000 5.1599 0.0000
# 6 0.0000 0.0000 0.0000 6.1777 0.0000 29.3752
#
#
#
# Elastic Compliance Matrix: (Units=1/GPa)
#
#
# Indices 1 2 3 4 5 6 
#
# 1 0.026633 -0.001656 -0.001120 0.000000 -0.047400 0.000000
# 2 -0.001656 0.008938 -0.005885 0.000000 0.001305 0.000000
# 3 -0.001120 -0.005885 0.021370 0.000000 -0.019821 0.000000
# 4 0.000000 0.000000 0.000000 0.033290 0.000000 -0.007001
# 5 -0.047400 0.001305 -0.019821 0.000000 0.308822 0.000000
# 6 0.000000 0.000000 0.000000 -0.007001 0.000000 0.035515
#
#
# Mechanical properties :
#
#
# Convention : Reuss Voigt Hill
#
# Bulk Modulus (GPa) = 25.24082 48.82502 37.03292
# Shear Modulus (GPa) = 10.75043 25.45908 18.10476
#
# Velocity S-wave (km/s) = 2.33543 3.59397 3.03075
# Velocity P-wave (km/s) = 4.48087 6.48024 5.57098
#
# Compressibility (1/GPa) = 0.03961836
#
# Stress axis : x y z
#
# Youngs Moduli (GPa) = 37.54685 111.88363 46.79427
#
# Poissons Ratio (x) = 0.18533 0.05242
# Poissons Ratio (y) = 0.06220 0.27537
# Poissons Ratio (z) = 0.04206 0.65840
#
# Static dielectric constant tensor:
#      x y z
#    x 1.627090 0.000000 -0.033120 
#    y 0.000000 1.654240 0.000000 
#    z -0.033120 0.000000 1.776710 
# 
# From -- ./inp_files/16920.got.cif
#   From: 2010.05.17/outbox.ucp.g08.bks.cvg/sg14_9_cif.got.tgz:16920.got - 2010.06.11 12:31:08.
