data_PCOD9253004
_publ_section_title
;
Structure prediction by ZEFSAII (Michael W. Deem and Ramdas Pophale) SiO2 
 PCOD9253004
Probable space group: P 21/C
;
_chemical_formula_sum "Si O2"
_cell_formula_units_Z 12
_cell_length_a 8.126045
_cell_length_b 4.860478
_cell_length_c 10.892983
_cell_angle_alpha 90.000000
_cell_angle_beta 69.858524
_cell_angle_gamma 90.000000
_cell_volume 403.923421
_symmetry_space_group_name_H-M "P 21/C"
_symmetry_group_IT_number 14
_symmetry_cell_setting 'monoclinic'
loop_
_space_group_symop_operation_xyz
x,y,z
-x,1/2+y,1/2-z
-x,-y,-z
x,1/2-y,1/2+z
loop_
_atom_site_type_symbol
_atom_site_label
_atom_site_fract_x
_atom_site_fract_y
_atom_site_fract_z
Si Si1 0.100252 0.249591 0.536600
Si Si2 0.717004 0.996538 0.325912
Si Si3 0.636409 0.159185 0.092065
O O1 0.302732 0.342103 0.449419
O O2 0.000000 0.500000 0.500000
O O3 0.117203 0.189115 0.677045
O O4 0.000000 0.000000 0.500000
O O5 0.718418 0.190886 0.207053
O O6 0.697310 0.185155 0.452569
O O7 0.557656 0.782787 0.344792
#
# Coordination Sequence:
#
# PCOD9253004 Si02
#       3
#     4   4   4
#     4  12  27  52  77 116 166 220 274 341 420 508
#     4  11  28  49  84 124 169 220 288 351 424 501
#     4  11  28  50  83 123 164 221 283 354 415 503
#
# _framework density 29.708603
#
# number of rings (size 3 to 8) (size 9 to 14) (size 15 to 20)
#    0.000    0.667    3.333    1.000   14.000    2.667 
#    0.000    0.000    0.000    0.000    0.000    0.000 
#    0.000    0.000    0.000    0.000    0.000    0.000 
#
# Total GULP energy -67009.403636 kJ/mol
# GULP energy per Si atom -5584.116970 kJ/mol
# Density = 2.964098 g / cm^3
# Si number density = 29.708603 Si / 1000 Ang^3
#
#
#
# Elastic Constant Matrix: (Units=GPa)
#
#
# Indices 1 2 3 4 5 6 
#
# 1 167.0446 82.3008 95.7503 0.0000 62.2383 0.0000
# 2 82.3008 227.3104 88.5399 0.0000 24.7876 0.0000
# 3 95.7503 88.5399 250.2725 0.0000 64.6632 0.0000
# 4 0.0000 0.0000 0.0000 72.1490 0.0000 11.6853
# 5 62.2383 24.7876 64.6632 0.0000 79.4061 0.0000
# 6 0.0000 0.0000 0.0000 11.6853 0.0000 80.7081
#
#
#
# Elastic Compliance Matrix: (Units=1/GPa)
#
#
# Indices 1 2 3 4 5 6 
#
# 1 0.010355 -0.002499 -0.001497 0.000000 -0.006117 0.000000
# 2 -0.002499 0.005707 -0.001404 0.000000 0.001321 0.000000
# 3 -0.001497 -0.001404 0.005887 0.000000 -0.003183 0.000000
# 4 0.000000 0.000000 0.000000 0.014193 0.000000 -0.002055
# 5 -0.006117 0.001321 -0.003183 0.000000 0.019567 0.000000
# 6 0.000000 0.000000 0.000000 -0.002055 0.000000 0.012688
#
#
# Mechanical properties :
#
#
# Convention : Reuss Voigt Hill
#
# Bulk Modulus (GPa) = 89.69506 130.86772 110.28139
# Shear Modulus (GPa) = 60.30341 71.65509 65.97925
#
# Velocity S-wave (km/s) = 4.51025 4.91647 4.71773
# Velocity P-wave (km/s) = 7.57498 8.73928 8.17787
#
# Compressibility (1/GPa) = 0.01114889
#
# Stress axis : x y z
#
# Youngs Moduli (GPa) = 96.57351 175.22479 169.85268
#
# Poissons Ratio (x) = 0.43787 0.25429
# Poissons Ratio (y) = 0.24133 0.23849
# Poissons Ratio (z) = 0.14458 0.24604
#
# Static dielectric constant tensor:
#      x y z
#    x 2.562940 0.000000 -0.210730 
#    y 0.000000 2.501380 0.000000 
#    z -0.210730 0.000000 2.368470 
# 
# From -- ./inp_files/22422.got.cif
#   From: 2010.05.17/outbox.cif.g08.bks.cpg/sg14_12_cif.got.tgz:22422.got - 2010.06.03 17:49:19.
