data_PCOD9253892
_publ_section_title
;
Structure prediction by ZEFSAII (Michael W. Deem and Ramdas Pophale) SiO2 
 PCOD9253892
Probable space group: C 2/C
;
_chemical_formula_sum "Si O2"
_cell_formula_units_Z 48
_cell_length_a 7.334505
_cell_length_b 30.910380
_cell_length_c 9.968965
_cell_angle_alpha 90.000000
_cell_angle_beta 69.306150
_cell_angle_gamma 90.000000
_cell_volume 2114.270958
_symmetry_space_group_name_H-M "C 2/C"
_symmetry_group_IT_number 15
_symmetry_cell_setting 'monoclinic'
loop_
_space_group_symop_operation_xyz
x,y,z
-x,y,1/2-z
-x,-y,-z
x,-y,1/2+z
1/2+x,1/2+y,z
1/2-x,1/2+y,1/2-z
1/2-x,1/2-y,-z
1/2+x,1/2-y,1/2+z
loop_
_atom_site_type_symbol
_atom_site_label
_atom_site_fract_x
_atom_site_fract_y
_atom_site_fract_z
Si Si1 0.219162 0.858282 0.640810
Si Si2 0.760360 0.047862 0.317962
Si Si3 0.701219 0.521484 0.902367
Si Si4 0.729516 0.113642 0.681511
Si Si5 0.898936 0.732626 0.075395
Si Si6 0.807293 0.299004 0.200812
O O1 0.303252 0.902479 0.682039
O O2 0.224087 0.866045 0.477766
O O3 0.328550 0.814153 0.643788
O O4 0.000000 0.853096 0.750000
O O5 0.697276 0.032975 0.482992
O O6 0.000000 0.049893 0.250000
O O7 0.705670 0.013003 0.221535
O O8 0.666378 0.567442 0.838395
O O9 0.500000 0.500000 0.000000
O O10 0.500000 0.102797 0.750000
O O11 0.760894 0.151189 0.782914
O O12 0.857648 0.769296 0.193420
O O13 0.750000 0.750000 0.000000
O O14 0.105563 0.722736 0.954245
O O15 0.000000 0.300327 0.250000
#
# Coordination Sequence:
#
# PCOD9253892 Si02
#       6
#     8   8   8   8   8   8
#     4  10  16  24  39  59  85 119 150 181 229 279
#     4   8  16  28  45  65  88 120 155 194 231 273
#     4   9  17  31  47  66  90 125 160 200 235 283
#     4  10  17  29  43  62  93 123 156 192 239 279
#     4  10  15  23  36  56  87 117 152 177 224 280
#     4   9  16  24  35  58  86 122 151 180 228 283
#
# _framework density 22.702860999999999
#
# number of rings (size 3 to 8) (size 9 to 14) (size 15 to 20)
#    0.000    2.667    5.000    2.500    0.000    0.000 
#    0.000    3.333    0.000    0.000    0.000    0.000 
#    0.000    1.333    0.333    0.000    0.000    0.333 
#
# Total GULP energy -133870.359593 kJ/mol
# GULP energy per Si atom -5577.931650 kJ/mol
# Density = 2.265119 g / cm^3
# Si number density = 22.702861 Si / 1000 Ang^3
#
#
#
# Elastic Constant Matrix: (Units=GPa)
#
#
# Indices 1 2 3 4 5 6 
#
# 1 45.1871 22.3685 18.3859 0.0000 1.2881 0.0000
# 2 22.3685 217.4959 56.9798 0.0000 0.4139 0.0000
# 3 18.3859 56.9798 119.7732 0.0000 -20.1324 0.0000
# 4 0.0000 0.0000 0.0000 47.7929 0.0000 -14.5267
# 5 1.2881 0.4139 -20.1324 0.0000 14.0276 0.0000
# 6 0.0000 0.0000 0.0000 -14.5267 0.0000 0.9840
#
#
#
# Elastic Compliance Matrix: (Units=1/GPa)
#
#
# Indices 1 2 3 4 5 6 
#
# 1 0.024960 -0.001312 -0.004727 0.000000 -0.009037 0.000000
# 2 -0.001312 0.005593 -0.003252 0.000000 -0.004711 0.000000
# 3 -0.004727 -0.003252 0.014116 0.000000 0.020789 0.000000
# 4 0.000000 0.000000 0.000000 -0.006000 0.000000 -0.088579
# 5 -0.009037 -0.004711 0.020789 0.000000 0.102094 0.000000
# 6 0.000000 0.000000 0.000000 -0.088579 0.000000 -0.291426
#
#
# Mechanical properties :
#
#
# Convention : Reuss Voigt Hill
#
# Bulk Modulus (GPa) = 38.32853 64.21386 51.27119
# Shear Modulus (GPa) = -40.52286 31.54236 -4.49025
#
# Velocity S-wave (km/s) = -4.22942 3.73145 -1.40788
# Velocity P-wave (km/s) = 2.63274 6.84915 4.47099
#
# Compressibility (1/GPa) = 0.02609023
#
# Stress axis : x y z
#
# Youngs Moduli (GPa) = 40.06376 178.77913 70.84177
#
# Poissons Ratio (x) = 0.23448 0.33484
# Poissons Ratio (y) = 0.05255 0.23035
# Poissons Ratio (z) = 0.18936 0.58131
#
# Static dielectric constant tensor:
#      x y z
#    x 1.851920 0.000000 0.051990 
#    y 0.000000 1.856090 0.000000 
#    z 0.051990 0.000000 1.881480 
# 
# From -- ./inp_files/91677.got.cif
#   From: 2010.05.17/outbox.cif.g08.bks.cpg/sg15_46_cif.got.tgz:91677.got - 2010.06.03 18:47:42.
