data_PCOD9253919
_publ_section_title
;
Structure prediction by ZEFSAII (Michael W. Deem and Ramdas Pophale) SiO2 
 PCOD9253919
Probable space group: C 2/C
;
_chemical_formula_sum "Si O2"
_cell_formula_units_Z 52
_cell_length_a 18.415009
_cell_length_b 20.227100
_cell_length_c 15.887755
_cell_angle_alpha 90.000000
_cell_angle_beta 27.531640
_cell_angle_gamma 90.000000
_cell_volume 2735.483402
_symmetry_space_group_name_H-M "C 2/C"
_symmetry_group_IT_number 15
_symmetry_cell_setting 'monoclinic'
loop_
_space_group_symop_operation_xyz
x,y,z
-x,y,1/2-z
-x,-y,-z
x,-y,1/2+z
1/2+x,1/2+y,z
1/2-x,1/2+y,1/2-z
1/2-x,1/2-y,-z
1/2+x,1/2-y,1/2+z
loop_
_atom_site_type_symbol
_atom_site_label
_atom_site_fract_x
_atom_site_fract_y
_atom_site_fract_z
Si Si1 0.120618 0.202097 0.952881
Si Si2 0.000000 0.246048 0.250000
Si Si3 0.164855 0.365002 0.162830
Si Si4 0.194205 0.337646 0.642055
Si Si5 0.172788 0.567509 0.491023
Si Si6 0.000000 0.770933 0.250000
Si Si7 0.296260 0.338477 0.726641
Si Si8 0.500000 0.948992 0.750000
O O1 0.253706 0.147275 0.831738
O O2 0.199414 0.273430 0.857349
O O3 0.046103 0.203980 0.122652
O O4 0.979407 0.183072 0.037087
O O5 0.132165 0.295171 0.150811
O O6 0.992129 0.394223 0.353450
O O7 0.241783 0.409551 0.010895
O O8 0.356666 0.314435 0.431821
O O9 0.229556 0.350715 0.702878
O O10 0.071921 0.277733 0.747857
O O11 0.117803 0.402140 0.679708
O O12 0.275615 0.598334 0.310028
O O13 0.107303 0.494039 0.577012
#
# Coordination Sequence:
#
# PCOD9253919 Si02
#       8
#     8   4   8   8   8   4   8   4
#     4  12  19  28  46  80 123 149 177 222 275 328
#     4  10  15  26  43  63 110 159 176 200 250 342
#     4   9  16  30  46  70 108 158 184 208 257 334
#     4  10  21  39  63  87 106 141 178 231 278 334
#     4   9  19  36  54  76 108 148 193 223 258 325
#     4   9  20  42  65  85 110 135 180 218 286 351
#     4  12  21  30  52  86 118 142 182 231 281 312
#     4   9  21  42  64  74 104 152 194 220 270 325
#
# _framework density 19.009437999999999
#
# number of rings (size 3 to 8) (size 9 to 14) (size 15 to 20)
#    0.000    2.154    4.615    2.308    0.000    0.615 
#    0.000    4.615    0.000    4.615    0.000    0.000 
#    0.000    0.000    0.000    0.000    0.000    0.000 
#
# Total GULP energy -144755.411673 kJ/mol
# GULP energy per Si atom -5567.515834 kJ/mol
# Density = 1.896617 g / cm^3
# Si number density = 19.009438 Si / 1000 Ang^3
#
#
#
# Elastic Constant Matrix: (Units=GPa)
#
#
# Indices 1 2 3 4 5 6 
#
# 1 120.4701 42.1866 25.9984 0.0022 -16.0909 -0.0009
# 2 42.1866 92.1908 34.7996 0.0056 -10.2334 -0.0011
# 3 25.9984 34.7996 30.3602 0.0065 -10.9723 -0.0008
# 4 0.0022 0.0056 0.0065 15.8239 0.0014 -5.0413
# 5 -16.0909 -10.2334 -10.9723 0.0014 23.8319 0.0006
# 6 -0.0009 -0.0011 -0.0008 -5.0413 0.0006 16.0628
#
#
#
# Elastic Compliance Matrix: (Units=1/GPa)
#
#
# Indices 1 2 3 4 5 6 
#
# 1 0.010798 -0.002735 -0.004680 0.000001 0.003961 0.000000
# 2 -0.002735 0.019914 -0.021666 0.000003 -0.003270 0.000001
# 3 -0.004680 -0.021666 0.068708 -0.000024 0.019170 -0.000007
# 4 0.000001 0.000003 -0.000024 0.070216 -0.000013 0.022037
# 5 0.003961 -0.003270 0.019170 -0.000013 0.052057 -0.000005
# 6 0.000000 0.000001 -0.000007 0.022037 -0.000005 0.069172
#
#
# Mechanical properties :
#
#
# Convention : Reuss Voigt Hill
#
# Bulk Modulus (GPa) = 24.23789 49.88782 37.06285
# Shear Modulus (GPa) = 13.78254 20.47948 17.13101
#
# Velocity S-wave (km/s) = 2.69557 3.28583 3.00523
# Velocity P-wave (km/s) = 4.73986 6.37936 5.61972
#
# Compressibility (1/GPa) = 0.04125772
#
# Stress axis : x y z
#
# Youngs Moduli (GPa) = 92.61364 50.21672 14.55444
#
# Poissons Ratio (x) = 0.13732 0.06812
# Poissons Ratio (y) = 0.25326 0.31533
# Poissons Ratio (z) = 0.43344 1.08798
#
# Static dielectric constant tensor:
#      x y z
#    x 1.862260 0.000000 -0.172750 
#    y 0.000000 1.690890 0.000010 
#    z -0.172750 0.000010 1.868370 
# 
# From -- ./inp_files/163630.got.cif
#   From: 2010.05.17/outbox.cif.g08.bks.cpg/sg15_82_cif.got.tgz:163630.got - 2010.06.03 18:47:42.
