data_PCOD9253346
_publ_section_title
;
Structure prediction by ZEFSAII (Michael W. Deem and Ramdas Pophale) SiO2 
 PCOD9253346
Probable space group: P 21/C
;
_chemical_formula_sum "Si O2"
_cell_formula_units_Z 20
_cell_length_a 5.110125
_cell_length_b 8.740350
_cell_length_c 20.150718
_cell_angle_alpha 90.000000
_cell_angle_beta 120.804971
_cell_angle_gamma 90.000000
_cell_volume 773.038809
_symmetry_space_group_name_H-M "P 21/C"
_symmetry_group_IT_number 14
_symmetry_cell_setting 'monoclinic'
loop_
_space_group_symop_operation_xyz
x,y,z
-x,1/2+y,1/2-z
-x,-y,-z
x,1/2-y,1/2+z
loop_
_atom_site_type_symbol
_atom_site_label
_atom_site_fract_x
_atom_site_fract_y
_atom_site_fract_z
Si Si1 0.895405 0.327150 0.875455
Si Si2 0.290358 0.936459 0.079467
Si Si3 0.739243 0.976862 0.700492
Si Si4 0.197975 0.806686 0.839316
Si Si5 0.499867 0.183355 0.498637
O O1 0.772589 0.154292 0.860123
O O2 0.613801 0.436867 0.852989
O O3 0.073720 0.399764 0.836735
O O4 0.138691 0.303546 0.966833
O O5 0.453390 0.806168 0.054649
O O6 0.527666 0.071164 0.126615
O O7 0.000000 0.000000 0.000000
O O8 0.775735 0.158544 0.704028
O O9 0.887577 0.891520 0.782031
O O10 0.241832 0.734596 0.917112
O O11 0.500000 0.000000 0.500000
#
# Coordination Sequence:
#
# PCOD9253346 Si02
#       5
#     4   4   4   4   4
#     4  12  26  54  76 118 160 210 269 325 408 473
#     4  12  27  45  83 119 157 204 272 333 397 470
#     4  12  30  50  80 114 164 213 261 333 405 488
#     4  12  28  52  79 121 159 215 267 334 403 484
#     4  12  26  51  83 117 159 211 270 334 395 478
#
# _framework density 25.871922999999999
#
# number of rings (size 3 to 8) (size 9 to 14) (size 15 to 20)
#    0.000    0.000    6.000    1.800    2.800    6.400 
#    0.000    0.000    0.000    0.000    0.000    0.000 
#    0.000    0.000    0.000    0.000    0.000    0.000 
#
# Total GULP energy -111730.149804 kJ/mol
# GULP energy per Si atom -5586.507490 kJ/mol
# Density = 2.581304 g / cm^3
# Si number density = 25.871923 Si / 1000 Ang^3
#
#
#
# Elastic Constant Matrix: (Units=GPa)
#
#
# Indices 1 2 3 4 5 6 
#
# 1 110.4778 62.4589 25.4109 0.0000 10.2649 0.0000
# 2 62.4589 232.4570 61.7454 0.0000 4.8192 0.0000
# 3 25.4109 61.7454 109.3859 0.0000 5.5975 0.0000
# 4 0.0000 0.0000 0.0000 63.6182 0.0000 5.1551
# 5 10.2649 4.8192 5.5975 0.0000 33.9329 0.0000
# 6 0.0000 0.0000 0.0000 5.1551 0.0000 36.6187
#
#
#
# Elastic Compliance Matrix: (Units=1/GPa)
#
#
# Indices 1 2 3 4 5 6 
#
# 1 0.011028 -0.002662 -0.000916 0.000000 -0.002807 0.000000
# 2 -0.002662 0.005705 -0.002624 0.000000 0.000428 0.000000
# 3 -0.000916 -0.002624 0.010895 0.000000 -0.001147 0.000000
# 4 0.000000 0.000000 0.000000 0.015900 0.000000 -0.002238
# 5 -0.002807 0.000428 -0.001147 0.000000 0.030448 0.000000
# 6 0.000000 0.000000 0.000000 -0.002238 0.000000 0.027624
#
#
# Mechanical properties :
#
#
# Convention : Reuss Voigt Hill
#
# Bulk Modulus (GPa) = 65.68246 83.50568 74.59407
# Shear Modulus (GPa) = 41.98983 47.01432 44.50207
#
# Velocity S-wave (km/s) = 4.03300 4.26748 4.15190
# Velocity P-wave (km/s) = 6.86509 7.52519 7.20271
#
# Compressibility (1/GPa) = 0.01522476
#
# Stress axis : x y z
#
# Youngs Moduli (GPa) = 90.68004 175.28067 91.78886
#
# Poissons Ratio (x) = 0.46653 0.08406
# Poissons Ratio (y) = 0.24136 0.24085
# Poissons Ratio (z) = 0.08304 0.45993
#
# Static dielectric constant tensor:
#      x y z
#    x 2.150190 0.000000 -0.073730 
#    y 0.000000 2.088030 0.000000 
#    z -0.073730 0.000000 2.207190 
# 
# From -- ./inp_files/71109.got.cif
#   From: 2010.05.17/outbox.cif.g08.bks.cpg/sg14_36_cif.got.tgz:71109.got - 2010.06.03 17:49:19.
