data_PCOD9253574
_publ_section_title
;
Structure prediction by ZEFSAII (Michael W. Deem and Ramdas Pophale) SiO2 
 PCOD9253574
Probable space group: P 21/C
;
_chemical_formula_sum "Si O2"
_cell_formula_units_Z 32
_cell_length_a 15.000000
_cell_length_b 12.000000
_cell_length_c 9.000000
_cell_angle_alpha 90.000000
_cell_angle_beta 110.000000
_cell_angle_gamma 90.000000
_cell_volume 1522.302046
_symmetry_space_group_name_H-M "P 21/C"
_symmetry_group_IT_number 14
_symmetry_cell_setting 'monoclinic'
loop_
_space_group_symop_operation_xyz
x,y,z
-x,1/2+y,1/2-z
-x,-y,-z
x,1/2-y,1/2+z
loop_
_atom_site_type_symbol
_atom_site_label
_atom_site_fract_x
_atom_site_fract_y
_atom_site_fract_z
Si Si1 0.426518 0.315050 0.466056
Si Si2 0.324253 0.663381 0.696565
Si Si3 0.975529 0.883790 0.172381
Si Si4 0.100845 0.187084 0.565536
Si Si5 0.596936 0.344409 0.955558
Si Si6 0.497374 0.008587 0.780808
Si Si7 0.839922 0.480983 0.379004
Si Si8 0.767041 0.668901 0.138000
O O1 0.507396 0.226768 0.465526
O O2 0.464472 0.392358 0.623745
O O3 0.428761 0.411851 0.340022
O O4 0.329802 0.243241 0.435227
O O5 0.355768 0.783032 0.656432
O O6 0.409469 0.581016 0.696033
O O7 0.223403 0.617485 0.588897
O O8 0.325431 0.662138 0.873469
O O9 0.959678 0.880668 0.342841
O O10 0.075083 0.938899 0.179378
O O11 0.965637 0.765018 0.078046
O O12 0.891038 0.952922 0.042437
O O13 0.178589 0.143607 0.487523
O O14 0.163756 0.256919 0.719114
O O15 0.561672 0.466573 0.893181
O O16 0.767250 0.558107 0.241088
#
# Coordination Sequence:
#
# PCOD9253574 Si02
#       8
#     4   4   4   4   4   4   4   4
#     4  10  22  37  61  90 124 166 206 264 311 359
#     4  11  24  38  61  86 120 161 212 249 304 373
#     4   9  20  41  63  87 129 155 205 257 325 376
#     4   9  20  36  60  92 117 161 204 257 313 371
#     4  11  22  42  57  87 126 165 206 253 307 376
#     4  10  22  39  61  88 124 167 207 255 319 361
#     4  10  22  40  61  92 123 166 201 259 314 378
#     4  10  21  35  60  93 123 155 214 256 303 364
#
# _framework density 21.020796000000001
#
# number of rings (size 3 to 8) (size 9 to 14) (size 15 to 20)
#    0.000    2.000    1.250    1.125    7.000    2.500 
#    0.000    1.250    0.000    0.000    0.000    0.000 
#    0.000    0.000    0.000    0.000    0.000    0.000 
#
# Total GULP energy -178390.158835 kJ/mol
# GULP energy per Si atom -5574.692464 kJ/mol
# Density = 2.097295 g / cm^3
# Si number density = 21.020796 Si / 1000 Ang^3
#
#
#
# Elastic Constant Matrix: (Units=GPa)
#
#
# Indices 1 2 3 4 5 6 
#
# 1 71.0067 23.5833 15.6096 0.0000 -3.5486 0.0000
# 2 23.5833 50.1518 8.3107 0.0000 3.6995 0.0000
# 3 15.6096 8.3107 72.2144 0.0000 -14.6899 0.0000
# 4 0.0000 0.0000 0.0000 24.6827 0.0000 -6.1213
# 5 -3.5486 3.6995 -14.6899 0.0000 26.4843 0.0000
# 6 0.0000 0.0000 0.0000 -6.1213 0.0000 30.6374
#
#
#
# Elastic Compliance Matrix: (Units=1/GPa)
#
#
# Indices 1 2 3 4 5 6 
#
# 1 0.017346 -0.007911 -0.002414 0.000000 0.002090 0.000000
# 2 -0.007911 0.024459 -0.002272 0.000000 -0.005737 0.000000
# 3 -0.002414 -0.002272 0.016490 0.000000 0.009140 0.000000
# 4 0.000000 0.000000 0.000000 0.042626 0.000000 0.008517
# 5 0.002090 -0.005737 0.009140 0.000000 0.043909 0.000000
# 6 0.000000 0.000000 0.000000 0.008517 0.000000 0.034341
#
#
# Mechanical properties :
#
#
# Convention : Reuss Voigt Hill
#
# Bulk Modulus (GPa) = 30.20949 32.04223 31.12586
# Shear Modulus (GPa) = 23.21274 26.08550 24.64912
#
# Velocity S-wave (km/s) = 3.32667 3.52652 3.42805
# Velocity P-wave (km/s) = 5.39982 5.64429 5.52341
#
# Compressibility (1/GPa) = 0.03310218
#
# Stress axis : x y z
#
# Youngs Moduli (GPa) = 57.65131 40.88463 60.64207
#
# Poissons Ratio (x) = 0.32343 0.14638
# Poissons Ratio (y) = 0.45607 0.13777
# Poissons Ratio (z) = 0.13916 0.09288
#
# Static dielectric constant tensor:
#      x y z
#    x 1.748450 0.000000 -0.028850 
#    y 0.000000 1.822380 0.000000 
#    z -0.028850 0.000000 1.805340 
# 
# From -- ./inp_files/15853.got.cif
#   From: 2010.05.17/outbox.ucp.g08.bks.cvg/sg14_8_cif.got.tgz:15853.got - 2010.06.11 12:31:08.
