data_PCOD9253674
_publ_section_title
;
Structure prediction by ZEFSAII (Michael W. Deem and Ramdas Pophale) SiO2 
 PCOD9253674
Probable space group: P 21/C
;
_chemical_formula_sum "Si O2"
_cell_formula_units_Z 24
_cell_length_a 9.000000
_cell_length_b 15.000000
_cell_length_c 9.000000
_cell_angle_alpha 90.000000
_cell_angle_beta 80.000000
_cell_angle_gamma 90.000000
_cell_volume 1196.541420
_symmetry_space_group_name_H-M "P 21/C"
_symmetry_group_IT_number 14
_symmetry_cell_setting 'monoclinic'
loop_
_space_group_symop_operation_xyz
x,y,z
-x,1/2+y,1/2-z
-x,-y,-z
x,1/2-y,1/2+z
loop_
_atom_site_type_symbol
_atom_site_label
_atom_site_fract_x
_atom_site_fract_y
_atom_site_fract_z
Si Si1 0.164919 0.474693 0.909023
Si Si2 0.168353 0.475287 0.410872
Si Si3 0.350535 0.653325 0.943604
Si Si4 0.713435 0.854641 0.365060
Si Si5 0.133440 0.338707 0.652703
Si Si6 0.228563 0.831931 0.805239
O O1 0.265054 0.565049 0.894320
O O2 0.137266 0.423482 0.761375
O O3 0.248771 0.394833 0.981179
O O4 0.000000 0.500000 0.000000
O O5 0.197118 0.429613 0.246914
O O6 0.212020 0.387840 0.499732
O O7 0.249195 0.572358 0.386735
O O8 0.000000 0.500000 0.500000
O O9 0.531096 0.644934 0.884352
O O10 0.296253 0.745417 0.875601
O O11 0.300743 0.658873 0.127108
O O12 0.782104 0.755097 0.329428
O O13 0.954038 0.317825 0.668521
#
# Coordination Sequence:
#
# PCOD9253674 Si02
#       6
#     4   4   4   4   4   4
#     4  12  23  47  72 102 134 186 234 280 351 418
#     4  10  23  45  67 100 136 179 232 286 336 411
#     4  12  28  44  71 103 144 186 228 293 353 414
#     4  12  26  45  70 102 146 178 233 289 354 409
#     4  11  25  42  75 103 134 185 233 290 338 420
#     4  11  26  46  69 101 140 184 237 284 346 416
#
# _framework density 20.05781
#
# number of rings (size 3 to 8) (size 9 to 14) (size 15 to 20)
#    0.000    0.667    3.333    3.500   11.667    0.000 
#    0.000    1.667    0.000    0.000    0.000    0.000 
#    0.000    0.000    0.000    0.000    0.000    0.000 
#
# Total GULP energy -133752.924710 kJ/mol
# GULP energy per Si atom -5573.038530 kJ/mol
# Density = 2.001216 g / cm^3
# Si number density = 20.057810 Si / 1000 Ang^3
#
#
#
# Elastic Constant Matrix: (Units=GPa)
#
#
# Indices 1 2 3 4 5 6 
#
# 1 120.1112 47.4559 17.0312 0.0000 -12.7296 0.0000
# 2 47.4559 155.4959 18.5888 0.0000 -11.5006 0.0000
# 3 17.0312 18.5888 49.8290 0.0000 -4.5928 0.0000
# 4 0.0000 0.0000 0.0000 52.8790 0.0000 7.8013
# 5 -12.7296 -11.5006 -4.5928 0.0000 20.3694 0.0000
# 6 0.0000 0.0000 0.0000 7.8013 0.0000 37.2246
#
#
#
# Elastic Compliance Matrix: (Units=1/GPa)
#
#
# Indices 1 2 3 4 5 6 
#
# 1 0.010079 -0.002498 -0.002106 0.000000 0.004414 0.000000
# 2 -0.002498 0.007575 -0.001758 0.000000 0.002319 0.000000
# 3 -0.002106 -0.001758 0.021682 0.000000 0.002580 0.000000
# 4 0.000000 0.000000 0.000000 0.019514 0.000000 -0.004090
# 5 0.004414 0.002319 0.002580 0.000000 0.053743 0.000000
# 6 0.000000 0.000000 0.000000 -0.004090 0.000000 0.027721
#
#
# Mechanical properties :
#
#
# Convention : Reuss Voigt Hill
#
# Bulk Modulus (GPa) = 37.57790 54.62089 46.09939
# Shear Modulus (GPa) = 30.88137 38.25194 34.56665
#
# Velocity S-wave (km/s) = 3.92805 4.37176 4.15583
# Velocity P-wave (km/s) = 6.27282 7.26456 6.78683
#
# Compressibility (1/GPa) = 0.02661139
#
# Stress axis : x y z
#
# Youngs Moduli (GPa) = 99.21723 132.01170 46.12051
#
# Poissons Ratio (x) = 0.32973 0.09714
# Poissons Ratio (y) = 0.24782 0.08110
# Poissons Ratio (z) = 0.20898 0.23213
#
# Static dielectric constant tensor:
#      x y z
#    x 1.718820 0.000000 0.115210 
#    y 0.000000 1.659360 0.000000 
#    z 0.115210 0.000000 1.403680 
# 
# From -- ./inp_files/8413.got.cif
#   From: 2010.05.17/outbox.ucp.g08.bks.cvg/sg14_5_cif.got.tgz:8413.got - 2010.06.11 12:31:08.
