data_PCOD9253643
_publ_section_title
;
Structure prediction by ZEFSAII (Michael W. Deem and Ramdas Pophale) SiO2 
 PCOD9253643
Probable space group: P 21/C
;
_chemical_formula_sum "Si O2"
_cell_formula_units_Z 24
_cell_length_a 15.000000
_cell_length_b 9.000000
_cell_length_c 15.000000
_cell_angle_alpha 90.000000
_cell_angle_beta 140.000000
_cell_angle_gamma 90.000000
_cell_volume 1301.644910
_symmetry_space_group_name_H-M "P 21/C"
_symmetry_group_IT_number 14
_symmetry_cell_setting 'monoclinic'
loop_
_space_group_symop_operation_xyz
x,y,z
-x,1/2+y,1/2-z
-x,-y,-z
x,1/2-y,1/2+z
loop_
_atom_site_type_symbol
_atom_site_label
_atom_site_fract_x
_atom_site_fract_y
_atom_site_fract_z
Si Si1 0.568215 0.834805 0.541187
Si Si2 0.901184 0.733306 0.273389
Si Si3 0.886922 0.415421 0.706028
Si Si4 0.431677 0.651669 0.598556
Si Si5 0.592527 0.339300 0.738916
Si Si6 0.918299 0.344002 0.929747
O O1 0.738995 0.823065 0.661172
O O2 0.516240 0.738656 0.586282
O O3 0.492595 0.757279 0.398978
O O4 0.500000 0.000000 0.500000
O O5 0.996049 0.638193 0.275979
O O6 0.988936 0.738299 0.434356
O O7 0.896755 0.906556 0.235347
O O8 0.727650 0.384726 0.552936
O O9 0.911214 0.323298 0.817085
O O10 0.517812 0.500378 0.683713
O O11 0.421332 0.755587 0.677548
O O12 0.757225 0.351111 0.839612
O O13 0.000000 0.500000 0.000000
#
# Coordination Sequence:
#
# PCOD9253643 Si02
#       6
#     4   4   4   4   4   4
#     4  12  27  45  70 103 140 181 232 287 342 411
#     4  11  25  44  69 104 135 178 234 280 348 409
#     4  11  23  44  71  97 139 181 224 289 348 406
#     4  12  24  45  70 101 139 183 229 292 344 415
#     4  12  24  44  71 101 134 179 232 279 351 409
#     4  10  22  41  69  97 128 178 222 275 343 408
#
# _framework density 18.438207999999999
#
# number of rings (size 3 to 8) (size 9 to 14) (size 15 to 20)
#    0.000    0.667    5.000    3.500    2.333    4.000 
#    3.000    1.667    0.000    0.000    0.000    0.000 
#    0.000    0.000    0.000    0.000    0.000    0.000 
#
# Total GULP energy -134007.514119 kJ/mol
# GULP energy per Si atom -5583.646422 kJ/mol
# Density = 1.839624 g / cm^3
# Si number density = 18.438208 Si / 1000 Ang^3
#
#
#
# Elastic Constant Matrix: (Units=GPa)
#
#
# Indices 1 2 3 4 5 6 
#
# 1 163.3646 51.3004 80.9570 0.0000 19.9501 0.0000
# 2 51.3004 121.0603 49.7424 0.0000 3.3022 0.0000
# 3 80.9570 49.7424 170.7384 0.0000 17.7293 0.0000
# 4 0.0000 0.0000 0.0000 36.0995 0.0000 1.0226
# 5 19.9501 3.3022 17.7293 0.0000 56.9855 0.0000
# 6 0.0000 0.0000 0.0000 1.0226 0.0000 45.4963
#
#
#
# Elastic Compliance Matrix: (Units=1/GPa)
#
#
# Indices 1 2 3 4 5 6 
#
# 1 0.008685 -0.002292 -0.003253 0.000000 -0.001895 0.000000
# 2 -0.002292 0.009994 -0.001910 0.000000 0.000817 0.000000
# 3 -0.003253 -0.001910 0.008087 0.000000 -0.001267 0.000000
# 4 0.000000 0.000000 0.000000 0.027719 0.000000 -0.000623
# 5 -0.001895 0.000817 -0.001267 0.000000 0.018559 0.000000
# 6 0.000000 0.000000 0.000000 -0.000623 0.000000 0.021994
#
#
# Mechanical properties :
#
#
# Convention : Reuss Voigt Hill
#
# Bulk Modulus (GPa) = 84.34473 91.01811 87.68142
# Shear Modulus (GPa) = 43.89842 45.92714 44.91278
#
# Velocity S-wave (km/s) = 4.88468 4.99627 4.94079
# Velocity P-wave (km/s) = 8.81234 9.09696 8.95578
#
# Compressibility (1/GPa) = 0.01185610
#
# Stress axis : x y z
#
# Youngs Moduli (GPa) = 115.14546 100.06087 123.64802
#
# Poissons Ratio (x) = 0.22931 0.40228
# Poissons Ratio (y) = 0.26388 0.23615
# Poissons Ratio (z) = 0.37462 0.19110
#
# Static dielectric constant tensor:
#      x y z
#    x 1.631460 0.000000 -0.029140 
#    y 0.000000 1.640920 0.000000 
#    z -0.029140 0.000000 1.650660 
# 
# From -- ./inp_files/46613.got.cif
#   From: 2010.05.17/outbox.ucp.g08.bks.cvg/sg14_24_cif.got.tgz:46613.got - 2010.06.11 12:31:08.
