data_PCOD9253821
_publ_section_title
;
Structure prediction by ZEFSAII (Michael W. Deem and Ramdas Pophale) SiO2 
 PCOD9253821
Probable space group: C 2/C
;
_chemical_formula_sum "Si O2"
_cell_formula_units_Z 48
_cell_length_a 23.942635
_cell_length_b 7.069428
_cell_length_c 12.695379
_cell_angle_alpha 90.000000
_cell_angle_beta 64.616630
_cell_angle_gamma 90.000000
_cell_volume 1941.380671
_symmetry_space_group_name_H-M "C 2/C"
_symmetry_group_IT_number 15
_symmetry_cell_setting 'monoclinic'
loop_
_space_group_symop_operation_xyz
x,y,z
-x,y,1/2-z
-x,-y,-z
x,-y,1/2+z
1/2+x,1/2+y,z
1/2-x,1/2+y,1/2-z
1/2-x,1/2-y,-z
1/2+x,1/2-y,1/2+z
loop_
_atom_site_type_symbol
_atom_site_label
_atom_site_fract_x
_atom_site_fract_y
_atom_site_fract_z
Si Si1 0.487772 0.609351 0.645344
Si Si2 0.178509 0.215062 0.568967
Si Si3 0.891686 0.776372 0.571501
Si Si4 0.861720 0.177963 0.666498
Si Si5 0.060720 0.315525 0.261230
Si Si6 0.177622 0.226224 0.029445
O O1 0.500000 0.697208 0.750000
O O2 0.550375 0.619215 0.530451
O O3 0.435047 0.705649 0.619091
O O4 0.461297 0.401638 0.695157
O O5 0.250000 0.250000 0.500000
O O6 0.144780 0.311590 0.497227
O O7 0.162185 0.252946 0.702811
O O8 0.163967 0.994734 0.562136
O O9 0.916664 0.632462 0.639255
O O10 0.852907 0.947177 0.659054
O O11 0.831902 0.262397 0.586630
O O12 0.122455 0.324316 0.140255
O O13 0.000000 0.393890 0.250000
O O14 0.250000 0.250000 0.000000
#
# Coordination Sequence:
#
# PCOD9253821 Si02
#       6
#     8   8   8   8   8   8
#     4  10  14  27  51  79 110 128 169 226 281 309
#     4  11  22  35  52  78 108 145 180 215 263 322
#     4  10  18  30  52  79 109 134 173 227 277 313
#     4  10  18  32  51  74 113 133 174 218 273 313
#     4  10  17  31  51  78 109 136 174 222 274 314
#     4  11  23  36  53  81 110 146 180 219 270 326
#
# _framework density 24.724668999999999
#
# number of rings (size 3 to 8) (size 9 to 14) (size 15 to 20)
#    0.000    1.667    5.000    6.000    2.333    0.000 
#    0.000    0.000    0.000    0.000    4.333    2.333 
#    0.000    0.000    0.000    0.000    0.000    0.000 
#
# Total GULP energy -134041.632650 kJ/mol
# GULP energy per Si atom -5585.068027 kJ/mol
# Density = 2.466839 g / cm^3
# Si number density = 24.724669 Si / 1000 Ang^3
#
#
#
# Elastic Constant Matrix: (Units=GPa)
#
#
# Indices 1 2 3 4 5 6 
#
# 1 232.7156 1.3502 126.4874 0.0000 37.3177 0.0000
# 2 1.3502 88.9397 14.3293 0.0000 11.0092 0.0000
# 3 126.4874 14.3293 183.8546 0.0000 35.8164 0.0000
# 4 0.0000 0.0000 0.0000 10.1927 0.0000 -4.7356
# 5 37.3177 11.0092 35.8164 0.0000 62.7113 0.0000
# 6 0.0000 0.0000 0.0000 -4.7356 0.0000 6.1798
#
#
#
# Elastic Compliance Matrix: (Units=1/GPa)
#
#
# Indices 1 2 3 4 5 6 
#
# 1 0.007064 0.000846 -0.004588 0.000000 -0.001731 0.000000
# 2 0.000846 0.011647 -0.001118 0.000000 -0.001910 0.000000
# 3 -0.004588 -0.001118 0.009128 0.000000 -0.002287 0.000000
# 4 0.000000 0.000000 0.000000 0.152352 0.000000 0.116747
# 5 -0.001731 -0.001910 -0.002287 0.000000 0.018618 0.000000
# 6 0.000000 0.000000 0.000000 0.116747 0.000000 0.251280
#
#
# Mechanical properties :
#
#
# Convention : Reuss Voigt Hill
#
# Bulk Modulus (GPa) = 55.18944 87.76040 71.47492
# Shear Modulus (GPa) = 10.73309 40.03964 25.38637
#
# Velocity S-wave (km/s) = 2.08578 4.02857 3.20779
# Velocity P-wave (km/s) = 5.30761 7.56381 6.53383
#
# Compressibility (1/GPa) = 0.01811941
#
# Stress axis : x y z
#
# Youngs Moduli (GPa) = 141.56870 85.85719 109.54865
#
# Poissons Ratio (x) = -0.07266 0.50264
# Poissons Ratio (y) = -0.11981 0.12247
# Poissons Ratio (z) = 0.64956 0.09599
#
# Static dielectric constant tensor:
#      x y z
#    x 1.999950 0.000000 0.108950 
#    y 0.000000 2.043810 0.000000 
#    z 0.108950 0.000000 1.957040 
# 
# From -- ./inp_files/117118.got.cif
#   From: 2010.05.17/outbox.cif.g08.bks.cpg/sg15_59_cif.got.tgz:117118.got - 2010.06.03 18:47:42.
