data_PCOD9253947
_publ_section_title
;
Structure prediction by ZEFSAII (Michael W. Deem and Ramdas Pophale) SiO2 
 PCOD9253947
Probable space group: C 2/C
;
_chemical_formula_sum "Si O2"
_cell_formula_units_Z 56
_cell_length_a 8.732070
_cell_length_b 12.269440
_cell_length_c 27.311817
_cell_angle_alpha 90.000000
_cell_angle_beta 53.624247
_cell_angle_gamma 90.000000
_cell_volume 2355.952690
_symmetry_space_group_name_H-M "C 2/C"
_symmetry_group_IT_number 15
_symmetry_cell_setting 'monoclinic'
loop_
_space_group_symop_operation_xyz
x,y,z
-x,y,1/2-z
-x,-y,-z
x,-y,1/2+z
1/2+x,1/2+y,z
1/2-x,1/2+y,1/2-z
1/2-x,1/2-y,-z
1/2+x,1/2-y,1/2+z
loop_
_atom_site_type_symbol
_atom_site_label
_atom_site_fract_x
_atom_site_fract_y
_atom_site_fract_z
Si Si1 0.095572 0.994949 0.841610
Si Si2 0.184960 0.950261 0.436034
Si Si3 0.906246 0.372345 0.935963
Si Si4 0.144311 0.633877 0.766070
Si Si5 0.572000 0.744556 0.370945
Si Si6 0.498395 0.247961 0.504545
Si Si7 0.482731 0.724698 0.836859
O O1 0.177053 0.015049 0.880899
O O2 0.257587 0.019725 0.769636
O O3 0.953844 0.098424 0.860704
O O4 0.019474 0.872367 0.856916
O O5 0.154089 0.823049 0.448984
O O6 0.361265 0.006412 0.428882
O O7 0.000000 0.000000 0.500000
O O8 0.703863 0.308523 0.967387
O O9 0.026096 0.305280 0.873537
O O10 0.982632 0.360767 0.975987
O O11 0.051855 0.658539 0.835574
O O12 0.326099 0.713855 0.730240
O O13 0.000000 0.660422 0.750000
O O14 0.478698 0.757484 0.442078
O O15 0.796743 0.738693 0.343436
#
# Coordination Sequence:
#
# PCOD9253947 Si02
#       7
#     8   8   8   8   8   8   8
#     4  10  20  34  60  87 120 156 209 256 310 370
#     4  10  15  27  51  89 122 150 192 251 316 367
#     4   9  15  25  48  85 121 150 184 255 305 365
#     4  10  24  41  54  78 119 158 215 256 305 375
#     4  11  20  37  61  87 118 162 200 258 319 360
#     4   9  16  24  49  85 121 147 190 249 311 367
#     4   9  19  34  58  85 117 149 212 254 304 377
#
# _framework density 23.769577000000002
#
# number of rings (size 3 to 8) (size 9 to 14) (size 15 to 20)
#    0.857    1.429    5.714    0.429    2.000    1.143 
#    2.571    0.000    0.000    3.429    0.000    2.000 
#    0.000    0.000    0.000    0.000    0.000    0.000 
#
# Total GULP energy -156149.653984 kJ/mol
# GULP energy per Si atom -5576.773357 kJ/mol
# Density = 2.371548 g / cm^3
# Si number density = 23.769577 Si / 1000 Ang^3
#
#
#
# Elastic Constant Matrix: (Units=GPa)
#
#
# Indices 1 2 3 4 5 6 
#
# 1 21.9252 14.1753 15.7019 0.0000 8.4005 0.0000
# 2 14.1753 95.1189 57.5827 0.0000 19.4357 0.0000
# 3 15.7019 57.5827 128.8937 0.0000 29.5816 0.0000
# 4 0.0000 0.0000 0.0000 28.8609 0.0000 0.6427
# 5 8.4005 19.4357 29.5816 0.0000 36.3067 0.0000
# 6 0.0000 0.0000 0.0000 0.6427 0.0000 24.1405
#
#
#
# Elastic Compliance Matrix: (Units=1/GPa)
#
#
# Indices 1 2 3 4 5 6 
#
# 1 0.053541 -0.004836 -0.002599 0.000000 -0.007682 0.000000
# 2 -0.004836 0.015125 -0.005617 0.000000 -0.002401 0.000000
# 3 -0.002599 -0.005617 0.012000 0.000000 -0.006169 0.000000
# 4 0.000000 0.000000 0.000000 0.034669 0.000000 -0.000923
# 5 -0.007682 -0.002401 -0.006169 0.000000 0.035632 0.000000
# 6 0.000000 0.000000 0.000000 -0.000923 0.000000 0.041449
#
#
# Mechanical properties :
#
#
# Convention : Reuss Voigt Hill
#
# Bulk Modulus (GPa) = 18.32776 46.76195 32.54485
# Shear Modulus (GPa) = 21.12320 28.42682 24.77501
#
# Velocity S-wave (km/s) = 2.98428 3.46198 3.23197
# Velocity P-wave (km/s) = 4.42741 5.97462 5.25823
#
# Compressibility (1/GPa) = 0.05456205
#
# Stress axis : x y z
#
# Youngs Moduli (GPa) = 18.67742 66.11697 83.33343
#
# Poissons Ratio (x) = 0.31975 0.21657
# Poissons Ratio (y) = 0.09033 0.46805
# Poissons Ratio (z) = 0.04854 0.37136
#
# Static dielectric constant tensor:
#      x y z
#    x 1.908350 0.000000 -0.045330 
#    y 0.000000 1.955030 0.000000 
#    z -0.045330 0.000000 1.957980 
# 
# From -- ./inp_files/288674.got.cif
#   From: 2010.05.17/outbox.cif.g08.bks.cpg/sg15_145_cif.got.tgz:288674.got - 2010.06.03 18:47:42.
