data_PCOD9253045
_publ_section_title
;
Structure prediction by ZEFSAII (Michael W. Deem and Ramdas Pophale) SiO2 
 PCOD9253045
Probable space group: P 21/C
;
_chemical_formula_sum "Si O2"
_cell_formula_units_Z 20
_cell_length_a 13.297279
_cell_length_b 7.206582
_cell_length_c 10.108726
_cell_angle_alpha 90.000000
_cell_angle_beta 60.762532
_cell_angle_gamma 90.000000
_cell_volume 845.288909
_symmetry_space_group_name_H-M "P 21/C"
_symmetry_group_IT_number 14
_symmetry_cell_setting 'monoclinic'
loop_
_space_group_symop_operation_xyz
x,y,z
-x,1/2+y,1/2-z
-x,-y,-z
x,1/2-y,1/2+z
loop_
_atom_site_type_symbol
_atom_site_label
_atom_site_fract_x
_atom_site_fract_y
_atom_site_fract_z
Si Si1 0.135863 0.123611 0.744789
Si Si2 0.729969 0.257009 0.575036
Si Si3 0.902310 0.906226 0.902068
Si Si4 0.123672 0.092237 0.425082
Si Si5 0.373897 0.923144 0.605409
O O1 0.039050 0.954982 0.808446
O O2 0.117814 0.169864 0.594880
O O3 0.271204 0.071594 0.658775
O O4 0.119340 0.169620 0.918711
O O5 0.832022 0.400315 0.472116
O O6 0.781513 0.068710 0.606717
O O7 0.644439 0.341980 0.737863
O O8 0.659658 0.219624 0.487482
O O9 0.867463 0.871911 0.754730
O O10 0.000000 0.000000 0.500000
O O11 0.500000 0.000000 0.500000
#
# Coordination Sequence:
#
# PCOD9253045 Si02
#       5
#     4   4   4   4   4
#     4  12  23  43  70 109 154 196 249 313 384 453
#     4  12  26  52  78 112 152 203 256 319 387 453
#     4  12  23  42  73 108 156 193 247 320 389 452
#     4  12  22  40  72 110 152 195 241 312 390 453
#     4  12  29  51  79 110 150 207 262 307 375 460
#
# _framework density 23.660547999999999
#
# number of rings (size 3 to 8) (size 9 to 14) (size 15 to 20)
#    0.000    0.000    6.000    5.400    0.000    3.200 
#    0.000    3.000    0.000    0.000    0.000    0.000 
#    0.000    0.000    0.000    0.000    0.000    0.000 
#
# Total GULP energy -111659.353730 kJ/mol
# GULP energy per Si atom -5582.967686 kJ/mol
# Density = 2.360670 g / cm^3
# Si number density = 23.660548 Si / 1000 Ang^3
#
#
#
# Elastic Constant Matrix: (Units=GPa)
#
#
# Indices 1 2 3 4 5 6 
#
# 1 106.0379 60.5276 68.7954 0.0000 -17.1117 0.0000
# 2 60.5276 139.6739 83.2671 0.0000 -6.8633 0.0000
# 3 68.7954 83.2671 189.5749 0.0000 15.8041 0.0000
# 4 0.0000 0.0000 0.0000 74.2444 0.0000 32.3809
# 5 -17.1117 -6.8633 15.8041 0.0000 71.9452 0.0000
# 6 0.0000 0.0000 0.0000 32.3809 0.0000 31.2164
#
#
#
# Elastic Compliance Matrix: (Units=1/GPa)
#
#
# Indices 1 2 3 4 5 6 
#
# 1 0.014919 -0.003840 -0.004067 0.000000 0.004075 0.000000
# 2 -0.003840 0.010948 -0.003490 0.000000 0.000898 0.000000
# 3 -0.004067 -0.003490 0.008549 0.000000 -0.003178 0.000000
# 4 0.000000 0.000000 0.000000 0.024597 0.000000 -0.025515
# 5 0.004075 0.000898 -0.003178 0.000000 0.015653 0.000000
# 6 0.000000 0.000000 0.000000 -0.025515 0.000000 0.058501
#
#
# Mechanical properties :
#
#
# Convention : Reuss Voigt Hill
#
# Bulk Modulus (GPa) = 86.04833 95.60744 90.82789
# Shear Modulus (GPa) = 31.28226 50.32763 40.80495
#
# Velocity S-wave (km/s) = 3.64005 4.61702 4.15733
# Velocity P-wave (km/s) = 7.35618 8.30170 7.84320
#
# Compressibility (1/GPa) = 0.01162138
#
# Stress axis : x y z
#
# Youngs Moduli (GPa) = 67.02911 91.33673 116.97641
#
# Poissons Ratio (x) = 0.35076 0.47573
# Poissons Ratio (y) = 0.25741 0.40826
# Poissons Ratio (z) = 0.27260 0.31878
#
# Static dielectric constant tensor:
#      x y z
#    x 1.880040 0.000000 0.218270 
#    y 0.000000 1.959990 0.000000 
#    z 0.218270 0.000000 2.103030 
# 
# From -- ./inp_files/12042.got.cif
#   From: 2010.05.17/outbox.cif.g08.bks.cpg/sg14_7_cif.got.tgz:12042.got - 2010.06.03 17:49:19.
