data_PCOD9253080
_publ_section_title
;
Structure prediction by ZEFSAII (Michael W. Deem and Ramdas Pophale) SiO2 
 PCOD9253080
Probable space group: P 21/C
;
_chemical_formula_sum "Si O2"
_cell_formula_units_Z 28
_cell_length_a 12.242189
_cell_length_b 17.751186
_cell_length_c 9.145999
_cell_angle_alpha 90.000000
_cell_angle_beta 39.206955
_cell_angle_gamma 90.000000
_cell_volume 1256.375471
_symmetry_space_group_name_H-M "P 21/C"
_symmetry_group_IT_number 14
_symmetry_cell_setting 'monoclinic'
loop_
_space_group_symop_operation_xyz
x,y,z
-x,1/2+y,1/2-z
-x,-y,-z
x,1/2-y,1/2+z
loop_
_atom_site_type_symbol
_atom_site_label
_atom_site_fract_x
_atom_site_fract_y
_atom_site_fract_z
Si Si1 0.612038 0.187908 0.902536
Si Si2 0.118493 0.797142 0.032399
Si Si3 0.246404 0.561258 0.557822
Si Si4 0.448840 0.307545 0.275304
Si Si5 0.448217 0.528769 0.894139
Si Si6 0.943623 0.478953 0.726634
Si Si7 0.941005 0.687788 0.429639
O O1 0.755536 0.238930 0.676518
O O2 0.698339 0.108823 0.857400
O O3 0.462866 0.184526 0.935227
O O4 0.537914 0.232477 0.119415
O O5 0.221640 0.872863 0.961987
O O6 0.039893 0.758600 0.257135
O O7 0.963563 0.812135 0.080329
O O8 0.401236 0.504202 0.363869
O O9 0.065796 0.518102 0.720766
O O10 0.547789 0.380893 0.112251
O O11 0.254913 0.311027 0.418891
O O12 0.500000 0.500000 0.000000
O O13 0.257406 0.501444 0.050602
O O14 0.971382 0.389622 0.713384
O O15 0.000000 0.500000 0.500000
#
# Coordination Sequence:
#
# PCOD9253080 Si02
#       7
#     4   4   4   4   4   4   4
#     4  12  25  47  71 103 143 189 235 297 356 424
#     4  12  23  44  72 101 140 183 233 294 353 415
#     4  12  25  44  73 103 141 183 240 288 356 421
#     4  12  26  46  73 105 143 190 241 293 360 427
#     4  12  24  44  73 103 147 189 235 293 359 428
#     4  12  23  43  70 104 141 187 238 288 351 427
#     4  12  24  45  71 106 138 183 240 292 352 425
#
# _framework density 22.286328999999999
#
# number of rings (size 3 to 8) (size 9 to 14) (size 15 to 20)
#    0.000    0.000    7.143    3.429    0.000    1.714 
#    2.571    1.429    0.000    0.000    0.000    0.000 
#    0.000    0.000    0.000    0.000    0.000    0.000 
#
# Total GULP energy -156661.589419 kJ/mol
# GULP energy per Si atom -5595.056765 kJ/mol
# Density = 2.223560 g / cm^3
# Si number density = 22.286329 Si / 1000 Ang^3
#
#
#
# Elastic Constant Matrix: (Units=GPa)
#
#
# Indices 1 2 3 4 5 6 
#
# 1 146.0370 12.0609 28.9657 0.0000 -21.6055 0.0000
# 2 12.0609 74.5849 -0.9024 0.0000 -4.6216 0.0000
# 3 28.9657 -0.9024 42.9122 0.0000 -29.9424 0.0000
# 4 0.0000 0.0000 0.0000 24.3496 0.0000 3.3377
# 5 -21.6055 -4.6216 -29.9424 0.0000 49.2094 0.0000
# 6 0.0000 0.0000 0.0000 3.3377 0.0000 45.1512
#
#
#
# Elastic Compliance Matrix: (Units=1/GPa)
#
#
# Indices 1 2 3 4 5 6 
#
# 1 0.008044 -0.001357 -0.005357 0.000000 0.000145 0.000000
# 2 -0.001357 0.013817 0.002948 0.000000 0.002496 0.000000
# 3 -0.005357 0.002948 0.044372 0.000000 0.024924 0.000000
# 4 0.000000 0.000000 0.000000 0.041489 0.000000 -0.003067
# 5 0.000145 0.002496 0.024924 0.000000 0.035785 0.000000
# 6 0.000000 0.000000 0.000000 -0.003067 0.000000 0.022375
#
#
# Mechanical properties :
#
#
# Convention : Reuss Voigt Hill
#
# Bulk Modulus (GPa) = 17.03548 38.19805 27.61677
# Shear Modulus (GPa) = 25.90937 38.63603 32.27270
#
# Velocity S-wave (km/s) = 3.41334 4.16819 3.80951
# Velocity P-wave (km/s) = 4.81613 6.35154 5.63636
#
# Compressibility (1/GPa) = 0.05870101
#
# Stress axis : x y z
#
# Youngs Moduli (GPa) = 124.32323 72.37352 22.53652
#
# Poissons Ratio (x) = 0.09818 0.12073
# Poissons Ratio (y) = 0.16865 -0.06643
# Poissons Ratio (z) = 0.66601 -0.21332
#
# Static dielectric constant tensor:
#      x y z
#    x 1.861350 0.000000 0.021400 
#    y 0.000000 1.819770 0.000000 
#    z 0.021400 0.000000 1.810590 
# 
# From -- ./inp_files/14246.got.cif
#   From: 2010.05.17/outbox.cif.g08.bks.cpg/sg14_8_cif.got.tgz:14246.got - 2010.06.03 17:49:19.
