data_PCOD9253987
_publ_section_title
;
Structure prediction by ZEFSAII (Michael W. Deem and Ramdas Pophale) SiO2 
 PCOD9253987
Probable space group: C 2/C
;
_chemical_formula_sum "Si O2"
_cell_formula_units_Z 48
_cell_length_a 13.639746
_cell_length_b 21.290507
_cell_length_c 8.734477
_cell_angle_alpha 90.000000
_cell_angle_beta 103.828657
_cell_angle_gamma 90.000000
_cell_volume 2462.946995
_symmetry_space_group_name_H-M "C 2/C"
_symmetry_group_IT_number 15
_symmetry_cell_setting 'monoclinic'
loop_
_space_group_symop_operation_xyz
x,y,z
-x,y,1/2-z
-x,-y,-z
x,-y,1/2+z
1/2+x,1/2+y,z
1/2-x,1/2+y,1/2-z
1/2-x,1/2-y,-z
1/2+x,1/2-y,1/2+z
loop_
_atom_site_type_symbol
_atom_site_label
_atom_site_fract_x
_atom_site_fract_y
_atom_site_fract_z
Si Si1 0.299844 0.809256 0.607211
Si Si2 0.664075 0.543575 0.790391
Si Si3 0.500000 0.983388 0.250000
Si Si4 0.932547 0.945599 0.552247
Si Si5 0.500000 0.250621 0.250000
Si Si6 0.880550 0.568486 0.981743
Si Si7 0.087206 0.146485 0.007338
O O1 0.250000 0.750000 0.500000
O O2 0.395909 0.787668 0.744912
O O3 0.351429 0.860476 0.514532
O O4 0.195365 0.840716 0.629015
O O5 0.612593 0.477336 0.814379
O O6 0.652299 0.562801 0.610330
O O7 0.778376 0.538151 0.882424
O O8 0.613665 0.597334 0.878888
O O9 0.540165 0.941172 0.125395
O O10 0.581547 0.030410 0.356182
O O11 0.002154 0.884912 0.579480
O O12 0.000000 0.000000 0.500000
O O13 0.463793 0.294017 0.095312
#
# Coordination Sequence:
#
# PCOD9253987 Si02
#       7
#     8   8   4   8   4   8   8
#     4   9  19  30  52  80 103 143 191 236 264 329
#     4  10  18  29  49  75 108 137 173 218 273 339
#     4  10  21  36  58  80 118 149 178 248 286 338
#     4  10  17  28  46  72 107 139 160 217 271 327
#     4  10  15  30  48  74 100 139 182 234 254 306
#     4  10  20  36  53  86 110 144 193 227 292 335
#     4   9  16  28  44  72 105 130 179 221 265 318
#
# _framework density 19.488848000000001
#
# number of rings (size 3 to 8) (size 9 to 14) (size 15 to 20)
#    0.000    2.333    1.667    3.000    0.000    0.000 
#    0.000    0.000    0.000    0.000   52.000   12.833 
#    0.000    0.000    0.000    0.000    0.000    0.000 
#
# Total GULP energy -133622.738210 kJ/mol
# GULP energy per Si atom -5567.614092 kJ/mol
# Density = 1.944449 g / cm^3
# Si number density = 19.488848 Si / 1000 Ang^3
#
#
#
# Elastic Constant Matrix: (Units=GPa)
#
#
# Indices 1 2 3 4 5 6 
#
# 1 86.5599 43.1461 40.0341 0.0000 36.6173 0.0000
# 2 43.1461 80.0831 19.8996 0.0000 4.3386 0.0000
# 3 40.0341 19.8996 86.8881 0.0000 23.4519 0.0000
# 4 0.0000 0.0000 0.0000 18.9476 0.0000 8.5821
# 5 36.6173 4.3386 23.4519 0.0000 40.9089 0.0000
# 6 0.0000 0.0000 0.0000 8.5821 0.0000 31.1203
#
#
#
# Elastic Compliance Matrix: (Units=1/GPa)
#
#
# Indices 1 2 3 4 5 6 
#
# 1 0.030438 -0.014010 -0.004570 0.000000 -0.023139 0.000000
# 2 -0.014010 0.019694 -0.001037 0.000000 0.011046 0.000000
# 3 -0.004570 -0.001037 0.015047 0.000000 -0.004425 0.000000
# 4 0.000000 0.000000 0.000000 0.060310 0.000000 -0.016632
# 5 -0.023139 0.011046 -0.004425 0.000000 0.046522 0.000000
# 6 0.000000 0.000000 0.000000 -0.016632 0.000000 0.036720
#
#
# Mechanical properties :
#
#
# Convention : Reuss Voigt Hill
#
# Bulk Modulus (GPa) = 38.54295 51.07675 44.80985
# Shear Modulus (GPa) = 19.48453 28.22545 23.85499
#
# Velocity S-wave (km/s) = 3.16536 3.80977 3.50241
# Velocity P-wave (km/s) = 5.76014 6.75407 6.27681
#
# Compressibility (1/GPa) = 0.02594508
#
# Stress axis : x y z
#
# Youngs Moduli (GPa) = 32.85323 50.77608 66.45988
#
# Poissons Ratio (x) = 0.71137 0.30375
# Poissons Ratio (y) = 0.46027 0.06890
# Poissons Ratio (z) = 0.15016 0.05264
#
# Static dielectric constant tensor:
#      x y z
#    x 1.741310 0.000000 0.018450 
#    y 0.000000 1.738530 0.000000 
#    z 0.018450 0.000000 1.741660 
# 
# From -- ./inp_files/31965.got.cif
#   From: 2010.05.17/outbox.cif.g08.bks.cpg/sg15_16_cif.got.tgz:31965.got - 2010.06.03 18:47:42.
