data_PCOD9253232
_publ_section_title
;
Structure prediction by ZEFSAII (Michael W. Deem and Ramdas Pophale) SiO2 
 PCOD9253232
Probable space group: P 21/C
;
_chemical_formula_sum "Si O2"
_cell_formula_units_Z 24
_cell_length_a 6.709625
_cell_length_b 15.514685
_cell_length_c 10.870973
_cell_angle_alpha 90.000000
_cell_angle_beta 109.888491
_cell_angle_gamma 90.000000
_cell_volume 1064.148285
_symmetry_space_group_name_H-M "P 21/C"
_symmetry_group_IT_number 14
_symmetry_cell_setting 'monoclinic'
loop_
_space_group_symop_operation_xyz
x,y,z
-x,1/2+y,1/2-z
-x,-y,-z
x,1/2-y,1/2+z
loop_
_atom_site_type_symbol
_atom_site_label
_atom_site_fract_x
_atom_site_fract_y
_atom_site_fract_z
Si Si1 0.478606 0.064348 0.706694
Si Si2 0.157392 0.925687 0.584969
Si Si3 0.904513 0.316976 0.691607
Si Si4 0.246382 0.191128 0.837512
Si Si5 0.913937 0.091382 0.937633
Si Si6 0.598000 0.194007 0.541447
O O1 0.332398 0.113955 0.773050
O O2 0.472309 0.116673 0.578566
O O3 0.715714 0.070592 0.808182
O O4 0.380472 0.971108 0.665265
O O5 0.072170 0.883220 0.691975
O O6 0.217594 0.850202 0.501760
O O7 0.000000 0.000000 0.500000
O O8 0.709821 0.251039 0.671068
O O9 0.113596 0.259302 0.730194
O O10 0.854303 0.360240 0.550981
O O11 0.088289 0.148943 0.904124
O O12 0.439072 0.244310 0.936240
O O13 0.000000 0.000000 0.000000
#
# Coordination Sequence:
#
# PCOD9253232 Si02
#       6
#     4   4   4   4   4   4
#     4  12  26  47  73 105 147 189 241 296 366 432
#     4  12  28  47  76 108 146 193 242 303 366 434
#     4  12  25  47  74 105 143 186 244 297 357 431
#     4  12  25  48  74 105 144 190 243 301 358 431
#     4  12  28  44  73 107 146 187 238 298 365 430
#     4  12  25  47  74 106 142 193 243 295 365 428
#
# _framework density 22.553248
#
# number of rings (size 3 to 8) (size 9 to 14) (size 15 to 20)
#    0.000    0.000    3.333    6.500    7.000    1.333 
#    0.000    0.000    0.000    0.000    0.000    0.000 
#    0.000    0.000    0.000    0.000    0.000    0.000 
#
# Total GULP energy -134408.519243 kJ/mol
# GULP energy per Si atom -5600.354968 kJ/mol
# Density = 2.250192 g / cm^3
# Si number density = 22.553248 Si / 1000 Ang^3
#
#
#
# Elastic Constant Matrix: (Units=GPa)
#
#
# Indices 1 2 3 4 5 6 
#
# 1 71.7106 25.6386 28.9996 0.0000 3.4527 0.0000
# 2 25.6386 98.7226 37.9232 0.0000 16.7924 0.0000
# 3 28.9996 37.9232 89.3458 0.0000 13.6787 0.0000
# 4 0.0000 0.0000 0.0000 55.6773 0.0000 12.2630
# 5 3.4527 16.7924 13.6787 0.0000 45.8445 0.0000
# 6 0.0000 0.0000 0.0000 12.2630 0.0000 -7.7238
#
#
#
# Elastic Compliance Matrix: (Units=1/GPa)
#
#
# Indices 1 2 3 4 5 6 
#
# 1 0.016676 -0.002835 -0.004376 0.000000 0.001088 0.000000
# 2 -0.002835 0.013003 -0.004089 0.000000 -0.003329 0.000000
# 3 -0.004376 -0.004089 0.014742 0.000000 -0.002571 0.000000
# 4 0.000000 0.000000 0.000000 0.013307 0.000000 0.021128
# 5 0.001088 -0.003329 -0.002571 0.000000 0.023718 0.000000
# 6 0.000000 0.000000 0.000000 0.021128 0.000000 -0.095926
#
#
# Mechanical properties :
#
#
# Convention : Reuss Voigt Hill
#
# Bulk Modulus (GPa) = 45.82828 49.43353 47.63091
# Shear Modulus (GPa) = 324.82404 29.90744 177.36574
#
# Velocity S-wave (km/s) = 12.01408 3.64549 8.87772
# Velocity P-wave (km/s) = 14.58818 6.29965 11.23611
#
# Compressibility (1/GPa) = 0.02182059
#
# Stress axis : x y z
#
# Youngs Moduli (GPa) = 59.96754 76.90686 67.83278
#
# Poissons Ratio (x) = 0.21802 0.29683
# Poissons Ratio (y) = 0.17000 0.27739
# Poissons Ratio (z) = 0.26241 0.31449
#
# Static dielectric constant tensor:
#      x y z
#    x 1.905960 0.000000 -0.051080 
#    y 0.000000 1.838680 0.000000 
#    z -0.051080 0.000000 1.867940 
# 
# From -- ./inp_files/21295.got.cif
#   From: 2010.05.17/outbox.cif.g08.bks.cpg/sg14_11_cif.got.tgz:21295.got - 2010.06.03 17:49:19.
