data_PCOD9253827
_publ_section_title
;
Structure prediction by ZEFSAII (Michael W. Deem and Ramdas Pophale) SiO2 
 PCOD9253827
Probable space group: C 2/C
;
_chemical_formula_sum "Si O2"
_cell_formula_units_Z 36
_cell_length_a 13.337526
_cell_length_b 9.429284
_cell_length_c 14.404046
_cell_angle_alpha 90.000000
_cell_angle_beta 131.155920
_cell_angle_gamma 90.000000
_cell_volume 1363.917686
_symmetry_space_group_name_H-M "C 2/C"
_symmetry_group_IT_number 15
_symmetry_cell_setting 'monoclinic'
loop_
_space_group_symop_operation_xyz
x,y,z
-x,y,1/2-z
-x,-y,-z
x,-y,1/2+z
1/2+x,1/2+y,z
1/2-x,1/2+y,1/2-z
1/2-x,1/2-y,-z
1/2+x,1/2-y,1/2+z
loop_
_atom_site_type_symbol
_atom_site_label
_atom_site_fract_x
_atom_site_fract_y
_atom_site_fract_z
Si Si1 0.374902 0.179808 0.393313
Si Si2 0.500000 0.116787 0.750000
Si Si3 0.476028 0.354141 0.890062
Si Si4 0.752951 0.081558 0.699473
Si Si5 0.253939 0.031526 0.491961
O O1 0.504884 0.269078 0.501498
O O2 0.379456 0.016218 0.362710
O O3 0.291191 0.273728 0.271280
O O4 0.295468 0.155976 0.442761
O O5 0.461962 0.229222 0.806653
O O6 0.374523 0.026614 0.637556
O O7 0.365390 0.472104 0.805886
O O8 0.615716 0.434217 0.956111
O O9 0.761980 0.092998 0.593298
#
# Coordination Sequence:
#
# PCOD9253827 Si02
#       5
#     8   4   8   8   8
#     4   9  20  31  52  83 111 140 177 225 281 314
#     4  10  14  28  48  84 100 126 188 238 244 296
#     4  11  16  31  56  82  99 139 198 227 243 316
#     4  10  19  33  52  83 108 142 177 228 272 326
#     4   9  19  29  56  81 103 139 186 230 257 312
#
# _framework density 26.394555
#
# number of rings (size 3 to 8) (size 9 to 14) (size 15 to 20)
#    1.333    0.889    2.222    4.667    0.000    0.000 
#    0.000    1.111    0.000    1.333   11.556    1.556 
#    0.000    0.000    0.000    0.000    0.000    0.000 
#
# Total GULP energy -100546.029004 kJ/mol
# GULP energy per Si atom -5585.890500 kJ/mol
# Density = 2.633448 g / cm^3
# Si number density = 26.394555 Si / 1000 Ang^3
#
#
#
# Elastic Constant Matrix: (Units=GPa)
#
#
# Indices 1 2 3 4 5 6 
#
# 1 44.8415 27.3355 24.3662 0.0000 13.0385 0.0000
# 2 27.3355 102.7586 35.1373 0.0000 -14.2946 0.0000
# 3 24.3662 35.1373 184.1739 0.0000 0.5382 0.0000
# 4 0.0000 0.0000 0.0000 40.7812 0.0000 -12.8038
# 5 13.0385 -14.2946 0.5382 0.0000 42.7643 0.0000
# 6 0.0000 0.0000 0.0000 -12.8038 0.0000 25.2022
#
#
#
# Elastic Compliance Matrix: (Units=1/GPa)
#
#
# Indices 1 2 3 4 5 6 
#
# 1 0.033714 -0.010000 -0.002513 0.000000 -0.013590 0.000000
# 2 -0.010000 0.013930 -0.001357 0.000000 0.007722 0.000000
# 3 -0.002513 -0.001357 0.006020 0.000000 0.000237 0.000000
# 4 0.000000 0.000000 0.000000 0.029175 0.000000 0.014822
# 5 -0.013590 0.007722 0.000237 0.000000 0.030106 0.000000
# 6 0.000000 0.000000 0.000000 0.014822 0.000000 0.047209
#
#
# Mechanical properties :
#
#
# Convention : Reuss Voigt Hill
#
# Bulk Modulus (GPa) = 38.57355 56.16132 47.36744
# Shear Modulus (GPa) = 25.44086 38.07853 31.75969
#
# Velocity S-wave (km/s) = 3.10799 3.80237 3.47258
# Velocity P-wave (km/s) = 5.24647 6.37190 5.83637
#
# Compressibility (1/GPa) = 0.02592450
#
# Stress axis : x y z
#
# Youngs Moduli (GPa) = 29.66169 71.78798 166.10360
#
# Poissons Ratio (x) = 0.71785 0.41739
# Poissons Ratio (y) = 0.29660 0.22544
# Poissons Ratio (z) = 0.07453 0.09743
#
# Static dielectric constant tensor:
#      x y z
#    x 2.186920 0.000000 0.011060 
#    y 0.000000 2.074200 0.000000 
#    z 0.011060 0.000000 2.178510 
# 
# From -- ./inp_files/152802.got.cif
#   From: 2010.05.17/outbox.cif.g08.bks.cpg/sg15_77_cif.got.tgz:152802.got - 2010.06.03 18:47:42.
