data_PCOD9253417
_publ_section_title
;
Structure prediction by ZEFSAII (Michael W. Deem and Ramdas Pophale) SiO2 
 PCOD9253417
Probable space group: P 21/C
;
_chemical_formula_sum "Si O2"
_cell_formula_units_Z 20
_cell_length_a 4.638758
_cell_length_b 21.546005
_cell_length_c 7.147475
_cell_angle_alpha 90.000000
_cell_angle_beta 72.279375
_cell_angle_gamma 90.000000
_cell_volume 680.471279
_symmetry_space_group_name_H-M "P 21/C"
_symmetry_group_IT_number 14
_symmetry_cell_setting 'monoclinic'
loop_
_space_group_symop_operation_xyz
x,y,z
-x,1/2+y,1/2-z
-x,-y,-z
x,1/2-y,1/2+z
loop_
_atom_site_type_symbol
_atom_site_label
_atom_site_fract_x
_atom_site_fract_y
_atom_site_fract_z
Si Si1 0.149651 0.319974 0.664490
Si Si2 0.351227 0.612425 0.838511
Si Si3 0.465020 0.718398 0.082907
Si Si4 0.199502 0.936137 0.952347
Si Si5 0.238968 0.443598 0.941890
O O1 0.879837 0.275268 0.787199
O O2 0.008511 0.381920 0.599981
O O3 0.343034 0.279415 0.482374
O O4 0.394763 0.323588 0.781641
O O5 0.299094 0.591137 0.635898
O O6 0.577702 0.566132 0.902341
O O7 0.000000 0.500000 0.000000
O O8 0.023680 0.608758 0.002701
O O9 0.465333 0.678614 0.892173
O O10 0.506124 0.948087 0.770135
O O11 0.000000 0.000000 0.000000
#
# Coordination Sequence:
#
# PCOD9253417 Si02
#       5
#     4   4   4   4   4
#     4  12  30  63  95 139 197 258 334 417 501 596
#     4  12  31  59  96 137 197 256 327 411 498 577
#     4  12  29  60  95 139 191 258 335 420 495 590
#     4  12  34  65 102 150 207 266 335 408 510 606
#     4  12  31  59  94 141 202 260 324 406 487 594
#
# _framework density 29.391393999999998
#
# number of rings (size 3 to 8) (size 9 to 14) (size 15 to 20)
#    0.000    0.000    2.000    3.000    5.600   12.800 
#   10.800    0.000    0.000    0.000    0.000    0.000 
#    0.000    0.000    0.000    0.000    0.000    0.000 
#
# Total GULP energy -112214.225567 kJ/mol
# GULP energy per Si atom -5610.711278 kJ/mol
# Density = 2.932450 g / cm^3
# Si number density = 29.391394 Si / 1000 Ang^3
#
#
#
# Elastic Constant Matrix: (Units=GPa)
#
#
# Indices 1 2 3 4 5 6 
#
# 1 251.9752 84.1939 120.5519 0.0000 7.2641 0.0000
# 2 84.1939 149.9603 93.5550 0.0000 -12.2935 0.0000
# 3 120.5519 93.5550 254.3187 0.0000 7.7480 0.0000
# 4 0.0000 0.0000 0.0000 43.1347 0.0000 -11.8801
# 5 7.2641 -12.2935 7.7480 0.0000 88.6224 0.0000
# 6 0.0000 0.0000 0.0000 -11.8801 0.0000 66.0219
#
#
#
# Elastic Compliance Matrix: (Units=1/GPa)
#
#
# Indices 1 2 3 4 5 6 
#
# 1 0.005550 -0.001988 -0.001882 0.000000 -0.000566 0.000000
# 2 -0.001988 0.009566 -0.002629 0.000000 0.001720 0.000000
# 3 -0.001882 -0.002629 0.005813 0.000000 -0.000719 0.000000
# 4 0.000000 0.000000 0.000000 0.024392 0.000000 0.004389
# 5 -0.000566 0.001720 -0.000719 0.000000 0.011632 0.000000
# 6 0.000000 0.000000 0.000000 0.004389 0.000000 0.015936
#
#
# Mechanical properties :
#
#
# Convention : Reuss Voigt Hill
#
# Bulk Modulus (GPa) = 126.09578 139.20621 132.65100
# Shear Modulus (GPa) = 56.47805 63.41936 59.94871
#
# Velocity S-wave (km/s) = 4.38834 4.65020 4.52117
# Velocity P-wave (km/s) = 8.28687 8.73489 8.51382
#
# Compressibility (1/GPa) = 0.00793048
#
# Stress axis : x y z
#
# Youngs Moduli (GPa) = 180.19044 104.54057 172.02305
#
# Poissons Ratio (x) = 0.20783 0.32376
# Poissons Ratio (y) = 0.35823 0.45223
# Poissons Ratio (z) = 0.33913 0.27482
#
# Static dielectric constant tensor:
#      x y z
#    x 2.196670 0.000000 0.024360 
#    y 0.000000 2.718100 0.000000 
#    z 0.024360 0.000000 2.390460 
# 
# From -- ./inp_files/5656.got.cif
#   From: 2010.05.17/outbox.cif.g08.bks.cpg/sg14_3_cif.got.tgz:5656.got - 2010.06.03 17:49:19.
