data_PCOD9253548
_publ_section_title
;
Structure prediction by ZEFSAII (Michael W. Deem and Ramdas Pophale) SiO2 
 PCOD9253548
Probable space group: P 21/C
;
_chemical_formula_sum "Si O2"
_cell_formula_units_Z 32
_cell_length_a 15.000000
_cell_length_b 21.000000
_cell_length_c 15.000000
_cell_angle_alpha 90.000000
_cell_angle_beta 20.000000
_cell_angle_gamma 90.000000
_cell_volume 1616.045177
_symmetry_space_group_name_H-M "P 21/C"
_symmetry_group_IT_number 14
_symmetry_cell_setting 'monoclinic'
loop_
_space_group_symop_operation_xyz
x,y,z
-x,1/2+y,1/2-z
-x,-y,-z
x,1/2-y,1/2+z
loop_
_atom_site_type_symbol
_atom_site_label
_atom_site_fract_x
_atom_site_fract_y
_atom_site_fract_z
Si Si1 0.288092 0.079439 0.920905
Si Si2 0.170819 0.550490 0.020563
Si Si3 0.488124 0.647895 0.455895
Si Si4 0.878750 0.619083 0.810879
Si Si5 0.250225 0.045020 0.751809
Si Si6 0.430024 0.672749 0.719061
Si Si7 0.961521 0.929651 0.430486
Si Si8 0.405166 0.695301 0.335461
O O1 0.535836 0.036376 0.718896
O O2 0.282329 0.081398 0.818223
O O3 0.347919 0.143634 0.922261
O O4 0.023440 0.053562 0.212900
O O5 0.070087 0.505195 0.036634
O O6 0.205619 0.620009 0.943725
O O7 0.495784 0.675827 0.550631
O O8 0.442864 0.692704 0.408994
O O9 0.244485 0.599229 0.681509
O O10 0.749949 0.609321 0.185767
O O11 0.798615 0.586742 0.792249
O O12 0.893723 0.577647 0.887719
O O13 0.166335 0.649044 0.535085
O O14 0.665222 0.670946 0.041650
O O15 0.500000 0.000000 0.500000
O O16 0.000000 0.000000 0.000000
O O17 0.346499 0.737424 0.845074
#
# Coordination Sequence:
#
# PCOD9253548 Si02
#       8
#     4   4   4   4   4   4   4   4
#     4  10  23  39  57  94 123 163 206 253 314 364
#     4  10  22  39  63  86 133 160 198 261 318 363
#     4  10  23  39  63  91 116 165 203 256 310 375
#     4  10  22  39  63  91 120 170 206 259 317 368
#     4  12  23  39  67  95 132 167 211 261 325 392
#     4  10  26  41  65  88 130 161 213 262 313 361
#     4  10  20  39  61  90 125 153 206 251 311 381
#     4  10  23  43  62  87 125 161 218 257 307 378
#
# _framework density 19.801427
#
# number of rings (size 3 to 8) (size 9 to 14) (size 15 to 20)
#    0.750    1.000    0.000    3.750    3.500    4.000 
#    2.250    0.000    0.000    0.000    0.000    0.000 
#    0.000    0.000    0.000    0.000    0.000    0.000 
#
# Total GULP energy -178341.269924 kJ/mol
# GULP energy per Si atom -5573.164685 kJ/mol
# Density = 1.975636 g / cm^3
# Si number density = 19.801427 Si / 1000 Ang^3
#
#
#
# Elastic Constant Matrix: (Units=GPa)
#
#
# Indices 1 2 3 4 5 6 
#
# 1 151.6691 19.9061 10.2482 0.0000 29.9295 0.0000
# 2 19.9061 54.4770 -5.3219 0.0000 9.0866 0.0000
# 3 10.2482 -5.3219 85.6188 0.0000 14.9908 0.0000
# 4 0.0000 0.0000 0.0000 17.5251 0.0000 3.6002
# 5 29.9295 9.0866 14.9908 0.0000 37.5093 0.0000
# 6 0.0000 0.0000 0.0000 3.6002 0.0000 21.6515
#
#
#
# Elastic Compliance Matrix: (Units=1/GPa)
#
#
# Indices 1 2 3 4 5 6 
#
# 1 0.008018 -0.001949 -0.000047 0.000000 -0.005907 0.000000
# 2 -0.001949 0.019979 0.002205 0.000000 -0.004166 0.000000
# 3 -0.000047 0.002205 0.012805 0.000000 -0.005615 0.000000
# 4 0.000000 0.000000 0.000000 0.059079 0.000000 -0.009824
# 5 -0.005907 -0.004166 -0.005615 0.000000 0.034626 0.000000
# 6 0.000000 0.000000 0.000000 -0.009824 0.000000 0.047820
#
#
# Mechanical properties :
#
#
# Convention : Reuss Voigt Hill
#
# Bulk Modulus (GPa) = 24.26036 37.93663 31.09850
# Shear Modulus (GPa) = 25.55598 33.13271 29.34434
#
# Velocity S-wave (km/s) = 3.59641 4.09497 3.85376
# Velocity P-wave (km/s) = 5.43360 6.44659 5.96165
#
# Compressibility (1/GPa) = 0.04121950
#
# Stress axis : x y z
#
# Youngs Moduli (GPa) = 124.72122 50.05321 78.09250
#
# Poissons Ratio (x) = 0.09756 0.00364
# Poissons Ratio (y) = 0.24309 -0.17216
# Poissons Ratio (z) = 0.00582 -0.11034
#
# Static dielectric constant tensor:
#      x y z
#    x 1.711050 0.000000 -0.020690 
#    y 0.000000 1.787170 0.000000 
#    z -0.020690 0.000000 1.698490 
# 
# From -- ./inp_files/47652.got.cif
#   From: 2010.05.17/outbox.ucp.g08.bks.cvg/sg14_24_cif.got.tgz:47652.got - 2010.06.11 12:31:08.
