data_PCOD9253904
_publ_section_title
;
Structure prediction by ZEFSAII (Michael W. Deem and Ramdas Pophale) SiO2 
 PCOD9253904
Probable space group: C 2/C
;
_chemical_formula_sum "Si O2"
_cell_formula_units_Z 44
_cell_length_a 7.338529
_cell_length_b 28.163387
_cell_length_c 11.861784
_cell_angle_alpha 90.000000
_cell_angle_beta 124.853050
_cell_angle_gamma 90.000000
_cell_volume 2011.806638
_symmetry_space_group_name_H-M "C 2/C"
_symmetry_group_IT_number 15
_symmetry_cell_setting 'monoclinic'
loop_
_space_group_symop_operation_xyz
x,y,z
-x,y,1/2-z
-x,-y,-z
x,-y,1/2+z
1/2+x,1/2+y,z
1/2-x,1/2+y,1/2-z
1/2-x,1/2-y,-z
1/2+x,1/2-y,1/2+z
loop_
_atom_site_type_symbol
_atom_site_label
_atom_site_fract_x
_atom_site_fract_y
_atom_site_fract_z
Si Si1 0.742108 0.913851 0.705749
Si Si2 0.950989 0.565506 0.890211
Si Si3 0.500000 0.152848 0.750000
Si Si4 0.879291 0.773026 0.440073
Si Si5 0.207489 0.194169 0.233587
Si Si6 0.717373 0.493901 0.148585
O O1 0.552594 0.929114 0.549287
O O2 0.708998 0.859645 0.731927
O O3 0.728358 0.952892 0.796686
O O4 0.000000 0.916678 0.750000
O O5 0.125814 0.532893 0.884592
O O6 0.961162 0.617984 0.841215
O O7 0.729460 0.538648 0.767197
O O8 0.282477 0.184787 0.656970
O O9 0.750000 0.750000 0.500000
O O10 0.878721 0.733026 0.342997
O O11 0.105504 0.791762 0.576222
O O12 0.000000 0.195493 0.250000
O O13 0.500000 0.500000 0.000000
#
# Coordination Sequence:
#
# PCOD9253904 Si02
#       6
#     8   8   4   8   8   8
#     4  11  19  32  49  69  97 133 168 198 244 290
#     4  10  22  33  50  70  95 138 163 203 244 283
#     4  10  16  26  44  60  92 124 164 184 236 288
#     4  10  15  25  36  60  91 123 154 188 223 289
#     4   9  18  24  41  62  91 128 158 185 235 287
#     4  10  20  34  48  69  96 128 171 206 241 287
#
# _framework density 21.870888000000001
#
# number of rings (size 3 to 8) (size 9 to 14) (size 15 to 20)
#    0.000    2.182    4.545    3.818    2.545    0.000 
#    0.000    0.000    0.000    0.000    0.000    0.000 
#    0.000    5.818   24.727    0.000    0.000    0.727 
#
# Total GULP energy -122648.133748 kJ/mol
# GULP energy per Si atom -5574.915170 kJ/mol
# Density = 2.182111 g / cm^3
# Si number density = 21.870888 Si / 1000 Ang^3
#
#
#
# Elastic Constant Matrix: (Units=GPa)
#
#
# Indices 1 2 3 4 5 6 
#
# 1 46.5326 24.2142 21.9340 0.0000 10.1840 0.0000
# 2 24.2142 203.4246 115.4290 0.0000 0.2768 0.0000
# 3 21.9340 115.4290 246.6491 0.0000 9.5400 0.0000
# 4 0.0000 0.0000 0.0000 138.8244 0.0000 -6.9683
# 5 10.1840 0.2768 9.5400 0.0000 10.1692 0.0000
# 6 0.0000 0.0000 0.0000 -6.9683 0.0000 11.9020
#
#
#
# Elastic Compliance Matrix: (Units=1/GPa)
#
#
# Indices 1 2 3 4 5 6 
#
# 1 0.029843 -0.003627 0.000203 0.000000 -0.029978 0.000000
# 2 -0.003627 0.007215 -0.003307 0.000000 0.006538 0.000000
# 3 0.000203 -0.003307 0.005799 0.000000 -0.005553 0.000000
# 4 0.000000 0.000000 0.000000 0.007421 0.000000 0.004345
# 5 -0.029978 0.006538 -0.005553 0.000000 0.133389 0.000000
# 6 0.000000 0.000000 0.000000 0.004345 0.000000 0.086563
#
#
# Mechanical properties :
#
#
# Convention : Reuss Voigt Hill
#
# Bulk Modulus (GPa) = 34.01933 91.08450 62.55191
# Shear Modulus (GPa) = 17.03637 54.51441 35.77539
#
# Velocity S-wave (km/s) = 2.79400 4.99797 4.04883
# Velocity P-wave (km/s) = 5.09872 8.66274 7.10774
#
# Compressibility (1/GPa) = 0.02939506
#
# Stress axis : x y z
#
# Youngs Moduli (GPa) = 33.50913 138.59901 172.45252
#
# Poissons Ratio (x) = 0.50264 -0.03498
# Poissons Ratio (y) = 0.12152 0.57029
# Poissons Ratio (z) = -0.00680 0.45834
#
# Static dielectric constant tensor:
#      x y z
#    x 1.794490 0.000000 0.015890 
#    y 0.000000 1.785300 0.000000 
#    z 0.015890 0.000000 3.065460 
# 
# From -- ./inp_files/147787.got.cif
#   From: 2010.05.17/outbox.cif.g08.bks.cpg/sg15_74_cif.got.tgz:147787.got - 2010.06.03 18:47:42.
