data_PCOD9253677
_publ_section_title
;
Structure prediction by ZEFSAII (Michael W. Deem and Ramdas Pophale) SiO2 
 PCOD9253677
Probable space group: P 21/C
;
_chemical_formula_sum "Si O2"
_cell_formula_units_Z 32
_cell_length_a 27.000000
_cell_length_b 15.000000
_cell_length_c 12.000000
_cell_angle_alpha 90.000000
_cell_angle_beta 160.000000
_cell_angle_gamma 90.000000
_cell_volume 1662.217897
_symmetry_space_group_name_H-M "P 21/C"
_symmetry_group_IT_number 14
_symmetry_cell_setting 'monoclinic'
loop_
_space_group_symop_operation_xyz
x,y,z
-x,1/2+y,1/2-z
-x,-y,-z
x,1/2-y,1/2+z
loop_
_atom_site_type_symbol
_atom_site_label
_atom_site_fract_x
_atom_site_fract_y
_atom_site_fract_z
Si Si1 0.167753 0.561723 0.591577
Si Si2 0.042135 0.179851 0.490232
Si Si3 0.831682 0.476896 0.148241
Si Si4 0.172336 0.826119 0.538361
Si Si5 0.920450 0.630732 0.679510
Si Si6 0.688826 0.735397 0.056937
Si Si7 0.420762 0.095940 0.849157
Si Si8 0.579473 0.312990 0.886595
O O1 0.186921 0.561452 0.765773
O O2 0.142490 0.463094 0.494266
O O3 0.029148 0.617586 0.255732
O O4 0.312962 0.607032 0.850816
O O5 0.047387 0.134704 0.621845
O O6 0.201525 0.213363 0.793799
O O7 0.930255 0.262646 0.254449
O O8 0.000000 0.500000 0.500000
O O9 0.790449 0.408813 0.962780
O O10 0.734293 0.565059 0.930203
O O11 0.066287 0.851831 0.416205
O O12 0.312276 0.772367 0.878566
O O13 0.797337 0.701902 0.383643
O O14 0.616936 0.651021 0.841581
O O15 0.557686 0.794307 0.825447
O O16 0.512421 0.158470 0.125642
O O17 0.500000 0.000000 0.000000
#
# Coordination Sequence:
#
# PCOD9253677 Si02
#       8
#     4   4   4   4   4   4   4   4
#     4  11  23  42  62  97 125 166 214 264 321 389
#     4  10  24  39  64  89 130 167 208 268 330 382
#     4  12  22  40  71  97 128 162 228 271 321 378
#     4  10  24  39  65  98 124 168 213 274 320 389
#     4  11  21  44  63  91 128 164 218 266 325 381
#     4  11  23  41  60  94 126 170 215 263 325 387
#     4  12  23  42  65  92 130 174 212 271 319 384
#     4  11  25  39  61  93 133 165 212 262 331 387
#
# _framework density 19.251387000000001
#
# number of rings (size 3 to 8) (size 9 to 14) (size 15 to 20)
#    0.000    1.000    3.750    2.625    7.000    1.000 
#    0.000    0.625    0.000    0.000    0.000    0.000 
#    0.000    0.000    0.000    0.000    0.000    0.000 
#
# Total GULP energy -178712.500609 kJ/mol
# GULP energy per Si atom -5584.765644 kJ/mol
# Density = 1.920757 g / cm^3
# Si number density = 19.251387 Si / 1000 Ang^3
#
#
#
# Elastic Constant Matrix: (Units=GPa)
#
#
# Indices 1 2 3 4 5 6 
#
# 1 71.8145 34.0189 47.3954 0.0000 -3.1708 0.0000
# 2 34.0189 58.6516 30.5072 0.0000 1.7995 0.0000
# 3 47.3954 30.5072 111.5119 0.0000 -1.1803 0.0000
# 4 0.0000 0.0000 0.0000 38.9115 0.0000 -0.2643
# 5 -3.1708 1.7995 -1.1803 0.0000 34.6489 0.0000
# 6 0.0000 0.0000 0.0000 -0.2643 0.0000 37.9992
#
#
#
# Elastic Compliance Matrix: (Units=1/GPa)
#
#
# Indices 1 2 3 4 5 6 
#
# 1 0.023533 -0.009951 -0.007254 0.000000 0.002423 0.000000
# 2 -0.009951 0.024138 -0.002398 0.000000 -0.002246 0.000000
# 3 -0.007254 -0.002398 0.012706 0.000000 -0.000106 0.000000
# 4 0.000000 0.000000 0.000000 0.025701 0.000000 0.000179
# 5 0.002423 -0.002246 -0.000106 0.000000 0.029196 0.000000
# 6 0.000000 0.000000 0.000000 0.000179 0.000000 0.026318
#
#
# Mechanical properties :
#
#
# Convention : Reuss Voigt Hill
#
# Bulk Modulus (GPa) = 47.23517 51.75788 49.49653
# Shear Modulus (GPa) = 26.61659 30.98235 28.79947
#
# Velocity S-wave (km/s) = 3.72234 4.01603 3.87197
# Velocity P-wave (km/s) = 6.56229 6.96048 6.76432
#
# Compressibility (1/GPa) = 0.02117067
#
# Stress axis : x y z
#
# Youngs Moduli (GPa) = 42.49354 41.42917 78.70427
#
# Poissons Ratio (x) = 0.41225 0.57094
# Poissons Ratio (y) = 0.42284 0.18873
# Poissons Ratio (z) = 0.30826 0.09935
#
# Static dielectric constant tensor:
#      x y z
#    x 1.678200 0.000000 0.020870 
#    y 0.000000 1.707820 0.000000 
#    z 0.020870 0.000000 1.665110 
# 
# From -- ./inp_files/36278.got.cif
#   From: 2010.05.17/outbox.ucp.g08.bks.cvg/sg14_19_cif.got.tgz:36278.got - 2010.06.11 12:31:08.
