data_PCOD9253110
_publ_section_title
;
Structure prediction by ZEFSAII (Michael W. Deem and Ramdas Pophale) SiO2 
 PCOD9253110
Probable space group: P 21/C
;
_chemical_formula_sum "Si O2"
_cell_formula_units_Z 20
_cell_length_a 7.217959
_cell_length_b 14.274161
_cell_length_c 6.987188
_cell_angle_alpha 90.000000
_cell_angle_beta 81.047655
_cell_angle_gamma 90.000000
_cell_volume 711.122492
_symmetry_space_group_name_H-M "P 21/C"
_symmetry_group_IT_number 14
_symmetry_cell_setting 'monoclinic'
loop_
_space_group_symop_operation_xyz
x,y,z
-x,1/2+y,1/2-z
-x,-y,-z
x,1/2-y,1/2+z
loop_
_atom_site_type_symbol
_atom_site_label
_atom_site_fract_x
_atom_site_fract_y
_atom_site_fract_z
Si Si1 0.737811 0.633210 0.107099
Si Si2 0.681074 0.131884 0.261305
Si Si3 0.242357 0.584984 0.811355
Si Si4 0.660383 0.585035 0.677706
Si Si5 0.995361 0.691727 0.551523
O O1 0.534508 0.663477 0.221809
O O2 0.785422 0.526919 0.161829
O O3 0.897452 0.709747 0.112003
O O4 0.697570 0.623857 0.885366
O O5 0.730488 0.122665 0.477674
O O6 0.833296 0.191640 0.124128
O O7 0.691631 0.025722 0.182807
O O8 0.441945 0.601682 0.674589
O O9 0.081642 0.632848 0.714282
O O10 0.812914 0.631702 0.516958
#
# Coordination Sequence:
#
# PCOD9253110 Si02
#       5
#     4   4   4   4   4
#     4   9  22  48  73 115 165 196 256 330 381 463
#     4   9  21  48  80 107 155 206 254 325 391 459
#     4   9  22  50  79 107 159 208 247 323 402 451
#     4   9  21  48  72 113 151 199 258 320 392 459
#     4  12  23  46  78 122 144 203 266 316 382 473
#
# _framework density 28.124551
#
# number of rings (size 3 to 8) (size 9 to 14) (size 15 to 20)
#    0.000    2.400    0.000    3.000    0.000    6.400 
#   18.000    8.000    0.000    0.000    0.000    0.000 
#    0.000    0.000    0.000    0.000    0.000    0.000 
#
# Total GULP energy -112410.472738 kJ/mol
# GULP energy per Si atom -5620.523637 kJ/mol
# Density = 2.806054 g / cm^3
# Si number density = 28.124551 Si / 1000 Ang^3
#
#
#
# Elastic Constant Matrix: (Units=GPa)
#
#
# Indices 1 2 3 4 5 6 
#
# 1 302.7544 132.7118 81.6190 0.0000 14.0110 0.0000
# 2 132.7118 170.9787 71.7826 0.0000 21.3631 0.0000
# 3 81.6190 71.7826 153.2083 0.0000 12.3401 0.0000
# 4 0.0000 0.0000 0.0000 -69.1566 0.0000 -100.9174
# 5 14.0110 21.3631 12.3401 0.0000 53.5750 0.0000
# 6 0.0000 0.0000 0.0000 -100.9174 0.0000 -62.3979
#
#
#
# Elastic Compliance Matrix: (Units=1/GPa)
#
#
# Indices 1 2 3 4 5 6 
#
# 1 0.005152 -0.003582 -0.001094 0.000000 0.000333 0.000000
# 2 -0.003582 0.010024 -0.002590 0.000000 -0.002464 0.000000
# 3 -0.001094 -0.002590 0.008372 0.000000 -0.000610 0.000000
# 4 0.000000 0.000000 0.000000 0.010632 0.000000 -0.017195
# 5 0.000333 -0.002464 -0.000610 0.000000 0.019701 0.000000
# 6 0.000000 0.000000 0.000000 -0.017195 0.000000 0.011783
#
#
# Mechanical properties :
#
#
# Convention : Reuss Voigt Hill
#
# Bulk Modulus (GPa) = 110.88724 133.24091 122.06407
# Shear Modulus (GPa) = 60.09523 7.12598 33.61060
#
# Velocity S-wave (km/s) = 4.62752 1.59349 3.46072
# Velocity P-wave (km/s) = 8.25013 7.13188 7.71131
#
# Compressibility (1/GPa) = 0.00901817
#
# Stress axis : x y z
#
# Youngs Moduli (GPa) = 194.08172 99.76055 119.44289
#
# Poissons Ratio (x) = 0.35732 0.13061
# Poissons Ratio (y) = 0.69515 0.30935
# Poissons Ratio (z) = 0.21223 0.25838
#
# Static dielectric constant tensor:
#      x y z
#    x 2.162610 0.000000 -0.071640 
#    y 0.000000 2.126900 0.000000 
#    z -0.071640 0.000000 2.224230 
# 
# From -- ./inp_files/32106.got.cif
#   From: 2010.05.17/outbox.cif.g08.bks.cpg/sg14_17_cif.got.tgz:32106.got - 2010.06.03 17:49:19.
