data_PCOD9253579
_publ_section_title
;
Structure prediction by ZEFSAII (Michael W. Deem and Ramdas Pophale) SiO2 
 PCOD9253579
Probable space group: P 21/C
;
_chemical_formula_sum "Si O2"
_cell_formula_units_Z 24
_cell_length_a 15.000000
_cell_length_b 9.000000
_cell_length_c 18.000000
_cell_angle_alpha 90.000000
_cell_angle_beta 150.000000
_cell_angle_gamma 90.000000
_cell_volume 1215.000000
_symmetry_space_group_name_H-M "P 21/C"
_symmetry_group_IT_number 14
_symmetry_cell_setting 'monoclinic'
loop_
_space_group_symop_operation_xyz
x,y,z
-x,1/2+y,1/2-z
-x,-y,-z
x,1/2-y,1/2+z
loop_
_atom_site_type_symbol
_atom_site_label
_atom_site_fract_x
_atom_site_fract_y
_atom_site_fract_z
Si Si1 0.342820 0.205371 0.421464
Si Si2 0.374734 0.183929 0.111382
Si Si3 0.719498 0.382062 0.371213
Si Si4 0.951562 0.839189 0.555624
Si Si5 0.258924 0.893080 0.290435
Si Si6 0.966219 0.831391 0.388722
O O1 0.319454 0.279040 0.486043
O O2 0.554562 0.192580 0.562731
O O3 0.231511 0.300544 0.282708
O O4 0.269850 0.037624 0.351501
O O5 0.573434 0.249768 0.263156
O O6 0.346477 0.017960 0.124231
O O7 0.243145 0.284104 0.064948
O O8 0.745560 0.432657 0.302564
O O9 0.899727 0.305129 0.531929
O O10 0.095055 0.717698 0.687607
O O11 0.972997 0.839734 0.482445
O O12 0.977474 0.007679 0.601392
#
# Coordination Sequence:
#
# PCOD9253579 Si02
#       6
#     4   4   4   4   4   4
#     4  10  21  37  58  87 115 146 194 243 287 337
#     4  11  22  37  59  86 114 148 195 246 292 339
#     4  10  21  39  61  83 116 158 193 234 293 354
#     4  10  21  37  59  84 115 156 194 232 285 352
#     4   9  20  40  61  82 115 156 192 230 289 356
#     4  10  21  38  58  84 117 153 194 232 284 356
#
# _framework density 19.753086
#
# number of rings (size 3 to 8) (size 9 to 14) (size 15 to 20)
#    0.000    2.000    0.000    3.000    0.000    7.333 
#    0.000    8.333    0.000    0.000    0.000    0.000 
#    0.000    0.000    0.000    0.000    0.000    0.000 
#
# Total GULP energy -133882.400311 kJ/mol
# GULP energy per Si atom -5578.433346 kJ/mol
# Density = 1.970813 g / cm^3
# Si number density = 19.753086 Si / 1000 Ang^3
#
#
#
# Elastic Constant Matrix: (Units=GPa)
#
#
# Indices 1 2 3 4 5 6 
#
# 1 25.9968 14.6485 0.8052 0.0000 2.4529 0.0000
# 2 14.6485 64.4175 11.6639 0.0000 -19.3281 0.0000
# 3 0.8052 11.6639 74.4903 0.0000 -3.2097 0.0000
# 4 0.0000 0.0000 0.0000 8.1903 0.0000 10.9613
# 5 2.4529 -19.3281 -3.2097 0.0000 18.2967 0.0000
# 6 0.0000 0.0000 0.0000 10.9613 0.0000 34.9308
#
#
#
# Elastic Compliance Matrix: (Units=1/GPa)
#
#
# Indices 1 2 3 4 5 6 
#
# 1 0.053029 -0.021054 0.001470 0.000000 -0.029092 0.000000
# 2 -0.021054 0.031575 -0.003182 0.000000 0.035619 0.000000
# 3 0.001470 -0.003182 0.013858 0.000000 -0.001127 0.000000
# 4 0.000000 0.000000 0.000000 0.210496 0.000000 -0.066054
# 5 -0.029092 0.035619 -0.001127 0.000000 0.095984 0.000000
# 6 0.000000 0.000000 0.000000 -0.066054 0.000000 0.049356
#
#
# Mechanical properties :
#
#
# Convention : Reuss Voigt Hill
#
# Bulk Modulus (GPa) = 18.89258 24.34886 21.62072
# Shear Modulus (GPa) = 9.66236 21.46936 15.56586
#
# Velocity S-wave (km/s) = 2.21409 3.30037 2.81022
# Velocity P-wave (km/s) = 4.01514 5.18427 4.63670
#
# Compressibility (1/GPa) = 0.05293085
#
# Stress axis : x y z
#
# Youngs Moduli (GPa) = 18.85772 31.67091 72.15881
#
# Poissons Ratio (x) = 0.66679 -0.10606
# Poissons Ratio (y) = 0.39702 0.22959
# Poissons Ratio (z) = -0.02772 0.10077
#
# Static dielectric constant tensor:
#      x y z
#    x 1.697310 0.000000 -0.002300 
#    y 0.000000 1.718330 0.000000 
#    z -0.002300 0.000000 1.678390 
# 
# From -- ./inp_files/54483.got.cif
#   From: 2010.05.17/outbox.ucp.g08.bks.cvg/sg14_28_cif.got.tgz:54483.got - 2010.06.11 12:31:08.
