data_PCOD9253445
_publ_section_title
;
Structure prediction by ZEFSAII (Michael W. Deem and Ramdas Pophale) SiO2 
 PCOD9253445
Probable space group: P 21/C
;
_chemical_formula_sum "Si O2"
_cell_formula_units_Z 32
_cell_length_a 11.704915
_cell_length_b 20.029594
_cell_length_c 21.271798
_cell_angle_alpha 90.000000
_cell_angle_beta 162.520685
_cell_angle_gamma 90.000000
_cell_volume 1497.920721
_symmetry_space_group_name_H-M "P 21/C"
_symmetry_group_IT_number 14
_symmetry_cell_setting 'monoclinic'
loop_
_space_group_symop_operation_xyz
x,y,z
-x,1/2+y,1/2-z
-x,-y,-z
x,1/2-y,1/2+z
loop_
_atom_site_type_symbol
_atom_site_label
_atom_site_fract_x
_atom_site_fract_y
_atom_site_fract_z
Si Si1 0.681663 0.467116 0.916856
Si Si2 0.093790 0.178074 0.812720
Si Si3 0.193081 0.045375 0.922911
Si Si4 0.348927 0.822332 0.070659
Si Si5 0.780673 0.172963 0.513789
Si Si6 0.934722 0.536554 0.170587
Si Si7 0.961404 0.326476 0.725699
Si Si8 0.432754 0.537804 0.665119
O O1 0.439913 0.503462 0.736699
O O2 0.578896 0.390807 0.878273
O O3 0.686484 0.506267 0.985015
O O4 0.122146 0.465299 0.123596
O O5 0.064392 0.122739 0.851660
O O6 0.794580 0.171700 0.597580
O O7 0.084841 0.256873 0.821091
O O8 0.515762 0.165112 0.007674
O O9 0.958233 0.008500 0.744920
O O10 0.634079 0.039843 0.130952
O O11 0.200413 0.005490 0.991955
O O12 0.303425 0.884599 0.093852
O O13 0.773688 0.833688 0.268252
O O14 0.343125 0.743212 0.081678
O O15 0.047049 0.826424 0.854656
O O16 0.827886 0.610659 0.135132
#
# Coordination Sequence:
#
# PCOD9253445 Si02
#       8
#     4   4   4   4   4   4   4   4
#     4   9  16  26  42  65  88 110 144 185 216 247
#     4   9  16  26  43  65  88 113 142 178 218 258
#     4   9  14  24  42  62  83 109 142 178 214 250
#     4   9  16  27  44  65  87 112 143 178 215 258
#     4   9  16  27  44  65  87 112 143 178 215 258
#     4   9  14  24  42  62  83 109 142 178 214 250
#     4   9  16  26  43  65  88 113 142 178 218 258
#     4   9  16  26  42  65  88 110 144 185 216 247
#
# _framework density 21.362945
#
# number of rings (size 3 to 8) (size 9 to 14) (size 15 to 20)
#    0.000    3.000    2.500    0.000    0.000    0.000 
#    0.000    1.250    0.000    3.000    0.000    0.000 
#    0.000    0.000    0.000    0.000    0.000    0.000 
#
# Total GULP energy -178517.952252 kJ/mol
# GULP energy per Si atom -5578.686008 kJ/mol
# Density = 2.131432 g / cm^3
# Si number density = 21.362945 Si / 1000 Ang^3
#
#
#
# Elastic Constant Matrix: (Units=GPa)
#
#
# Indices 1 2 3 4 5 6 
#
# 1 47.0804 45.2381 30.5914 0.0000 -23.0807 0.0000
# 2 45.2381 240.6083 59.0208 0.0000 -58.8767 0.0000
# 3 30.5914 59.0208 97.7958 0.0000 -16.1522 0.0000
# 4 0.0000 0.0000 0.0000 20.0124 0.0000 -1.7904
# 5 -23.0807 -58.8767 -16.1522 0.0000 45.2944 0.0000
# 6 0.0000 0.0000 0.0000 -1.7904 0.0000 19.8759
#
#
#
# Elastic Compliance Matrix: (Units=1/GPa)
#
#
# Indices 1 2 3 4 5 6 
#
# 1 0.033734 -0.001364 -0.007632 0.000000 0.012695 0.000000
# 2 -0.001364 0.006795 -0.002476 0.000000 0.007255 0.000000
# 3 -0.007632 -0.002476 0.013743 0.000000 -0.002207 0.000000
# 4 0.000000 0.000000 0.000000 0.050375 0.000000 0.004538
# 5 0.012695 0.007255 -0.002207 0.000000 0.037190 0.000000
# 6 0.000000 0.000000 0.000000 0.004538 0.000000 0.050721
#
#
# Mechanical properties :
#
#
# Convention : Reuss Voigt Hill
#
# Bulk Modulus (GPa) = 31.92132 72.79836 52.35984
# Shear Modulus (GPa) = 22.12932 33.74549 27.93740
#
# Velocity S-wave (km/s) = 3.22199 3.97876 3.62021
# Velocity P-wave (km/s) = 5.36810 7.43359 6.48362
#
# Compressibility (1/GPa) = 0.03132703
#
# Stress axis : x y z
#
# Youngs Moduli (GPa) = 29.64400 147.16260 72.76586
#
# Poissons Ratio (x) = 0.20069 0.55538
# Poissons Ratio (y) = 0.04043 0.18018
# Poissons Ratio (z) = 0.22625 0.36440
#
# Static dielectric constant tensor:
#      x y z
#    x 1.816190 0.000000 0.083880 
#    y 0.000000 1.788320 0.000000 
#    z 0.083880 0.000000 1.786770 
# 
# From -- ./inp_files/29564.got.cif
#   From: 2010.05.17/outbox.cif.g08.bks.cpg/sg14_15_cif.got.tgz:29564.got - 2010.06.03 17:49:19.
