data_PCOD9253039
_publ_section_title
;
Structure prediction by ZEFSAII (Michael W. Deem and Ramdas Pophale) SiO2 
 PCOD9253039
Probable space group: P 21/C
;
_chemical_formula_sum "Si O2"
_cell_formula_units_Z 30
_cell_length_a 8.841527
_cell_length_b 13.336006
_cell_length_c 12.211314
_cell_angle_alpha 90.000000
_cell_angle_beta 59.013099
_cell_angle_gamma 90.000000
_cell_volume 1234.356752
_symmetry_space_group_name_H-M "P 21/C"
_symmetry_group_IT_number 14
_symmetry_cell_setting 'monoclinic'
loop_
_space_group_symop_operation_xyz
x,y,z
-x,1/2+y,1/2-z
-x,-y,-z
x,1/2-y,1/2+z
loop_
_atom_site_type_symbol
_atom_site_label
_atom_site_fract_x
_atom_site_fract_y
_atom_site_fract_z
Si Si1 0.181147 0.661987 0.288096
Si Si2 0.253667 0.337378 0.919307
Si Si3 0.487317 0.999854 0.633780
Si Si4 0.983344 0.888605 0.055201
Si Si5 0.579524 0.851165 0.165642
Si Si6 0.038122 0.636932 0.792750
Si Si7 0.140073 0.083719 0.244655
Si Si8 0.500000 0.500000 0.500000
O O1 0.322303 0.572295 0.224760
O O2 0.136244 0.669248 0.433982
O O3 0.190357 0.778478 0.247321
O O4 0.011285 0.622532 0.281659
O O5 0.336226 0.447875 0.891235
O O6 0.427742 0.266172 0.856804
O O7 0.159710 0.336925 0.836024
O O8 0.125935 0.327091 0.071374
O O9 0.500000 0.000000 0.500000
O O10 0.471221 0.107957 0.695954
O O11 0.999942 0.878368 0.178276
O O12 0.792691 0.855616 0.086941
O O13 0.000000 0.000000 0.000000
O O14 0.503579 0.929230 0.107984
O O15 0.082177 0.524509 0.812998
O O16 0.324314 0.063011 0.113755
#
# Coordination Sequence:
#
# PCOD9253039 Si02
#       8
#     4   4   4   4   4   4   4   2
#     4  12  26  46  76 108 144 198 251 302 383 449
#     4  12  27  48  76 108 153 197 249 309 388 442
#     4  12  28  50  71 109 152 196 244 313 375 451
#     4  12  21  46  75 101 145 193 246 305 372 443
#     4  12  24  47  74 103 149 198 244 307 376 445
#     4  12  26  46  77 112 148 196 255 315 372 457
#     4  12  25  47  76 108 149 196 250 315 370 451
#     4  12  24  44  72 106 146 190 254 306 360 446
#
# _framework density 24.304155999999999
#
# number of rings (size 3 to 8) (size 9 to 14) (size 15 to 20)
#    0.000    0.000    6.667    2.800    1.867    1.067 
#    2.400    0.000    0.000    0.000    0.000    0.000 
#    0.000    0.000    0.000    0.000    0.000    0.000 
#
# Total GULP energy -167213.044704 kJ/mol
# GULP energy per Si atom -5573.768157 kJ/mol
# Density = 2.424884 g / cm^3
# Si number density = 24.304156 Si / 1000 Ang^3
#
#
#
# Elastic Constant Matrix: (Units=GPa)
#
#
# Indices 1 2 3 4 5 6 
#
# 1 61.2932 9.2458 29.2421 0.0000 15.8761 0.0000
# 2 9.2458 100.1083 24.2922 0.0000 13.4630 0.0000
# 3 29.2421 24.2922 156.1705 0.0000 20.4484 0.0000
# 4 0.0000 0.0000 0.0000 33.5961 0.0000 -4.8016
# 5 15.8761 13.4630 20.4484 0.0000 36.0945 0.0000
# 6 0.0000 0.0000 0.0000 -4.8016 0.0000 45.0619
#
#
#
# Elastic Compliance Matrix: (Units=1/GPa)
#
#
# Indices 1 2 3 4 5 6 
#
# 1 0.019431 -0.000207 -0.002697 0.000000 -0.006942 0.000000
# 2 -0.000207 0.010736 -0.001208 0.000000 -0.003229 0.000000
# 3 -0.002697 -0.001208 0.007433 0.000000 -0.002574 0.000000
# 4 0.000000 0.000000 0.000000 0.030226 0.000000 0.003221
# 5 -0.006942 -0.003229 -0.002574 0.000000 0.033421 0.000000
# 6 0.000000 0.000000 0.000000 0.003221 0.000000 0.022535
#
#
# Mechanical properties :
#
#
# Convention : Reuss Voigt Hill
#
# Bulk Modulus (GPa) = 34.04211 49.23690 41.63950
# Shear Modulus (GPa) = 35.26141 39.93661 37.59901
#
# Velocity S-wave (km/s) = 3.81312 4.05804 3.93748
# Velocity P-wave (km/s) = 5.78132 6.50073 6.15155
#
# Compressibility (1/GPa) = 0.02937539
#
# Stress axis : x y z
#
# Youngs Moduli (GPa) = 51.46405 93.14678 134.52930
#
# Poissons Ratio (x) = 0.01924 0.36287
# Poissons Ratio (y) = 0.01063 0.16258
# Poissons Ratio (z) = 0.13882 0.11257
#
# Static dielectric constant tensor:
#      x y z
#    x 2.067240 0.000000 0.004340 
#    y 0.000000 3.467430 0.000000 
#    z 0.004340 0.000000 1.973000 
# 
# From -- ./inp_files/25455.got.cif
#   From: 2010.05.17/outbox.cif.g08.bks.cpg/sg14_13_cif.got.tgz:25455.got - 2010.06.03 17:49:19.
