data_PCOD9253785
_publ_section_title
;
Structure prediction by ZEFSAII (Michael W. Deem and Ramdas Pophale) SiO2 
 PCOD9253785
Probable space group: C 2/C
;
_chemical_formula_sum "Si O2"
_cell_formula_units_Z 56
_cell_length_a 21.344827
_cell_length_b 15.074480
_cell_length_c 11.943923
_cell_angle_alpha 90.000000
_cell_angle_beta 143.819771
_cell_angle_gamma 90.000000
_cell_volume 2268.687877
_symmetry_space_group_name_H-M "C 2/C"
_symmetry_group_IT_number 15
_symmetry_cell_setting 'monoclinic'
loop_
_space_group_symop_operation_xyz
x,y,z
-x,y,1/2-z
-x,-y,-z
x,-y,1/2+z
1/2+x,1/2+y,z
1/2-x,1/2+y,1/2-z
1/2-x,1/2-y,-z
1/2+x,1/2-y,1/2+z
loop_
_atom_site_type_symbol
_atom_site_label
_atom_site_fract_x
_atom_site_fract_y
_atom_site_fract_z
Si Si1 0.959353 0.550865 0.552461
Si Si2 0.500000 0.661344 0.250000
Si Si3 0.305791 0.571686 0.841736
Si Si4 0.663393 0.304896 0.806603
Si Si5 0.500000 0.111710 0.250000
Si Si6 0.187944 0.566137 0.884168
Si Si7 0.736094 0.363987 0.689894
Si Si8 0.214228 0.637926 0.477946
O O1 0.932099 0.462494 0.583573
O O2 0.861584 0.617798 0.399679
O O3 0.000000 0.500000 0.500000
O O4 0.070604 0.594200 0.752931
O O5 0.589646 0.606520 0.445163
O O6 0.441604 0.707108 0.271889
O O7 0.212165 0.597169 0.793876
O O8 0.310522 0.463907 0.859048
O O9 0.283799 0.618259 0.689983
O O10 0.676352 0.299678 0.692002
O O11 0.750000 0.250000 0.000000
O O12 0.713408 0.402355 0.900167
O O13 0.592150 0.166931 0.324117
O O14 0.193078 0.461056 0.897415
O O15 0.733403 0.322574 0.560086
#
# Coordination Sequence:
#
# PCOD9253785 Si02
#       8
#     8   4   8   8   4   8   8   8
#     4  11  15  26  49  85 130 157 191 243 320 384
#     4  10  26  44  67  86 118 181 216 268 336 378
#     4  10  18  36  56  87 131 161 210 259 335 387
#     4  11  24  44  61  82 121 166 227 266 302 383
#     4  10  14  22  43  78 124 173 176 230 312 390
#     4   9  18  31  52  87 120 170 196 254 315 373
#     4  11  20  32  54  94 128 167 209 262 325 387
#     4  10  17  28  53  87 137 157 195 256 326 389
#
# _framework density 24.683872000000001
#
# number of rings (size 3 to 8) (size 9 to 14) (size 15 to 20)
#    0.000    1.714    7.143    0.857    0.000    1.714 
#    0.000    0.000    0.000    3.429    0.000    4.000 
#    0.000    0.000    0.000    0.000    0.000    0.000 
#
# Total GULP energy -155904.870028 kJ/mol
# GULP energy per Si atom -5568.031072 kJ/mol
# Density = 2.462769 g / cm^3
# Si number density = 24.683872 Si / 1000 Ang^3
#
#
#
# Elastic Constant Matrix: (Units=GPa)
#
#
# Indices 1 2 3 4 5 6 
#
# 1 222.0139 23.2646 57.8463 0.0000 -23.7363 0.0000
# 2 23.2646 22.9097 -1.0530 0.0000 12.8617 0.0000
# 3 57.8463 -1.0530 117.3194 0.0000 -13.3403 0.0000
# 4 0.0000 0.0000 0.0000 27.7770 0.0000 14.3023
# 5 -23.7363 12.8617 -13.3403 0.0000 55.5257 0.0000
# 6 0.0000 0.0000 0.0000 14.3023 0.0000 -2.1886
#
#
#
# Elastic Compliance Matrix: (Units=1/GPa)
#
#
# Indices 1 2 3 4 5 6 
#
# 1 0.006707 -0.009383 -0.002897 0.000000 0.004344 0.000000
# 2 -0.009383 0.063393 0.003156 0.000000 -0.017937 0.000000
# 3 -0.002897 0.003156 0.010031 0.000000 0.000440 0.000000
# 4 0.000000 0.000000 0.000000 0.008248 0.000000 0.053900
# 5 0.004344 -0.017937 0.000440 0.000000 0.024127 0.000000
# 6 0.000000 0.000000 0.000000 0.053900 0.000000 -0.104681
#
#
# Mechanical properties :
#
#
# Convention : Reuss Voigt Hill
#
# Bulk Modulus (GPa) = 16.15982 58.03985 37.09984
# Shear Modulus (GPa) = 107.06634 35.03517 71.05075
#
# Velocity S-wave (km/s) = 6.59312 3.77152 5.37092
# Velocity P-wave (km/s) = 8.03242 6.52151 7.31608
#
# Compressibility (1/GPa) = 0.06188188
#
# Stress axis : x y z
#
# Youngs Moduli (GPa) = 149.10330 15.77466 99.69479
#
# Poissons Ratio (x) = 0.14801 0.28883
# Poissons Ratio (y) = 1.39901 -0.31461
# Poissons Ratio (z) = 0.43197 -0.04978
#
# Static dielectric constant tensor:
#      x y z
#    x 2.200870 0.000000 -0.141600 
#    y 0.000000 2.174750 0.000000 
#    z -0.141600 0.000000 2.143540 
# 
# From -- ./inp_files/114127.got.cif
#   From: 2010.05.17/outbox.cif.g08.bks.cpg/sg15_58_cif.got.tgz:114127.got - 2010.06.03 18:47:42.
