data_PCOD9253207
_publ_section_title
;
Structure prediction by ZEFSAII (Michael W. Deem and Ramdas Pophale) SiO2 
 PCOD9253207
Probable space group: P 21/C
;
_chemical_formula_sum "Si O2"
_cell_formula_units_Z 16
_cell_length_a 16.592772
_cell_length_b 8.329982
_cell_length_c 9.567236
_cell_angle_alpha 90.000000
_cell_angle_beta 30.130257
_cell_angle_gamma 90.000000
_cell_volume 663.781478
_symmetry_space_group_name_H-M "P 21/C"
_symmetry_group_IT_number 14
_symmetry_cell_setting 'monoclinic'
loop_
_space_group_symop_operation_xyz
x,y,z
-x,1/2+y,1/2-z
-x,-y,-z
x,1/2-y,1/2+z
loop_
_atom_site_type_symbol
_atom_site_label
_atom_site_fract_x
_atom_site_fract_y
_atom_site_fract_z
Si Si1 0.342865 0.062887 0.907025
Si Si2 0.842865 0.437111 0.564380
Si Si3 0.342868 0.062888 0.407020
Si Si4 0.842866 0.062886 0.564378
O O1 0.300223 0.964739 0.332436
O O2 0.199775 0.035264 0.233109
O O3 0.499997 0.999999 0.750006
O O4 0.300223 0.964736 0.832439
O O5 0.857437 0.249999 0.577118
O O6 0.000000 0.499999 0.250001
O O7 0.800220 0.535261 0.766898
O O8 0.357436 0.250001 0.350571
#
# Coordination Sequence:
#
# PCOD9253207 Si02
#       4
#     4   4   4   4
#     4  12  25  44  67  96 130 170 214 264 319 380
#     4  12  25  44  67  96 130 170 214 264 319 380
#     4  12  25  44  67  96 130 170 214 264 319 380
#     4  12  25  44  67  96 130 170 214 264 319 380
#
# _framework density 24.104317000000002
#
# number of rings (size 3 to 8) (size 9 to 14) (size 15 to 20)
#    0.000    0.000    0.000   12.000    0.000    0.000 
#    0.000    0.000    0.000    0.000    0.000    0.000 
#    0.000    0.000    0.000    0.000    0.000    0.000 
#
# Total GULP energy -89838.861400 kJ/mol
# GULP energy per Si atom -5614.928837 kJ/mol
# Density = 2.404945 g / cm^3
# Si number density = 24.104317 Si / 1000 Ang^3
#
#
#
# Elastic Constant Matrix: (Units=GPa)
#
#
# Indices 1 2 3 4 5 6 
#
# 1 86.6519 -11.0268 -9.7937 0.0000 2.6758 0.0000
# 2 -11.0268 132.8913 -3.9095 0.0000 -12.5193 0.0000
# 3 -9.7937 -3.9095 82.8952 0.0000 3.9523 0.0000
# 4 0.0000 0.0000 0.0000 40.4719 0.0000 -0.1175
# 5 2.6758 -12.5193 3.9523 0.0000 45.2182 0.0000
# 6 0.0000 0.0000 0.0000 -0.1175 0.0000 40.4058
#
#
#
# Elastic Compliance Matrix: (Units=1/GPa)
#
#
# Indices 1 2 3 4 5 6 
#
# 1 0.011848 0.000974 0.001472 0.000000 -0.000560 0.000000
# 2 0.000974 0.007812 0.000385 0.000000 0.002072 0.000000
# 3 0.001472 0.000385 0.012306 0.000000 -0.001056 0.000000
# 4 0.000000 0.000000 0.000000 0.024709 0.000000 0.000072
# 5 -0.000560 0.002072 -0.001056 0.000000 0.022814 0.000000
# 6 0.000000 0.000000 0.000000 0.000072 0.000000 0.024749
#
#
# Mechanical properties :
#
#
# Convention : Reuss Voigt Hill
#
# Bulk Modulus (GPa) = 26.57618 28.10871 27.34244
# Shear Modulus (GPa) = 44.99677 47.03040 46.01358
#
# Velocity S-wave (km/s) = 4.32528 4.42194 4.37388
# Velocity P-wave (km/s) = 5.99946 6.14475 6.07254
#
# Compressibility (1/GPa) = 0.03762768
#
# Stress axis : x y z
#
# Youngs Moduli (GPa) = 84.40211 128.00461 81.26188
#
# Poissons Ratio (x) = -0.12463 -0.11965
# Poissons Ratio (y) = -0.08218 -0.03126
# Poissons Ratio (z) = -0.12428 -0.04924
#
# Static dielectric constant tensor:
#      x y z
#    x 1.938970 0.000000 -0.075830 
#    y 0.000000 1.847060 0.000000 
#    z -0.075830 0.000000 1.982020 
# 
# From -- ./inp_files/17424.got.cif
#   From: 2010.05.17/outbox.cif.g08.bks.cpg/sg14_9_cif.got.tgz:17424.got - 2010.06.03 17:49:19.
