data_PCOD9253357
_publ_section_title
;
Structure prediction by ZEFSAII (Michael W. Deem and Ramdas Pophale) SiO2 
 PCOD9253357
Probable space group: P 21/C
;
_chemical_formula_sum "Si O2"
_cell_formula_units_Z 24
_cell_length_a 17.429366
_cell_length_b 8.293069
_cell_length_c 18.685049
_cell_angle_alpha 90.000000
_cell_angle_beta 21.124868
_cell_angle_gamma 90.000000
_cell_volume 973.369970
_symmetry_space_group_name_H-M "P 21/C"
_symmetry_group_IT_number 14
_symmetry_cell_setting 'monoclinic'
loop_
_space_group_symop_operation_xyz
x,y,z
-x,1/2+y,1/2-z
-x,-y,-z
x,1/2-y,1/2+z
loop_
_atom_site_type_symbol
_atom_site_label
_atom_site_fract_x
_atom_site_fract_y
_atom_site_fract_z
Si Si1 0.483962 0.603877 0.195429
Si Si2 0.874820 0.396123 0.304571
Si Si3 0.233988 0.563656 0.929020
Si Si4 0.416433 0.393504 0.637842
Si Si5 0.907973 0.563656 0.429020
Si Si6 0.307882 0.393504 0.137842
O O1 0.640538 0.543438 0.121244
O O2 0.343812 0.761916 0.334675
O O3 0.315434 0.456327 0.335723
O O4 0.616532 0.646011 0.009056
O O5 0.634643 0.353989 0.490944
O O6 0.013162 0.238084 0.165325
O O7 0.883027 0.456561 0.378755
O O8 0.986880 0.543673 0.164277
O O9 0.271131 0.490458 0.818900
O O10 0.500000 0.500000 0.500000
O O11 0.293827 0.250000 0.706173
O O12 0.091070 0.490458 0.318900
O O13 0.500000 0.500000 0.000000
#
# Coordination Sequence:
#
# PCOD9253357 Si02
#       6
#     4   4   4   4   4   4
#     4  12  27  46  76 108 144 195 244 296 360 437
#     4  12  27  46  76 108 144 195 244 296 360 437
#     4  12  27  46  76 107 146 192 246 294 362 438
#     4  12  28  50  72 107 151 188 239 304 365 422
#     4  12  27  46  76 107 146 192 246 294 362 438
#     4  12  28  50  72 107 151 188 239 304 365 422
#
# _framework density 24.656604999999999
#
# number of rings (size 3 to 8) (size 9 to 14) (size 15 to 20)
#    0.000    0.000    6.667    2.000    9.333    2.667 
#    0.000    0.000    0.000    0.000    0.000    0.000 
#    0.000    0.000    0.000    0.000    0.000    0.000 
#
# Total GULP energy -134554.033299 kJ/mol
# GULP energy per Si atom -5606.418054 kJ/mol
# Density = 2.460049 g / cm^3
# Si number density = 24.656605 Si / 1000 Ang^3
#
#
#
# Elastic Constant Matrix: (Units=GPa)
#
#
# Indices 1 2 3 4 5 6 
#
# 1 105.3113 11.5509 9.6431 0.0000 0.5968 0.0000
# 2 11.5509 60.5524 -14.0724 0.0000 -1.0206 0.0000
# 3 9.6431 -14.0724 84.9648 0.0000 -1.4073 0.0000
# 4 0.0000 0.0000 0.0000 40.2409 0.0000 0.5099
# 5 0.5968 -1.0206 -1.4073 0.0000 55.2455 0.0000
# 6 0.0000 0.0000 0.0000 0.5099 0.0000 27.4407
#
#
#
# Elastic Compliance Matrix: (Units=1/GPa)
#
#
# Indices 1 2 3 4 5 6 
#
# 1 0.009879 -0.002235 -0.001494 0.000000 -0.000186 0.000000
# 2 -0.002235 0.017690 0.003191 0.000000 0.000432 0.000000
# 3 -0.001494 0.003191 0.012474 0.000000 0.000393 0.000000
# 4 0.000000 0.000000 0.000000 0.024856 0.000000 -0.000462
# 5 -0.000186 0.000432 0.000393 0.000000 0.018121 0.000000
# 6 0.000000 0.000000 0.000000 -0.000462 0.000000 0.036451
#
#
# Mechanical properties :
#
#
# Convention : Reuss Voigt Hill
#
# Bulk Modulus (GPa) = 25.66382 29.45243 27.55812
# Shear Modulus (GPa) = 37.44300 40.83255 39.13777
#
# Velocity S-wave (km/s) = 3.90112 4.07387 3.98843
# Velocity P-wave (km/s) = 5.54281 5.83948 5.69308
#
# Compressibility (1/GPa) = 0.03896536
#
# Stress axis : x y z
#
# Youngs Moduli (GPa) = 101.22809 56.52993 80.16568
#
# Poissons Ratio (x) = 0.12634 0.11980
# Poissons Ratio (y) = 0.22623 -0.25578
# Poissons Ratio (z) = 0.15128 -0.18037
#
# Static dielectric constant tensor:
#      x y z
#    x 1.911830 0.000000 0.002140 
#    y 0.000000 2.009840 0.000000 
#    z 0.002140 0.000000 1.965500 
# 
# From -- ./inp_files/59004.got.cif
#   From: 2010.05.17/outbox.cif.g08.bks.cpg/sg14_30_cif.got.tgz:59004.got - 2010.06.03 17:49:19.
