data_PCOD9253086
_publ_section_title
;
Structure prediction by ZEFSAII (Michael W. Deem and Ramdas Pophale) SiO2 
 PCOD9253086
Probable space group: P 21/C
;
_chemical_formula_sum "Si O2"
_cell_formula_units_Z 28
_cell_length_a 15.215105
_cell_length_b 14.963957
_cell_length_c 9.016091
_cell_angle_alpha 90.000000
_cell_angle_beta 37.114646
_cell_angle_gamma 90.000000
_cell_volume 1238.664025
_symmetry_space_group_name_H-M "P 21/C"
_symmetry_group_IT_number 14
_symmetry_cell_setting 'monoclinic'
loop_
_space_group_symop_operation_xyz
x,y,z
-x,1/2+y,1/2-z
-x,-y,-z
x,1/2-y,1/2+z
loop_
_atom_site_type_symbol
_atom_site_label
_atom_site_fract_x
_atom_site_fract_y
_atom_site_fract_z
Si Si1 0.785050 0.636083 0.981764
Si Si2 0.189246 0.312779 0.726023
Si Si3 0.153715 0.843075 0.312203
Si Si4 0.259706 0.685657 0.003623
Si Si5 0.734764 0.997148 0.005784
Si Si6 0.915045 0.425346 0.523561
Si Si7 0.441875 0.517096 0.744663
O O1 0.759314 0.718137 0.905606
O O2 0.958395 0.618607 0.745296
O O3 0.744926 0.664302 0.202329
O O4 0.697995 0.547280 0.053521
O O5 0.228152 0.393190 0.562805
O O6 0.013927 0.315023 0.977033
O O7 0.258972 0.787770 0.058511
O O8 0.200982 0.823289 0.416349
O O9 0.177791 0.946567 0.237975
O O10 0.151045 0.642117 0.269487
O O11 0.399115 0.620921 0.821777
O O12 0.791417 0.034186 0.084917
O O13 0.565936 0.008761 0.194220
O O14 0.000000 0.500000 0.500000
O O15 0.500000 0.500000 0.500000
#
# Coordination Sequence:
#
# PCOD9253086 Si02
#       7
#     4   4   4   4   4   4   4
#     4  12  26  46  75 108 147 186 245 305 365 431
#     4  12  25  43  75 110 142 189 247 308 364 425
#     4  12  23  43  74 111 143 191 250 308 365 429
#     4  12  25  44  74 106 151 186 246 305 366 434
#     4  12  27  47  75 104 151 197 242 295 374 437
#     4  12  25  46  75 109 139 188 248 312 359 427
#     4  12  26  52  70 106 153 199 236 297 368 447
#
# _framework density 22.604998999999999
#
# number of rings (size 3 to 8) (size 9 to 14) (size 15 to 20)
#    0.000    0.000    7.143    3.000    2.000    1.714 
#    0.000    0.000    0.000    0.000    0.000    0.000 
#    0.000    0.000    0.000    0.000    0.000    0.000 
#
# Total GULP energy -156784.932601 kJ/mol
# GULP energy per Si atom -5599.461879 kJ/mol
# Density = 2.255355 g / cm^3
# Si number density = 22.604999 Si / 1000 Ang^3
#
#
#
# Elastic Constant Matrix: (Units=GPa)
#
#
# Indices 1 2 3 4 5 6 
#
# 1 142.9089 8.3842 13.9278 0.0000 4.9512 0.0000
# 2 8.3842 64.6492 7.1494 0.0000 -7.3101 0.0000
# 3 13.9278 7.1494 50.3790 0.0000 -7.8352 0.0000
# 4 0.0000 0.0000 0.0000 52.5655 0.0000 10.8438
# 5 4.9512 -7.3101 -7.8352 0.0000 33.6685 0.0000
# 6 0.0000 0.0000 0.0000 10.8438 0.0000 27.2313
#
#
#
# Elastic Compliance Matrix: (Units=1/GPa)
#
#
# Indices 1 2 3 4 5 6 
#
# 1 0.007324 -0.000911 -0.002173 0.000000 -0.001780 0.000000
# 2 -0.000911 0.016126 -0.001527 0.000000 0.003280 0.000000
# 3 -0.002173 -0.001527 0.021441 0.000000 0.004978 0.000000
# 4 0.000000 0.000000 0.000000 0.020726 0.000000 -0.008254
# 5 -0.001780 0.003280 0.004978 0.000000 0.031834 0.000000
# 6 0.000000 0.000000 0.000000 -0.008254 0.000000 0.040009
#
#
# Mechanical properties :
#
#
# Convention : Reuss Voigt Hill
#
# Bulk Modulus (GPa) = 28.03377 35.20665 31.62021
# Shear Modulus (GPa) = 31.53164 37.92477 34.72820
#
# Velocity S-wave (km/s) = 3.73888 4.10044 3.92383
# Velocity P-wave (km/s) = 5.57382 6.16657 5.87768
#
# Compressibility (1/GPa) = 0.03567127
#
# Stress axis : x y z
#
# Youngs Moduli (GPa) = 136.53137 62.01198 46.63975
#
# Poissons Ratio (x) = 0.05649 0.10133
# Poissons Ratio (y) = 0.12437 0.07120
# Poissons Ratio (z) = 0.29662 0.09466
#
# Static dielectric constant tensor:
#      x y z
#    x 1.797150 0.000000 -0.006290 
#    y 0.000000 1.950290 0.000000 
#    z -0.006290 0.000000 1.851620 
# 
# From -- ./inp_files/16397.got.cif
#   From: 2010.05.17/outbox.cif.g08.bks.cpg/sg14_9_cif.got.tgz:16397.got - 2010.06.03 17:49:19.
