data_PCOD9253996
_publ_section_title
;
Structure prediction by ZEFSAII (Michael W. Deem and Ramdas Pophale) SiO2 
 PCOD9253996
Probable space group: C 2/C
;
_chemical_formula_sum "Si O2"
_cell_formula_units_Z 56
_cell_length_a 9.054504
_cell_length_b 15.903110
_cell_length_c 16.015816
_cell_angle_alpha 90.000000
_cell_angle_beta 105.111477
_cell_angle_gamma 90.000000
_cell_volume 2226.446600
_symmetry_space_group_name_H-M "C 2/C"
_symmetry_group_IT_number 15
_symmetry_cell_setting 'monoclinic'
loop_
_space_group_symop_operation_xyz
x,y,z
-x,y,1/2-z
-x,-y,-z
x,-y,1/2+z
1/2+x,1/2+y,z
1/2-x,1/2+y,1/2-z
1/2-x,1/2-y,-z
1/2+x,1/2-y,1/2+z
loop_
_atom_site_type_symbol
_atom_site_label
_atom_site_fract_x
_atom_site_fract_y
_atom_site_fract_z
Si Si1 0.325465 0.047674 0.571384
Si Si2 0.762372 0.231272 0.903523
Si Si3 0.385233 0.905734 0.313395
Si Si4 0.589404 0.295668 0.468891
Si Si5 0.422754 0.717366 0.337759
Si Si6 0.406138 0.517225 0.572202
Si Si7 0.309619 0.543369 0.297567
O O1 0.246441 0.129602 0.602026
O O2 0.502576 0.070176 0.594417
O O3 0.249689 0.030571 0.471496
O O4 0.287515 0.972967 0.630823
O O5 0.602716 0.265125 0.840548
O O6 0.750000 0.250000 0.000000
O O7 0.939659 0.251261 0.908308
O O8 0.500000 0.909080 0.250000
O O9 0.341232 0.808424 0.318283
O O10 0.262927 0.978136 0.278494
O O11 0.750000 0.250000 0.500000
O O12 0.556569 0.310636 0.562405
O O13 0.613940 0.383470 0.425425
O O14 0.323151 0.642146 0.284257
O O15 0.500000 0.500000 0.500000
O O16 0.515914 0.482126 0.658258
#
# Coordination Sequence:
#
# PCOD9253996 Si02
#       7
#     8   8   8   8   8   8   8
#     4   9  15  30  56  83 107 147 212 240 273 355
#     4   9  16  29  53  87 114 149 192 245 288 350
#     4   9  20  34  59  88 118 154 213 261 289 355
#     4  11  20  32  56  95 127 148 190 255 312 358
#     4  10  19  35  62  88 116 158 207 247 302 366
#     4  10  15  30  58  84 107 154 209 235 280 364
#     4  10  17  32  60  88 111 159 210 243 292 374
#
# _framework density 25.152184999999999
#
# number of rings (size 3 to 8) (size 9 to 14) (size 15 to 20)
#    0.000    2.286    5.714    0.857    0.000    0.000 
#    0.000    1.429    3.143   12.000    0.000    0.000 
#    0.000    0.000    0.000    0.000    0.000    0.000 
#
# Total GULP energy -156355.247094 kJ/mol
# GULP energy per Si atom -5584.115968 kJ/mol
# Density = 2.509494 g / cm^3
# Si number density = 25.152185 Si / 1000 Ang^3
#
#
#
# Elastic Constant Matrix: (Units=GPa)
#
#
# Indices 1 2 3 4 5 6 
#
# 1 71.2364 61.0954 15.5097 0.0000 26.2986 0.0000
# 2 61.0954 172.8909 49.9656 0.0000 36.6724 0.0000
# 3 15.5097 49.9656 83.1173 0.0000 36.0012 0.0000
# 4 0.0000 0.0000 0.0000 47.8822 0.0000 9.9564
# 5 26.2986 36.6724 36.0012 0.0000 50.9977 0.0000
# 6 0.0000 0.0000 0.0000 9.9564 0.0000 35.2775
#
#
#
# Elastic Compliance Matrix: (Units=1/GPa)
#
#
# Indices 1 2 3 4 5 6 
#
# 1 0.022897 -0.007291 0.004255 0.000000 -0.009568 0.000000
# 2 -0.007291 0.009649 -0.004412 0.000000 -0.000064 0.000000
# 3 0.004255 -0.004412 0.019397 0.000000 -0.012714 0.000000
# 4 0.000000 0.000000 0.000000 0.022187 0.000000 -0.006262
# 5 -0.009568 -0.000064 -0.012714 0.000000 0.033564 0.000000
# 6 0.000000 0.000000 0.000000 -0.006262 0.000000 0.030114
#
#
# Mechanical properties :
#
#
# Convention : Reuss Voigt Hill
#
# Bulk Modulus (GPa) = 26.99407 64.48731 45.74069
# Shear Modulus (GPa) = 30.29312 40.20975 35.25143
#
# Velocity S-wave (km/s) = 3.47420 4.00266 3.74776
# Velocity P-wave (km/s) = 5.18161 6.85975 6.07887
#
# Compressibility (1/GPa) = 0.03704517
#
# Stress axis : x y z
#
# Youngs Moduli (GPa) = 43.67365 103.63401 51.55539
#
# Poissons Ratio (x) = 0.75564 -0.21936
# Poissons Ratio (y) = 0.31844 0.22748
# Poissons Ratio (z) = -0.18583 0.45727
#
# Static dielectric constant tensor:
#      x y z
#    x 2.104530 0.000000 -0.026940 
#    y 0.000000 1.986380 0.000000 
#    z -0.026940 0.000000 2.153590 
# 
# From -- ./inp_files/264817.got.cif
#   From: 2010.05.17/outbox.cif.g08.bks.cpg/sg15_133_cif.got.tgz:264817.got - 2010.06.03 18:47:42.
