data_PCOD9253961
_publ_section_title
;
Structure prediction by ZEFSAII (Michael W. Deem and Ramdas Pophale) SiO2 
 PCOD9253961
Probable space group: C 2/C
;
_chemical_formula_sum "Si O2"
_cell_formula_units_Z 24
_cell_length_a 6.663096
_cell_length_b 16.881028
_cell_length_c 9.127810
_cell_angle_alpha 90.000000
_cell_angle_beta 121.991766
_cell_angle_gamma 90.000000
_cell_volume 870.765130
_symmetry_space_group_name_H-M "C 2/C"
_symmetry_group_IT_number 15
_symmetry_cell_setting 'monoclinic'
loop_
_space_group_symop_operation_xyz
x,y,z
-x,y,1/2-z
-x,-y,-z
x,-y,1/2+z
1/2+x,1/2+y,z
1/2-x,1/2+y,1/2-z
1/2-x,1/2-y,-z
1/2+x,1/2-y,1/2+z
loop_
_atom_site_type_symbol
_atom_site_label
_atom_site_fract_x
_atom_site_fract_y
_atom_site_fract_z
Si Si1 0.614191 0.919654 0.599460
Si Si2 0.192002 0.687407 0.696442
Si Si3 0.944445 0.135841 0.434195
O O1 0.411894 0.854680 0.487733
O O2 0.831710 0.892286 0.578310
O O3 0.741217 0.926167 0.807346
O O4 0.500000 0.000000 0.500000
O O5 0.000000 0.672065 0.750000
O O6 0.172758 0.781250 0.663824
O O7 0.431456 0.655458 0.863549
#
# Coordination Sequence:
#
# PCOD9253961 Si02
#       3
#     8   8   8
#     4  10  19  27  42  74 102 117 148 197 238 266
#     4  10  15  28  50  70  88 122 154 191 233 272
#     4  10  17  30  51  68  94 124 153 191 233 277
#
# _framework density 27.561968
#
# number of rings (size 3 to 8) (size 9 to 14) (size 15 to 20)
#    0.000    2.000    6.667    2.000    0.000    1.333 
#    0.000    0.000    0.000    0.000    0.000    9.333 
#    0.000    0.000    0.000    0.000    0.000    0.000 
#
# Total GULP energy -67133.266482 kJ/mol
# GULP energy per Si atom -5594.438873 kJ/mol
# Density = 2.749924 g / cm^3
# Si number density = 27.561968 Si / 1000 Ang^3
#
#
#
# Elastic Constant Matrix: (Units=GPa)
#
#
# Indices 1 2 3 4 5 6 
#
# 1 97.6392 25.3151 93.2606 0.0000 11.3875 0.0000
# 2 25.3151 126.7432 69.4458 0.0000 13.5271 0.0000
# 3 93.2606 69.4458 314.8585 0.0000 21.6994 0.0000
# 4 0.0000 0.0000 0.0000 66.6548 0.0000 2.6715
# 5 11.3875 13.5271 21.6994 0.0000 76.7386 0.0000
# 6 0.0000 0.0000 0.0000 2.6715 0.0000 1.0490
#
#
#
# Elastic Compliance Matrix: (Units=1/GPa)
#
#
# Indices 1 2 3 4 5 6 
#
# 1 0.014382 -0.000543 -0.004079 0.000000 -0.000885 0.000000
# 2 -0.000543 0.009078 -0.001771 0.000000 -0.001019 0.000000
# 3 -0.004079 -0.001771 0.004805 0.000000 -0.000441 0.000000
# 4 0.000000 0.000000 0.000000 0.016708 0.000000 -0.042553
# 5 -0.000885 -0.001019 -0.000441 0.000000 0.013467 0.000000
# 6 0.000000 0.000000 0.000000 -0.042553 0.000000 1.061699
#
#
# Mechanical properties :
#
#
# Convention : Reuss Voigt Hill
#
# Bulk Modulus (GPa) = 64.60665 101.69821 83.15243
# Shear Modulus (GPa) = 4.39334 52.30311 28.34823
#
# Velocity S-wave (km/s) = 1.26390 4.36093 3.21054
# Velocity P-wave (km/s) = 5.06175 7.89526 6.63161
#
# Compressibility (1/GPa) = 0.01547828
#
# Stress axis : x y z
#
# Youngs Moduli (GPa) = 69.53115 110.16128 208.10264
#
# Poissons Ratio (x) = 0.05983 0.84888
# Poissons Ratio (y) = 0.03776 0.36857
# Poissons Ratio (z) = 0.28363 0.19511
#
# Static dielectric constant tensor:
#      x y z
#    x 2.422040 0.000000 -0.051960 
#    y 0.000000 2.155500 0.000000 
#    z -0.051960 0.000000 2.122460 
# 
# From -- ./inp_files/21025.got.cif
#   From: 2010.05.17/outbox.cif.g08.bks.cpg/sg15_11_cif.got.tgz:21025.got - 2010.06.03 18:47:42.
