data_PCOD9253473
_publ_section_title
;
Structure prediction by ZEFSAII (Michael W. Deem and Ramdas Pophale) SiO2 
 PCOD9253473
Probable space group: P 21/C
;
_chemical_formula_sum "Si O2"
_cell_formula_units_Z 32
_cell_length_a 15.000000
_cell_length_b 21.000000
_cell_length_c 15.000000
_cell_angle_alpha 90.000000
_cell_angle_beta 20.000000
_cell_angle_gamma 90.000000
_cell_volume 1616.045177
_symmetry_space_group_name_H-M "P 21/C"
_symmetry_group_IT_number 14
_symmetry_cell_setting 'monoclinic'
loop_
_space_group_symop_operation_xyz
x,y,z
-x,1/2+y,1/2-z
-x,-y,-z
x,1/2-y,1/2+z
loop_
_atom_site_type_symbol
_atom_site_label
_atom_site_fract_x
_atom_site_fract_y
_atom_site_fract_z
Si Si1 0.701096 0.318945 0.392339
Si Si2 0.861071 0.684577 0.173141
Si Si3 0.606124 0.628576 0.829501
Si Si4 0.000655 0.410801 0.802464
Si Si5 0.139674 0.325160 0.234219
Si Si6 0.416904 0.625206 0.308583
Si Si7 0.460478 0.025359 0.761739
Si Si8 0.926639 0.313951 0.714348
O O1 0.427667 0.311416 0.597529
O O2 0.632492 0.366033 0.538557
O O3 0.818722 0.256296 0.329792
O O4 0.923266 0.326929 0.107221
O O5 0.887286 0.752445 0.202122
O O6 0.901173 0.624028 0.200694
O O7 0.736598 0.630529 0.803707
O O8 0.587864 0.564829 0.785696
O O9 0.796120 0.676816 0.595133
O O10 0.309832 0.652939 0.117771
O O11 0.949702 0.351930 0.783741
O O12 0.224027 0.454218 0.548587
O O13 0.729353 0.449727 0.054213
O O14 0.852452 0.350575 0.481875
O O15 0.340237 0.334450 0.962017
O O16 0.464884 0.550393 0.244279
#
# Coordination Sequence:
#
# PCOD9253473 Si02
#       8
#     4   4   4   4   4   4   4   4
#     4  12  23  41  61  92 133 163 204 267 337 377
#     4  12  24  41  67  99 125 161 216 274 320 386
#     4  10  20  37  65  91 123 167 199 262 310 375
#     4  10  22  40  67  88 121 170 220 261 307 379
#     4  12  23  41  65  99 130 157 217 266 330 382
#     4  12  27  41  64  94 132 176 208 266 316 383
#     4  10  23  44  62  91 132 172 224 248 309 387
#     4  10  18  37  60  88 121 159 198 255 329 371
#
# _framework density 19.801427
#
# number of rings (size 3 to 8) (size 9 to 14) (size 15 to 20)
#    0.000    1.000    2.500    4.500    0.000    4.000 
#    0.000    3.750    0.000    0.000    0.000    0.000 
#    0.000    0.000    0.000    0.000    0.000    0.000 
#
# Total GULP energy -178679.429756 kJ/mol
# GULP energy per Si atom -5583.732180 kJ/mol
# Density = 1.975636 g / cm^3
# Si number density = 19.801427 Si / 1000 Ang^3
#
#
#
# Elastic Constant Matrix: (Units=GPa)
#
#
# Indices 1 2 3 4 5 6 
#
# 1 62.7013 25.8324 21.3094 0.0000 -1.4168 0.0000
# 2 25.8324 63.3559 7.8976 0.0000 4.7729 0.0000
# 3 21.3094 7.8976 127.2237 0.0000 -1.5007 0.0000
# 4 0.0000 0.0000 0.0000 23.2223 0.0000 -0.8331
# 5 -1.4168 4.7729 -1.5007 0.0000 34.8952 0.0000
# 6 0.0000 0.0000 0.0000 -0.8331 0.0000 18.0330
#
#
#
# Elastic Compliance Matrix: (Units=1/GPa)
#
#
# Indices 1 2 3 4 5 6 
#
# 1 0.020282 -0.008047 -0.002876 0.000000 0.001800 0.000000
# 2 -0.008047 0.019273 0.000117 0.000000 -0.002958 0.000000
# 3 -0.002876 0.000117 0.008337 0.000000 0.000226 0.000000
# 4 0.000000 0.000000 0.000000 0.043134 0.000000 0.001993
# 5 0.001800 -0.002958 0.000226 0.000000 0.029145 0.000000
# 6 0.000000 0.000000 0.000000 0.001993 0.000000 0.055546
#
#
# Mechanical properties :
#
#
# Convention : Reuss Voigt Hill
#
# Bulk Modulus (GPa) = 38.05293 40.37333 39.21313
# Shear Modulus (GPa) = 24.26127 28.44621 26.35374
#
# Velocity S-wave (km/s) = 3.50412 3.79433 3.65211
# Velocity P-wave (km/s) = 5.96916 6.29518 6.13433
#
# Compressibility (1/GPa) = 0.02627919
#
# Stress axis : x y z
#
# Youngs Moduli (GPa) = 49.30458 51.88572 119.94164
#
# Poissons Ratio (x) = 0.41751 0.34500
# Poissons Ratio (y) = 0.39674 -0.01397
# Poissons Ratio (z) = 0.14182 -0.00604
#
# Static dielectric constant tensor:
#      x y z
#    x 1.727780 0.000000 0.017280 
#    y 0.000000 1.699480 0.000000 
#    z 0.017280 0.000000 1.683620 
# 
# From -- ./inp_files/47650.got.cif
#   From: 2010.05.17/outbox.ucp.g08.bks.cvg/sg14_24_cif.got.tgz:47650.got - 2010.06.11 12:31:08.
