data_PCOD9253900
_publ_section_title
;
Structure prediction by ZEFSAII (Michael W. Deem and Ramdas Pophale) SiO2 
 PCOD9253900
Probable space group: C 2/C
;
_chemical_formula_sum "Si O2"
_cell_formula_units_Z 52
_cell_length_a 22.581528
_cell_length_b 17.082571
_cell_length_c 15.151927
_cell_angle_alpha 90.000000
_cell_angle_beta 31.929107
_cell_angle_gamma 90.000000
_cell_volume 3091.170758
_symmetry_space_group_name_H-M "C 2/C"
_symmetry_group_IT_number 15
_symmetry_cell_setting 'monoclinic'
loop_
_space_group_symop_operation_xyz
x,y,z
-x,y,1/2-z
-x,-y,-z
x,-y,1/2+z
1/2+x,1/2+y,z
1/2-x,1/2+y,1/2-z
1/2-x,1/2-y,-z
1/2+x,1/2-y,1/2+z
loop_
_atom_site_type_symbol
_atom_site_label
_atom_site_fract_x
_atom_site_fract_y
_atom_site_fract_z
Si Si1 0.302839 0.909939 0.018007
Si Si2 0.995380 0.418192 0.061878
Si Si3 0.409061 0.227950 0.266114
Si Si4 0.221970 0.329452 0.731765
Si Si5 0.000000 0.529818 0.750000
Si Si6 0.376845 0.398077 0.391553
Si Si7 0.851970 0.686303 0.616068
O O1 0.198332 0.936538 0.090243
O O2 0.283663 0.872503 0.138305
O O3 0.361063 0.842087 0.885548
O O4 0.394643 0.976768 0.910463
O O5 0.903635 0.362039 0.131735
O O6 0.968276 0.428089 0.199141
O O7 0.000000 0.500000 0.000000
O O8 0.118733 0.379112 0.899545
O O9 0.334968 0.224113 0.272069
O O10 0.395563 0.310267 0.330131
O O11 0.536450 0.211505 0.079277
O O12 0.308180 0.385571 0.569325
O O13 0.284431 0.267083 0.715452
O O14 0.500000 0.432914 0.250000
#
# Coordination Sequence:
#
# PCOD9253900 Si02
#       7
#     8   8   8   8   4   8   8
#     4  11  17  28  51  76 111 146 177 229 286 340
#     4  11  23  37  57  85 113 149 192 241 288 338
#     4  10  15  24  43  78 113 137 161 214 289 333
#     4  10  19  29  48  79 117 146 184 228 277 344
#     4  12  22  40  56  78 110 148 198 238 284 332
#     4  11  17  24  44  80 116 143 169 214 293 354
#     4  11  17  30  50  82 111 140 181 231 280 338
#
# _framework density 16.822106999999999
#
# number of rings (size 3 to 8) (size 9 to 14) (size 15 to 20)
#    0.000    1.231    7.692    2.769    0.000    0.000 
#    0.000    0.769    0.000    0.923    8.000    0.000 
#    0.000    0.000    0.000    0.000    0.000    0.000 
#
# Total GULP energy -144896.359988 kJ/mol
# GULP energy per Si atom -5572.936923 kJ/mol
# Density = 1.678382 g / cm^3
# Si number density = 16.822107 Si / 1000 Ang^3
#
#
#
# Elastic Constant Matrix: (Units=GPa)
#
#
# Indices 1 2 3 4 5 6 
#
# 1 87.5649 31.8670 21.5303 0.0000 -9.2872 0.0000
# 2 31.8670 39.5245 13.9804 0.0000 0.9299 0.0000
# 3 21.5303 13.9804 33.9185 0.0000 -5.4334 0.0000
# 4 0.0000 0.0000 0.0000 18.4445 0.0000 -7.5639
# 5 -9.2872 0.9299 -5.4334 0.0000 35.4035 0.0000
# 6 0.0000 0.0000 0.0000 -7.5639 0.0000 32.0229
#
#
#
# Elastic Compliance Matrix: (Units=1/GPa)
#
#
# Indices 1 2 3 4 5 6 
#
# 1 0.017739 -0.012470 -0.005457 0.000000 0.004144 0.000000
# 2 -0.012470 0.038642 -0.008918 0.000000 -0.005655 0.000000
# 3 -0.005457 -0.008918 0.037348 0.000000 0.004535 0.000000
# 4 0.000000 0.000000 0.000000 0.060032 0.000000 0.014180
# 5 0.004144 -0.005655 0.004535 0.000000 0.030177 0.000000
# 6 0.000000 0.000000 0.000000 0.014180 0.000000 0.034577
#
#
# Mechanical properties :
#
#
# Convention : Reuss Voigt Hill
#
# Bulk Modulus (GPa) = 24.97443 32.86259 28.91851
# Shear Modulus (GPa) = 17.50999 23.41619 20.46309
#
# Velocity S-wave (km/s) = 3.22978 3.73498 3.49153
# Velocity P-wave (km/s) = 5.36536 6.17883 5.78641
#
# Compressibility (1/GPa) = 0.04004095
#
# Stress axis : x y z
#
# Youngs Moduli (GPa) = 56.37171 25.87851 26.77502
#
# Poissons Ratio (x) = 0.32270 0.14611
# Poissons Ratio (y) = 0.70295 0.23877
# Poissons Ratio (z) = 0.30761 0.23078
#
# Static dielectric constant tensor:
#      x y z
#    x 1.654870 0.000000 -0.030960 
#    y 0.000000 1.567380 0.000000 
#    z -0.030960 0.000000 1.582610 
# 
# From -- ./inp_files/173972.got.cif
#   From: 2010.05.17/outbox.cif.g08.bks.cpg/sg15_87_cif.got.tgz:173972.got - 2010.06.03 18:47:42.
