data_PCOD9253341
_publ_section_title
;
Structure prediction by ZEFSAII (Michael W. Deem and Ramdas Pophale) SiO2 
 PCOD9253341
Probable space group: P 21/C
;
_chemical_formula_sum "Si O2"
_cell_formula_units_Z 16
_cell_length_a 11.083728
_cell_length_b 9.126324
_cell_length_c 9.258957
_cell_angle_alpha 90.000000
_cell_angle_beta 39.887518
_cell_angle_gamma 90.000000
_cell_volume 600.610873
_symmetry_space_group_name_H-M "P 21/C"
_symmetry_group_IT_number 14
_symmetry_cell_setting 'monoclinic'
loop_
_space_group_symop_operation_xyz
x,y,z
-x,1/2+y,1/2-z
-x,-y,-z
x,1/2-y,1/2+z
loop_
_atom_site_type_symbol
_atom_site_label
_atom_site_fract_x
_atom_site_fract_y
_atom_site_fract_z
Si Si1 0.116902 0.405668 0.011242
Si Si2 0.594713 0.381605 0.806436
Si Si3 0.002269 0.838522 0.059652
Si Si4 0.493840 0.932520 0.163077
O O1 0.025883 0.345573 0.242796
O O2 0.149118 0.261589 0.883295
O O3 0.289562 0.508412 0.903841
O O4 0.000000 0.500000 0.000000
O O5 0.783536 0.298080 0.682819
O O6 0.476633 0.240693 0.862937
O O7 0.641183 0.481658 0.625989
O O8 0.500000 0.500000 0.000000
O O9 0.000000 0.000000 0.000000
O O10 0.500000 0.000000 0.000000
#
# Coordination Sequence:
#
# PCOD9253341 Si02
#       4
#     4   4   4   4
#     4  12  26  51  77 110 157 206 264 323 389 467
#     4  12  28  50  76 113 156 205 261 324 398 472
#     4  12  28  47  80 113 155 208 262 325 391 468
#     4  12  28  47  77 111 158 206 262 322 396 472
#
# _framework density 26.639544000000001
#
# number of rings (size 3 to 8) (size 9 to 14) (size 15 to 20)
#    0.000    0.000    2.500    6.000   14.000    0.000 
#    0.000    0.000    0.000    0.000    0.000    0.000 
#    0.000    0.000    0.000    0.000    0.000    0.000 
#
# Total GULP energy -89481.894436 kJ/mol
# GULP energy per Si atom -5592.618402 kJ/mol
# Density = 2.657891 g / cm^3
# Si number density = 26.639544 Si / 1000 Ang^3
#
#
#
# Elastic Constant Matrix: (Units=GPa)
#
#
# Indices 1 2 3 4 5 6 
#
# 1 94.0756 30.5729 28.4319 0.0000 16.9090 0.0000
# 2 30.5729 217.6163 27.9081 0.0000 18.4468 0.0000
# 3 28.4319 27.9081 116.4369 0.0000 25.4600 0.0000
# 4 0.0000 0.0000 0.0000 33.2190 0.0000 8.1080
# 5 16.9090 18.4468 25.4600 0.0000 59.6363 0.0000
# 6 0.0000 0.0000 0.0000 8.1080 0.0000 61.4273
#
#
#
# Elastic Compliance Matrix: (Units=1/GPa)
#
#
# Indices 1 2 3 4 5 6 
#
# 1 0.012072 -0.001237 -0.002191 0.000000 -0.002105 0.000000
# 2 -0.001237 0.004932 -0.000687 0.000000 -0.000881 0.000000
# 3 -0.002191 -0.000687 0.010043 0.000000 -0.003454 0.000000
# 4 0.000000 0.000000 0.000000 0.031105 0.000000 -0.004106
# 5 -0.002105 -0.000881 -0.003454 0.000000 0.019112 0.000000
# 6 0.000000 0.000000 0.000000 -0.004106 0.000000 0.016821
#
#
# Mechanical properties :
#
#
# Convention : Reuss Voigt Hill
#
# Bulk Modulus (GPa) = 53.14320 66.88383 60.01351
# Shear Modulus (GPa) = 46.04517 53.60425 49.82471
#
# Velocity S-wave (km/s) = 4.16198 4.49063 4.32942
# Velocity P-wave (km/s) = 6.56417 7.21451 6.89701
#
# Compressibility (1/GPa) = 0.01881708
#
# Stress axis : x y z
#
# Youngs Moduli (GPa) = 82.83511 202.76390 99.56831
#
# Poissons Ratio (x) = 0.25073 0.21817
# Poissons Ratio (y) = 0.10243 0.06844
# Poissons Ratio (z) = 0.18151 0.13938
#
# Static dielectric constant tensor:
#      x y z
#    x 2.303940 0.000000 -0.231810 
#    y 0.000000 2.224830 0.000000 
#    z -0.231810 0.000000 2.311890 
# 
# From -- ./inp_files/7274.got.cif
#   From: 2010.05.17/outbox.cif.g08.bks.cpg/sg14_4_cif.got.tgz:7274.got - 2010.06.03 17:49:19.
