data_PCOD9253773
_publ_section_title
;
Structure prediction by ZEFSAII (Michael W. Deem and Ramdas Pophale) SiO2 
 PCOD9253773
Probable space group: C 2/C
;
_chemical_formula_sum "Si O2"
_cell_formula_units_Z 32
_cell_length_a 14.625391
_cell_length_b 6.616905
_cell_length_c 16.673149
_cell_angle_alpha 90.000000
_cell_angle_beta 133.849893
_cell_angle_gamma 90.000000
_cell_volume 1163.616801
_symmetry_space_group_name_H-M "C 2/C"
_symmetry_group_IT_number 15
_symmetry_cell_setting 'monoclinic'
loop_
_space_group_symop_operation_xyz
x,y,z
-x,y,1/2-z
-x,-y,-z
x,-y,1/2+z
1/2+x,1/2+y,z
1/2-x,1/2+y,1/2-z
1/2-x,1/2-y,-z
1/2+x,1/2-y,1/2+z
loop_
_atom_site_type_symbol
_atom_site_label
_atom_site_fract_x
_atom_site_fract_y
_atom_site_fract_z
Si Si1 0.547318 0.525521 0.910265
Si Si2 0.191956 0.120814 0.652047
Si Si3 0.975217 0.559498 0.829312
Si Si4 0.231240 0.443293 0.549160
O O1 0.416007 0.638380 0.846665
O O2 0.498375 0.296281 0.864500
O O3 0.644633 0.571541 0.896738
O O4 0.628578 0.516111 0.042462
O O5 0.327546 0.031257 0.756191
O O6 0.222938 0.333374 0.628197
O O7 0.000000 0.530287 0.750000
O O8 0.094747 0.459179 0.948196
O O9 0.250000 0.250000 0.500000
#
# Coordination Sequence:
#
# PCOD9253773 Si02
#       4
#     8   8   8   8
#     4   9  16  23  40  68  87 120 150 178 230 266
#     4   9  15  25  39  64  96 112 150 188 214 275
#     4  10  13  24  42  62  90 115 148 187 216 263
#     4   8  14  23  38  63  88 118 145 182 227 258
#
# _framework density 27.500461999999999
#
# number of rings (size 3 to 8) (size 9 to 14) (size 15 to 20)
#    0.000    3.500    7.500    0.000    0.000    0.000 
#    0.000    0.000    0.000    6.000    0.000    3.500 
#    0.000    2.750    0.000    0.000    0.000    0.000 
#
# Total GULP energy -89457.945880 kJ/mol
# GULP energy per Si atom -5591.121617 kJ/mol
# Density = 2.743787 g / cm^3
# Si number density = 27.500462 Si / 1000 Ang^3
#
#
#
# Elastic Constant Matrix: (Units=GPa)
#
#
# Indices 1 2 3 4 5 6 
#
# 1 268.8996 54.1107 100.7898 0.0000 70.3913 0.0000
# 2 54.1107 72.5929 48.3494 0.0000 16.9247 0.0000
# 3 100.7898 48.3494 157.1750 0.0000 60.8340 0.0000
# 4 0.0000 0.0000 0.0000 24.6027 0.0000 0.6809
# 5 70.3913 16.9247 60.8340 0.0000 73.8772 0.0000
# 6 0.0000 0.0000 0.0000 0.6809 0.0000 46.8034
#
#
#
# Elastic Compliance Matrix: (Units=1/GPa)
#
#
# Indices 1 2 3 4 5 6 
#
# 1 0.005730 -0.002407 -0.001518 0.000000 -0.003658 0.000000
# 2 -0.002407 0.018355 -0.004936 0.000000 0.002153 0.000000
# 3 -0.001518 -0.004936 0.011532 0.000000 -0.006919 0.000000
# 4 0.000000 0.000000 0.000000 0.040662 0.000000 -0.000592
# 5 -0.003658 0.002153 -0.006919 0.000000 0.022225 0.000000
# 6 0.000000 0.000000 0.000000 -0.000592 0.000000 0.021375
#
#
# Mechanical properties :
#
#
# Convention : Reuss Voigt Hill
#
# Bulk Modulus (GPa) = 55.88230 100.57413 78.22821
# Shear Modulus (GPa) = 34.82689 48.75117 41.78903
#
# Velocity S-wave (km/s) = 3.56253 4.21496 3.90240
# Velocity P-wave (km/s) = 6.10629 7.76782 6.98662
#
# Compressibility (1/GPa) = 0.01789475
#
# Stress axis : x y z
#
# Youngs Moduli (GPa) = 174.52631 54.47994 86.71409
#
# Poissons Ratio (x) = 0.13114 0.13163
# Poissons Ratio (y) = 0.42010 0.42804
# Poissons Ratio (z) = 0.26493 0.26892
#
# Static dielectric constant tensor:
#      x y z
#    x 2.150990 0.000000 0.039330 
#    y 0.000000 2.307510 0.000000 
#    z 0.039330 0.000000 2.145890 
# 
# From -- ./inp_files/126082.got.cif
#   From: 2010.05.17/outbox.cif.g08.bks.cpg/sg15_64_cif.got.tgz:126082.got - 2010.06.03 18:47:42.
