data_PCOD9253560
_publ_section_title
;
Structure prediction by ZEFSAII (Michael W. Deem and Ramdas Pophale) SiO2 
 PCOD9253560
Probable space group: P 21/C
;
_chemical_formula_sum "Si O2"
_cell_formula_units_Z 32
_cell_length_a 15.000000
_cell_length_b 15.000000
_cell_length_c 21.000000
_cell_angle_alpha 90.000000
_cell_angle_beta 20.000000
_cell_angle_gamma 90.000000
_cell_volume 1616.045177
_symmetry_space_group_name_H-M "P 21/C"
_symmetry_group_IT_number 14
_symmetry_cell_setting 'monoclinic'
loop_
_space_group_symop_operation_xyz
x,y,z
-x,1/2+y,1/2-z
-x,-y,-z
x,1/2-y,1/2+z
loop_
_atom_site_type_symbol
_atom_site_label
_atom_site_fract_x
_atom_site_fract_y
_atom_site_fract_z
Si Si1 0.231064 0.093152 0.722097
Si Si2 0.690913 0.617224 0.305522
Si Si3 0.515182 0.016713 0.822997
Si Si4 0.656838 0.115113 0.170637
Si Si5 0.086657 0.090824 0.204847
Si Si6 0.347400 0.722601 0.998710
Si Si7 0.383049 0.453474 0.984584
Si Si8 0.732690 0.315633 0.096960
O O1 0.431359 0.165912 0.614340
O O2 0.241306 0.101715 0.637710
O O3 0.370187 0.000169 0.646377
O O4 0.959926 0.098765 0.943524
O O5 0.680008 0.527116 0.270468
O O6 0.731665 0.599229 0.353911
O O7 0.436395 0.676440 0.456462
O O8 0.954578 0.671325 0.111500
O O9 0.621277 0.100497 0.710968
O O10 0.484520 0.936716 0.792414
O O11 0.251980 0.051572 0.035021
O O12 0.519229 0.082691 0.328648
O O13 0.643579 0.221639 0.184881
O O14 0.937824 0.184571 0.289724
O O15 0.844756 0.023722 0.381360
O O16 0.351912 0.697050 0.920484
#
# Coordination Sequence:
#
# PCOD9253560 Si02
#       8
#     4   4   4   4   4   4   4   4
#     4  10  20  40  65  94 134 173 226 279 341 409
#     4  11  22  43  71  90 137 184 222 276 353 406
#     4  12  24  44  68  99 137 182 226 282 345 408
#     4  12  22  41  70  95 136 178 225 286 341 405
#     4  10  23  43  66 100 138 175 229 284 337 415
#     4  10  21  43  66  95 134 180 222 280 342 396
#     4  10  22  39  65 103 130 176 228 280 349 398
#     4  11  25  43  64 101 132 177 236 282 336 415
#
# _framework density 19.801427
#
# number of rings (size 3 to 8) (size 9 to 14) (size 15 to 20)
#    0.000    1.250    3.750    3.375    0.000    1.000 
#    2.250    1.250    0.000    0.000    0.000    0.000 
#    0.000    0.000    0.000    0.000    0.000    0.000 
#
# Total GULP energy -178307.520489 kJ/mol
# GULP energy per Si atom -5572.110015 kJ/mol
# Density = 1.975636 g / cm^3
# Si number density = 19.801427 Si / 1000 Ang^3
#
#
#
# Elastic Constant Matrix: (Units=GPa)
#
#
# Indices 1 2 3 4 5 6 
#
# 1 107.0979 31.6438 37.7277 0.0000 7.9584 0.0000
# 2 31.6438 84.4477 24.8758 0.0000 -1.1750 0.0000
# 3 37.7277 24.8758 78.7358 0.0000 15.3844 0.0000
# 4 0.0000 0.0000 0.0000 31.3043 0.0000 -3.7409
# 5 7.9584 -1.1750 15.3844 0.0000 34.1554 0.0000
# 6 0.0000 0.0000 0.0000 -3.7409 0.0000 30.0052
#
#
#
# Elastic Compliance Matrix: (Units=1/GPa)
#
#
# Indices 1 2 3 4 5 6 
#
# 1 0.011934 -0.003139 -0.004564 0.000000 -0.000833 0.000000
# 2 -0.003139 0.014085 -0.003491 0.000000 0.002788 0.000000
# 3 -0.004564 -0.003491 0.017332 0.000000 -0.006863 0.000000
# 4 0.000000 0.000000 0.000000 0.032428 0.000000 0.004043
# 5 -0.000833 0.002788 -0.006863 0.000000 0.032659 0.000000
# 6 0.000000 0.000000 0.000000 0.004043 0.000000 0.033832
#
#
# Mechanical properties :
#
#
# Convention : Reuss Voigt Hill
#
# Bulk Modulus (GPa) = 47.70259 50.97511 49.33885
# Shear Modulus (GPa) = 29.12989 30.82858 29.97924
#
# Velocity S-wave (km/s) = 3.83965 3.95002 3.89523
# Velocity P-wave (km/s) = 6.61816 6.82661 6.72319
#
# Compressibility (1/GPa) = 0.02096322
#
# Stress axis : x y z
#
# Youngs Moduli (GPa) = 83.79087 70.99762 57.69838
#
# Poissons Ratio (x) = 0.22287 0.26334
# Poissons Ratio (y) = 0.26303 0.20140
# Poissons Ratio (z) = 0.38243 0.24783
#
# Static dielectric constant tensor:
#      x y z
#    x 1.709620 0.000000 -0.004770 
#    y 0.000000 1.761620 0.000000 
#    z -0.004770 0.000000 1.708610 
# 
# From -- ./inp_files/68690.got.cif
#   From: 2010.05.17/outbox.ucp.g08.bks.cvg/sg14_35_cif.got.tgz:68690.got - 2010.06.11 12:31:08.
