data_PCOD9253407
_publ_section_title
;
Structure prediction by ZEFSAII (Michael W. Deem and Ramdas Pophale) SiO2 
 PCOD9253407
Probable space group: P 21/C
;
_chemical_formula_sum "Si O2"
_cell_formula_units_Z 14
_cell_length_a 7.875701
_cell_length_b 9.587410
_cell_length_c 11.417474
_cell_angle_alpha 90.000000
_cell_angle_beta 143.125063
_cell_angle_gamma 90.000000
_cell_volume 517.324119
_symmetry_space_group_name_H-M "P 21/C"
_symmetry_group_IT_number 14
_symmetry_cell_setting 'monoclinic'
loop_
_space_group_symop_operation_xyz
x,y,z
-x,1/2+y,1/2-z
-x,-y,-z
x,1/2-y,1/2+z
loop_
_atom_site_type_symbol
_atom_site_label
_atom_site_fract_x
_atom_site_fract_y
_atom_site_fract_z
Si Si1 0.671763 0.002717 0.216362
Si Si2 0.000000 0.000000 0.000000
Si Si3 0.179220 0.962502 0.356248
Si Si4 0.634349 0.248956 0.370200
O O1 0.628857 0.846111 0.241005
O O2 0.996895 0.032187 0.360969
O O3 0.553667 0.113200 0.247156
O O4 0.500000 0.000000 0.000000
O O5 0.008632 0.000585 0.147306
O O6 0.167593 0.849262 0.093878
O O7 0.218572 0.808095 0.430919
O O8 0.500000 0.000000 0.500000
#
# Coordination Sequence:
#
# PCOD9253407 Si02
#       4
#     4   2   4   4
#     4  12  28  56  91 128 178 230 299 366 446 528
#     4  12  28  54  84 126 176 224 288 360 436 526
#     4  12  30  54  87 128 176 233 292 361 442 527
#     4  12  29  54  90 128 178 229 299 365 447 522
#
# _framework density 27.062339000000001
#
# number of rings (size 3 to 8) (size 9 to 14) (size 15 to 20)
#    0.000    0.000    2.857    4.286    8.000    0.000 
#    0.000    0.000    0.000    0.000    0.000    0.000 
#    0.000    0.000    0.000    0.000    0.000    0.000 
#
# Total GULP energy -77938.457116 kJ/mol
# GULP energy per Si atom -5567.032651 kJ/mol
# Density = 2.700074 g / cm^3
# Si number density = 27.062339 Si / 1000 Ang^3
#
#
#
# Elastic Constant Matrix: (Units=GPa)
#
#
# Indices 1 2 3 4 5 6 
#
# 1 175.4896 51.8432 31.6917 0.0000 -2.1184 0.0000
# 2 51.8432 132.5451 39.3909 0.0000 -10.7127 0.0000
# 3 31.6917 39.3909 118.0192 0.0000 -22.2702 0.0000
# 4 0.0000 0.0000 0.0000 58.8732 0.0000 -8.7987
# 5 -2.1184 -10.7127 -22.2702 0.0000 49.6819 0.0000
# 6 0.0000 0.0000 0.0000 -8.7987 0.0000 71.3125
#
#
#
# Elastic Compliance Matrix: (Units=1/GPa)
#
#
# Indices 1 2 3 4 5 6 
#
# 1 0.006572 -0.002291 -0.001136 0.000000 -0.000723 0.000000
# 2 -0.002291 0.009191 -0.002291 0.000000 0.000857 0.000000
# 3 -0.001136 -0.002291 0.010313 0.000000 0.004080 0.000000
# 4 0.000000 0.000000 0.000000 0.017305 0.000000 0.002135
# 5 -0.000723 0.000857 0.004080 0.000000 0.022111 0.000000
# 6 0.000000 0.000000 0.000000 0.002135 0.000000 0.014286
#
#
# Mechanical properties :
#
#
# Convention : Reuss Voigt Hill
#
# Bulk Modulus (GPa) = 68.31070 74.65616 71.48343
# Shear Modulus (GPa) = 52.03269 56.18207 54.10738
#
# Velocity S-wave (km/s) = 4.38961 4.56128 4.47627
# Velocity P-wave (km/s) = 7.14062 7.44225 7.29299
#
# Compressibility (1/GPa) = 0.01463900
#
# Stress axis : x y z
#
# Youngs Moduli (GPa) = 152.16773 108.80484 96.96630
#
# Poissons Ratio (x) = 0.24929 0.11020
# Poissons Ratio (y) = 0.34864 0.22211
# Poissons Ratio (z) = 0.17293 0.24922
#
# Static dielectric constant tensor:
#      x y z
#    x 2.246060 0.000000 0.175770 
#    y 0.000000 2.106160 0.000000 
#    z 0.175770 0.000000 2.243570 
# 
# From -- ./inp_files/23203.got.cif
#   From: 2010.05.17/outbox.cif.g08.bks.cpg/sg14_12_cif.got.tgz:23203.got - 2010.06.03 17:49:19.
