data_PCOD9253353
_publ_section_title
;
Structure prediction by ZEFSAII (Michael W. Deem and Ramdas Pophale) SiO2 
 PCOD9253353
Probable space group: P 21/C
;
_chemical_formula_sum "Si O2"
_cell_formula_units_Z 20
_cell_length_a 21.931921
_cell_length_b 4.855625
_cell_length_c 14.427346
_cell_angle_alpha 90.000000
_cell_angle_beta 30.073845
_cell_angle_gamma 90.000000
_cell_volume 769.921261
_symmetry_space_group_name_H-M "P 21/C"
_symmetry_group_IT_number 14
_symmetry_cell_setting 'monoclinic'
loop_
_space_group_symop_operation_xyz
x,y,z
-x,1/2+y,1/2-z
-x,-y,-z
x,1/2-y,1/2+z
loop_
_atom_site_type_symbol
_atom_site_label
_atom_site_fract_x
_atom_site_fract_y
_atom_site_fract_z
Si Si1 0.204447 0.822032 0.858428
Si Si2 0.444443 0.550735 0.471553
Si Si3 0.357057 0.353756 0.937254
Si Si4 0.957458 0.827999 0.466284
Si Si5 0.783571 0.127707 0.947437
O O1 0.239708 0.921889 0.913897
O O2 0.079969 0.730530 0.748865
O O3 0.122136 0.052393 0.916427
O O4 0.126805 0.545620 0.975815
O O5 0.500000 0.500000 0.500000
O O6 0.408512 0.267418 0.465839
O O7 0.309650 0.844555 0.473813
O O8 0.322917 0.726637 0.647982
O O9 0.241374 0.158438 0.070310
O O10 0.539684 0.802588 0.777185
O O11 0.000000 0.000000 0.500000
#
# Coordination Sequence:
#
# PCOD9253353 Si02
#       5
#     4   4   4   4   4
#     4  12  27  50  81 115 160 220 268 332 415 493
#     4  12  29  54  82 122 168 219 279 342 419 492
#     4  12  28  52  81 119 159 213 270 343 408 500
#     4  12  27  48  78 120 158 209 272 337 411 492
#     4  12  26  53  80 115 163 207 276 335 409 491
#
# _framework density 25.976679000000001
#
# number of rings (size 3 to 8) (size 9 to 14) (size 15 to 20)
#    0.000    0.000    2.000    6.600    0.000   10.400 
#    0.000    0.000    0.000    0.000    0.000    0.000 
#    0.000    0.000    0.000    0.000    0.000    0.000 
#
# Total GULP energy -112229.227209 kJ/mol
# GULP energy per Si atom -5611.461360 kJ/mol
# Density = 2.591756 g / cm^3
# Si number density = 25.976679 Si / 1000 Ang^3
#
#
#
# Elastic Constant Matrix: (Units=GPa)
#
#
# Indices 1 2 3 4 5 6 
#
# 1 170.0597 31.6716 50.2393 0.0000 20.0574 0.0000
# 2 31.6716 122.4465 42.6290 0.0000 -1.2770 0.0000
# 3 50.2393 42.6290 180.4613 0.0000 5.2645 0.0000
# 4 0.0000 0.0000 0.0000 49.0660 0.0000 3.7996
# 5 20.0574 -1.2770 5.2645 0.0000 37.0867 0.0000
# 6 0.0000 0.0000 0.0000 3.7996 0.0000 26.9293
#
#
#
# Elastic Compliance Matrix: (Units=1/GPa)
#
#
# Indices 1 2 3 4 5 6 
#
# 1 0.007005 -0.001316 -0.001534 0.000000 -0.003616 0.000000
# 2 -0.001316 0.009159 -0.001835 0.000000 0.001287 0.000000
# 3 -0.001534 -0.001835 0.006406 0.000000 -0.000143 0.000000
# 4 0.000000 0.000000 0.000000 0.020606 0.000000 -0.002907
# 5 -0.003616 0.001287 -0.000143 0.000000 0.028984 0.000000
# 6 0.000000 0.000000 0.000000 -0.002907 0.000000 0.037544
#
#
# Mechanical properties :
#
#
# Convention : Reuss Voigt Hill
#
# Bulk Modulus (GPa) = 75.74903 80.22748 77.98826
# Shear Modulus (GPa) = 40.49438 45.84493 43.16965
#
# Velocity S-wave (km/s) = 3.95254 4.20557 4.08102
# Velocity P-wave (km/s) = 7.07487 7.38471 7.23145
#
# Compressibility (1/GPa) = 0.01320149
#
# Stress axis : x y z
#
# Youngs Moduli (GPa) = 142.75685 109.17783 156.10356
#
# Poissons Ratio (x) = 0.14363 0.23944
# Poissons Ratio (y) = 0.18781 0.28644
# Poissons Ratio (z) = 0.21897 0.20034
#
# Static dielectric constant tensor:
#      x y z
#    x 2.069890 0.000000 0.004880 
#    y 0.000000 2.070980 0.000000 
#    z 0.004880 0.000000 2.024940 
# 
# From -- ./inp_files/59854.got.cif
#   From: 2010.05.17/outbox.cif.g08.bks.cpg/sg14_30_cif.got.tgz:59854.got - 2010.06.03 17:49:19.
