data_PCOD9253895
_publ_section_title
;
Structure prediction by ZEFSAII (Michael W. Deem and Ramdas Pophale) SiO2 
 PCOD9253895
Probable space group: C 2/C
;
_chemical_formula_sum "Si O2"
_cell_formula_units_Z 56
_cell_length_a 9.234697
_cell_length_b 23.284763
_cell_length_c 11.434094
_cell_angle_alpha 90.000000
_cell_angle_beta 85.275565
_cell_angle_gamma 90.000000
_cell_volume 2450.293671
_symmetry_space_group_name_H-M "C 2/C"
_symmetry_group_IT_number 15
_symmetry_cell_setting 'monoclinic'
loop_
_space_group_symop_operation_xyz
x,y,z
-x,y,1/2-z
-x,-y,-z
x,-y,1/2+z
1/2+x,1/2+y,z
1/2-x,1/2+y,1/2-z
1/2-x,1/2-y,-z
1/2+x,1/2-y,1/2+z
loop_
_atom_site_type_symbol
_atom_site_label
_atom_site_fract_x
_atom_site_fract_y
_atom_site_fract_z
Si Si1 0.185835 0.181284 0.650180
Si Si2 0.300112 0.487818 0.589879
Si Si3 0.310421 0.545700 0.831062
Si Si4 0.626311 0.807142 0.156946
Si Si5 0.476979 0.932720 0.399953
Si Si6 0.403105 0.105519 0.360198
Si Si7 0.547847 0.780953 0.538121
O O1 0.155138 0.113452 0.656727
O O2 0.227635 0.200247 0.778815
O O3 0.329405 0.197388 0.563934
O O4 0.068993 0.218511 0.589788
O O5 0.360994 0.518992 0.703040
O O6 0.357365 0.484939 0.451139
O O7 0.145589 0.519823 0.585204
O O8 0.256032 0.422518 0.627815
O O9 0.131500 0.545271 0.839593
O O10 0.500000 0.781813 0.250000
O O11 0.594483 0.875652 0.151217
O O12 0.599063 0.785798 0.027460
O O13 0.519813 0.911837 0.525362
O O14 0.500000 0.082067 0.250000
O O15 0.415443 0.174000 0.362083
#
# Coordination Sequence:
#
# PCOD9253895 Si02
#       7
#     8   8   8   8   8   8   8
#     4  10  16  29  44  60  89 119 153 195 225 263
#     4  11  18  25  38  64  91 126 157 176 210 276
#     4  11  18  26  40  62  90 125 154 181 219 268
#     4   9  13  25  41  59  82 112 147 178 223 256
#     4  10  15  24  36  56  85 118 152 165 201 267
#     4  10  17  26  37  60  90 121 146 182 219 265
#     4   9  18  27  43  63  82 121 157 191 225 263
#
# _framework density 22.854403000000001
#
# number of rings (size 3 to 8) (size 9 to 14) (size 15 to 20)
#    0.000    2.000    7.143    3.857    0.000    0.000 
#    0.000    0.000    0.000    3.429    0.000    0.000 
#    0.000    1.143    0.571    0.000    0.286    0.000 
#
# Total GULP energy -155994.011723 kJ/mol
# GULP energy per Si atom -5571.214704 kJ/mol
# Density = 2.280239 g / cm^3
# Si number density = 22.854403 Si / 1000 Ang^3
#
#
#
# Elastic Constant Matrix: (Units=GPa)
#
#
# Indices 1 2 3 4 5 6 
#
# 1 45.6722 12.6031 35.7392 0.0000 -10.7584 0.0000
# 2 12.6031 102.2009 73.8608 0.0000 15.3558 0.0000
# 3 35.7392 73.8608 148.5156 0.0000 -0.5883 0.0000
# 4 0.0000 0.0000 0.0000 39.7978 0.0000 12.9916
# 5 -10.7584 15.3558 -0.5883 0.0000 36.5891 0.0000
# 6 0.0000 0.0000 0.0000 12.9916 0.0000 7.2965
#
#
#
# Elastic Compliance Matrix: (Units=1/GPa)
#
#
# Indices 1 2 3 4 5 6 
#
# 1 0.029425 0.000315 -0.007205 0.000000 0.008404 0.000000
# 2 0.000315 0.017017 -0.008568 0.000000 -0.007187 0.000000
# 3 -0.007205 -0.008568 0.012735 0.000000 0.001682 0.000000
# 4 0.000000 0.000000 0.000000 0.060002 0.000000 -0.106834
# 5 0.008404 -0.007187 0.001682 0.000000 0.032845 0.000000
# 6 0.000000 0.000000 0.000000 -0.106834 0.000000 0.327272
#
#
# Mechanical properties :
#
#
# Convention : Reuss Voigt Hill
#
# Bulk Modulus (GPa) = 35.38085 60.08832 47.73458
# Shear Modulus (GPa) = 9.62222 28.34906 18.98564
#
# Velocity S-wave (km/s) = 2.05411 3.52578 2.88535
# Velocity P-wave (km/s) = 4.59787 6.55162 5.65969
#
# Compressibility (1/GPa) = 0.02826388
#
# Stress axis : x y z
#
# Youngs Moduli (GPa) = 33.98429 58.76337 78.52632
#
# Poissons Ratio (x) = -0.01854 0.56575
# Poissons Ratio (y) = -0.01072 0.67278
# Poissons Ratio (z) = 0.24484 0.50346
#
# Static dielectric constant tensor:
#      x y z
#    x 1.903260 0.000000 -0.023570 
#    y 0.000000 1.930720 0.000000 
#    z -0.023570 0.000000 1.940830 
# 
# From -- ./inp_files/100303.got.cif
#   From: 2010.05.17/outbox.cif.g08.bks.cpg/sg15_51_cif.got.tgz:100303.got - 2010.06.03 18:47:42.
