data_PCOD9253162
_publ_section_title
;
Structure prediction by ZEFSAII (Michael W. Deem and Ramdas Pophale) SiO2 
 PCOD9253162
Probable space group: P 21/C
;
_chemical_formula_sum "Si O2"
_cell_formula_units_Z 20
_cell_length_a 16.837743
_cell_length_b 5.658753
_cell_length_c 16.902614
_cell_angle_alpha 90.000000
_cell_angle_beta 32.137522
_cell_angle_gamma 90.000000
_cell_volume 856.706257
_symmetry_space_group_name_H-M "P 21/C"
_symmetry_group_IT_number 14
_symmetry_cell_setting 'monoclinic'
loop_
_space_group_symop_operation_xyz
x,y,z
-x,1/2+y,1/2-z
-x,-y,-z
x,1/2-y,1/2+z
loop_
_atom_site_type_symbol
_atom_site_label
_atom_site_fract_x
_atom_site_fract_y
_atom_site_fract_z
Si Si1 0.637812 0.879033 0.431000
Si Si2 0.579064 0.043328 0.801740
Si Si3 0.080000 0.567225 0.702795
Si Si4 0.631514 0.291650 0.079966
Si Si5 0.853365 0.538494 0.175471
O O1 0.558749 0.646823 0.533060
O O2 0.779603 0.795750 0.259302
O O3 0.500000 0.000000 0.500000
O O4 0.687029 0.019242 0.468367
O O5 0.603329 0.145548 0.694175
O O6 0.721542 0.076123 0.735644
O O7 0.526841 0.780410 0.824511
O O8 0.240783 0.592819 0.525508
O O9 0.110511 0.573438 0.770639
O O10 0.008745 0.308932 0.745150
O O11 0.000000 0.500000 0.000000
#
# Coordination Sequence:
#
# PCOD9253162 Si02
#       5
#     4   4   4   4   4
#     4  12  24  45  78 110 153 209 264 338 403 489
#     4  12  25  46  75 114 146 207 265 329 404 488
#     4  12  28  51  78 112 163 211 264 337 417 484
#     4  12  25  46  79 110 154 204 272 326 407 486
#     4  12  27  48  77 115 158 207 272 333 412 489
#
# _framework density 23.345227000000001
#
# number of rings (size 3 to 8) (size 9 to 14) (size 15 to 20)
#    0.000    0.000    6.000    4.200    0.000    3.200 
#    0.000    6.000    0.000    0.000    0.000    0.000 
#    0.000    0.000    0.000    0.000    0.000    0.000 
#
# Total GULP energy -111664.479721 kJ/mol
# GULP energy per Si atom -5583.223986 kJ/mol
# Density = 2.329209 g / cm^3
# Si number density = 23.345227 Si / 1000 Ang^3
#
#
#
# Elastic Constant Matrix: (Units=GPa)
#
#
# Indices 1 2 3 4 5 6 
#
# 1 160.4670 55.7478 42.4105 0.0000 5.5378 0.0000
# 2 55.7478 73.9575 39.8074 0.0000 -3.1780 0.0000
# 3 42.4105 39.8074 145.0355 0.0000 3.9622 0.0000
# 4 0.0000 0.0000 0.0000 40.4113 0.0000 10.0224
# 5 5.5378 -3.1780 3.9622 0.0000 47.5407 0.0000
# 6 0.0000 0.0000 0.0000 10.0224 0.0000 19.6625
#
#
#
# Elastic Compliance Matrix: (Units=1/GPa)
#
#
# Indices 1 2 3 4 5 6 
#
# 1 0.008617 -0.006121 -0.000803 0.000000 -0.001346 0.000000
# 2 -0.006121 0.020310 -0.003850 0.000000 0.002392 0.000000
# 3 -0.000803 -0.003850 0.008209 0.000000 -0.000848 0.000000
# 4 0.000000 0.000000 0.000000 0.028326 0.000000 -0.014439
# 5 -0.001346 0.002392 -0.000848 0.000000 0.021422 0.000000
# 6 0.000000 0.000000 0.000000 -0.014439 0.000000 0.058218
#
#
# Mechanical properties :
#
#
# Convention : Reuss Voigt Hill
#
# Bulk Modulus (GPa) = 64.14817 72.82125 68.48471
# Shear Modulus (GPa) = 29.09567 37.62252 33.35910
#
# Velocity S-wave (km/s) = 3.53416 4.01879 3.78424
# Velocity P-wave (km/s) = 6.64766 7.26603 6.96371
#
# Compressibility (1/GPa) = 0.01558891
#
# Stress axis : x y z
#
# Youngs Moduli (GPa) = 116.05019 49.23651 121.81010
#
# Poissons Ratio (x) = 0.30137 0.09781
# Poissons Ratio (y) = 0.71034 0.46896
# Poissons Ratio (z) = 0.09318 0.18956
#
# Static dielectric constant tensor:
#      x y z
#    x 1.896540 0.000000 -0.049010 
#    y 0.000000 2.006180 0.000000 
#    z -0.049010 0.000000 1.915250 
# 
# From -- ./inp_files/59935.got.cif
#   From: 2010.05.17/outbox.cif.g08.bks.cpg/sg14_30_cif.got.tgz:59935.got - 2010.06.03 17:49:19.
