data_PCOD9253042
_publ_section_title
;
Structure prediction by ZEFSAII (Michael W. Deem and Ramdas Pophale) SiO2 
 PCOD9253042
Probable space group: P 21/C
;
_chemical_formula_sum "Si O2"
_cell_formula_units_Z 20
_cell_length_a 23.967415
_cell_length_b 4.953740
_cell_length_c 14.535262
_cell_angle_alpha 90.000000
_cell_angle_beta 30.581983
_cell_angle_gamma 90.000000
_cell_volume 878.009839
_symmetry_space_group_name_H-M "P 21/C"
_symmetry_group_IT_number 14
_symmetry_cell_setting 'monoclinic'
loop_
_space_group_symop_operation_xyz
x,y,z
-x,1/2+y,1/2-z
-x,-y,-z
x,1/2-y,1/2+z
loop_
_atom_site_type_symbol
_atom_site_label
_atom_site_fract_x
_atom_site_fract_y
_atom_site_fract_z
Si Si1 0.293001 0.406178 0.897285
Si Si2 0.072340 0.910148 0.637994
Si Si3 0.877099 0.546150 0.139825
Si Si4 0.263313 0.940942 0.633037
Si Si5 0.624969 0.407584 0.827424
O O1 0.307248 0.112004 0.834120
O O2 0.357075 0.611413 0.739710
O O3 0.165229 0.494591 0.076273
O O4 0.328417 0.447755 0.952332
O O5 0.123228 0.958948 0.465918
O O6 0.032343 0.605685 0.705075
O O7 0.836258 0.850442 0.207372
O O8 0.789773 0.350045 0.312201
O O9 0.000000 0.500000 0.000000
O O10 0.332684 0.925228 0.628111
O O11 0.500000 0.500000 0.000000
#
# Coordination Sequence:
#
# PCOD9253042 Si02
#       5
#     4   4   4   4   4
#     4  12  25  45  69  99 138 175 227 281 334 403
#     4  12  22  38  63  97 133 173 218 265 326 399
#     4  12  23  41  65  98 139 178 221 271 331 404
#     4  12  24  45  68  97 138 175 222 282 333 398
#     4  12  26  47  71  99 134 179 230 286 337 390
#
# _framework density 22.778787999999999
#
# number of rings (size 3 to 8) (size 9 to 14) (size 15 to 20)
#    0.000    0.000    4.000    7.200    0.000    1.600 
#    0.000    0.000    0.000    0.000    0.000    0.000 
#    0.000    0.000    0.000    0.000    0.000    0.000 
#
# Total GULP energy -112082.737242 kJ/mol
# GULP energy per Si atom -5604.136862 kJ/mol
# Density = 2.272694 g / cm^3
# Si number density = 22.778788 Si / 1000 Ang^3
#
#
#
# Elastic Constant Matrix: (Units=GPa)
#
#
# Indices 1 2 3 4 5 6 
#
# 1 124.8174 -0.2254 31.5771 0.0000 13.6697 0.0000
# 2 -0.2254 69.3811 -8.3949 0.0000 -4.4894 0.0000
# 3 31.5771 -8.3949 46.1693 0.0000 -13.5328 0.0000
# 4 0.0000 0.0000 0.0000 37.7039 0.0000 5.5715
# 5 13.6697 -4.4894 -13.5328 0.0000 47.5553 0.0000
# 6 0.0000 0.0000 0.0000 5.5715 0.0000 23.7900
#
#
#
# Elastic Compliance Matrix: (Units=1/GPa)
#
#
# Indices 1 2 3 4 5 6 
#
# 1 0.011123 -0.001528 -0.009672 0.000000 -0.006094 0.000000
# 2 -0.001528 0.015192 0.004753 0.000000 0.003226 0.000000
# 3 -0.009672 0.004753 0.032823 0.000000 0.012569 0.000000
# 4 0.000000 0.000000 0.000000 0.027473 0.000000 -0.006434
# 5 -0.006094 0.003226 0.012569 0.000000 0.026661 0.000000
# 6 0.000000 0.000000 0.000000 -0.006434 0.000000 0.043541
#
#
# Mechanical properties :
#
#
# Convention : Reuss Voigt Hill
#
# Bulk Modulus (GPa) = 21.62423 31.80906 26.71665
# Shear Modulus (GPa) = 27.00922 36.30390 31.65656
#
# Velocity S-wave (km/s) = 3.44716 3.99652 3.73196
# Velocity P-wave (km/s) = 5.03564 5.94061 5.50675
#
# Compressibility (1/GPa) = 0.04624442
#
# Stress axis : x y z
#
# Youngs Moduli (GPa) = 89.90287 65.82381 30.46670
#
# Poissons Ratio (x) = 0.10061 0.29466
# Poissons Ratio (y) = 0.13741 -0.14482
# Poissons Ratio (z) = 0.86951 -0.31288
#
# Static dielectric constant tensor:
#      x y z
#    x 1.896270 0.000000 0.007610 
#    y 0.000000 1.819700 0.000000 
#    z 0.007610 0.000000 1.846930 
# 
# From -- ./inp_files/50923.got.cif
#   From: 2010.05.17/outbox.cif.g08.bks.cpg/sg14_26_cif.got.tgz:50923.got - 2010.06.03 17:49:19.
