data_PCOD9253571
_publ_section_title
;
Structure prediction by ZEFSAII (Michael W. Deem and Ramdas Pophale) SiO2 
 PCOD9253571
Probable space group: P 21/C
;
_chemical_formula_sum "Si O2"
_cell_formula_units_Z 24
_cell_length_a 9.000000
_cell_length_b 9.000000
_cell_length_c 30.000000
_cell_angle_alpha 90.000000
_cell_angle_beta 30.000000
_cell_angle_gamma 90.000000
_cell_volume 1215.000000
_symmetry_space_group_name_H-M "P 21/C"
_symmetry_group_IT_number 14
_symmetry_cell_setting 'monoclinic'
loop_
_space_group_symop_operation_xyz
x,y,z
-x,1/2+y,1/2-z
-x,-y,-z
x,1/2-y,1/2+z
loop_
_atom_site_type_symbol
_atom_site_label
_atom_site_fract_x
_atom_site_fract_y
_atom_site_fract_z
Si Si1 0.386013 0.938730 0.980330
Si Si2 0.549092 0.584273 0.034142
Si Si3 0.786157 0.512626 0.678917
Si Si4 0.846627 0.146532 0.836291
Si Si5 0.429781 0.324112 0.131246
Si Si6 0.239430 0.809151 0.358178
O O1 0.499651 0.787884 0.928087
O O2 0.540587 0.057124 0.906434
O O3 0.500000 0.000000 0.000000
O O4 0.031147 0.925969 0.079519
O O5 0.289806 0.709103 0.104152
O O6 0.498082 0.482355 0.090971
O O7 0.500000 0.500000 0.000000
O O8 0.891528 0.642668 0.947478
O O9 0.744605 0.346525 0.672216
O O10 0.464723 0.584802 0.771785
O O11 0.956538 0.543152 0.681601
O O12 0.082699 0.185969 0.736494
O O13 0.627963 0.299257 0.125162
#
# Coordination Sequence:
#
# PCOD9253571 Si02
#       6
#     4   4   4   4   4   4
#     4  10  20  42  69  95 133 179 224 276 334 401
#     4  12  25  44  71 100 135 182 229 280 340 405
#     4  10  23  43  69  97 139 177 226 274 344 410
#     4  10  22  44  67 101 133 177 226 278 335 399
#     4  11  25  42  67 100 141 173 228 282 339 408
#     4  11  26  45  67 102 137 181 225 285 342 405
#
# _framework density 19.753086
#
# number of rings (size 3 to 8) (size 9 to 14) (size 15 to 20)
#    0.000    1.333    1.667    3.500    9.333    0.667 
#    0.000    0.000    0.000    0.000    0.000    0.000 
#    0.000    0.000    0.000    0.000    0.000    0.000 
#
# Total GULP energy -133653.319393 kJ/mol
# GULP energy per Si atom -5568.888308 kJ/mol
# Density = 1.970813 g / cm^3
# Si number density = 19.753086 Si / 1000 Ang^3
#
#
#
# Elastic Constant Matrix: (Units=GPa)
#
#
# Indices 1 2 3 4 5 6 
#
# 1 78.8078 40.7614 31.8993 0.0000 3.1605 0.0000
# 2 40.7614 108.0558 53.5216 0.0000 11.0969 0.0000
# 3 31.8993 53.5216 198.0432 0.0000 -2.4874 0.0000
# 4 0.0000 0.0000 0.0000 58.5539 0.0000 8.3765
# 5 3.1605 11.0969 -2.4874 0.0000 25.2909 0.0000
# 6 0.0000 0.0000 0.0000 8.3765 0.0000 31.5849
#
#
#
# Elastic Compliance Matrix: (Units=1/GPa)
#
#
# Indices 1 2 3 4 5 6 
#
# 1 0.015969 -0.005524 -0.001075 0.000000 0.000323 0.000000
# 2 -0.005524 0.013261 -0.002762 0.000000 -0.005400 0.000000
# 3 -0.001075 -0.002762 0.005993 0.000000 0.001936 0.000000
# 4 0.000000 0.000000 0.000000 0.017752 0.000000 -0.004708
# 5 0.000323 -0.005400 0.001936 0.000000 0.042059 0.000000
# 6 0.000000 0.000000 0.000000 -0.004708 0.000000 0.032909
#
#
# Mechanical properties :
#
#
# Convention : Reuss Voigt Hill
#
# Bulk Modulus (GPa) = 60.60498 70.80794 65.70646
# Shear Modulus (GPa) = 32.85889 40.33423 36.59656
#
# Velocity S-wave (km/s) = 4.08300 4.52366 4.30897
# Velocity P-wave (km/s) = 7.27845 7.95041 7.62184
#
# Compressibility (1/GPa) = 0.01650030
#
# Stress axis : x y z
#
# Youngs Moduli (GPa) = 62.62255 75.40955 166.85420
#
# Poissons Ratio (x) = 0.41659 0.17938
# Poissons Ratio (y) = 0.34595 0.46081
# Poissons Ratio (z) = 0.06732 0.20826
#
# Static dielectric constant tensor:
#      x y z
#    x 1.698170 0.000000 -0.008640 
#    y 0.000000 1.783450 0.000000 
#    z -0.008640 0.000000 1.715770 
# 
# From -- ./inp_files/58963.got.cif
#   From: 2010.05.17/outbox.ucp.g08.bks.cvg/sg14_30_cif.got.tgz:58963.got - 2010.06.11 12:31:08.
