data_PCOD9253795
_publ_section_title
;
Structure prediction by ZEFSAII (Michael W. Deem and Ramdas Pophale) SiO2 
 PCOD9253795
Probable space group: C 2/C
;
_chemical_formula_sum "Si O2"
_cell_formula_units_Z 36
_cell_length_a 7.601597
_cell_length_b 14.803921
_cell_length_c 16.692981
_cell_angle_alpha 90.000000
_cell_angle_beta 123.949608
_cell_angle_gamma 90.000000
_cell_volume 1558.285779
_symmetry_space_group_name_H-M "C 2/C"
_symmetry_group_IT_number 15
_symmetry_cell_setting 'monoclinic'
loop_
_space_group_symop_operation_xyz
x,y,z
-x,y,1/2-z
-x,-y,-z
x,-y,1/2+z
1/2+x,1/2+y,z
1/2-x,1/2+y,1/2-z
1/2-x,1/2-y,-z
1/2+x,1/2-y,1/2+z
loop_
_atom_site_type_symbol
_atom_site_label
_atom_site_fract_x
_atom_site_fract_y
_atom_site_fract_z
Si Si1 0.286145 0.315796 0.230310
Si Si2 0.939543 0.297970 0.493860
Si Si3 0.675226 0.625767 0.589614
Si Si4 0.294023 0.952491 0.551300
Si Si5 0.000000 0.358335 0.750000
O O1 0.500000 0.361516 0.250000
O O2 0.134561 0.304900 0.116475
O O3 0.230231 0.365048 0.297496
O O4 0.363975 0.212874 0.268397
O O5 0.750000 0.250000 0.500000
O O6 0.952697 0.397741 0.534518
O O7 0.129715 0.227236 0.549257
O O8 0.800556 0.559737 0.562574
O O9 0.442434 0.577822 0.535069
O O10 0.349257 0.915085 0.654244
#
# Coordination Sequence:
#
# PCOD9253795 Si02
#       5
#     8   8   8   8   4
#     4  10  14  24  44  66  97 130 165 201 251 298
#     4  10  14  26  42  70  97 137 163 204 265 293
#     4  10  17  26  42  75 101 130 176 206 250 319
#     4  10  17  25  44  71 104 129 170 214 247 310
#     4  10  14  26  44  66  96 134 156 206 256 286
#
# _framework density 23.102309000000002
#
# number of rings (size 3 to 8) (size 9 to 14) (size 15 to 20)
#    0.667    1.333   11.111    0.000    0.000    0.000 
#    0.000    0.000    0.000    1.333    0.000    1.556 
#    3.333    0.000    0.000    0.000    0.000    0.000 
#
# Total GULP energy -100363.786922 kJ/mol
# GULP energy per Si atom -5575.765940 kJ/mol
# Density = 2.304973 g / cm^3
# Si number density = 23.102309 Si / 1000 Ang^3
#
#
#
# Elastic Constant Matrix: (Units=GPa)
#
#
# Indices 1 2 3 4 5 6 
#
# 1 67.0869 53.2605 39.7063 0.0000 -8.1710 0.0000
# 2 53.2605 149.0796 52.0023 0.0000 -15.6560 0.0000
# 3 39.7063 52.0023 167.8495 0.0000 -19.6378 0.0000
# 4 0.0000 0.0000 0.0000 31.2724 0.0000 -8.1651
# 5 -8.1710 -15.6560 -19.6378 0.0000 13.4139 0.0000
# 6 0.0000 0.0000 0.0000 -8.1651 0.0000 31.8088
#
#
#
# Elastic Compliance Matrix: (Units=1/GPa)
#
#
# Indices 1 2 3 4 5 6 
#
# 1 0.022200 -0.006750 -0.003017 0.000000 0.001229 0.000000
# 2 -0.006750 0.010070 -0.000759 0.000000 0.006530 0.000000
# 3 -0.003017 -0.000759 0.007949 0.000000 0.008914 0.000000
# 4 0.000000 0.000000 0.000000 0.034274 0.000000 0.008798
# 5 0.001229 0.006530 0.008914 0.000000 0.095970 0.000000
# 6 0.000000 0.000000 0.000000 0.008798 0.000000 0.033696
#
#
# Mechanical properties :
#
#
# Convention : Reuss Voigt Hill
#
# Bulk Modulus (GPa) = 52.17016 74.88381 63.52698
# Shear Modulus (GPa) = 21.58894 31.23547 26.41221
#
# Velocity S-wave (km/s) = 3.06026 3.68101 3.38490
# Velocity P-wave (km/s) = 5.92606 7.10991 6.54481
#
# Compressibility (1/GPa) = 0.01916804
#
# Stress axis : x y z
#
# Youngs Moduli (GPa) = 45.04525 99.30626 125.79487
#
# Poissons Ratio (x) = 0.67031 0.37948
# Poissons Ratio (y) = 0.30405 0.09548
# Poissons Ratio (z) = 0.13588 0.07538
#
# Static dielectric constant tensor:
#      x y z
#    x 1.931480 0.000000 0.002960 
#    y 0.000000 1.900920 0.000000 
#    z 0.002960 0.000000 1.857030 
# 
# From -- ./inp_files/197016.got.cif
#   From: 2010.05.17/outbox.cif.g08.bks.cpg/sg15_99_cif.got.tgz:197016.got - 2010.06.03 18:47:42.
