data_PCOD9253743
_publ_section_title
;
Structure prediction by ZEFSAII (Michael W. Deem and Ramdas Pophale) SiO2 
 PCOD9253743
Probable space group: P 21/C
;
_chemical_formula_sum "Si O2"
_cell_formula_units_Z 32
_cell_length_a 30.000000
_cell_length_b 12.000000
_cell_length_c 9.000000
_cell_angle_alpha 90.000000
_cell_angle_beta 150.000000
_cell_angle_gamma 90.000000
_cell_volume 1620.000000
_symmetry_space_group_name_H-M "P 21/C"
_symmetry_group_IT_number 14
_symmetry_cell_setting 'monoclinic'
loop_
_space_group_symop_operation_xyz
x,y,z
-x,1/2+y,1/2-z
-x,-y,-z
x,1/2-y,1/2+z
loop_
_atom_site_type_symbol
_atom_site_label
_atom_site_fract_x
_atom_site_fract_y
_atom_site_fract_z
Si Si1 0.415200 0.132300 0.725503
Si Si2 0.670659 0.673991 0.321528
Si Si3 0.205397 0.502710 0.155187
Si Si4 0.628303 0.380793 0.833592
Si Si5 0.089284 0.122052 0.793649
Si Si6 0.835839 0.695596 0.184791
Si Si7 0.735854 0.278141 0.859246
Si Si8 0.112454 0.908030 0.673701
O O1 0.398106 0.132031 0.499607
O O2 0.372322 0.236835 0.689612
O O3 0.371523 0.016549 0.660745
O O4 0.522341 0.140785 0.045059
O O5 0.717989 0.570327 0.541067
O O6 0.743853 0.737000 0.430534
O O7 0.240719 0.615409 0.177943
O O8 0.133582 0.538204 0.073579
O O9 0.167681 0.414977 0.925640
O O10 0.681982 0.329931 0.845380
O O11 0.674500 0.314755 0.102492
O O12 0.093517 0.216654 0.678880
O O13 0.990684 0.112916 0.580761
O O14 0.130388 0.007690 0.845361
O O15 0.147320 0.164057 0.097386
O O16 0.826669 0.204164 0.147309
#
# Coordination Sequence:
#
# PCOD9253743 Si02
#       8
#     4   4   4   4   4   4   4   4
#     4  11  25  44  72 101 132 176 223 283 331 395
#     4  12  22  44  71 100 132 173 226 275 337 392
#     4  12  25  43  69 101 126 182 225 267 336 403
#     4  11  26  46  68 101 138 174 225 273 337 405
#     4  11  25  44  69 101 135 177 226 284 332 391
#     4  12  23  42  72  98 136 172 230 277 331 399
#     4  12  26  46  69  97 139 180 219 272 341 406
#     4  11  26  47  67  96 140 178 224 279 336 399
#
# _framework density 19.753086
#
# number of rings (size 3 to 8) (size 9 to 14) (size 15 to 20)
#    0.000    0.500    5.000    2.250    5.250    0.500 
#    2.250    1.250    0.000    0.000    0.000    0.000 
#    0.000    0.000    0.000    0.000    0.000    0.000 
#
# Total GULP energy -178639.900938 kJ/mol
# GULP energy per Si atom -5582.496904 kJ/mol
# Density = 1.970813 g / cm^3
# Si number density = 19.753086 Si / 1000 Ang^3
#
#
#
# Elastic Constant Matrix: (Units=GPa)
#
#
# Indices 1 2 3 4 5 6 
#
# 1 104.4678 35.4056 4.2640 0.0000 5.4636 0.0000
# 2 35.4056 120.5560 9.2685 0.0000 10.1245 0.0000
# 3 4.2640 9.2685 22.6897 0.0000 7.3660 0.0000
# 4 0.0000 0.0000 0.0000 31.4672 0.0000 -0.8885
# 5 5.4636 10.1245 7.3660 0.0000 29.9785 0.0000
# 6 0.0000 0.0000 0.0000 -0.8885 0.0000 59.2370
#
#
#
# Elastic Compliance Matrix: (Units=1/GPa)
#
#
# Indices 1 2 3 4 5 6 
#
# 1 0.010660 -0.003025 -0.000509 0.000000 -0.000796 0.000000
# 2 -0.003025 0.009559 -0.002681 0.000000 -0.002018 0.000000
# 3 -0.000509 -0.002681 0.048835 0.000000 -0.011001 0.000000
# 4 0.000000 0.000000 0.000000 0.031793 0.000000 0.000477
# 5 -0.000796 -0.002018 -0.011001 0.000000 0.036887 0.000000
# 6 0.000000 0.000000 0.000000 0.000477 0.000000 0.016888
#
#
# Mechanical properties :
#
#
# Convention : Reuss Voigt Hill
#
# Bulk Modulus (GPa) = 17.66038 38.39884 28.02961
# Shear Modulus (GPa) = 26.89235 37.38824 32.14030
#
# Velocity S-wave (km/s) = 3.69375 4.35533 4.03811
# Velocity P-wave (km/s) = 5.21073 6.69130 5.99688
#
# Compressibility (1/GPa) = 0.05662392
#
# Stress axis : x y z
#
# Youngs Moduli (GPa) = 93.80998 104.61558 20.47702
#
# Poissons Ratio (x) = 0.31642 0.01043
# Poissons Ratio (y) = 0.28374 0.05490
# Poissons Ratio (z) = 0.04778 0.28048
#
# Static dielectric constant tensor:
#      x y z
#    x 1.663860 0.000000 -0.010180 
#    y 0.000000 1.695180 0.000000 
#    z -0.010180 0.000000 1.739590 
# 
# From -- ./inp_files/20007.got.cif
#   From: 2010.05.17/outbox.ucp.g08.bks.cvg/sg14_11_cif.got.tgz:20007.got - 2010.06.11 12:31:08.
