data_PCOD9253466
_publ_section_title
;
Structure prediction by ZEFSAII (Michael W. Deem and Ramdas Pophale) SiO2 
 PCOD9253466
Probable space group: P 21/C
;
_chemical_formula_sum "Si O2"
_cell_formula_units_Z 24
_cell_length_a 12.000000
_cell_length_b 12.000000
_cell_length_c 24.000000
_cell_angle_alpha 90.000000
_cell_angle_beta 20.000000
_cell_angle_gamma 90.000000
_cell_volume 1182.021615
_symmetry_space_group_name_H-M "P 21/C"
_symmetry_group_IT_number 14
_symmetry_cell_setting 'monoclinic'
loop_
_space_group_symop_operation_xyz
x,y,z
-x,1/2+y,1/2-z
-x,-y,-z
x,1/2-y,1/2+z
loop_
_atom_site_type_symbol
_atom_site_label
_atom_site_fract_x
_atom_site_fract_y
_atom_site_fract_z
Si Si1 0.823512 0.345349 0.910971
Si Si2 0.950893 0.076301 0.968731
Si Si3 0.529495 0.247765 0.936540
Si Si4 0.591232 0.762368 0.301730
Si Si5 0.077529 0.916902 0.804590
Si Si6 0.143263 0.966012 0.192510
O O1 0.596005 0.300786 0.966975
O O2 0.126978 0.266959 0.785861
O O3 0.002106 0.455078 0.806024
O O4 0.635942 0.347184 0.057298
O O5 0.233575 0.170245 0.829824
O O6 0.619450 0.152090 0.116624
O O7 0.994875 0.986779 0.898046
O O8 0.000000 0.000000 0.000000
O O9 0.602480 0.341491 0.855885
O O10 0.818753 0.155760 0.801708
O O11 0.214154 0.171862 0.072026
O O12 0.084590 0.009717 0.752735
O O13 0.500000 0.000000 0.000000
#
# Coordination Sequence:
#
# PCOD9253466 Si02
#       6
#     4   4   4   4   4   4
#     4  10  18  33  59  88 121 162 200 236 304 387
#     4  11  25  45  65  87 117 159 213 264 304 350
#     4  10  19  32  54  88 127 160 193 245 304 362
#     4  10  21  40  63  87 117 158 201 248 306 374
#     4  10  21  35  55  85 123 161 202 250 301 357
#     4   9  16  29  50  81 120 160 193 233 291 360
#
# _framework density 20.304196999999998
#
# number of rings (size 3 to 8) (size 9 to 14) (size 15 to 20)
#    0.000    2.000    0.000    7.000    0.000    2.667 
#    0.000    7.500    0.000    0.000    0.000    0.000 
#    0.000    0.000    0.000    0.000    0.000    0.000 
#
# Total GULP energy -133672.879174 kJ/mol
# GULP energy per Si atom -5569.703299 kJ/mol
# Density = 2.025798 g / cm^3
# Si number density = 20.304197 Si / 1000 Ang^3
#
#
#
# Elastic Constant Matrix: (Units=GPa)
#
#
# Indices 1 2 3 4 5 6 
#
# 1 70.2750 43.8089 24.8819 0.0000 15.3125 0.0000
# 2 43.8089 110.0415 37.6486 0.0000 15.3324 0.0000
# 3 24.8819 37.6486 73.2500 0.0000 3.6526 0.0000
# 4 0.0000 0.0000 0.0000 53.2043 0.0000 9.2488
# 5 15.3125 15.3324 3.6526 0.0000 21.2417 0.0000
# 6 0.0000 0.0000 0.0000 9.2488 0.0000 39.4311
#
#
#
# Elastic Compliance Matrix: (Units=1/GPa)
#
#
# Indices 1 2 3 4 5 6 
#
# 1 0.021501 -0.005770 -0.003806 0.000000 -0.010681 0.000000
# 2 -0.005770 0.013729 -0.004851 0.000000 -0.004916 0.000000
# 3 -0.003806 -0.004851 0.017275 0.000000 0.003275 0.000000
# 4 0.000000 0.000000 0.000000 0.019594 0.000000 -0.004596
# 5 -0.010681 -0.004916 0.003275 0.000000 0.057762 0.000000
# 6 0.000000 0.000000 0.000000 -0.004596 0.000000 0.026439
#
#
# Mechanical properties :
#
#
# Convention : Reuss Voigt Hill
#
# Bulk Modulus (GPa) = 42.27998 51.80501 47.04249
# Shear Modulus (GPa) = 25.90162 32.59056 29.24609
#
# Velocity S-wave (km/s) = 3.57554 4.01073 3.79937
# Velocity P-wave (km/s) = 6.15747 6.85695 6.51660
#
# Compressibility (1/GPa) = 0.02365186
#
# Stress axis : x y z
#
# Youngs Moduli (GPa) = 46.50894 72.83665 57.88777
#
# Poissons Ratio (x) = 0.42025 0.22029
# Poissons Ratio (y) = 0.26835 0.28084
# Poissons Ratio (z) = 0.17699 0.35336
#
# Static dielectric constant tensor:
#      x y z
#    x 1.680820 0.000000 -0.083690 
#    y 0.000000 1.788290 0.000000 
#    z -0.083690 0.000000 1.613490 
# 
# From -- ./inp_files/73268.got.cif
#   From: 2010.05.17/outbox.ucp.g08.bks.cvg/sg14_37_cif.got.tgz:73268.got - 2010.06.11 12:31:08.
