data_PCOD9253944
_publ_section_title
;
Structure prediction by ZEFSAII (Michael W. Deem and Ramdas Pophale) SiO2 
 PCOD9253944
Probable space group: C 2/C
;
_chemical_formula_sum "Si O2"
_cell_formula_units_Z 60
_cell_length_a 9.026172
_cell_length_b 17.624042
_cell_length_c 17.299459
_cell_angle_alpha 90.000000
_cell_angle_beta 58.886775
_cell_angle_gamma 90.000000
_cell_volume 2356.082042
_symmetry_space_group_name_H-M "C 2/C"
_symmetry_group_IT_number 15
_symmetry_cell_setting 'monoclinic'
loop_
_space_group_symop_operation_xyz
x,y,z
-x,y,1/2-z
-x,-y,-z
x,-y,1/2+z
1/2+x,1/2+y,z
1/2-x,1/2+y,1/2-z
1/2-x,1/2-y,-z
1/2+x,1/2-y,1/2+z
loop_
_atom_site_type_symbol
_atom_site_label
_atom_site_fract_x
_atom_site_fract_y
_atom_site_fract_z
Si Si1 0.213441 0.724812 0.316959
Si Si2 0.791837 0.249126 0.078713
Si Si3 0.505200 0.947967 0.154989
Si Si4 0.363506 0.488213 0.728279
Si Si5 0.546360 0.230046 0.624214
Si Si6 0.057845 0.136244 0.610702
Si Si7 0.166591 0.049694 0.436600
Si Si8 0.000000 0.336783 0.750000
O O1 0.298182 0.723129 0.379069
O O2 0.376985 0.750671 0.221396
O O3 0.112658 0.654477 0.303563
O O4 0.081574 0.795996 0.351305
O O5 0.985249 0.243805 0.056511
O O6 0.717217 0.334012 0.119245
O O7 0.663192 0.196331 0.160670
O O8 0.750000 0.250000 0.000000
O O9 0.500000 0.950036 0.250000
O O10 0.315806 0.981698 0.186012
O O11 0.561770 0.861618 0.120525
O O12 0.657377 0.005601 0.089726
O O13 0.500000 0.449333 0.750000
O O14 0.465620 0.563238 0.670827
O O15 0.330821 0.442731 0.657026
O O16 0.130421 0.117340 0.505603
O O17 0.000000 0.000000 0.500000
#
# Coordination Sequence:
#
# PCOD9253944 Si02
#       8
#     8   8   8   8   8   8   8   4
#     4   9  15  26  50  77  99 136 167 222 277 314
#     4  10  21  34  54  81 103 138 184 230 284 342
#     4  10  16  28  49  76 106 136 180 218 267 326
#     4  10  18  29  50  76  96 136 185 224 262 322
#     4  10  15  27  49  80 105 128 175 232 273 310
#     4  10  18  33  50  73 110 138 174 222 287 317
#     4   9  19  31  46  75 110 144 168 210 279 335
#     4   8  18  32  52  74 102 128 176 220 278 326
#
# _framework density 25.466007000000001
#
# number of rings (size 3 to 8) (size 9 to 14) (size 15 to 20)
#    0.000    2.400    2.667    2.400    3.733    0.000 
#    0.000   10.000    4.400    0.000    6.933    0.000 
#    0.000    0.000    0.000    0.000    0.000    0.000 
#
# Total GULP energy -167156.621618 kJ/mol
# GULP energy per Si atom -5571.887387 kJ/mol
# Density = 2.540805 g / cm^3
# Si number density = 25.466007 Si / 1000 Ang^3
#
#
#
# Elastic Constant Matrix: (Units=GPa)
#
#
# Indices 1 2 3 4 5 6 
#
# 1 185.0596 23.0965 28.0060 0.0000 17.8848 0.0000
# 2 23.0965 71.8391 18.2512 0.0000 7.5240 0.0000
# 3 28.0060 18.2512 112.0057 0.0000 -18.1368 0.0000
# 4 0.0000 0.0000 0.0000 29.2119 0.0000 15.1998
# 5 17.8848 7.5240 -18.1368 0.0000 35.9038 0.0000
# 6 0.0000 0.0000 0.0000 15.1998 0.0000 -0.6676
#
#
#
# Elastic Compliance Matrix: (Units=1/GPa)
#
#
# Indices 1 2 3 4 5 6 
#
# 1 0.006218 -0.001082 -0.002007 0.000000 -0.003885 0.000000
# 2 -0.001082 0.015448 -0.002923 0.000000 -0.004174 0.000000
# 3 -0.002007 -0.002923 0.011073 0.000000 0.007206 0.000000
# 4 0.000000 0.000000 0.000000 0.002665 0.000000 0.060669
# 5 -0.003885 -0.004174 0.007206 0.000000 0.034302 0.000000
# 6 0.000000 0.000000 0.000000 0.060669 0.000000 -0.116597
#
#
# Mechanical properties :
#
#
# Convention : Reuss Voigt Hill
#
# Bulk Modulus (GPa) = 48.27574 56.40131 52.33853
# Shear Modulus (GPa) = -178.81490 32.85966 -72.97762
#
# Velocity S-wave (km/s) = -8.38865 3.59602 -5.35902
# Velocity P-wave (km/s) = 8.65031 6.27993 4.20656
#
# Compressibility (1/GPa) = 0.02071434
#
# Stress axis : x y z
#
# Youngs Moduli (GPa) = 160.82477 64.73489 90.30879
#
# Poissons Ratio (x) = 0.07006 0.18129
# Poissons Ratio (y) = 0.17405 0.26393
# Poissons Ratio (z) = 0.32284 0.18919
#
# Static dielectric constant tensor:
#      x y z
#    x 2.230920 0.000000 0.008740 
#    y 0.000000 2.127500 0.000000 
#    z 0.008740 0.000000 2.139740 
# 
# From -- ./inp_files/193593.got.cif
#   From: 2010.05.17/outbox.cif.g08.bks.cpg/sg15_97_cif.got.tgz:193593.got - 2010.06.03 18:47:42.
