data_PCOD9253833
_publ_section_title
;
Structure prediction by ZEFSAII (Michael W. Deem and Ramdas Pophale) SiO2 
 PCOD9253833
Probable space group: C 2/C
;
_chemical_formula_sum "Si O2"
_cell_formula_units_Z 40
_cell_length_a 11.382297
_cell_length_b 11.072283
_cell_length_c 13.088113
_cell_angle_alpha 90.000000
_cell_angle_beta 71.862209
_cell_angle_gamma 90.000000
_cell_volume 1567.507780
_symmetry_space_group_name_H-M "C 2/C"
_symmetry_group_IT_number 15
_symmetry_cell_setting 'monoclinic'
loop_
_space_group_symop_operation_xyz
x,y,z
-x,y,1/2-z
-x,-y,-z
x,-y,1/2+z
1/2+x,1/2+y,z
1/2-x,1/2+y,1/2-z
1/2-x,1/2-y,-z
1/2+x,1/2-y,1/2+z
loop_
_atom_site_type_symbol
_atom_site_label
_atom_site_fract_x
_atom_site_fract_y
_atom_site_fract_z
Si Si1 0.854494 0.269767 0.385456
Si Si2 0.515232 0.007829 0.363337
Si Si3 0.735765 0.459980 0.281646
Si Si4 0.534941 0.511431 0.111385
Si Si5 0.274899 0.889533 0.981528
O O1 0.750000 0.250000 0.500000
O O2 0.921681 0.584738 0.458084
O O3 0.952447 0.375685 0.381924
O O4 0.931710 0.147312 0.364554
O O5 0.500000 0.052847 0.250000
O O6 0.717882 0.826925 0.192759
O O7 0.663104 0.004956 0.327967
O O8 0.590004 0.463865 0.301484
O O9 0.665067 0.556415 0.578985
O O10 0.752017 0.548794 0.376353
O O11 0.500000 0.500000 0.000000
O O12 0.250000 0.750000 0.000000
#
# Coordination Sequence:
#
# PCOD9253833 Si02
#       5
#     8   8   8   8   8
#     4  10  14  28  54  74  93 132 171 214 252 300
#     4   8  16  31  49  68  94 132 167 203 257 303
#     4   9  19  33  52  73  99 131 174 212 256 306
#     4  10  17  29  51  77  94 127 177 208 243 314
#     4   9  16  28  49  71  96 132 162 197 258 309
#
# _framework density 25.518215999999999
#
# number of rings (size 3 to 8) (size 9 to 14) (size 15 to 20)
#    0.000    3.200    6.000    0.000    0.000    0.000 
#    3.600    0.000    0.000   40.800    0.000    0.000 
#    0.000    0.000    0.000    0.000    0.000    0.000 
#
# Total GULP energy -111638.470571 kJ/mol
# GULP energy per Si atom -5581.923529 kJ/mol
# Density = 2.546014 g / cm^3
# Si number density = 25.518216 Si / 1000 Ang^3
#
#
#
# Elastic Constant Matrix: (Units=GPa)
#
#
# Indices 1 2 3 4 5 6 
#
# 1 194.1134 45.7840 72.0127 0.0000 -65.2201 0.0000
# 2 45.7840 157.1988 42.8242 0.0000 -30.9000 0.0000
# 3 72.0127 42.8242 266.0472 0.0000 -69.0322 0.0000
# 4 0.0000 0.0000 0.0000 18.5748 0.0000 -15.4010
# 5 -65.2201 -30.9000 -69.0322 0.0000 65.0308 0.0000
# 6 0.0000 0.0000 0.0000 -15.4010 0.0000 22.1411
#
#
#
# Elastic Compliance Matrix: (Units=1/GPa)
#
#
# Indices 1 2 3 4 5 6 
#
# 1 0.007865 -0.000811 -0.000071 0.000000 0.007426 0.000000
# 2 -0.000811 0.007126 -0.000359 0.000000 0.002191 0.000000
# 3 -0.000071 -0.000359 0.005207 0.000000 0.005286 0.000000
# 4 0.000000 0.000000 0.000000 0.127193 0.000000 0.088474
# 5 0.007426 0.002191 0.005286 0.000000 0.029478 0.000000
# 6 0.000000 0.000000 0.000000 0.088474 0.000000 0.106706
#
#
# Mechanical properties :
#
#
# Convention : Reuss Voigt Hill
#
# Bulk Modulus (GPa) = 56.44861 104.28902 80.36882
# Shear Modulus (GPa) = 17.12547 51.59857 34.36202
#
# Velocity S-wave (km/s) = 2.59338 4.50158 3.67354
# Velocity P-wave (km/s) = 5.58001 8.24476 7.03962
#
# Compressibility (1/GPa) = 0.01771523
#
# Stress axis : x y z
#
# Youngs Moduli (GPa) = 127.15210 140.32722 192.03875
#
# Poissons Ratio (x) = 0.11386 0.01368
# Poissons Ratio (y) = 0.10317 0.06891
# Poissons Ratio (z) = 0.00906 0.05035
#
# Static dielectric constant tensor:
#      x y z
#    x 2.015360 0.000000 -0.135210 
#    y 0.000000 1.891510 0.000000 
#    z -0.135210 0.000000 1.839880 
# 
# From -- ./inp_files/276168.got.cif
#   From: 2010.05.17/outbox.cif.g08.bks.cpg/sg15_139_cif.got.tgz:276168.got - 2010.06.03 18:47:42.
