data_PCOD9253782
_publ_section_title
;
Structure prediction by ZEFSAII (Michael W. Deem and Ramdas Pophale) SiO2 
 PCOD9253782
Probable space group: C 2/C
;
_chemical_formula_sum "Si O2"
_cell_formula_units_Z 56
_cell_length_a 16.101928
_cell_length_b 24.208784
_cell_length_c 6.987208
_cell_angle_alpha 90.000000
_cell_angle_beta 121.869088
_cell_angle_gamma 90.000000
_cell_volume 2313.095116
_symmetry_space_group_name_H-M "C 2/C"
_symmetry_group_IT_number 15
_symmetry_cell_setting 'monoclinic'
loop_
_space_group_symop_operation_xyz
x,y,z
-x,y,1/2-z
-x,-y,-z
x,-y,1/2+z
1/2+x,1/2+y,z
1/2-x,1/2+y,1/2-z
1/2-x,1/2-y,-z
1/2+x,1/2-y,1/2+z
loop_
_atom_site_type_symbol
_atom_site_label
_atom_site_fract_x
_atom_site_fract_y
_atom_site_fract_z
Si Si1 0.470074 0.109240 0.941055
Si Si2 0.784953 0.453252 0.089864
Si Si3 0.076846 0.729937 0.561478
Si Si4 0.882844 0.873421 0.606380
Si Si5 0.816183 0.578198 0.189815
Si Si6 0.805173 0.177284 0.407850
Si Si7 0.638222 0.254923 0.048483
O O1 0.500000 0.119863 0.750000
O O2 0.380583 0.066054 0.824806
O O3 0.428277 0.165286 0.982673
O O4 0.567664 0.089885 0.168790
O O5 0.785958 0.518898 0.072986
O O6 0.682666 0.426044 0.029191
O O7 0.799943 0.428008 0.898257
O O8 0.115752 0.774103 0.454425
O O9 0.143018 0.736865 0.831324
O O10 0.970097 0.744210 0.507882
O O11 0.855624 0.852822 0.787506
O O12 0.851117 0.820959 0.438114
O O13 0.000000 0.881630 0.750000
O O14 0.744491 0.627348 0.035962
O O15 0.712111 0.214994 0.243758
#
# Coordination Sequence:
#
# PCOD9253782 Si02
#       7
#     8   8   8   8   8   8   8
#     4  10  16  29  47  75 104 131 155 208 257 306
#     4  10  21  33  50  70 103 135 175 205 241 286
#     4  10  14  22  41  69  98 122 148 192 262 304
#     4  10  17  28  44  69  99 129 165 202 248 299
#     4  10  20  34  50  73 103 136 169 204 245 291
#     4  10  17  26  42  66 103 129 153 202 252 305
#     4  10  14  23  41  67 100 123 150 191 265 305
#
# _framework density 24.209987000000002
#
# number of rings (size 3 to 8) (size 9 to 14) (size 15 to 20)
#    0.000    2.000    5.714    4.714    0.000    0.000 
#    0.000    2.857    0.000    0.000    0.000    4.000 
#    0.000    0.000    0.000    0.000    0.000    0.000 
#
# Total GULP energy -156480.788282 kJ/mol
# GULP energy per Si atom -5588.599581 kJ/mol
# Density = 2.415488 g / cm^3
# Si number density = 24.209987 Si / 1000 Ang^3
#
#
#
# Elastic Constant Matrix: (Units=GPa)
#
#
# Indices 1 2 3 4 5 6 
#
# 1 114.2318 68.5988 42.3365 0.0000 39.1708 0.0000
# 2 68.5988 185.0986 53.8824 0.0000 33.7211 0.0000
# 3 42.3365 53.8824 86.3843 0.0000 13.4283 0.0000
# 4 0.0000 0.0000 0.0000 22.1500 0.0000 49.6802
# 5 39.1708 33.7211 13.4283 0.0000 37.0943 0.0000
# 6 0.0000 0.0000 0.0000 49.6802 0.0000 -129.5732
#
#
#
# Elastic Compliance Matrix: (Units=1/GPa)
#
#
# Indices 1 2 3 4 5 6 
#
# 1 0.016516 -0.002307 -0.004525 0.000000 -0.013706 0.000000
# 2 -0.002307 0.007833 -0.003208 0.000000 -0.003524 0.000000
# 3 -0.004525 -0.003208 0.015469 0.000000 0.002094 0.000000
# 4 0.000000 0.000000 0.000000 0.024273 0.000000 0.009307
# 5 -0.013706 -0.003524 0.002094 0.000000 0.043876 0.000000
# 6 0.000000 0.000000 0.000000 0.009307 0.000000 -0.004149
#
#
# Mechanical properties :
#
#
# Convention : Reuss Voigt Hill
#
# Bulk Modulus (GPa) = 50.66032 79.48333 65.07183
# Shear Modulus (GPa) = 38.32084 0.66072 19.49078
#
# Velocity S-wave (km/s) = 3.98282 0.52298 2.84046
# Velocity P-wave (km/s) = 6.49009 5.76773 6.13955
#
# Compressibility (1/GPa) = 0.01973932
#
# Stress axis : x y z
#
# Youngs Moduli (GPa) = 60.54615 127.66266 64.64514
#
# Poissons Ratio (x) = 0.29451 0.29253
# Poissons Ratio (y) = 0.13967 0.20736
# Poissons Ratio (z) = 0.27398 0.40949
#
# Static dielectric constant tensor:
#      x y z
#    x 1.993660 0.000000 -0.069250 
#    y 0.000000 1.923980 0.000000 
#    z -0.069250 0.000000 1.983780 
# 
# From -- ./inp_files/107347.got.cif
#   From: 2010.05.17/outbox.cif.g08.bks.cpg/sg15_54_cif.got.tgz:107347.got - 2010.06.03 18:47:42.
