data_PCOD9253018
_publ_section_title
;
Structure prediction by ZEFSAII (Michael W. Deem and Ramdas Pophale) SiO2 
 PCOD9253018
Probable space group: P 21/C
;
_chemical_formula_sum "Si O2"
_cell_formula_units_Z 20
_cell_length_a 9.071953
_cell_length_b 10.016822
_cell_length_c 15.906678
_cell_angle_alpha 90.000000
_cell_angle_beta 148.647898
_cell_angle_gamma 90.000000
_cell_volume 752.074115
_symmetry_space_group_name_H-M "P 21/C"
_symmetry_group_IT_number 14
_symmetry_cell_setting 'monoclinic'
loop_
_space_group_symop_operation_xyz
x,y,z
-x,1/2+y,1/2-z
-x,-y,-z
x,1/2-y,1/2+z
loop_
_atom_site_type_symbol
_atom_site_label
_atom_site_fract_x
_atom_site_fract_y
_atom_site_fract_z
Si Si1 0.035776 0.695612 0.065970
Si Si2 0.772376 0.519755 0.719654
Si Si3 0.307429 0.743373 0.862858
Si Si4 0.435598 0.228649 0.282497
Si Si5 0.180474 0.400124 0.801377
O O1 0.060908 0.549945 0.120566
O O2 0.151885 0.786338 0.199063
O O3 0.246008 0.707933 0.089956
O O4 0.734658 0.738503 0.885047
O O5 0.566875 0.395191 0.594074
O O6 0.613520 0.647367 0.677765
O O7 0.014119 0.520897 0.764809
O O8 0.064878 0.787163 0.810802
O O9 0.557021 0.647318 0.012506
O O10 0.302030 0.103525 0.267173
#
# Coordination Sequence:
#
# PCOD9253018 Si02
#       5
#     4   4   4   4   4
#     4   9  21  34  60  83 108 145 187 223 270 329
#     4   8  22  37  59  75 117 150 175 217 296 316
#     4   8  18  38  53  77 115 144 175 224 273 321
#     4  12  19  39  60  81 111 145 185 231 268 323
#     4   9  19  35  57  81 109 147 184 223 271 325
#
# _framework density 26.593121
#
# number of rings (size 3 to 8) (size 9 to 14) (size 15 to 20)
#    2.400    0.000    0.000    4.200    0.000    0.800 
#    0.000    9.000    0.000    0.000    0.000    0.000 
#    0.000    0.000    0.000    0.000    0.000    0.000 
#
# Total GULP energy -111702.426544 kJ/mol
# GULP energy per Si atom -5585.121327 kJ/mol
# Density = 2.653259 g / cm^3
# Si number density = 26.593121 Si / 1000 Ang^3
#
#
#
# Elastic Constant Matrix: (Units=GPa)
#
#
# Indices 1 2 3 4 5 6 
#
# 1 121.2544 -4.7486 8.4612 0.0000 4.0825 0.0000
# 2 -4.7486 78.8465 8.5999 0.0000 -6.0054 0.0000
# 3 8.4612 8.5999 121.8655 0.0000 0.1468 0.0000
# 4 0.0000 0.0000 0.0000 22.2621 0.0000 2.3847
# 5 4.0825 -6.0054 0.1468 0.0000 44.3813 0.0000
# 6 0.0000 0.0000 0.0000 2.3847 0.0000 32.3751
#
#
#
# Elastic Compliance Matrix: (Units=1/GPa)
#
#
# Indices 1 2 3 4 5 6 
#
# 1 0.008334 0.000516 -0.000614 0.000000 -0.000695 0.000000
# 2 0.000516 0.012948 -0.000952 0.000000 0.001708 0.000000
# 3 -0.000614 -0.000952 0.008316 0.000000 -0.000100 0.000000
# 4 0.000000 0.000000 0.000000 0.045277 0.000000 -0.003335
# 5 -0.000695 0.001708 -0.000100 0.000000 0.022827 0.000000
# 6 0.000000 0.000000 0.000000 -0.003335 0.000000 0.031134
#
#
# Mechanical properties :
#
#
# Convention : Reuss Voigt Hill
#
# Bulk Modulus (GPa) = 36.36699 38.51016 37.43858
# Shear Modulus (GPa) = 35.68879 40.44730 38.06804
#
# Velocity S-wave (km/s) = 3.66735 3.90419 3.78762
# Velocity P-wave (km/s) = 5.62473 5.90223 5.76515
#
# Compressibility (1/GPa) = 0.02749747
#
# Stress axis : x y z
#
# Youngs Moduli (GPa) = 119.99649 77.23313 120.25470
#
# Poissons Ratio (x) = -0.03985 0.07386
# Poissons Ratio (y) = -0.06192 0.11443
# Poissons Ratio (z) = 0.07370 0.07349
#
# Static dielectric constant tensor:
#      x y z
#    x 2.080570 0.000000 -0.074440 
#    y 0.000000 2.251390 0.000000 
#    z -0.074440 0.000000 2.052570 
# 
# From -- ./inp_files/55552.got.cif
#   From: 2010.05.17/outbox.cif.g08.bks.cpg/sg14_28_cif.got.tgz:55552.got - 2010.06.03 17:49:19.
