data_PCOD9253943
_publ_section_title
;
Structure prediction by ZEFSAII (Michael W. Deem and Ramdas Pophale) SiO2 
 PCOD9253943
Probable space group: C 2/C
;
_chemical_formula_sum "Si O2"
_cell_formula_units_Z 60
_cell_length_a 21.301169
_cell_length_b 6.996209
_cell_length_c 20.856235
_cell_angle_alpha 90.000000
_cell_angle_beta 67.690603
_cell_angle_gamma 90.000000
_cell_volume 2875.498139
_symmetry_space_group_name_H-M "C 2/C"
_symmetry_group_IT_number 15
_symmetry_cell_setting 'monoclinic'
loop_
_space_group_symop_operation_xyz
x,y,z
-x,y,1/2-z
-x,-y,-z
x,-y,1/2+z
1/2+x,1/2+y,z
1/2-x,1/2+y,1/2-z
1/2-x,1/2-y,-z
1/2+x,1/2-y,1/2+z
loop_
_atom_site_type_symbol
_atom_site_label
_atom_site_fract_x
_atom_site_fract_y
_atom_site_fract_z
Si Si1 0.316422 0.825262 0.011761
Si Si2 0.031069 0.786366 0.495478
Si Si3 0.992476 0.130628 0.358459
Si Si4 0.780882 0.865028 0.905868
Si Si5 0.000000 0.693527 0.250000
Si Si6 0.039555 0.679233 0.100170
Si Si7 0.175269 0.084259 0.964527
Si Si8 0.595999 0.551776 0.222922
O O1 0.337349 0.638791 0.043577
O O2 0.285670 0.002516 0.061080
O O3 0.250000 0.750000 0.000000
O O4 0.381453 0.868331 0.942568
O O5 0.111869 0.805901 0.459655
O O6 0.016457 0.742606 0.575663
O O7 0.999794 0.659210 0.451632
O O8 0.000000 0.000000 0.500000
O O9 0.068887 0.126420 0.301362
O O10 0.943831 0.169522 0.317048
O O11 0.969963 0.910555 0.384036
O O12 0.748511 0.655584 0.912518
O O13 0.827417 0.931399 0.829594
O O14 0.820459 0.882855 0.959175
O O15 0.989338 0.592286 0.322416
O O16 0.934997 0.836783 0.267938
#
# Coordination Sequence:
#
# PCOD9253943 Si02
#       8
#     8   8   8   8   4   8   8   8
#     4  10  17  30  48  74 103 130 168 213 250 304
#     4  10  15  27  49  74  99 124 173 216 250 295
#     4   8  13  23  45  71  91 128 168 207 244 297
#     4  10  19  29  49  75 106 133 169 210 254 302
#     4   8  14  26  46  76  92 126 178 208 250 310
#     4   9  16  26  48  75  94 127 173 211 252 302
#     4  10  18  30  47  77 100 132 170 214 250 303
#     4   8  13  25  42  70  96 123 172 204 241 302
#
# _framework density 20.865949000000001
#
# number of rings (size 3 to 8) (size 9 to 14) (size 15 to 20)
#    0.000    3.200    4.000    2.400    0.000    0.000 
#    0.000    0.667    0.000    6.400   17.333    4.667 
#    0.000    0.000    0.000    0.000    0.000    0.000 
#
# Total GULP energy -167058.055586 kJ/mol
# GULP energy per Si atom -5568.601853 kJ/mol
# Density = 2.081846 g / cm^3
# Si number density = 20.865949 Si / 1000 Ang^3
#
#
#
# Elastic Constant Matrix: (Units=GPa)
#
#
# Indices 1 2 3 4 5 6 
#
# 1 92.6615 10.5124 51.7688 -0.0002 -15.8019 0.0001
# 2 10.5124 46.9816 16.8817 -0.0005 -4.0065 0.0010
# 3 51.7688 16.8817 125.8910 -0.0002 -21.9746 -0.0001
# 4 -0.0002 -0.0005 -0.0002 19.5361 0.0000 2.0460
# 5 -15.8019 -4.0065 -21.9746 0.0000 41.7511 -0.0001
# 6 0.0001 0.0010 -0.0001 2.0460 -0.0001 15.9564
#
#
#
# Elastic Compliance Matrix: (Units=1/GPa)
#
#
# Indices 1 2 3 4 5 6 
#
# 1 0.014304 -0.001082 -0.005297 0.000000 0.002522 0.000000
# 2 -0.001082 0.022459 -0.002491 0.000001 0.000435 -0.000002
# 3 -0.005297 -0.002491 0.011082 0.000000 0.003589 0.000000
# 4 0.000000 0.000001 0.000000 0.051884 0.000000 -0.006653
# 5 0.002522 0.000435 0.003589 0.000000 0.026837 0.000000
# 6 0.000000 -0.000002 0.000000 -0.006653 0.000000 0.063524
#
#
# Mechanical properties :
#
#
# Convention : Reuss Voigt Hill
#
# Bulk Modulus (GPa) = 33.21643 47.09556 40.15599
# Shear Modulus (GPa) = 22.95005 27.87348 25.41176
#
# Velocity S-wave (km/s) = 3.32004 3.65887 3.49357
# Velocity P-wave (km/s) = 5.53628 6.36155 5.96321
#
# Compressibility (1/GPa) = 0.03010558
#
# Stress axis : x y z
#
# Youngs Moduli (GPa) = 69.91015 44.52526 90.23661
#
# Poissons Ratio (x) = 0.04819 0.47796
# Poissons Ratio (y) = 0.07566 0.22476
# Poissons Ratio (z) = 0.37030 0.11090
#
# Static dielectric constant tensor:
#      x y z
#    x 1.760770 0.000000 0.011950 
#    y 0.000000 1.898820 0.000000 
#    z 0.011950 0.000000 1.809380 
# 
# From -- ./inp_files/279212.got.cif
#   From: 2010.05.17/outbox.cif.g08.bks.cpg/sg15_140_cif.got.tgz:279212.got - 2010.06.03 18:47:42.
