data_PCOD9253647
_publ_section_title
;
Structure prediction by ZEFSAII (Michael W. Deem and Ramdas Pophale) SiO2 
 PCOD9253647
Probable space group: P 21/C
;
_chemical_formula_sum "Si O2"
_cell_formula_units_Z 32
_cell_length_a 12.000000
_cell_length_b 15.000000
_cell_length_c 9.000000
_cell_angle_alpha 90.000000
_cell_angle_beta 110.000000
_cell_angle_gamma 90.000000
_cell_volume 1522.302046
_symmetry_space_group_name_H-M "P 21/C"
_symmetry_group_IT_number 14
_symmetry_cell_setting 'monoclinic'
loop_
_space_group_symop_operation_xyz
x,y,z
-x,1/2+y,1/2-z
-x,-y,-z
x,1/2-y,1/2+z
loop_
_atom_site_type_symbol
_atom_site_label
_atom_site_fract_x
_atom_site_fract_y
_atom_site_fract_z
Si Si1 0.152163 0.918436 0.634743
Si Si2 0.229793 0.272773 0.632563
Si Si3 0.634578 0.351640 0.907573
Si Si4 0.776849 0.170421 0.038931
Si Si5 0.456803 0.898740 0.967769
Si Si6 0.071589 0.390861 0.164506
Si Si7 0.590688 0.780902 0.548844
Si Si8 0.998361 0.894995 0.042986
O O1 0.257607 0.922616 0.560207
O O2 0.179416 0.843680 0.771370
O O3 0.023795 0.896812 0.510459
O O4 0.142120 0.015805 0.704174
O O5 0.159791 0.190704 0.677163
O O6 0.319635 0.317482 0.787874
O O7 0.321230 0.232576 0.551399
O O8 0.126412 0.343600 0.545557
O O9 0.572196 0.366176 0.716411
O O10 0.530432 0.340277 0.984865
O O11 0.714445 0.262958 0.967876
O O12 0.663352 0.104826 0.989171
O O13 0.889484 0.148778 0.988855
O O14 0.544938 0.820415 0.063340
O O15 0.500000 0.000000 0.000000
O O16 0.993921 0.383494 0.277103
O O17 0.000000 0.000000 0.000000
#
# Coordination Sequence:
#
# PCOD9253647 Si02
#       8
#     4   4   4   4   4   4   4   4
#     4  10  23  44  70  99 140 181 232 298 362 421
#     4  12  26  41  70  99 144 186 234 294 362 431
#     4  10  22  42  69 102 136 184 242 293 349 435
#     4  10  23  41  70  99 138 178 243 287 358 429
#     4  10  23  42  73  99 135 187 237 298 361 426
#     4  11  25  45  68 103 143 185 232 299 365 428
#     4  11  24  44  67 103 138 184 244 285 364 436
#     4  12  26  44  71 104 140 188 245 293 359 440
#
# _framework density 21.020796000000001
#
# number of rings (size 3 to 8) (size 9 to 14) (size 15 to 20)
#    0.000    1.250    3.750    0.750    7.000    6.000 
#    0.000    0.625    0.000    0.000    0.000    0.000 
#    0.000    0.000    0.000    0.000    0.000    0.000 
#
# Total GULP energy -178320.350173 kJ/mol
# GULP energy per Si atom -5572.510943 kJ/mol
# Density = 2.097295 g / cm^3
# Si number density = 21.020796 Si / 1000 Ang^3
#
#
#
# Elastic Constant Matrix: (Units=GPa)
#
#
# Indices 1 2 3 4 5 6 
#
# 1 161.6432 11.9218 19.4220 0.0000 -25.6536 0.0000
# 2 11.9218 44.6065 23.8179 0.0000 3.1945 0.0000
# 3 19.4220 23.8179 52.5736 0.0000 -1.8851 0.0000
# 4 0.0000 0.0000 0.0000 24.4491 0.0000 -1.1816
# 5 -25.6536 3.1945 -1.8851 0.0000 42.0849 0.0000
# 6 0.0000 0.0000 0.0000 -1.1816 0.0000 39.3840
#
#
#
# Elastic Compliance Matrix: (Units=1/GPa)
#
#
# Indices 1 2 3 4 5 6 
#
# 1 0.007208 -0.001192 -0.001965 0.000000 0.004396 0.000000
# 2 -0.001192 0.030114 -0.013332 0.000000 -0.003610 0.000000
# 3 -0.001965 -0.013332 0.025822 0.000000 0.000971 0.000000
# 4 0.000000 0.000000 0.000000 0.040961 0.000000 0.001229
# 5 0.004396 -0.003610 0.000971 0.000000 0.026759 0.000000
# 6 0.000000 0.000000 0.000000 0.001229 0.000000 0.025428
#
#
# Mechanical properties :
#
#
# Convention : Reuss Voigt Hill
#
# Bulk Modulus (GPa) = 33.15035 41.01629 37.08332
# Shear Modulus (GPa) = 25.08471 34.76104 29.92288
#
# Velocity S-wave (km/s) = 3.45821 4.07092 3.77701
# Velocity P-wave (km/s) = 5.63472 6.45377 6.05810
#
# Compressibility (1/GPa) = 0.03016559
#
# Stress axis : x y z
#
# Youngs Moduli (GPa) = 138.73025 33.20722 38.72722
#
# Poissons Ratio (x) = 0.03958 0.07611
# Poissons Ratio (y) = 0.16537 0.51631
# Poissons Ratio (z) = 0.27264 0.44271
#
# Static dielectric constant tensor:
#      x y z
#    x 1.783340 0.000000 -0.007430 
#    y 0.000000 1.756480 0.000000 
#    z -0.007430 0.000000 1.849280 
# 
# From -- ./inp_files/13370.got.cif
#   From: 2010.05.17/outbox.ucp.g08.bks.cvg/sg14_7_cif.got.tgz:13370.got - 2010.06.11 12:31:08.
