data_PCOD9253600
_publ_section_title
;
Structure prediction by ZEFSAII (Michael W. Deem and Ramdas Pophale) SiO2 
 PCOD9253600
Probable space group: P 21/C
;
_chemical_formula_sum "Si O2"
_cell_formula_units_Z 28
_cell_length_a 15.000000
_cell_length_b 9.000000
_cell_length_c 15.000000
_cell_angle_alpha 90.000000
_cell_angle_beta 140.000000
_cell_angle_gamma 90.000000
_cell_volume 1301.644910
_symmetry_space_group_name_H-M "P 21/C"
_symmetry_group_IT_number 14
_symmetry_cell_setting 'monoclinic'
loop_
_space_group_symop_operation_xyz
x,y,z
-x,1/2+y,1/2-z
-x,-y,-z
x,1/2-y,1/2+z
loop_
_atom_site_type_symbol
_atom_site_label
_atom_site_fract_x
_atom_site_fract_y
_atom_site_fract_z
Si Si1 0.615595 0.379049 0.063732
Si Si2 0.010865 0.237922 0.277479
Si Si3 0.819450 0.510981 0.681240
Si Si4 0.462640 0.317155 0.573482
Si Si5 0.086665 0.864774 0.110755
Si Si6 0.723392 0.943203 0.493447
Si Si7 0.230195 0.913026 0.653595
O O1 0.528647 0.233872 0.027655
O O2 0.757284 0.399117 0.230486
O O3 0.500000 0.500000 0.000000
O O4 0.666926 0.412495 0.003052
O O5 0.058714 0.371508 0.249707
O O6 0.138048 0.124988 0.357087
O O7 0.001385 0.305341 0.371233
O O8 0.870217 0.139301 0.169539
O O9 0.668192 0.572288 0.536179
O O10 0.806060 0.481860 0.777038
O O11 0.395984 0.180469 0.579341
O O12 0.605942 0.371380 0.725958
O O13 0.127829 0.730788 0.074025
O O14 0.000000 0.000000 0.000000
O O15 0.776249 0.977378 0.434769
#
# Coordination Sequence:
#
# PCOD9253600 Si02
#       7
#     4   4   4   4   4   4   4
#     4   9  19  41  65  90 133 171 215 266 328 394
#     4  10  22  43  61  97 130 173 220 267 337 395
#     4  10  21  41  68  90 137 173 222 276 327 401
#     4   9  20  41  64  96 129 174 226 267 333 401
#     4  10  22  44  64  96 130 169 225 272 324 404
#     4  10  21  41  61  95 134 169 214 278 331 396
#     4  10  22  42  64  97 134 169 224 279 328 391
#
# _framework density 21.511243
#
# number of rings (size 3 to 8) (size 9 to 14) (size 15 to 20)
#    0.000    2.286    0.000    1.286    0.000    3.429 
#   46.286    0.000    0.000    0.000    0.000    0.000 
#    0.000    0.000    0.000    0.000    0.000    0.000 
#
# Total GULP energy -156020.147054 kJ/mol
# GULP energy per Si atom -5572.148109 kJ/mol
# Density = 2.146228 g / cm^3
# Si number density = 21.511243 Si / 1000 Ang^3
#
#
#
# Elastic Constant Matrix: (Units=GPa)
#
#
# Indices 1 2 3 4 5 6 
#
# 1 151.1993 55.0394 30.9942 0.0000 18.4481 0.0000
# 2 55.0394 106.3528 38.1576 0.0000 12.1856 0.0000
# 3 30.9942 38.1576 50.5572 0.0000 22.5239 0.0000
# 4 0.0000 0.0000 0.0000 41.8058 0.0000 13.6813
# 5 18.4481 12.1856 22.5239 0.0000 31.3627 0.0000
# 6 0.0000 0.0000 0.0000 13.6813 0.0000 65.9090
#
#
#
# Elastic Compliance Matrix: (Units=1/GPa)
#
#
# Indices 1 2 3 4 5 6 
#
# 1 0.008532 -0.003648 -0.001284 0.000000 -0.002679 0.000000
# 2 -0.003648 0.014637 -0.010636 0.000000 0.004097 0.000000
# 3 -0.001284 -0.010636 0.038846 0.000000 -0.023010 0.000000
# 4 0.000000 0.000000 0.000000 0.025663 0.000000 -0.005327
# 5 -0.002679 0.004097 -0.023010 0.000000 0.048394 0.000000
# 6 0.000000 0.000000 0.000000 -0.005327 0.000000 0.016278
#
#
# Mechanical properties :
#
#
# Convention : Reuss Voigt Hill
#
# Bulk Modulus (GPa) = 32.38457 61.83241 47.10849
# Shear Modulus (GPa) = 25.80258 40.07672 32.93965
#
# Velocity S-wave (km/s) = 3.46713 4.32100 3.91740
# Velocity P-wave (km/s) = 5.57811 7.32812 6.51217
#
# Compressibility (1/GPa) = 0.03087890
#
# Stress axis : x y z
#
# Youngs Moduli (GPa) = 117.21023 68.31923 25.74296
#
# Poissons Ratio (x) = 0.24921 0.03304
# Poissons Ratio (y) = 0.42756 0.27381
# Poissons Ratio (z) = 0.15044 0.72667
#
# Static dielectric constant tensor:
#      x y z
#    x 1.731180 0.000000 -0.041910 
#    y 0.000000 1.901660 0.000000 
#    z -0.041910 0.000000 1.848990 
# 
# From -- ./inp_files/46769.got.cif
#   From: 2010.05.17/outbox.ucp.g08.bks.cvg/sg14_24_cif.got.tgz:46769.got - 2010.06.11 12:31:08.
