data_PCOD9253023
_publ_section_title
;
Structure prediction by ZEFSAII (Michael W. Deem and Ramdas Pophale) SiO2 
 PCOD9253023
Probable space group: P 21/C
;
_chemical_formula_sum "Si O2"
_cell_formula_units_Z 32
_cell_length_a 21.813188
_cell_length_b 13.290467
_cell_length_c 27.618849
_cell_angle_alpha 90.000000
_cell_angle_beta 168.870774
_cell_angle_gamma 90.000000
_cell_volume 1545.513742
_symmetry_space_group_name_H-M "P 21/C"
_symmetry_group_IT_number 14
_symmetry_cell_setting 'monoclinic'
loop_
_space_group_symop_operation_xyz
x,y,z
-x,1/2+y,1/2-z
-x,-y,-z
x,1/2-y,1/2+z
loop_
_atom_site_type_symbol
_atom_site_label
_atom_site_fract_x
_atom_site_fract_y
_atom_site_fract_z
Si Si1 0.703651 0.664877 0.050651
Si Si2 0.817869 0.263654 0.503246
Si Si3 0.626037 0.579589 0.888320
Si Si4 0.947817 0.273541 0.923686
Si Si5 0.673842 0.458912 0.086510
Si Si6 0.285325 0.114077 0.114698
Si Si7 0.236667 0.915330 0.802495
Si Si8 0.333829 0.247991 0.317109
O O1 0.692845 0.553045 0.065401
O O2 0.998212 0.721638 0.303765
O O3 0.714496 0.650477 0.001740
O O4 0.384710 0.723955 0.817908
O O5 0.592192 0.358171 0.317677
O O6 0.586086 0.168741 0.323884
O O7 0.079898 0.260778 0.663994
O O8 0.418350 0.484841 0.744194
O O9 0.941611 0.546601 0.105201
O O10 0.881553 0.371772 0.840348
O O11 0.122812 0.192836 0.024866
O O12 0.160583 0.290723 0.135713
O O13 0.021011 0.420609 0.371461
O O14 0.500000 0.500000 0.000000
O O15 0.474445 0.362310 0.914798
O O16 0.391982 0.820808 0.950929
O O17 0.500000 0.000000 0.000000
#
# Coordination Sequence:
#
# PCOD9253023 Si02
#       8
#     4   4   4   4   4   4   4   4
#     4  12  25  43  70 106 135 176 229 288 351 406
#     4  12  23  44  67  99 143 173 225 285 337 405
#     4  12  26  44  69 103 135 179 234 287 340 405
#     4  12  25  44  74 103 135 180 231 279 353 412
#     4  12  20  42  72  99 138 176 222 284 353 403
#     4  12  24  44  69 100 138 181 223 289 343 401
#     4  12  27  51  68  97 145 190 229 278 344 417
#     4  12  24  44  71 100 135 185 225 282 338 413
#
# _framework density 20.705089999999998
#
# number of rings (size 3 to 8) (size 9 to 14) (size 15 to 20)
#    0.000    0.000    8.750    1.500    1.750    1.500 
#    4.500    0.000    0.000    0.000    0.000    0.000 
#    0.000    0.000    0.000    0.000    0.000    0.000 
#
# Total GULP energy -179115.496835 kJ/mol
# GULP energy per Si atom -5597.359276 kJ/mol
# Density = 2.065796 g / cm^3
# Si number density = 20.705090 Si / 1000 Ang^3
#
#
#
# Elastic Constant Matrix: (Units=GPa)
#
#
# Indices 1 2 3 4 5 6 
#
# 1 56.8844 1.3546 35.0455 0.0000 -7.2181 0.0000
# 2 1.3546 49.4082 15.1946 0.0000 1.8471 0.0000
# 3 35.0455 15.1946 108.9551 0.0000 -4.1609 0.0000
# 4 0.0000 0.0000 0.0000 39.8012 0.0000 7.9257
# 5 -7.2181 1.8471 -4.1609 0.0000 38.9841 0.0000
# 6 0.0000 0.0000 0.0000 7.9257 0.0000 20.2344
#
#
#
# Elastic Compliance Matrix: (Units=1/GPa)
#
#
# Indices 1 2 3 4 5 6 
#
# 1 0.022467 0.001509 -0.007311 0.000000 0.003308 0.000000
# 2 0.001509 0.021316 -0.003500 0.000000 -0.001104 0.000000
# 3 -0.007311 -0.003500 0.012021 0.000000 0.000095 0.000000
# 4 0.000000 0.000000 0.000000 0.027250 0.000000 -0.010674
# 5 0.003308 -0.001104 0.000095 0.000000 0.026327 0.000000
# 6 0.000000 0.000000 0.000000 -0.010674 0.000000 0.053602
#
#
# Mechanical properties :
#
#
# Convention : Reuss Voigt Hill
#
# Bulk Modulus (GPa) = 26.88153 35.38190 31.13172
# Shear Modulus (GPa) = 25.77486 30.71413 28.24449
#
# Velocity S-wave (km/s) = 3.53208 3.85568 3.69742
# Velocity P-wave (km/s) = 5.44475 6.07843 5.77030
#
# Compressibility (1/GPa) = 0.03720026
#
# Stress axis : x y z
#
# Youngs Moduli (GPa) = 44.50899 46.91338 83.18542
#
# Poissons Ratio (x) = -0.07077 0.60814
# Poissons Ratio (y) = -0.06715 0.29116
# Poissons Ratio (z) = 0.32539 0.16420
#
# Static dielectric constant tensor:
#      x y z
#    x 1.722710 0.000000 0.008570 
#    y 0.000000 1.740310 0.000000 
#    z 0.008570 0.000000 1.745590 
# 
# From -- ./inp_files/80690.got.cif
#   From: 2010.05.17/outbox.cif.g08.bks.cpg/sg14_41_cif.got.tgz:80690.got - 2010.06.03 17:49:19.
