data_PCOD9253119
_publ_section_title
;
Structure prediction by ZEFSAII (Michael W. Deem and Ramdas Pophale) SiO2 
 PCOD9253119
Probable space group: P 21/C
;
_chemical_formula_sum "Si O2"
_cell_formula_units_Z 32
_cell_length_a 8.591478
_cell_length_b 14.826305
_cell_length_c 23.955272
_cell_angle_alpha 90.000000
_cell_angle_beta 29.247670
_cell_angle_gamma 90.000000
_cell_volume 1490.880121
_symmetry_space_group_name_H-M "P 21/C"
_symmetry_group_IT_number 14
_symmetry_cell_setting 'monoclinic'
loop_
_space_group_symop_operation_xyz
x,y,z
-x,1/2+y,1/2-z
-x,-y,-z
x,1/2-y,1/2+z
loop_
_atom_site_type_symbol
_atom_site_label
_atom_site_fract_x
_atom_site_fract_y
_atom_site_fract_z
Si Si1 0.242154 0.251053 0.600505
Si Si2 0.818184 0.595268 0.292124
Si Si3 0.268393 0.268658 0.466028
Si Si4 0.937091 0.319778 0.895577
Si Si5 0.081481 0.616304 0.725346
Si Si6 0.300791 0.347647 0.268562
Si Si7 0.065300 0.593308 0.510317
Si Si8 0.970538 0.393220 0.008916
O O1 0.115909 0.330590 0.680333
O O2 0.141212 0.266063 0.568826
O O3 0.625722 0.242763 0.484402
O O4 0.123943 0.154355 0.659236
O O5 0.873363 0.490766 0.289072
O O6 0.439771 0.603761 0.401659
O O7 0.009964 0.619962 0.175852
O O8 0.594553 0.325824 0.369701
O O9 0.053335 0.325092 0.490896
O O10 0.259879 0.167038 0.443664
O O11 0.245302 0.255741 0.802545
O O12 0.907474 0.367113 0.964292
O O13 0.892186 0.640138 0.728504
O O14 0.663980 0.369089 0.142377
O O15 0.134617 0.404187 0.369682
O O16 0.000000 0.500000 0.500000
O O17 0.000000 0.500000 0.000000
#
# Coordination Sequence:
#
# PCOD9253119 Si02
#       8
#     4   4   4   4   4   4   4   4
#     4  12  25  47  73 107 146 197 244 306 369 442
#     4  12  26  46  74 107 147 194 243 306 376 442
#     4  12  26  45  72 110 143 186 252 306 359 447
#     4  12  23  50  76 101 147 198 240 299 378 440
#     4  12  27  46  74 109 144 197 251 307 366 444
#     4  12  25  52  73 101 153 199 242 300 378 443
#     4  12  26  44  74 109 146 191 241 308 375 433
#     4  12  30  49  76 110 152 200 245 306 382 448
#
# _framework density 21.463830000000002
#
# number of rings (size 3 to 8) (size 9 to 14) (size 15 to 20)
#    0.000    0.000    7.500    0.750    7.000    4.500 
#    0.000    0.000    0.000    0.000    0.000    0.000 
#    0.000    0.000    0.000    0.000    0.000    0.000 
#
# Total GULP energy -178983.634854 kJ/mol
# GULP energy per Si atom -5593.238589 kJ/mol
# Density = 2.141498 g / cm^3
# Si number density = 21.463830 Si / 1000 Ang^3
#
#
#
# Elastic Constant Matrix: (Units=GPa)
#
#
# Indices 1 2 3 4 5 6 
#
# 1 34.4193 7.2496 16.4731 0.0000 12.0802 0.0000
# 2 7.2496 124.0217 20.4702 0.0000 -1.0199 0.0000
# 3 16.4731 20.4702 96.9063 0.0000 17.6668 0.0000
# 4 0.0000 0.0000 0.0000 22.3195 0.0000 4.4419
# 5 12.0802 -1.0199 17.6668 0.0000 35.1218 0.0000
# 6 0.0000 0.0000 0.0000 4.4419 0.0000 30.9278
#
#
#
# Elastic Compliance Matrix: (Units=1/GPa)
#
#
# Indices 1 2 3 4 5 6 
#
# 1 0.034703 -0.001494 -0.003743 0.000000 -0.010097 0.000000
# 2 -0.001494 0.008468 -0.001842 0.000000 0.001686 0.000000
# 3 -0.003743 -0.001842 0.012242 0.000000 -0.004924 0.000000
# 4 0.000000 0.000000 0.000000 0.046122 0.000000 -0.006624
# 5 -0.010097 0.001686 -0.004924 0.000000 0.034471 0.000000
# 6 0.000000 0.000000 0.000000 -0.006624 0.000000 0.033285
#
#
# Mechanical properties :
#
#
# Convention : Reuss Voigt Hill
#
# Bulk Modulus (GPa) = 24.23898 38.19256 31.21577
# Shear Modulus (GPa) = 25.35472 31.75080 28.55276
#
# Velocity S-wave (km/s) = 3.44070 3.85030 3.65125
# Velocity P-wave (km/s) = 5.20596 6.13180 5.68775
#
# Compressibility (1/GPa) = 0.04125586
#
# Stress axis : x y z
#
# Youngs Moduli (GPa) = 28.81580 118.08636 81.68324
#
# Poissons Ratio (x) = 0.17640 0.30573
# Poissons Ratio (y) = 0.04304 0.15049
# Poissons Ratio (z) = 0.10785 0.21756
#
# Static dielectric constant tensor:
#      x y z
#    x 1.766590 0.000000 -0.016630 
#    y 0.000000 1.776200 0.000000 
#    z -0.016630 0.000000 1.816930 
# 
# From -- ./inp_files/72451.got.cif
#   From: 2010.05.17/outbox.cif.g08.bks.cpg/sg14_37_cif.got.tgz:72451.got - 2010.06.03 17:49:19.
