data_PCOD9253275
_publ_section_title
;
Structure prediction by ZEFSAII (Michael W. Deem and Ramdas Pophale) SiO2 
 PCOD9253275
Probable space group: P 21/C
;
_chemical_formula_sum "Si O2"
_cell_formula_units_Z 16
_cell_length_a 8.391639
_cell_length_b 6.369555
_cell_length_c 26.985770
_cell_angle_alpha 90.000000
_cell_angle_beta 151.867751
_cell_angle_gamma 90.000000
_cell_volume 680.111398
_symmetry_space_group_name_H-M "P 21/C"
_symmetry_group_IT_number 14
_symmetry_cell_setting 'monoclinic'
loop_
_space_group_symop_operation_xyz
x,y,z
-x,1/2+y,1/2-z
-x,-y,-z
x,1/2-y,1/2+z
loop_
_atom_site_type_symbol
_atom_site_label
_atom_site_fract_x
_atom_site_fract_y
_atom_site_fract_z
Si Si1 0.899171 0.113596 0.281857
Si Si2 0.304329 0.193814 0.974341
Si Si3 0.755436 0.143242 0.899313
Si Si4 0.560115 0.466811 0.138898
O O1 0.672174 0.320602 0.214608
O O2 0.189228 0.139425 0.401808
O O3 0.105633 0.086454 0.287840
O O4 0.626360 0.933434 0.213261
O O5 0.945252 0.129244 0.899280
O O6 0.465349 0.311682 0.066639
O O7 0.500000 0.000000 0.000000
O O8 0.708299 0.362998 0.915577
O O9 0.000000 0.000000 0.000000
#
# Coordination Sequence:
#
# PCOD9253275 Si02
#       4
#     4   4   4   4
#     4  12  26  45  78 104 147 198 253 310 392 455
#     4  12  28  47  76 112 152 199 261 318 387 467
#     4  12  27  47  75 108 151 201 253 315 390 463
#     4  12  25  52  72 108 153 199 249 324 384 462
#
# _framework density 23.525558
#
# number of rings (size 3 to 8) (size 9 to 14) (size 15 to 20)
#    0.000    0.000    5.000    4.500    3.500    0.000 
#    0.000    0.000    0.000    0.000    0.000    0.000 
#    0.000    0.000    0.000    0.000    0.000    0.000 
#
# Total GULP energy -89285.135643 kJ/mol
# GULP energy per Si atom -5580.320978 kJ/mol
# Density = 2.347201 g / cm^3
# Si number density = 23.525558 Si / 1000 Ang^3
#
#
#
# Elastic Constant Matrix: (Units=GPa)
#
#
# Indices 1 2 3 4 5 6 
#
# 1 154.7543 67.0941 30.8169 0.0000 24.6511 0.0000
# 2 67.0941 111.3756 69.8540 0.0000 10.3129 0.0000
# 3 30.8169 69.8540 138.3373 0.0000 -7.4317 0.0000
# 4 0.0000 0.0000 0.0000 55.0096 0.0000 24.1605
# 5 24.6511 10.3129 -7.4317 0.0000 45.7694 0.0000
# 6 0.0000 0.0000 0.0000 24.1605 0.0000 54.2951
#
#
#
# Elastic Compliance Matrix: (Units=1/GPa)
#
#
# Indices 1 2 3 4 5 6 
#
# 1 0.009398 -0.005682 0.000578 0.000000 -0.003687 0.000000
# 2 -0.005682 0.017374 -0.007620 0.000000 -0.002092 0.000000
# 3 0.000578 -0.007620 0.011120 0.000000 0.003211 0.000000
# 4 0.000000 0.000000 0.000000 0.022594 0.000000 -0.010054
# 5 -0.003687 -0.002092 0.003211 0.000000 0.024827 0.000000
# 6 0.000000 0.000000 0.000000 -0.010054 0.000000 0.022892
#
#
# Mechanical properties :
#
#
# Convention : Reuss Voigt Hill
#
# Bulk Modulus (GPa) = 80.36251 82.22193 81.29222
# Shear Modulus (GPa) = 36.28371 46.79498 41.53934
#
# Velocity S-wave (km/s) = 3.93149 4.46478 4.20660
# Velocity P-wave (km/s) = 7.40558 7.84888 7.63045
#
# Compressibility (1/GPa) = 0.01244361
#
# Stress axis : x y z
#
# Youngs Moduli (GPa) = 106.40877 57.55570 89.92600
#
# Poissons Ratio (x) = 0.32704 -0.05195
# Poissons Ratio (y) = 0.60463 0.68523
# Poissons Ratio (z) = -0.06147 0.43857
#
# Static dielectric constant tensor:
#      x y z
#    x 2.340290 0.000000 -0.090280 
#    y 0.000000 -0.615430 0.000000 
#    z -0.090280 0.000000 1.946530 
# 
# From -- ./inp_files/38373.got.cif
#   From: 2010.05.17/outbox.cif.g08.bks.cpg/sg14_20_cif.got.tgz:38373.got - 2010.06.03 17:49:19.
