data_PCOD9253096
_publ_section_title
;
Structure prediction by ZEFSAII (Michael W. Deem and Ramdas Pophale) SiO2 
 PCOD9253096
Probable space group: P 21/C
;
_chemical_formula_sum "Si O2"
_cell_formula_units_Z 20
_cell_length_a 24.301416
_cell_length_b 6.965374
_cell_length_c 16.047399
_cell_angle_alpha 90.000000
_cell_angle_beta 19.086565
_cell_angle_gamma 90.000000
_cell_volume 888.226095
_symmetry_space_group_name_H-M "P 21/C"
_symmetry_group_IT_number 14
_symmetry_cell_setting 'monoclinic'
loop_
_space_group_symop_operation_xyz
x,y,z
-x,1/2+y,1/2-z
-x,-y,-z
x,1/2-y,1/2+z
loop_
_atom_site_type_symbol
_atom_site_label
_atom_site_fract_x
_atom_site_fract_y
_atom_site_fract_z
Si Si1 0.889231 0.620539 0.592414
Si Si2 0.647481 0.120465 0.334192
Si Si3 0.175930 0.750028 0.074041
Si Si4 0.556315 0.921122 0.777045
Si Si5 0.276896 0.078969 0.056485
O O1 0.724894 0.500055 0.800218
O O2 0.838326 0.819939 0.709045
O O3 0.000000 0.500000 0.500000
O O4 0.999108 0.659504 0.352880
O O5 0.566948 0.319844 0.480491
O O6 0.500000 0.000000 0.500000
O O7 0.796942 0.159520 0.055082
O O8 0.204526 0.908504 0.104764
O O9 0.323242 0.591629 0.867375
O O10 0.671890 0.750109 0.578061
O O11 0.440539 0.000044 0.868899
#
# Coordination Sequence:
#
# PCOD9253096 Si02
#       5
#     4   4   4   4   4
#     4  12  27  48  73 109 151 196 245 303 373 438
#     4  12  27  48  73 109 151 196 245 303 373 438
#     4  12  26  44  76 106 146 196 244 310 370 432
#     4  12  23  45  76 105 146 194 252 300 361 443
#     4  12  23  45  76 105 146 194 252 300 361 443
#
# _framework density 22.516787999999998
#
# number of rings (size 3 to 8) (size 9 to 14) (size 15 to 20)
#    0.000    0.000    6.000    4.800    0.000    4.800 
#    0.000    0.000    0.000    0.000    0.000    0.000 
#    0.000    0.000    0.000    0.000    0.000    0.000 
#
# Total GULP energy -111995.751360 kJ/mol
# GULP energy per Si atom -5599.787568 kJ/mol
# Density = 2.246554 g / cm^3
# Si number density = 22.516788 Si / 1000 Ang^3
#
#
#
# Elastic Constant Matrix: (Units=GPa)
#
#
# Indices 1 2 3 4 5 6 
#
# 1 67.4390 47.4634 37.9199 0.0000 -1.1095 0.0000
# 2 47.4634 133.7871 38.9023 0.0000 -7.3223 0.0000
# 3 37.9199 38.9023 102.7087 0.0000 32.3872 0.0000
# 4 0.0000 0.0000 0.0000 45.2077 0.0000 2.3742
# 5 -1.1095 -7.3223 32.3872 0.0000 43.4983 0.0000
# 6 0.0000 0.0000 0.0000 2.3742 0.0000 42.5111
#
#
#
# Elastic Compliance Matrix: (Units=1/GPa)
#
#
# Indices 1 2 3 4 5 6 
#
# 1 0.023638 -0.005586 -0.008501 0.000000 0.005992 0.000000
# 2 -0.005586 0.010620 -0.003240 0.000000 0.004057 0.000000
# 3 -0.008501 -0.003240 0.018743 0.000000 -0.014717 0.000000
# 4 0.000000 0.000000 0.000000 0.022185 0.000000 -0.001239
# 5 0.005992 0.004057 -0.014717 0.000000 0.034783 0.000000
# 6 0.000000 0.000000 0.000000 -0.001239 0.000000 0.023592
#
#
# Mechanical properties :
#
#
# Convention : Reuss Voigt Hill
#
# Bulk Modulus (GPa) = 54.50202 61.38953 57.94577
# Shear Modulus (GPa) = 28.68100 38.22002 33.45051
#
# Velocity S-wave (km/s) = 3.57285 4.12442 3.85850
# Velocity P-wave (km/s) = 6.42479 7.07137 6.75582
#
# Compressibility (1/GPa) = 0.01834795
#
# Stress axis : x y z
#
# Youngs Moduli (GPa) = 42.30427 94.15762 53.35457
#
# Poissons Ratio (x) = 0.52600 0.45355
# Poissons Ratio (y) = 0.23633 0.17285
# Poissons Ratio (z) = 0.35962 0.30503
#
# Static dielectric constant tensor:
#      x y z
#    x 1.818310 0.000000 0.066270 
#    y 0.000000 1.839820 0.000000 
#    z 0.066270 0.000000 1.894160 
# 
# From -- ./inp_files/56506.got.cif
#   From: 2010.05.17/outbox.cif.g08.bks.cpg/sg14_29_cif.got.tgz:56506.got - 2010.06.03 17:49:19.
