data_PCOD9253906
_publ_section_title
;
Structure prediction by ZEFSAII (Michael W. Deem and Ramdas Pophale) SiO2 
 PCOD9253906
Probable space group: C 2/C
;
_chemical_formula_sum "Si O2"
_cell_formula_units_Z 60
_cell_length_a 16.163133
_cell_length_b 19.189420
_cell_length_c 15.216383
_cell_angle_alpha 90.000000
_cell_angle_beta 127.627554
_cell_angle_gamma 90.000000
_cell_volume 3737.850131
_symmetry_space_group_name_H-M "C 2/C"
_symmetry_group_IT_number 15
_symmetry_cell_setting 'monoclinic'
loop_
_space_group_symop_operation_xyz
x,y,z
-x,y,1/2-z
-x,-y,-z
x,-y,1/2+z
1/2+x,1/2+y,z
1/2-x,1/2+y,1/2-z
1/2-x,1/2-y,-z
1/2+x,1/2-y,1/2+z
loop_
_atom_site_type_symbol
_atom_site_label
_atom_site_fract_x
_atom_site_fract_y
_atom_site_fract_z
Si Si1 0.887076 0.768255 0.331900
Si Si2 0.500000 0.940792 0.750000
Si Si3 0.160692 0.323663 0.533483
Si Si4 0.162559 0.679744 0.368717
Si Si5 0.497617 0.925256 0.350020
Si Si6 0.118548 0.767597 0.512664
Si Si7 0.382939 0.723052 0.154875
Si Si8 0.830357 0.678249 0.784134
O O1 0.863507 0.705145 0.385163
O O2 0.878845 0.735295 0.229909
O O3 0.794148 0.823284 0.285304
O O4 0.002395 0.795755 0.424993
O O5 0.399510 0.891376 0.684285
O O6 0.499514 0.992296 0.665244
O O7 0.285319 0.329851 0.599121
O O8 0.123224 0.262192 0.442604
O O9 0.094117 0.391258 0.464255
O O10 0.139069 0.711019 0.449235
O O11 0.287004 0.677765 0.434534
O O12 0.500000 0.898509 0.250000
O O13 0.392505 0.893922 0.323323
O O14 0.127823 0.727239 0.610556
O O15 0.500000 0.696980 0.250000
O O16 0.355705 0.781071 0.210701
#
# Coordination Sequence:
#
# PCOD9253906 Si02
#       8
#     8   4   8   8   8   8   8   8
#     4  10  18  28  50  71 102 117 154 217 241 292
#     4  10  20  34  54  66 106 134 160 206 228 298
#     4  10  17  25  44  70  96 133 163 185 254 289
#     4  10  20  34  47  73  93 125 167 197 259 275
#     4  10  18  31  48  67 103 135 160 193 226 305
#     4  10  18  31  53  68  98 121 155 220 244 293
#     4  10  15  25  41  66 105 128 156 207 235 293
#     4  10  17  28  44  75  97 127 161 190 254 286
#
# _framework density 16.052008000000001
#
# number of rings (size 3 to 8) (size 9 to 14) (size 15 to 20)
#    0.400    1.600    5.333    0.000    0.000    0.000 
#    0.000    2.667    0.000    0.800    0.000    5.600 
#    0.000    0.000    0.000    0.000    0.000    0.000 
#
# Total GULP energy -167048.044200 kJ/mol
# GULP energy per Si atom -5568.268140 kJ/mol
# Density = 1.601547 g / cm^3
# Si number density = 16.052008 Si / 1000 Ang^3
#
#
#
# Elastic Constant Matrix: (Units=GPa)
#
#
# Indices 1 2 3 4 5 6 
#
# 1 80.8923 33.4575 23.3729 0.0000 40.4230 0.0000
# 2 33.4575 64.3393 8.4660 0.0000 21.2341 0.0000
# 3 23.3729 8.4660 56.8451 0.0000 21.0557 0.0000
# 4 0.0000 0.0000 0.0000 20.1717 0.0000 6.6707
# 5 40.4230 21.2341 21.0557 0.0000 56.6825 0.0000
# 6 0.0000 0.0000 0.0000 6.6707 0.0000 20.8003
#
#
#
# Elastic Compliance Matrix: (Units=1/GPa)
#
#
# Indices 1 2 3 4 5 6 
#
# 1 0.022344 -0.007219 -0.003724 0.000000 -0.011847 0.000000
# 2 -0.007219 0.020070 0.000994 0.000000 -0.002739 0.000000
# 3 -0.003724 0.000994 0.021021 0.000000 -0.005525 0.000000
# 4 0.000000 0.000000 0.000000 0.055456 0.000000 -0.017785
# 5 -0.011847 -0.002739 -0.005525 0.000000 0.029169 0.000000
# 6 0.000000 0.000000 0.000000 -0.017785 0.000000 0.053780
#
#
# Mechanical properties :
#
#
# Convention : Reuss Voigt Hill
#
# Bulk Modulus (GPa) = 22.96902 36.96330 29.96616
# Shear Modulus (GPa) = 21.16389 28.64958 24.90673
#
# Velocity S-wave (km/s) = 3.63500 4.22927 3.94334
# Velocity P-wave (km/s) = 5.65312 6.85027 6.28028
#
# Compressibility (1/GPa) = 0.04353691
#
# Stress axis : x y z
#
# Youngs Moduli (GPa) = 44.75449 49.82536 47.57049
#
# Poissons Ratio (x) = 0.35971 0.17715
# Poissons Ratio (y) = 0.32310 -0.04728
# Poissons Ratio (z) = 0.16666 -0.04953
#
# Static dielectric constant tensor:
#      x y z
#    x 1.573000 0.000000 0.018140 
#    y 0.000000 1.494670 0.000000 
#    z 0.018140 0.000000 1.569350 
# 
# From -- ./inp_files/155829.got.cif
#   From: 2010.05.17/outbox.cif.g08.bks.cpg/sg15_78_cif.got.tgz:155829.got - 2010.06.03 18:47:42.
