data_PCOD9253694
_publ_section_title
;
Structure prediction by ZEFSAII (Michael W. Deem and Ramdas Pophale) SiO2 
 PCOD9253694
Probable space group: P 21/C
;
_chemical_formula_sum "Si O2"
_cell_formula_units_Z 30
_cell_length_a 9.000000
_cell_length_b 15.000000
_cell_length_c 21.000000
_cell_angle_alpha 90.000000
_cell_angle_beta 30.000000
_cell_angle_gamma 90.000000
_cell_volume 1417.500000
_symmetry_space_group_name_H-M "P 21/C"
_symmetry_group_IT_number 14
_symmetry_cell_setting 'monoclinic'
loop_
_space_group_symop_operation_xyz
x,y,z
-x,1/2+y,1/2-z
-x,-y,-z
x,1/2-y,1/2+z
loop_
_atom_site_type_symbol
_atom_site_label
_atom_site_fract_x
_atom_site_fract_y
_atom_site_fract_z
Si Si1 0.940144 0.382906 0.441459
Si Si2 0.270096 0.687863 0.299378
Si Si3 0.772659 0.166392 0.871050
Si Si4 0.000000 0.000000 0.500000
Si Si5 0.465609 0.506517 0.271850
Si Si6 0.121751 0.326835 0.673037
Si Si7 0.670952 0.991087 0.824935
Si Si8 0.055713 0.288153 0.975789
O O1 0.977765 0.368452 0.352304
O O2 0.663514 0.451142 0.548693
O O3 0.219348 0.431593 0.369199
O O4 0.911239 0.283757 0.481327
O O5 0.329520 0.605142 0.324552
O O6 0.078257 0.649684 0.313225
O O7 0.079945 0.762423 0.405690
O O8 0.588198 0.724572 0.159304
O O9 0.950202 0.244895 0.769977
O O10 0.702795 0.083132 0.850624
O O11 0.456241 0.192916 0.022100
O O12 0.638090 0.000799 0.641973
O O13 0.999378 0.108672 0.483882
O O14 0.719569 0.495116 0.231539
O O15 0.144248 0.411536 0.711610
#
# Coordination Sequence:
#
# PCOD9253694 Si02
#       8
#     4   4   4   2   4   4   4   4
#     4  11  23  42  73  99 130 177 233 284 331 408
#     4  11  23  41  67  97 133 176 223 279 335 405
#     4  11  26  44  71  99 139 180 229 283 344 411
#     4  10  26  40  58  98 146 170 206 286 342 396
#     4  11  23  42  70  99 132 173 228 285 339 395
#     4  11  25  45  67  99 137 178 225 277 344 409
#     4  11  24  45  69 102 131 180 230 283 337 413
#     4  11  24  40  68  98 132 175 224 275 340 397
#
# _framework density 21.164021000000002
#
# number of rings (size 3 to 8) (size 9 to 14) (size 15 to 20)
#    0.000    1.067    1.333    5.200    9.333    2.133 
#    0.000    0.667    0.000    0.000    0.000    0.000 
#    0.000    0.000    0.000    0.000    0.000    0.000 
#
# Total GULP energy -167041.494287 kJ/mol
# GULP energy per Si atom -5568.049810 kJ/mol
# Density = 2.111585 g / cm^3
# Si number density = 21.164021 Si / 1000 Ang^3
#
#
#
# Elastic Constant Matrix: (Units=GPa)
#
#
# Indices 1 2 3 4 5 6 
#
# 1 97.0814 26.3926 12.0550 0.0000 -8.6008 0.0000
# 2 26.3926 125.9797 55.0178 0.0000 -14.8874 0.0000
# 3 12.0550 55.0178 72.7692 0.0000 -12.6436 0.0000
# 4 0.0000 0.0000 0.0000 33.9211 0.0000 -3.9700
# 5 -8.6008 -14.8874 -12.6436 0.0000 4.0427 0.0000
# 6 0.0000 0.0000 0.0000 -3.9700 0.0000 27.3641
#
#
#
# Elastic Compliance Matrix: (Units=1/GPa)
#
#
# Indices 1 2 3 4 5 6 
#
# 1 0.013866 0.000302 0.006118 0.000000 0.049746 0.000000
# 2 0.000302 0.014499 -0.003556 0.000000 0.042914 0.000000
# 3 0.006118 -0.003556 0.033735 0.000000 0.105430 0.000000
# 4 0.000000 0.000000 0.000000 0.029989 0.000000 0.004351
# 5 0.049746 0.042914 0.105430 0.000000 0.840964 0.000000
# 6 0.000000 0.000000 0.000000 0.004351 0.000000 0.037175
#
#
# Mechanical properties :
#
#
# Convention : Reuss Voigt Hill
#
# Bulk Modulus (GPa) = 14.74310 53.64011 34.19161
# Shear Modulus (GPa) = 5.06530 26.55656 15.81093
#
# Velocity S-wave (km/s) = 1.54872 3.54616 2.73622
# Velocity P-wave (km/s) = 3.19050 6.49361 5.11597
#
# Compressibility (1/GPa) = 0.06782832
#
# Stress axis : x y z
#
# Youngs Moduli (GPa) = 72.11864 68.97221 29.64269
#
# Poissons Ratio (x) = -0.02082 -0.18135
# Poissons Ratio (y) = -0.02177 0.10540
# Poissons Ratio (z) = -0.44122 0.24523
#
# Static dielectric constant tensor:
#      x y z
#    x 1.833880 0.000000 0.057490 
#    y 0.000000 1.727110 0.000000 
#    z 0.057490 0.000000 1.777460 
# 
# From -- ./inp_files/65922.got.cif
#   From: 2010.05.17/outbox.ucp.g08.bks.cvg/sg14_33_cif.got.tgz:65922.got - 2010.06.11 12:31:08.
