data_PCOD9253858
_publ_section_title
;
Structure prediction by ZEFSAII (Michael W. Deem and Ramdas Pophale) SiO2 
 PCOD9253858
Probable space group: C 2/C
;
_chemical_formula_sum "Si O2"
_cell_formula_units_Z 44
_cell_length_a 18.681039
_cell_length_b 7.456801
_cell_length_c 18.069035
_cell_angle_alpha 90.000000
_cell_angle_beta 128.892946
_cell_angle_gamma 90.000000
_cell_volume 1959.056600
_symmetry_space_group_name_H-M "C 2/C"
_symmetry_group_IT_number 15
_symmetry_cell_setting 'monoclinic'
loop_
_space_group_symop_operation_xyz
x,y,z
-x,y,1/2-z
-x,-y,-z
x,-y,1/2+z
1/2+x,1/2+y,z
1/2-x,1/2+y,1/2-z
1/2-x,1/2-y,-z
1/2+x,1/2-y,1/2+z
loop_
_atom_site_type_symbol
_atom_site_label
_atom_site_fract_x
_atom_site_fract_y
_atom_site_fract_z
Si Si1 0.000000 0.282288 0.750000
Si Si2 0.585405 0.127270 0.078931
Si Si3 0.673454 0.903412 0.795043
Si Si4 0.791640 0.603458 0.934484
Si Si5 0.041326 0.117829 0.930147
Si Si6 0.293235 0.586499 0.984383
O O1 0.910023 0.401870 0.700506
O O2 0.997219 0.162730 0.675572
O O3 0.630518 0.067864 0.186772
O O4 0.540164 0.323142 0.066895
O O5 0.664493 0.077998 0.071273
O O6 0.500000 0.000000 0.000000
O O7 0.723824 0.710209 0.834970
O O8 0.744700 0.045568 0.874557
O O9 0.877484 0.737981 0.001146
O O10 0.736804 0.564758 0.974133
O O11 0.097516 0.933137 0.957714
O O12 0.250000 0.750000 0.000000
#
# Coordination Sequence:
#
# PCOD9253858 Si02
#       6
#     4   8   8   8   8   8
#     4  10  14  30  62  80 104 148 210 240 294 366
#     4   9  20  34  61  89 118 154 209 262 307 373
#     4  10  19  34  61  84 116 164 207 249 313 381
#     4  10  18  36  56  87 115 157 206 254 304 380
#     4   9  17  34  58  82 110 151 204 245 302 368
#     4  11  21  35  56  87 121 157 203 258 309 371
#
# _framework density 22.459790999999999
#
# number of rings (size 3 to 8) (size 9 to 14) (size 15 to 20)
#    0.000    2.182    3.636    1.091    0.000    1.455 
#    0.000    1.818    0.000    6.545    0.000    0.000 
#    0.000    0.000    0.000    0.000    0.000    0.000 
#
# Total GULP energy -122560.720223 kJ/mol
# GULP energy per Si atom -5570.941828 kJ/mol
# Density = 2.240867 g / cm^3
# Si number density = 22.459791 Si / 1000 Ang^3
#
#
#
# Elastic Constant Matrix: (Units=GPa)
#
#
# Indices 1 2 3 4 5 6 
#
# 1 132.0091 11.7791 14.0937 0.0000 -13.8031 0.0000
# 2 11.7791 71.5933 7.4952 0.0000 0.7913 0.0000
# 3 14.0937 7.4952 130.3797 0.0000 -5.6252 0.0000
# 4 0.0000 0.0000 0.0000 18.3704 0.0000 4.0793
# 5 -13.8031 0.7913 -5.6252 0.0000 30.8107 0.0000
# 6 0.0000 0.0000 0.0000 4.0793 0.0000 41.6447
#
#
#
# Elastic Compliance Matrix: (Units=1/GPa)
#
#
# Indices 1 2 3 4 5 6 
#
# 1 0.008134 -0.001309 -0.000650 0.000000 0.003559 0.000000
# 2 -0.001309 0.014271 -0.000726 0.000000 -0.001086 0.000000
# 3 -0.000650 -0.000726 0.007832 0.000000 0.001157 0.000000
# 4 0.000000 0.000000 0.000000 0.055646 0.000000 -0.005451
# 5 0.003559 -0.001086 0.001157 0.000000 0.034290 0.000000
# 6 0.000000 0.000000 0.000000 -0.005451 0.000000 0.024547
#
#
# Mechanical properties :
#
#
# Convention : Reuss Voigt Hill
#
# Bulk Modulus (GPa) = 40.21627 44.52424 42.37025
# Shear Modulus (GPa) = 31.56996 38.20610 34.88803
#
# Velocity S-wave (km/s) = 3.75323 4.12890 3.94554
# Velocity P-wave (km/s) = 6.06029 6.52667 6.29780
#
# Compressibility (1/GPa) = 0.02486556
#
# Stress axis : x y z
#
# Youngs Moduli (GPa) = 122.94643 70.07118 127.68365
#
# Poissons Ratio (x) = 0.09175 0.08305
# Poissons Ratio (y) = 0.16099 0.09266
# Poissons Ratio (z) = 0.07997 0.05085
#
# Static dielectric constant tensor:
#      x y z
#    x 1.862960 0.000000 0.032320 
#    y 0.000000 1.974770 0.000000 
#    z 0.032320 0.000000 1.826730 
# 
# From -- ./inp_files/166078.got.cif
#   From: 2010.05.17/outbox.cif.g08.bks.cpg/sg15_84_cif.got.tgz:166078.got - 2010.06.03 18:47:42.
