data_PCOD9253227
_publ_section_title
;
Structure prediction by ZEFSAII (Michael W. Deem and Ramdas Pophale) SiO2 
 PCOD9253227
Probable space group: P 21/C
;
_chemical_formula_sum "Si O2"
_cell_formula_units_Z 16
_cell_length_a 11.157133
_cell_length_b 10.584134
_cell_length_c 5.581008
_cell_angle_alpha 90.000000
_cell_angle_beta 120.014521
_cell_angle_gamma 90.000000
_cell_volume 570.673427
_symmetry_space_group_name_H-M "P 21/C"
_symmetry_group_IT_number 14
_symmetry_cell_setting 'monoclinic'
loop_
_space_group_symop_operation_xyz
x,y,z
-x,1/2+y,1/2-z
-x,-y,-z
x,1/2-y,1/2+z
loop_
_atom_site_type_symbol
_atom_site_label
_atom_site_fract_x
_atom_site_fract_y
_atom_site_fract_z
Si Si1 0.258143 0.716282 0.008142
Si Si2 0.958295 0.062316 0.708295
Si Si3 0.228168 0.313520 0.478168
Si Si4 0.426554 0.961239 0.176554
O O1 0.190387 0.750000 0.190387
O O2 0.390272 0.810385 0.140271
O O3 0.211461 0.570737 0.961461
O O4 0.062317 0.182614 0.812317
O O5 0.000000 0.000000 0.500000
O O6 0.000000 0.000000 0.000000
O O7 0.275767 0.250000 0.775767
O O8 0.287802 0.455497 0.537802
O O9 0.500000 0.000000 0.500000
O O10 0.500000 0.000000 0.000000
#
# Coordination Sequence:
#
# PCOD9253227 Si02
#       4
#     4   4   4   4
#     4  12  25  46  77 109 145 197 252 313 385 455
#     4  12  25  46  74 109 147 188 244 308 375 454
#     4  12  26  46  70 103 145 191 243 311 374 439
#     4  12  28  48  73 107 149 200 257 310 374 462
#
# _framework density 28.037049
#
# number of rings (size 3 to 8) (size 9 to 14) (size 15 to 20)
#    0.000    0.000    0.000   10.500    0.000    6.000 
#    0.000    0.000    0.000    0.000    0.000    0.000 
#    0.000    0.000    0.000    0.000    0.000    0.000 
#
# Total GULP energy -89149.287868 kJ/mol
# GULP energy per Si atom -5571.830492 kJ/mol
# Density = 2.797324 g / cm^3
# Si number density = 28.037049 Si / 1000 Ang^3
#
#
#
# Elastic Constant Matrix: (Units=GPa)
#
#
# Indices 1 2 3 4 5 6 
#
# 1 144.0135 55.0980 117.5512 0.0000 -15.3846 0.0000
# 2 55.0980 74.4428 64.2175 0.0000 -7.8978 0.0000
# 3 117.5512 64.2175 232.5008 0.0000 -61.2477 0.0000
# 4 0.0000 0.0000 0.0000 71.1214 0.0000 1.5687
# 5 -15.3846 -7.8978 -61.2477 0.0000 61.8322 0.0000
# 6 0.0000 0.0000 0.0000 1.5687 0.0000 72.9330
#
#
#
# Elastic Compliance Matrix: (Units=1/GPa)
#
#
# Indices 1 2 3 4 5 6 
#
# 1 0.013830 -0.004924 -0.006619 0.000000 -0.003744 0.000000
# 2 -0.004924 0.019959 -0.003619 0.000000 -0.002260 0.000000
# 3 -0.006619 -0.003619 0.010948 0.000000 0.008736 0.000000
# 4 0.000000 0.000000 0.000000 0.014067 0.000000 -0.000303
# 5 -0.003744 -0.002260 0.008736 0.000000 0.023606 0.000000
# 6 0.000000 0.000000 0.000000 -0.000303 0.000000 0.013718
#
#
# Mechanical properties :
#
#
# Convention : Reuss Voigt Hill
#
# Bulk Modulus (GPa) = 69.37230 102.74340 86.05785
# Shear Modulus (GPa) = 38.09337 55.45000 46.77169
#
# Velocity S-wave (km/s) = 3.69003 4.45200 4.08880
# Velocity P-wave (km/s) = 6.55377 7.94684 7.28368
#
# Compressibility (1/GPa) = 0.01441498
#
# Stress axis : x y z
#
# Youngs Moduli (GPa) = 72.30522 50.10176 91.33850
#
# Poissons Ratio (x) = 0.24669 0.60455
# Poissons Ratio (y) = 0.35602 0.33054
# Poissons Ratio (z) = 0.47858 0.18131
#
# Static dielectric constant tensor:
#      x y z
#    x 2.314110 0.000000 0.139660 
#    y 0.000000 2.505550 0.000000 
#    z 0.139660 0.000000 2.152850 
# 
# From -- ./inp_files/2405.got.cif
#   From: 2010.05.17/outbox.cif.g08.bks.cpg/sg14_2_cif.got.tgz:2405.got - 2010.06.03 17:49:19.
