data_PCOD9253165
_publ_section_title
;
Structure prediction by ZEFSAII (Michael W. Deem and Ramdas Pophale) SiO2 
 PCOD9253165
Probable space group: P 21/C
;
_chemical_formula_sum "Si O2"
_cell_formula_units_Z 30
_cell_length_a 6.490713
_cell_length_b 19.849478
_cell_length_c 10.445153
_cell_angle_alpha 90.000000
_cell_angle_beta 72.609488
_cell_angle_gamma 90.000000
_cell_volume 1284.211636
_symmetry_space_group_name_H-M "P 21/C"
_symmetry_group_IT_number 14
_symmetry_cell_setting 'monoclinic'
loop_
_space_group_symop_operation_xyz
x,y,z
-x,1/2+y,1/2-z
-x,-y,-z
x,1/2-y,1/2+z
loop_
_atom_site_type_symbol
_atom_site_label
_atom_site_fract_x
_atom_site_fract_y
_atom_site_fract_z
Si Si1 0.748236 0.189816 0.435807
Si Si2 0.003836 0.406101 0.072801
Si Si3 0.593631 0.879296 0.670640
Si Si4 0.275748 0.988290 0.219010
Si Si5 0.000000 0.000000 0.000000
Si Si6 0.656832 0.615881 0.620891
Si Si7 0.385812 0.286303 0.599982
Si Si8 0.066582 0.203910 0.750652
O O1 0.866186 0.131487 0.491269
O O2 0.626762 0.148911 0.346468
O O3 0.578417 0.233205 0.550533
O O4 0.905786 0.246982 0.352123
O O5 0.911558 0.476810 0.139489
O O6 0.963965 0.361109 0.206640
O O7 0.248045 0.398252 0.976589
O O8 0.659672 0.818813 0.753196
O O9 0.596044 0.944272 0.761932
O O10 0.456146 0.930248 0.198385
O O11 0.161827 0.993191 0.101864
O O12 0.137488 0.067007 0.934319
O O13 0.588076 0.654240 0.505120
O O14 0.737634 0.674071 0.701677
O O15 0.167608 0.245317 0.612960
#
# Coordination Sequence:
#
# PCOD9253165 Si02
#       8
#     4   4   4   4   2   4   4   4
#     4  12  26  46  77 109 153 202 243 315 387 443
#     4  12  25  48  70 109 149 204 248 310 386 450
#     4  12  27  47  72 112 151 199 252 307 380 463
#     4  12  28  50  78 108 151 200 262 318 379 457
#     4  12  26  50  76 106 144 200 250 318 380 434
#     4  12  27  48  78 109 145 198 257 318 377 452
#     4  12  24  46  74 106 150 188 254 307 377 460
#     4  12  24  48  76 108 152 194 250 317 378 459
#
# _framework density 23.360637000000001
#
# number of rings (size 3 to 8) (size 9 to 14) (size 15 to 20)
#    0.000    0.000    5.333    4.800    0.000    2.667 
#    0.000    0.000    0.000    0.000    0.000    0.000 
#    0.000    0.000    0.000    0.000    0.000    0.000 
#
# Total GULP energy -167134.595929 kJ/mol
# GULP energy per Si atom -5571.153198 kJ/mol
# Density = 2.330747 g / cm^3
# Si number density = 23.360637 Si / 1000 Ang^3
#
#
#
# Elastic Constant Matrix: (Units=GPa)
#
#
# Indices 1 2 3 4 5 6 
#
# 1 90.9823 40.1497 35.5424 0.0000 14.5701 0.0000
# 2 40.1497 84.0179 26.7610 0.0000 -2.5195 0.0000
# 3 35.5424 26.7610 52.0083 0.0000 3.3241 0.0000
# 4 0.0000 0.0000 0.0000 43.1246 0.0000 1.2326
# 5 14.5701 -2.5195 3.3241 0.0000 39.8585 0.0000
# 6 0.0000 0.0000 0.0000 1.2326 0.0000 41.8207
#
#
#
# Elastic Compliance Matrix: (Units=1/GPa)
#
#
# Indices 1 2 3 4 5 6 
#
# 1 0.018121 -0.006016 -0.008888 0.000000 -0.006263 0.000000
# 2 -0.006016 0.016325 -0.004519 0.000000 0.003608 0.000000
# 3 -0.008888 -0.004519 0.027585 0.000000 0.000663 0.000000
# 4 0.000000 0.000000 0.000000 0.023208 0.000000 -0.000684
# 5 -0.006263 0.003608 0.000663 0.000000 0.027551 0.000000
# 6 0.000000 0.000000 0.000000 -0.000684 0.000000 0.023932
#
#
# Mechanical properties :
#
#
# Convention : Reuss Voigt Hill
#
# Bulk Modulus (GPa) = 43.13326 47.99051 45.56189
# Shear Modulus (GPa) = 27.27820 33.26446 30.27133
#
# Velocity S-wave (km/s) = 3.42087 3.77762 3.60366
# Velocity P-wave (km/s) = 5.84014 6.29406 6.07135
#
# Compressibility (1/GPa) = 0.02318397
#
# Stress axis : x y z
#
# Youngs Moduli (GPa) = 55.18373 61.25617 36.25210
#
# Poissons Ratio (x) = 0.36855 0.32221
# Poissons Ratio (y) = 0.33201 0.16382
# Poissons Ratio (z) = 0.49047 0.27681
#
# Static dielectric constant tensor:
#      x y z
#    x 1.888020 0.000000 -0.026470 
#    y 0.000000 2.072390 0.000000 
#    z -0.026470 0.000000 1.945500 
# 
# From -- ./inp_files/21754.got.cif
#   From: 2010.05.17/outbox.cif.g08.bks.cpg/sg14_11_cif.got.tgz:21754.got - 2010.06.03 17:49:19.
