data_PCOD9253931
_publ_section_title
;
Structure prediction by ZEFSAII (Michael W. Deem and Ramdas Pophale) SiO2 
 PCOD9253931
Probable space group: C 2/C
;
_chemical_formula_sum "Si O2"
_cell_formula_units_Z 48
_cell_length_a 14.695279
_cell_length_b 10.277654
_cell_length_c 14.701888
_cell_angle_alpha 90.000000
_cell_angle_beta 101.209357
_cell_angle_gamma 90.000000
_cell_volume 2178.111175
_symmetry_space_group_name_H-M "C 2/C"
_symmetry_group_IT_number 15
_symmetry_cell_setting 'monoclinic'
loop_
_space_group_symop_operation_xyz
x,y,z
-x,y,1/2-z
-x,-y,-z
x,-y,1/2+z
1/2+x,1/2+y,z
1/2-x,1/2+y,1/2-z
1/2-x,1/2-y,-z
1/2+x,1/2-y,1/2+z
loop_
_atom_site_type_symbol
_atom_site_label
_atom_site_fract_x
_atom_site_fract_y
_atom_site_fract_z
Si Si1 0.165765 0.046996 0.393414
Si Si2 0.387304 0.401744 0.419137
Si Si3 0.585655 0.712405 0.932567
Si Si4 0.814886 0.661403 0.289790
Si Si5 0.000000 0.822271 0.750000
Si Si6 0.500000 0.123644 0.250000
Si Si7 0.642680 0.705131 0.133432
O O1 0.162017 0.110412 0.492756
O O2 0.254030 0.086616 0.352488
O O3 0.074376 0.093312 0.320720
O O4 0.155209 0.894552 0.407478
O O5 0.495052 0.366209 0.449648
O O6 0.348883 0.296575 0.340846
O O7 0.375639 0.549275 0.383563
O O8 0.547146 0.799293 0.843731
O O9 0.629418 0.771377 0.032650
O O10 0.903542 0.575143 0.276278
O O11 0.744153 0.702384 0.196556
O O12 0.935386 0.747573 0.810010
#
# Coordination Sequence:
#
# PCOD9253931 Si02
#       7
#     8   8   8   8   4   4   8
#     4  10  17  30  53  88 112 140 176 238 283 330
#     4  10  18  34  53  87 117 144 177 229 290 331
#     4  10  18  33  60  83 111 144 183 233 284 327
#     4  10  23  31  54  81 113 152 184 228 275 334
#     4  10  15  26  52  87 114 128 167 230 288 307
#     4  10  23  38  52  81 112 158 189 226 274 333
#     4  10  19  32  54  86 112 147 180 235 275 332
#
# _framework density 22.037445000000002
#
# number of rings (size 3 to 8) (size 9 to 14) (size 15 to 20)
#    0.000    2.000    3.333    2.000    7.000    0.667 
#    0.000    0.000    0.000    8.000    0.000    0.000 
#    0.000    0.000    0.000    0.000    0.000    0.000 
#
# Total GULP energy -133939.708517 kJ/mol
# GULP energy per Si atom -5580.821188 kJ/mol
# Density = 2.198729 g / cm^3
# Si number density = 22.037445 Si / 1000 Ang^3
#
#
#
# Elastic Constant Matrix: (Units=GPa)
#
#
# Indices 1 2 3 4 5 6 
#
# 1 158.0898 27.7818 51.9889 0.0000 -14.9317 0.0000
# 2 27.7818 15.4257 29.6287 0.0000 -2.6313 0.0000
# 3 51.9889 29.6287 131.6227 0.0000 8.5779 0.0000
# 4 0.0000 0.0000 0.0000 -5.4387 0.0000 7.5452
# 5 -14.9317 -2.6313 8.5779 0.0000 50.1205 0.0000
# 6 0.0000 0.0000 0.0000 7.5452 0.0000 20.3835
#
#
#
# Elastic Compliance Matrix: (Units=1/GPa)
#
#
# Indices 1 2 3 4 5 6 
#
# 1 0.009440 -0.016298 -0.000189 0.000000 0.001989 0.000000
# 2 -0.016298 0.148096 -0.027395 0.000000 0.007608 0.000000
# 3 -0.000189 -0.027395 0.014094 0.000000 -0.003907 0.000000
# 4 0.000000 0.000000 0.000000 -0.121482 0.000000 0.044968
# 5 0.001989 0.007608 -0.003907 0.000000 0.021613 0.000000
# 6 0.000000 0.000000 0.000000 0.044968 0.000000 0.032414
#
#
# Mechanical properties :
#
#
# Convention : Reuss Voigt Hill
#
# Bulk Modulus (GPa) = 11.92403 58.21523 35.06963
# Shear Modulus (GPa) = 22.73820 26.06231 24.40026
#
# Velocity S-wave (km/s) = 3.21565 3.44268 3.33110
# Velocity P-wave (km/s) = 4.38289 6.50205 5.54465
#
# Compressibility (1/GPa) = 0.08386425
#
# Stress axis : x y z
#
# Youngs Moduli (GPa) = 105.93445 6.75237 70.95362
#
# Poissons Ratio (x) = 0.11005 0.01345
# Poissons Ratio (y) = 1.72651 1.94380
# Poissons Ratio (z) = 0.02007 0.18498
#
# Static dielectric constant tensor:
#      x y z
#    x 1.815060 0.000000 -0.031200 
#    y 0.000000 1.793870 0.000000 
#    z -0.031200 0.000000 1.870000 
# 
# From -- ./inp_files/196078.got.cif
#   From: 2010.05.17/outbox.cif.g08.bks.cpg/sg15_99_cif.got.tgz:196078.got - 2010.06.03 18:47:42.
