data_PCOD9253817
_publ_section_title
;
Structure prediction by ZEFSAII (Michael W. Deem and Ramdas Pophale) SiO2 
 PCOD9253817
Probable space group: C 2/C
;
_chemical_formula_sum "Si O2"
_cell_formula_units_Z 44
_cell_length_a 15.590905
_cell_length_b 7.657275
_cell_length_c 13.616288
_cell_angle_alpha 90.000000
_cell_angle_beta 96.259691
_cell_angle_gamma 90.000000
_cell_volume 1615.873081
_symmetry_space_group_name_H-M "C 2/C"
_symmetry_group_IT_number 15
_symmetry_cell_setting 'monoclinic'
loop_
_space_group_symop_operation_xyz
x,y,z
-x,y,1/2-z
-x,-y,-z
x,-y,1/2+z
1/2+x,1/2+y,z
1/2-x,1/2+y,1/2-z
1/2-x,1/2-y,-z
1/2+x,1/2-y,1/2+z
loop_
_atom_site_type_symbol
_atom_site_label
_atom_site_fract_x
_atom_site_fract_y
_atom_site_fract_z
Si Si1 0.557235 0.724314 0.425515
Si Si2 0.788480 0.980634 0.012765
Si Si3 0.116643 0.356617 0.044366
Si Si4 0.500000 0.449579 0.250000
Si Si5 0.823324 0.946896 0.243015
Si Si6 0.855857 0.358255 0.235486
O O1 0.645933 0.646059 0.482555
O O2 0.483391 0.802024 0.486871
O O3 0.518430 0.565829 0.351634
O O4 0.578374 0.867742 0.344657
O O5 0.684208 0.977031 0.992178
O O6 0.796238 0.917527 0.127685
O O7 0.834778 0.830177 0.957278
O O8 0.116872 0.429161 0.155837
O O9 0.413057 0.347190 0.265246
O O10 0.742129 0.912658 0.300772
O O11 0.846221 0.149961 0.250517
#
# Coordination Sequence:
#
# PCOD9253817 Si02
#       6
#     8   8   8   4   8   8
#     4  10  15  28  43  66  87 118 152 192 224 276
#     4   8  18  23  41  70  91 110 153 196 226 266
#     4  10  14  27  42  68  89 118 148 194 229 273
#     4   8  14  26  44  62  84 112 150 180 222 266
#     4   9  16  30  45  66  89 114 148 191 221 274
#     4   9  17  27  48  66  90 115 151 187 228 268
#
# _framework density 27.229863999999999
#
# number of rings (size 3 to 8) (size 9 to 14) (size 15 to 20)
#    0.000    3.273    3.636    0.545    0.000    0.000 
#    0.000    0.000   12.000    4.364    0.000    3.818 
#    0.000    0.000    0.000    0.000    0.000    0.000 
#
# Total GULP energy -122650.196159 kJ/mol
# GULP energy per Si atom -5575.008916 kJ/mol
# Density = 2.716789 g / cm^3
# Si number density = 27.229864 Si / 1000 Ang^3
#
#
#
# Elastic Constant Matrix: (Units=GPa)
#
#
# Indices 1 2 3 4 5 6 
#
# 1 252.7288 36.0274 31.3594 0.0000 -49.3034 0.0000
# 2 36.0274 70.7734 19.5134 0.0000 -2.3597 0.0000
# 3 31.3594 19.5134 70.5192 0.0000 -15.3604 0.0000
# 4 0.0000 0.0000 0.0000 15.5006 0.0000 3.7384
# 5 -49.3034 -2.3597 -15.3604 0.0000 38.5656 0.0000
# 6 0.0000 0.0000 0.0000 3.7384 0.0000 37.4484
#
#
#
# Elastic Compliance Matrix: (Units=1/GPa)
#
#
# Indices 1 2 3 4 5 6 
#
# 1 0.005743 -0.002607 -0.000293 0.000000 0.007066 0.000000
# 2 -0.002607 0.016504 -0.004285 0.000000 -0.004030 0.000000
# 3 -0.000293 -0.004285 0.016817 0.000000 0.006061 0.000000
# 4 0.000000 0.000000 0.000000 0.066105 0.000000 -0.006599
# 5 0.007066 -0.004030 0.006061 0.000000 0.037131 0.000000
# 6 0.000000 0.000000 0.000000 -0.006599 0.000000 0.027362
#
#
# Mechanical properties :
#
#
# Convention : Reuss Voigt Hill
#
# Bulk Modulus (GPa) = 40.49815 63.09129 51.79472
# Shear Modulus (GPa) = 26.00582 38.77768 32.39175
#
# Velocity S-wave (km/s) = 3.09374 3.77780 3.45275
# Velocity P-wave (km/s) = 5.25990 6.49994 5.91252
#
# Compressibility (1/GPa) = 0.02469249
#
# Stress axis : x y z
#
# Youngs Moduli (GPa) = 174.11395 60.59160 59.46379
#
# Poissons Ratio (x) = 0.15797 0.01745
# Poissons Ratio (y) = 0.45394 0.25482
# Poissons Ratio (z) = 0.05110 0.25965
#
# Static dielectric constant tensor:
#      x y z
#    x 2.310330 0.000000 0.037380 
#    y 0.000000 2.119090 0.000000 
#    z 0.037380 0.000000 2.154010 
# 
# From -- ./inp_files/151368.got.cif
#   From: 2010.05.17/outbox.cif.g08.bks.cpg/sg15_76_cif.got.tgz:151368.got - 2010.06.03 18:47:42.
