data_PCOD9253800
_publ_section_title
;
Structure prediction by ZEFSAII (Michael W. Deem and Ramdas Pophale) SiO2 
 PCOD9253800
Probable space group: C 2/C
;
_chemical_formula_sum "Si O2"
_cell_formula_units_Z 56
_cell_length_a 34.470357
_cell_length_b 11.334743
_cell_length_c 5.480454
_cell_angle_alpha 90.000000
_cell_angle_beta 109.885828
_cell_angle_gamma 90.000000
_cell_volume 2013.602859
_symmetry_space_group_name_H-M "C 2/C"
_symmetry_group_IT_number 15
_symmetry_cell_setting 'monoclinic'
loop_
_space_group_symop_operation_xyz
x,y,z
-x,y,1/2-z
-x,-y,-z
x,-y,1/2+z
1/2+x,1/2+y,z
1/2-x,1/2+y,1/2-z
1/2-x,1/2-y,-z
1/2+x,1/2-y,1/2+z
loop_
_atom_site_type_symbol
_atom_site_label
_atom_site_fract_x
_atom_site_fract_y
_atom_site_fract_z
Si Si1 0.744438 0.921398 0.705614
Si Si2 0.954338 0.897225 0.654576
Si Si3 0.668964 0.350725 0.595805
Si Si4 0.841070 0.566978 0.357611
Si Si5 0.362782 0.391106 0.471388
Si Si6 0.954231 0.248187 0.653833
Si Si7 0.430119 0.985268 0.579307
O O1 0.699577 0.860995 0.649483
O O2 0.747058 0.989784 0.448807
O O3 0.782358 0.829587 0.798214
O O4 0.908408 0.949734 0.557844
O O5 0.952648 0.821735 0.403609
O O6 0.000000 0.957171 0.750000
O O7 0.953333 0.827181 0.905973
O O8 0.645534 0.321051 0.796754
O O9 0.666295 0.494775 0.588217
O O10 0.646857 0.317788 0.294195
O O11 0.835531 0.465304 0.559766
O O12 0.890965 0.573807 0.491316
O O13 0.919636 0.347348 0.567236
O O14 0.000000 0.302900 0.750000
O O15 0.453079 0.995256 0.376927
#
# Coordination Sequence:
#
# PCOD9253800 Si02
#       7
#     8   8   8   8   8   8   8
#     4  10  14  25  41  66 102 124 151 191 243 288
#     4  10  21  37  52  69  95 134 176 200 233 294
#     4  10  17  28  45  74 101 119 160 211 257 283
#     4   8  16  25  42  67 101 124 151 182 237 293
#     4  10  18  30  47  70  99 126 161 212 244 286
#     4  10  21  36  54  73  97 132 168 202 239 291
#     4  10  19  33  51  79 107 121 157 198 251 297
#
# _framework density 27.810846000000002
#
# number of rings (size 3 to 8) (size 9 to 14) (size 15 to 20)
#    0.000    2.286    2.857    1.714    0.000    0.571 
#    0.000    2.857    0.000    0.000    0.000    2.000 
#    0.000    0.000    0.000    0.000    0.000    0.000 
#
# Total GULP energy -156117.354851 kJ/mol
# GULP energy per Si atom -5575.619816 kJ/mol
# Density = 2.774755 g / cm^3
# Si number density = 27.810846 Si / 1000 Ang^3
#
#
#
# Elastic Constant Matrix: (Units=GPa)
#
#
# Indices 1 2 3 4 5 6 
#
# 1 164.5051 26.7823 78.7467 0.0000 14.9926 0.0000
# 2 26.7823 40.2439 45.2994 0.0000 -4.5178 0.0000
# 3 78.7467 45.2994 245.8887 0.0000 -59.7560 0.0000
# 4 0.0000 0.0000 0.0000 17.1860 0.0000 -7.1503
# 5 14.9926 -4.5178 -59.7560 0.0000 66.7706 0.0000
# 6 0.0000 0.0000 0.0000 -7.1503 0.0000 21.3293
#
#
#
# Elastic Compliance Matrix: (Units=1/GPa)
#
#
# Indices 1 2 3 4 5 6 
#
# 1 0.008702 -0.002249 -0.003686 0.000000 -0.005405 0.000000
# 2 -0.002249 0.032744 -0.005944 0.000000 -0.002599 0.000000
# 3 -0.003686 -0.005944 0.008237 0.000000 0.007797 0.000000
# 4 0.000000 0.000000 0.000000 0.067618 0.000000 0.022668
# 5 -0.005405 -0.002599 0.007797 0.000000 0.022993 0.000000
# 6 0.000000 0.000000 0.000000 0.022668 0.000000 0.054483
#
#
# Mechanical properties :
#
#
# Convention : Reuss Voigt Hill
#
# Bulk Modulus (GPa) = 38.57154 83.58828 61.07991
# Shear Modulus (GPa) = 22.00942 41.04446 31.52694
#
# Velocity S-wave (km/s) = 2.81623 3.84584 3.37058
# Velocity P-wave (km/s) = 4.94714 7.05988 6.09574
#
# Compressibility (1/GPa) = 0.02592585
#
# Stress axis : x y z
#
# Youngs Moduli (GPa) = 114.91562 30.54029 121.39943
#
# Poissons Ratio (x) = 0.06868 0.44749
# Poissons Ratio (y) = 0.25843 0.72155
# Poissons Ratio (z) = 0.42359 0.18152
#
# Static dielectric constant tensor:
#      x y z
#    x 2.170470 0.000000 -0.015960 
#    y 0.000000 2.354330 0.000000 
#    z -0.015960 0.000000 2.237680 
# 
# From -- ./inp_files/18388.got.cif
#   From: 2010.05.17/outbox.cif.g08.bks.cpg/sg15_10_cif.got.tgz:18388.got - 2010.06.03 18:47:42.
