data_PCOD9253713
_publ_section_title
;
Structure prediction by ZEFSAII (Michael W. Deem and Ramdas Pophale) SiO2 
 PCOD9253713
Probable space group: P 21/C
;
_chemical_formula_sum "Si O2"
_cell_formula_units_Z 32
_cell_length_a 21.000000
_cell_length_b 9.000000
_cell_length_c 9.000000
_cell_angle_alpha 90.000000
_cell_angle_beta 100.000000
_cell_angle_gamma 90.000000
_cell_volume 1675.157988
_symmetry_space_group_name_H-M "P 21/C"
_symmetry_group_IT_number 14
_symmetry_cell_setting 'monoclinic'
loop_
_space_group_symop_operation_xyz
x,y,z
-x,1/2+y,1/2-z
-x,-y,-z
x,1/2-y,1/2+z
loop_
_atom_site_type_symbol
_atom_site_label
_atom_site_fract_x
_atom_site_fract_y
_atom_site_fract_z
Si Si1 0.327221 0.389757 0.494292
Si Si2 0.940538 0.047462 0.182242
Si Si3 0.321102 0.429176 0.847988
Si Si4 0.440211 0.593949 0.040803
Si Si5 0.054431 0.656809 0.654440
Si Si6 0.198849 0.621213 0.749574
Si Si7 0.202981 0.566035 0.402655
Si Si8 0.440491 0.582317 0.400328
O O1 0.333268 0.405885 0.675723
O O2 0.331418 0.222802 0.440076
O O3 0.258115 0.446799 0.411923
O O4 0.378403 0.493438 0.432454
O O5 0.949287 0.170247 0.311409
O O6 0.866583 0.996995 0.161359
O O7 0.946824 0.124583 0.021853
O O8 0.994143 0.922490 0.206133
O O9 0.249860 0.502568 0.832614
O O10 0.373648 0.534413 0.944828
O O11 0.441967 0.589477 0.221352
O O12 0.500000 0.500000 0.000000
O O13 0.444012 0.757305 0.975768
O O14 0.122552 0.597343 0.748352
O O15 0.204162 0.617365 0.574207
O O16 0.214444 0.786216 0.812233
O O17 0.500000 0.500000 0.500000
#
# Coordination Sequence:
#
# PCOD9253713 Si02
#       8
#     4   4   4   4   4   4   4   4
#     4  11  23  39  58  84 116 150 189 233 282 334
#     4   9  18  33  52  76 107 142 182 228 277 331
#     4  11  23  39  58  84 116 150 189 233 282 334
#     4  12  25  43  65  90 119 152 189 230 278 330
#     4   9  18  33  52  76 107 142 182 228 277 331
#     4   9  19  35  55  78 107 144 185 229 278 332
#     4   9  19  35  55  78 107 144 185 229 278 332
#     4  12  25  43  65  90 119 152 189 230 278 330
#
# _framework density 19.102675999999999
#
# number of rings (size 3 to 8) (size 9 to 14) (size 15 to 20)
#    0.000    1.750    0.000    4.500    0.000    5.500 
#    0.000    0.000    0.000    0.000    0.000    0.000 
#    0.000    0.000    0.000    0.000    0.000    0.000 
#
# Total GULP energy -178566.446097 kJ/mol
# GULP energy per Si atom -5580.201441 kJ/mol
# Density = 1.905920 g / cm^3
# Si number density = 19.102676 Si / 1000 Ang^3
#
#
#
# Elastic Constant Matrix: (Units=GPa)
#
#
# Indices 1 2 3 4 5 6 
#
# 1 36.1296 35.8730 10.5595 0.0000 -5.5332 0.0000
# 2 35.8730 98.5154 25.3421 0.0000 6.3237 0.0000
# 3 10.5595 25.3421 67.7606 0.0000 7.4700 0.0000
# 4 0.0000 0.0000 0.0000 28.5673 0.0000 0.2584
# 5 -5.5332 6.3237 7.4700 0.0000 21.5309 0.0000
# 6 0.0000 0.0000 0.0000 0.2584 0.0000 35.2804
#
#
#
# Elastic Compliance Matrix: (Units=1/GPa)
#
#
# Indices 1 2 3 4 5 6 
#
# 1 0.050113 -0.018737 -0.002941 0.000000 0.019402 0.000000
# 2 -0.018737 0.018313 -0.002917 0.000000 -0.009182 0.000000
# 3 -0.002941 -0.002917 0.016944 0.000000 -0.005778 0.000000
# 4 0.000000 0.000000 0.000000 0.035007 0.000000 -0.000256
# 5 0.019402 -0.009182 -0.005778 0.000000 0.056132 0.000000
# 6 0.000000 0.000000 0.000000 -0.000256 0.000000 0.028346
#
#
# Mechanical properties :
#
#
# Convention : Reuss Voigt Hill
#
# Bulk Modulus (GPa) = 27.63891 38.43942 33.03917
# Shear Modulus (GPa) = 18.78962 25.78446 22.28704
#
# Velocity S-wave (km/s) = 3.13966 3.67792 3.41940
# Velocity P-wave (km/s) = 5.25769 6.18081 5.73784
#
# Compressibility (1/GPa) = 0.03618087
#
# Stress axis : x y z
#
# Youngs Moduli (GPa) = 19.95507 54.60556 59.01808
#
# Poissons Ratio (x) = 1.02313 0.17355
# Poissons Ratio (y) = 0.37389 0.17216
# Poissons Ratio (z) = 0.05868 0.15928
#
# Static dielectric constant tensor:
#      x y z
#    x 1.692410 0.000000 -0.009740 
#    y 0.000000 1.674050 0.000000 
#    z -0.009740 0.000000 1.624790 
# 
# From -- ./inp_files/18631.got.cif
#   From: 2010.05.17/outbox.ucp.g08.bks.cvg/sg14_10_cif.got.tgz:18631.got - 2010.06.11 12:31:08.
