data_PCOD9253962
_publ_section_title
;
Structure prediction by ZEFSAII (Michael W. Deem and Ramdas Pophale) SiO2 
 PCOD9253962
Probable space group: C 2/C
;
_chemical_formula_sum "Si O2"
_cell_formula_units_Z 64
_cell_length_a 17.233395
_cell_length_b 8.552462
_cell_length_c 22.922300
_cell_angle_alpha 90.000000
_cell_angle_beta 92.550603
_cell_angle_gamma 90.000000
_cell_volume 3375.123916
_symmetry_space_group_name_H-M "C 2/C"
_symmetry_group_IT_number 15
_symmetry_cell_setting 'monoclinic'
loop_
_space_group_symop_operation_xyz
x,y,z
-x,y,1/2-z
-x,-y,-z
x,-y,1/2+z
1/2+x,1/2+y,z
1/2-x,1/2+y,1/2-z
1/2-x,1/2-y,-z
1/2+x,1/2-y,1/2+z
loop_
_atom_site_type_symbol
_atom_site_label
_atom_site_fract_x
_atom_site_fract_y
_atom_site_fract_z
Si Si1 0.772372 0.743742 0.391247
Si Si2 0.770755 0.649218 0.267937
Si Si3 0.925954 0.943253 0.378645
Si Si4 0.817070 0.460797 0.653160
Si Si5 0.180533 0.823181 0.578566
Si Si6 0.907103 0.829124 0.123221
Si Si7 0.867576 0.955152 0.248591
Si Si8 0.734001 0.538718 0.959269
O O1 0.782048 0.624155 0.337006
O O2 0.853625 0.835385 0.396436
O O3 0.751009 0.639383 0.445245
O O4 0.704666 0.868489 0.371810
O O5 0.819943 0.548038 0.223281
O O6 0.801559 0.823336 0.257821
O O7 0.680127 0.615491 0.255505
O O8 0.920231 0.952094 0.307809
O O9 0.008219 0.871026 0.397906
O O10 0.902875 0.110780 0.405607
O O11 0.739806 0.360071 0.633413
O O12 0.886582 0.355629 0.629566
O O13 0.193405 0.646531 0.558421
O O14 0.214540 0.922740 0.525252
O O15 0.901849 0.906853 0.187551
O O16 0.840144 0.903240 0.080724
#
# Coordination Sequence:
#
# PCOD9253962 Si02
#       8
#     8   8   8   8   8   8   8   8
#     4  10  19  32  55  78  99 134 182 213 256 312
#     4  10  15  28  50  79  96 127 172 213 248 304
#     4  10  20  34  51  78 106 139 168 210 271 323
#     4   9  18  32  50  76 104 136 169 219 254 312
#     4   9  19  35  54  75 106 132 179 222 260 309
#     4  10  20  33  52  75 108 138 166 212 269 317
#     4  10  18  29  52  76 103 131 170 210 259 312
#     4  10  20  34  56  79  96 137 182 222 259 305
#
# _framework density 18.962267000000001
#
# number of rings (size 3 to 8) (size 9 to 14) (size 15 to 20)
#    0.000    2.250    5.000    0.375    0.000    2.500 
#    0.000    1.250    0.000    7.500    3.250    0.000 
#    0.000    0.000    0.000    0.000    0.000    0.000 
#
# Total GULP energy -178137.646157 kJ/mol
# GULP energy per Si atom -5566.801442 kJ/mol
# Density = 1.891911 g / cm^3
# Si number density = 18.962267 Si / 1000 Ang^3
#
#
#
# Elastic Constant Matrix: (Units=GPa)
#
#
# Indices 1 2 3 4 5 6 
#
# 1 94.2205 36.1195 10.1589 0.0000 -2.8384 0.0000
# 2 36.1195 57.3004 34.9442 0.0000 -6.8806 0.0000
# 3 10.1589 34.9442 65.8591 0.0000 -6.7713 0.0000
# 4 0.0000 0.0000 0.0000 31.1077 0.0000 -1.8385
# 5 -2.8384 -6.8806 -6.7713 0.0000 7.8434 0.0000
# 6 0.0000 0.0000 0.0000 -1.8385 0.0000 22.1579
#
#
#
# Elastic Compliance Matrix: (Units=1/GPa)
#
#
# Indices 1 2 3 4 5 6 
#
# 1 0.014664 -0.011773 0.003806 0.000000 -0.001735 0.000000
# 2 -0.011773 0.036300 -0.016031 0.000000 0.013744 0.000000
# 3 0.003806 -0.016031 0.023922 0.000000 0.007966 0.000000
# 4 0.000000 0.000000 0.000000 0.032305 0.000000 0.002680
# 5 -0.001735 0.013744 0.007966 0.000000 0.145802 0.000000
# 6 0.000000 0.000000 0.000000 0.002680 0.000000 0.045353
#
#
# Mechanical properties :
#
#
# Convention : Reuss Voigt Hill
#
# Bulk Modulus (GPa) = 37.18908 42.20280 39.69594
# Shear Modulus (GPa) = 14.07240 21.29896 17.68568
#
# Velocity S-wave (km/s) = 2.72715 3.35510 3.05729
# Velocity P-wave (km/s) = 5.43794 6.10847 5.78293
#
# Compressibility (1/GPa) = 0.02688961
#
# Stress axis : x y z
#
# Youngs Moduli (GPa) = 68.19433 27.54810 41.80257
#
# Poissons Ratio (x) = 0.32433 -0.15912
# Poissons Ratio (y) = 0.80286 0.67016
# Poissons Ratio (z) = -0.25957 0.44164
#
# Static dielectric constant tensor:
#      x y z
#    x 1.639150 0.000000 -0.010440 
#    y 0.000000 1.723240 0.000000 
#    z -0.010440 0.000000 1.707170 
# 
# From -- ./inp_files/276297.got.cif
#   From: 2010.05.17/outbox.cif.g08.bks.cpg/sg15_139_cif.got.tgz:276297.got - 2010.06.03 18:47:42.
