data_PCOD9253649
_publ_section_title
;
Structure prediction by ZEFSAII (Michael W. Deem and Ramdas Pophale) SiO2 
 PCOD9253649
Probable space group: P 21/C
;
_chemical_formula_sum "Si O2"
_cell_formula_units_Z 28
_cell_length_a 12.000000
_cell_length_b 9.000000
_cell_length_c 15.000000
_cell_angle_alpha 90.000000
_cell_angle_beta 60.000000
_cell_angle_gamma 90.000000
_cell_volume 1402.961154
_symmetry_space_group_name_H-M "P 21/C"
_symmetry_group_IT_number 14
_symmetry_cell_setting 'monoclinic'
loop_
_space_group_symop_operation_xyz
x,y,z
-x,1/2+y,1/2-z
-x,-y,-z
x,1/2-y,1/2+z
loop_
_atom_site_type_symbol
_atom_site_label
_atom_site_fract_x
_atom_site_fract_y
_atom_site_fract_z
Si Si1 0.132635 0.116328 0.343633
Si Si2 0.380393 0.209102 0.811712
Si Si3 0.111702 0.163561 0.141462
Si Si4 0.077979 0.714564 0.924915
Si Si5 0.350474 0.371640 0.003326
Si Si6 0.442251 0.683466 0.926046
Si Si7 0.259779 0.566410 0.461165
O O1 0.269081 0.195971 0.306866
O O2 0.095963 0.140618 0.254013
O O3 0.031822 0.184296 0.455777
O O4 0.134918 0.942127 0.368354
O O5 0.410854 0.297406 0.890526
O O6 0.496514 0.181941 0.697289
O O7 0.320884 0.055483 0.870979
O O8 0.985603 0.205721 0.135411
O O9 0.213958 0.296245 0.079686
O O10 0.173489 0.019497 0.068432
O O11 0.179627 0.819546 0.932976
O O12 0.346103 0.546437 0.983695
O O13 0.442762 0.339673 0.049780
O O14 0.370029 0.838851 0.965501
#
# Coordination Sequence:
#
# PCOD9253649 Si02
#       7
#     4   4   4   4   4   4   4
#     4  11  24  43  68  94 130 178 212 268 331 384
#     4  11  22  43  66  95 131 170 215 269 319 384
#     4  11  24  44  66 100 130 173 217 275 322 389
#     4  11  25  45  66  96 134 170 218 269 327 397
#     4  10  22  43  65  93 131 169 214 263 323 381
#     4  11  23  43  65  95 131 171 213 266 323 389
#     4  11  25  42  66 100 131 169 218 273 322 388
#
# _framework density 19.957787
#
# number of rings (size 3 to 8) (size 9 to 14) (size 15 to 20)
#    0.000    1.143    4.286    2.143    4.000    2.286 
#   10.286    0.000    0.000    0.000    0.000    0.000 
#    0.000    0.000    0.000    0.000    0.000    0.000 
#
# Total GULP energy -156571.425912 kJ/mol
# GULP energy per Si atom -5591.836640 kJ/mol
# Density = 1.991236 g / cm^3
# Si number density = 19.957787 Si / 1000 Ang^3
#
#
#
# Elastic Constant Matrix: (Units=GPa)
#
#
# Indices 1 2 3 4 5 6 
#
# 1 14.2885 4.9800 5.4701 0.0000 7.0162 0.0000
# 2 4.9800 90.5420 21.0462 0.0000 -4.8231 0.0000
# 3 5.4701 21.0462 82.7481 0.0000 28.0618 0.0000
# 4 0.0000 0.0000 0.0000 20.4937 0.0000 5.8676
# 5 7.0162 -4.8231 28.0618 0.0000 32.0071 0.0000
# 6 0.0000 0.0000 0.0000 5.8676 0.0000 31.5648
#
#
#
# Elastic Compliance Matrix: (Units=1/GPa)
#
#
# Indices 1 2 3 4 5 6 
#
# 1 0.081741 -0.006567 0.003812 0.000000 -0.022250 0.000000
# 2 -0.006567 0.013213 -0.005821 0.000000 0.008534 0.000000
# 3 0.003812 -0.005821 0.019773 0.000000 -0.019049 0.000000
# 4 0.000000 0.000000 0.000000 0.051538 0.000000 -0.009581
# 5 -0.022250 0.008534 -0.019049 0.000000 0.054107 0.000000
# 6 0.000000 0.000000 0.000000 -0.009581 0.000000 0.033462
#
#
# Mechanical properties :
#
#
# Convention : Reuss Voigt Hill
#
# Bulk Modulus (GPa) = 10.24833 27.84124 19.04479
# Shear Modulus (GPa) = 16.47381 27.21862 21.84622
#
# Velocity S-wave (km/s) = 2.87615 3.69699 3.31210
# Velocity P-wave (km/s) = 4.02192 5.67485 4.91832
#
# Compressibility (1/GPa) = 0.09757691
#
# Stress axis : x y z
#
# Youngs Moduli (GPa) = 12.23369 75.68076 50.57375
#
# Poissons Ratio (x) = 0.49703 -0.19281
# Poissons Ratio (y) = 0.08034 0.29437
# Poissons Ratio (z) = -0.04664 0.44051
#
# Static dielectric constant tensor:
#      x y z
#    x 1.699380 0.000000 -0.008350 
#    y 0.000000 1.707630 0.000000 
#    z -0.008350 0.000000 1.666330 
# 
# From -- ./inp_files/43598.got.cif
#   From: 2010.05.17/outbox.ucp.g08.bks.cvg/sg14_22_cif.got.tgz:43598.got - 2010.06.11 12:31:08.
