data_PCOD9253918
_publ_section_title
;
Structure prediction by ZEFSAII (Michael W. Deem and Ramdas Pophale) SiO2 
 PCOD9253918
Probable space group: C 2/C
;
_chemical_formula_sum "Si O2"
_cell_formula_units_Z 48
_cell_length_a 10.203922
_cell_length_b 13.921821
_cell_length_c 14.795772
_cell_angle_alpha 90.000000
_cell_angle_beta 122.148912
_cell_angle_gamma 90.000000
_cell_volume 1779.565333
_symmetry_space_group_name_H-M "C 2/C"
_symmetry_group_IT_number 15
_symmetry_cell_setting 'monoclinic'
loop_
_space_group_symop_operation_xyz
x,y,z
-x,y,1/2-z
-x,-y,-z
x,-y,1/2+z
1/2+x,1/2+y,z
1/2-x,1/2+y,1/2-z
1/2-x,1/2-y,-z
1/2+x,1/2-y,1/2+z
loop_
_atom_site_type_symbol
_atom_site_label
_atom_site_fract_x
_atom_site_fract_y
_atom_site_fract_z
Si Si1 0.133627 0.001981 0.354359
Si Si2 0.400491 0.970509 0.551161
Si Si3 0.465482 0.172258 0.620612
Si Si4 0.684888 0.882000 0.738708
Si Si5 0.229223 0.820630 0.176809
Si Si6 0.521513 0.366514 0.548322
O O1 0.224384 0.064786 0.311498
O O2 0.057549 0.073565 0.399600
O O3 0.000000 0.949545 0.250000
O O4 0.245422 0.930567 0.449935
O O5 0.509906 0.917179 0.660303
O O6 0.500000 0.000000 0.500000
O O7 0.365205 0.077209 0.572403
O O8 0.631277 0.129813 0.715612
O O9 0.347083 0.225829 0.644912
O O10 0.503156 0.251472 0.560052
O O11 0.675624 0.768946 0.715490
O O12 0.797297 0.893257 0.867749
O O13 0.085863 0.877648 0.080304
#
# Coordination Sequence:
#
# PCOD9253918 Si02
#       6
#     8   8   8   8   8   8
#     4   9  15  24  40  60  85 120 158 190 225 278
#     4  10  18  28  39  62  97 129 150 196 247 282
#     4  10  18  26  44  67  93 126 163 194 227 289
#     4   9  18  26  39  64  96 125 154 193 245 275
#     4  10  17  27  44  68  89 125 163 194 223 289
#     4  10  15  26  43  62  88 122 162 190 225 280
#
# _framework density 26.972877
#
# number of rings (size 3 to 8) (size 9 to 14) (size 15 to 20)
#    0.000    2.333    3.333    2.500    0.000    0.000 
#    0.000    0.833    0.000    0.000    0.000    0.000 
#    0.000   65.333  185.333   13.333    0.000    0.000 
#
# Total GULP energy -133813.827474 kJ/mol
# GULP energy per Si atom -5575.576145 kJ/mol
# Density = 2.691149 g / cm^3
# Si number density = 26.972877 Si / 1000 Ang^3
#
#
#
# Elastic Constant Matrix: (Units=GPa)
#
#
# Indices 1 2 3 4 5 6 
#
# 1 55.5876 7.3936 64.3372 0.0000 30.5386 0.0000
# 2 7.3936 59.5153 38.0890 0.0000 14.7831 0.0000
# 3 64.3372 38.0890 279.5520 0.0000 59.4433 0.0000
# 4 0.0000 0.0000 0.0000 35.8121 0.0000 5.5908
# 5 30.5386 14.7831 59.4433 0.0000 59.7012 0.0000
# 6 0.0000 0.0000 0.0000 5.5908 0.0000 19.4811
#
#
#
# Elastic Compliance Matrix: (Units=1/GPa)
#
#
# Indices 1 2 3 4 5 6 
#
# 1 0.029006 0.002047 -0.004683 0.000000 -0.010681 0.000000
# 2 0.002047 0.018879 -0.002317 0.000000 -0.003415 0.000000
# 3 -0.004683 -0.002317 0.005505 0.000000 -0.002512 0.000000
# 4 0.000000 0.000000 0.000000 0.029233 0.000000 -0.008389
# 5 -0.010681 -0.003415 -0.002512 0.000000 0.025560 0.000000
# 6 0.000000 0.000000 0.000000 -0.008389 0.000000 0.053739
#
#
# Mechanical properties :
#
#
# Convention : Reuss Voigt Hill
#
# Bulk Modulus (GPa) = 22.99785 68.25497 45.62641
# Shear Modulus (GPa) = 26.83505 41.98789 34.41147
#
# Velocity S-wave (km/s) = 3.15761 3.94975 3.57568
# Velocity P-wave (km/s) = 4.67320 6.79416 5.83093
#
# Compressibility (1/GPa) = 0.04348232
#
# Stress axis : x y z
#
# Youngs Moduli (GPa) = 34.47616 52.96802 181.66117
#
# Poissons Ratio (x) = -0.10842 0.85075
# Poissons Ratio (y) = -0.07057 0.42097
# Poissons Ratio (z) = 0.16146 0.12274
#
# Static dielectric constant tensor:
#      x y z
#    x 2.067920 0.000000 0.135420 
#    y 0.000000 1.619000 0.000000 
#    z 0.135420 0.000000 2.131220 
# 
# From -- ./inp_files/181986.got.cif
#   From: 2010.05.17/outbox.cif.g08.bks.cpg/sg15_91_cif.got.tgz:181986.got - 2010.06.03 18:47:42.
