data_PCOD9253403
_publ_section_title
;
Structure prediction by ZEFSAII (Michael W. Deem and Ramdas Pophale) SiO2 
 PCOD9253403
Probable space group: P 21/C
;
_chemical_formula_sum "Si O2"
_cell_formula_units_Z 18
_cell_length_a 18.730227
_cell_length_b 5.027299
_cell_length_c 9.619562
_cell_angle_alpha 90.000000
_cell_angle_beta 45.806321
_cell_angle_gamma 90.000000
_cell_volume 649.448396
_symmetry_space_group_name_H-M "P 21/C"
_symmetry_group_IT_number 14
_symmetry_cell_setting 'monoclinic'
loop_
_space_group_symop_operation_xyz
x,y,z
-x,1/2+y,1/2-z
-x,-y,-z
x,1/2-y,1/2+z
loop_
_atom_site_type_symbol
_atom_site_label
_atom_site_fract_x
_atom_site_fract_y
_atom_site_fract_z
Si Si1 0.065926 0.118688 0.666834
Si Si2 0.500000 0.500000 0.500000
Si Si3 0.658138 0.233366 0.607712
Si Si4 0.805602 0.579780 0.278098
Si Si5 0.626490 0.937572 0.412787
O O1 0.139919 0.039512 0.442009
O O2 0.123888 0.265162 0.711850
O O3 0.992499 0.352424 0.711326
O O4 0.389177 0.494882 0.736610
O O5 0.527875 0.766810 0.544449
O O6 0.766447 0.298690 0.392147
O O7 0.661754 0.461170 0.717953
O O8 0.598743 0.206698 0.540068
O O9 0.709938 0.768556 0.378266
#
# Coordination Sequence:
#
# PCOD9253403 Si02
#       5
#     4   2   4   4   4
#     4  12  30  54  88 132 182 240 305 383 459 562
#     4  12  30  54  76 132 170 232 296 364 452 504
#     4  12  29  51  85 123 177 229 296 365 441 543
#     4  12  28  52  86 130 178 237 293 368 465 528
#     4  12  29  52  85 123 177 229 295 369 434 552
#
# _framework density 27.715828999999999
#
# number of rings (size 3 to 8) (size 9 to 14) (size 15 to 20)
#    0.000    0.000    2.222    4.667   15.556    0.000 
#    0.000    0.000    0.000    0.000    0.000    0.000 
#    0.000    0.000    0.000    0.000    0.000    0.000 
#
# Total GULP energy -100396.041454 kJ/mol
# GULP energy per Si atom -5577.557859 kJ/mol
# Density = 2.765275 g / cm^3
# Si number density = 27.715829 Si / 1000 Ang^3
#
#
#
# Elastic Constant Matrix: (Units=GPa)
#
#
# Indices 1 2 3 4 5 6 
#
# 1 100.7965 5.3501 1.1610 0.0000 9.1597 0.0000
# 2 5.3501 114.3444 17.9426 0.0000 -3.1018 0.0000
# 3 1.1610 17.9426 156.6774 0.0000 19.4110 0.0000
# 4 0.0000 0.0000 0.0000 43.1593 0.0000 -8.0099
# 5 9.1597 -3.1018 19.4110 0.0000 41.8858 0.0000
# 6 0.0000 0.0000 0.0000 -8.0099 0.0000 62.7577
#
#
#
# Elastic Compliance Matrix: (Units=1/GPa)
#
#
# Indices 1 2 3 4 5 6 
#
# 1 0.010167 -0.000586 0.000289 0.000000 -0.002401 0.000000
# 2 -0.000586 0.008997 -0.001193 0.000000 0.001347 0.000000
# 3 0.000289 -0.001193 0.006934 0.000000 -0.003365 0.000000
# 4 0.000000 0.000000 0.000000 0.023732 0.000000 0.003029
# 5 -0.002401 0.001347 -0.003365 0.000000 0.026059 0.000000
# 6 0.000000 0.000000 0.000000 0.003029 0.000000 0.016321
#
#
# Mechanical properties :
#
#
# Convention : Reuss Voigt Hill
#
# Bulk Modulus (GPa) = 43.25673 46.74731 45.00202
# Shear Modulus (GPa) = 48.59337 52.71821 50.65579
#
# Velocity S-wave (km/s) = 4.19175 4.36604 4.27978
# Velocity P-wave (km/s) = 6.25051 6.50535 6.37920
#
# Compressibility (1/GPa) = 0.02311779
#
# Stress axis : x y z
#
# Youngs Moduli (GPa) = 98.35810 111.15227 144.21922
#
# Poissons Ratio (x) = 0.06516 -0.04171
# Poissons Ratio (y) = 0.05766 0.17203
# Poissons Ratio (z) = -0.02845 0.13259
#
# Static dielectric constant tensor:
#      x y z
#    x 1.942500 0.000000 -0.176510 
#    y 0.000000 2.040460 0.000000 
#    z -0.176510 0.000000 2.136320 
# 
# From -- ./inp_files/18317.got.cif
#   From: 2010.05.17/outbox.cif.g08.bks.cpg/sg14_10_cif.got.tgz:18317.got - 2010.06.03 17:49:19.
