data_PCOD9253413
_publ_section_title
;
Structure prediction by ZEFSAII (Michael W. Deem and Ramdas Pophale) SiO2 
 PCOD9253413
Probable space group: P 21/C
;
_chemical_formula_sum "Si O2"
_cell_formula_units_Z 20
_cell_length_a 9.828110
_cell_length_b 4.885726
_cell_length_c 15.378777
_cell_angle_alpha 90.000000
_cell_angle_beta 116.214463
_cell_angle_gamma 90.000000
_cell_volume 662.497850
_symmetry_space_group_name_H-M "P 21/C"
_symmetry_group_IT_number 14
_symmetry_cell_setting 'monoclinic'
loop_
_space_group_symop_operation_xyz
x,y,z
-x,1/2+y,1/2-z
-x,-y,-z
x,1/2-y,1/2+z
loop_
_atom_site_type_symbol
_atom_site_label
_atom_site_fract_x
_atom_site_fract_y
_atom_site_fract_z
Si Si1 0.391425 0.786334 0.520473
Si Si2 0.558413 0.047563 0.211233
Si Si3 0.161844 0.356682 0.043496
Si Si4 0.184934 0.007270 0.222940
Si Si5 0.165226 0.070873 0.859945
O O1 0.478269 0.536258 0.595349
O O2 0.261813 0.693082 0.415850
O O3 0.500000 0.000000 0.500000
O O4 0.298217 0.927794 0.572598
O O5 0.455082 0.265793 0.237010
O O6 0.712650 0.234422 0.249917
O O7 0.761478 0.742076 0.194587
O O8 0.163972 0.141013 0.122180
O O9 0.170915 0.219885 0.953138
O O10 0.000000 0.500000 0.000000
O O11 0.013535 0.954039 0.207503
#
# Coordination Sequence:
#
# PCOD9253413 Si02
#       5
#     4   4   4   4   4
#     4  12  33  64  97 147 212 272 345 439 527 627
#     4  12  34  64  99 147 202 267 346 430 529 625
#     4  12  28  60 101 145 202 273 346 427 526 628
#     4  12  30  59 102 148 204 271 354 436 526 634
#     4  12  30  60  97 148 198 268 351 430 518 627
#
# _framework density 30.188775
#
# number of rings (size 3 to 8) (size 9 to 14) (size 15 to 20)
#    0.000    0.000    2.000    3.000    8.400    9.600 
#    0.000    0.000    0.000    0.000    0.000    0.000 
#    0.000    0.000    0.000    0.000    0.000    0.000 
#
# Total GULP energy -112346.556823 kJ/mol
# GULP energy per Si atom -5617.327841 kJ/mol
# Density = 3.012006 g / cm^3
# Si number density = 30.188775 Si / 1000 Ang^3
#
#
#
# Elastic Constant Matrix: (Units=GPa)
#
#
# Indices 1 2 3 4 5 6 
#
# 1 189.5247 97.6772 68.5245 0.0000 9.6169 0.0000
# 2 97.6772 235.7877 93.8942 0.0000 -10.1045 0.0000
# 3 68.5245 93.8942 181.5271 0.0000 -8.7624 0.0000
# 4 0.0000 0.0000 0.0000 94.2780 0.0000 -7.9291
# 5 9.6169 -10.1045 -8.7624 0.0000 95.4736 0.0000
# 6 0.0000 0.0000 0.0000 -7.9291 0.0000 67.3482
#
#
#
# Elastic Compliance Matrix: (Units=1/GPa)
#
#
# Indices 1 2 3 4 5 6 
#
# 1 0.007109 -0.002396 -0.001498 0.000000 -0.001107 0.000000
# 2 -0.002396 0.006158 -0.002248 0.000000 0.000687 0.000000
# 3 -0.001498 -0.002248 0.007265 0.000000 0.000580 0.000000
# 4 0.000000 0.000000 0.000000 0.010713 0.000000 0.001261
# 5 -0.001107 0.000687 0.000580 0.000000 0.010712 0.000000
# 6 0.000000 0.000000 0.000000 0.001261 0.000000 0.014997
#
#
# Mechanical properties :
#
#
# Convention : Reuss Voigt Hill
#
# Bulk Modulus (GPa) = 121.22432 125.22571 123.22501
# Shear Modulus (GPa) = 69.45865 74.53620 71.99743
#
# Velocity S-wave (km/s) = 4.80188 4.97430 4.88885
# Velocity P-wave (km/s) = 8.42536 8.63496 8.53080
#
# Compressibility (1/GPa) = 0.00824917
#
# Stress axis : x y z
#
# Youngs Moduli (GPa) = 140.66964 162.38664 137.65090
#
# Poissons Ratio (x) = 0.38907 0.20615
# Poissons Ratio (y) = 0.33704 0.30939
# Poissons Ratio (z) = 0.21067 0.36499
#
# Static dielectric constant tensor:
#      x y z
#    x 2.133800 0.000000 -0.028030 
#    y 0.000000 2.449530 0.000000 
#    z -0.028030 0.000000 2.362120 
# 
# From -- ./inp_files/75854.got.cif
#   From: 2010.05.17/outbox.cif.g08.bks.cpg/sg14_38_cif.got.tgz:75854.got - 2010.06.03 17:49:19.
