data_PCOD9253059
_publ_section_title
;
Structure prediction by ZEFSAII (Michael W. Deem and Ramdas Pophale) SiO2 
 PCOD9253059
Probable space group: P 21/C
;
_chemical_formula_sum "Si O2"
_cell_formula_units_Z 24
_cell_length_a 9.080578
_cell_length_b 11.290119
_cell_length_c 9.293710
_cell_angle_alpha 90.000000
_cell_angle_beta 82.670388
_cell_angle_gamma 90.000000
_cell_volume 945.012981
_symmetry_space_group_name_H-M "P 21/C"
_symmetry_group_IT_number 14
_symmetry_cell_setting 'monoclinic'
loop_
_space_group_symop_operation_xyz
x,y,z
-x,1/2+y,1/2-z
-x,-y,-z
x,1/2-y,1/2+z
loop_
_atom_site_type_symbol
_atom_site_label
_atom_site_fract_x
_atom_site_fract_y
_atom_site_fract_z
Si Si1 0.245750 0.712556 0.162015
Si Si2 0.041205 0.709898 0.944708
Si Si3 0.135526 0.081127 0.945367
Si Si4 0.582645 0.859733 0.650328
Si Si5 0.261195 0.347877 0.173335
Si Si6 0.355271 0.979625 0.115460
O O1 0.143235 0.722790 0.315747
O O2 0.407856 0.663054 0.172204
O O3 0.283753 0.850011 0.111110
O O4 0.155587 0.650557 0.042407
O O5 0.907765 0.653644 0.870164
O O6 0.943633 0.793470 0.060952
O O7 0.236735 0.051158 0.797130
O O8 0.238924 0.075422 0.070333
O O9 0.000000 0.000000 0.000000
O O10 0.639106 0.860026 0.479842
O O11 0.663137 0.755272 0.734757
O O12 0.614205 0.983874 0.725245
O O13 0.500000 0.000000 0.000000
#
# Coordination Sequence:
#
# PCOD9253059 Si02
#       6
#     4   4   4   4   4   4
#     4  12  26  45  69 107 143 187 242 301 363 422
#     4  12  22  44  69 100 142 183 235 295 359 420
#     4  12  24  45  73 103 140 189 240 294 366 433
#     4  12  25  45  73 105 145 191 241 298 360 436
#     4  12  22  45  71 102 141 191 237 293 366 428
#     4  12  25  47  73 104 145 193 240 298 361 433
#
# _framework density 25.396477000000001
#
# number of rings (size 3 to 8) (size 9 to 14) (size 15 to 20)
#    0.000    0.000    6.667    4.000    0.000    0.000 
#    3.000    5.833    0.000    0.000    0.000    0.000 
#    0.000    0.000    0.000    0.000    0.000    0.000 
#
# Total GULP energy -134164.396045 kJ/mol
# GULP energy per Si atom -5590.183169 kJ/mol
# Density = 2.533867 g / cm^3
# Si number density = 25.396477 Si / 1000 Ang^3
#
#
#
# Elastic Constant Matrix: (Units=GPa)
#
#
# Indices 1 2 3 4 5 6 
#
# 1 192.6571 19.2593 51.6441 0.0000 4.8694 0.0000
# 2 19.2593 40.8922 16.2953 0.0000 -2.7823 0.0000
# 3 51.6441 16.2953 166.0424 0.0000 -12.4048 0.0000
# 4 0.0000 0.0000 0.0000 28.1373 0.0000 -7.9561
# 5 4.8694 -2.7823 -12.4048 0.0000 58.6690 0.0000
# 6 0.0000 0.0000 0.0000 -7.9561 0.0000 22.6825
#
#
#
# Elastic Compliance Matrix: (Units=1/GPa)
#
#
# Indices 1 2 3 4 5 6 
#
# 1 0.005883 -0.002163 -0.001688 0.000000 -0.000948 0.000000
# 2 -0.002163 0.026272 -0.001828 0.000000 0.001039 0.000000
# 3 -0.001688 -0.001828 0.006839 0.000000 0.001499 0.000000
# 4 0.000000 0.000000 0.000000 0.039453 0.000000 0.013839
# 5 -0.000948 0.001039 0.001499 0.000000 0.017490 0.000000
# 6 0.000000 0.000000 0.000000 0.013839 0.000000 0.048941
#
#
# Mechanical properties :
#
#
# Convention : Reuss Voigt Hill
#
# Bulk Modulus (GPa) = 36.18411 63.77658 49.98035
# Shear Modulus (GPa) = 30.22086 42.72397 36.47241
#
# Velocity S-wave (km/s) = 3.45333 4.10601 3.79373
# Velocity P-wave (km/s) = 5.49356 6.90261 6.23800
#
# Compressibility (1/GPa) = 0.02763644
#
# Stress axis : x y z
#
# Youngs Moduli (GPa) = 169.97183 38.06297 146.21680
#
# Poissons Ratio (x) = 0.08231 0.24688
# Poissons Ratio (y) = 0.36757 0.26730
# Poissons Ratio (z) = 0.28699 0.06958
#
# Static dielectric constant tensor:
#      x y z
#    x 1.928500 0.000000 0.084140 
#    y 0.000000 2.133280 0.000000 
#    z 0.084140 0.000000 1.993260 
# 
# From -- ./inp_files/8404.got.cif
#   From: 2010.05.17/outbox.cif.g08.bks.cpg/sg14_5_cif.got.tgz:8404.got - 2010.06.03 17:49:19.
