data_PCOD9253749
_publ_section_title
;
Structure prediction by ZEFSAII (Michael W. Deem and Ramdas Pophale) SiO2 
 PCOD9253749
Probable space group: P 21/C
;
_chemical_formula_sum "Si O2"
_cell_formula_units_Z 28
_cell_length_a 30.000000
_cell_length_b 9.000000
_cell_length_c 30.000000
_cell_angle_alpha 90.000000
_cell_angle_beta 10.000000
_cell_angle_gamma 90.000000
_cell_volume 1406.550239
_symmetry_space_group_name_H-M "P 21/C"
_symmetry_group_IT_number 14
_symmetry_cell_setting 'monoclinic'
loop_
_space_group_symop_operation_xyz
x,y,z
-x,1/2+y,1/2-z
-x,-y,-z
x,1/2-y,1/2+z
loop_
_atom_site_type_symbol
_atom_site_label
_atom_site_fract_x
_atom_site_fract_y
_atom_site_fract_z
Si Si1 0.126021 0.530800 0.734535
Si Si2 0.104697 0.277547 0.311311
Si Si3 0.185354 0.066304 0.074201
Si Si4 0.673292 0.590434 0.049301
Si Si5 0.249694 0.395365 0.755757
Si Si6 0.647132 0.792277 0.745348
Si Si7 0.428538 0.560318 0.192434
O O1 0.121507 0.377866 0.767343
O O2 0.125161 0.483636 0.683907
O O3 0.382127 0.624112 0.493851
O O4 0.878795 0.630148 0.990154
O O5 0.179596 0.228303 0.287719
O O6 0.826444 0.350504 0.573429
O O7 0.328229 0.390379 0.076575
O O8 0.933908 0.011268 0.293649
O O9 0.448818 0.984160 0.800134
O O10 0.239419 0.244226 0.020818
O O11 0.531548 0.600427 0.140739
O O12 0.500000 0.500000 0.500000
O O13 0.292834 0.322834 0.761677
O O14 0.000000 0.500000 0.000000
O O15 0.624901 0.616424 0.757530
#
# Coordination Sequence:
#
# PCOD9253749 Si02
#       7
#     4   4   4   4   4   4   4
#     4  12  25  46  72 101 136 191 231 276 356 424
#     4  12  24  46  74  98 146 190 228 287 352 422
#     4  12  28  46  71 103 137 184 232 290 350 418
#     4  12  28  48  70 103 142 180 237 293 348 421
#     4  12  23  43  72 110 138 181 245 292 341 414
#     4  12  26  45  73 106 143 183 237 293 343 417
#     4  12  28  46  68 105 145 185 228 292 361 415
#
# _framework density 19.906860999999999
#
# number of rings (size 3 to 8) (size 9 to 14) (size 15 to 20)
#    0.000    0.000    4.286    5.143    8.000    1.143 
#    0.000    0.000    0.000    0.000    0.000    0.000 
#    0.000    0.000    0.000    0.000    0.000    0.000 
#
# Total GULP energy -156708.842912 kJ/mol
# GULP energy per Si atom -5596.744390 kJ/mol
# Density = 1.986155 g / cm^3
# Si number density = 19.906861 Si / 1000 Ang^3
#
#
#
# Elastic Constant Matrix: (Units=GPa)
#
#
# Indices 1 2 3 4 5 6 
#
# 1 73.7604 11.7846 16.9266 0.0000 -13.1886 0.0000
# 2 11.7846 140.7351 61.9834 0.0000 -10.0636 0.0000
# 3 16.9266 61.9834 182.0431 0.0000 -24.9691 0.0000
# 4 0.0000 0.0000 0.0000 50.4078 0.0000 -7.1046
# 5 -13.1886 -10.0636 -24.9691 0.0000 41.2635 0.0000
# 6 0.0000 0.0000 0.0000 -7.1046 0.0000 35.9604
#
#
#
# Elastic Compliance Matrix: (Units=1/GPa)
#
#
# Indices 1 2 3 4 5 6 
#
# 1 0.014534 -0.000677 -0.000552 0.000000 0.004146 0.000000
# 2 -0.000677 0.008395 -0.002775 0.000000 0.000152 0.000000
# 3 -0.000552 -0.002775 0.006949 0.000000 0.003352 0.000000
# 4 0.000000 0.000000 0.000000 0.020406 0.000000 0.004032
# 5 0.004146 0.000152 0.003352 0.000000 0.027625 0.000000
# 6 0.000000 0.000000 0.000000 0.004032 0.000000 0.028605
#
#
# Mechanical properties :
#
#
# Convention : Reuss Voigt Hill
#
# Bulk Modulus (GPa) = 45.72543 64.21421 54.96982
# Shear Modulus (GPa) = 41.04687 45.91595 43.48141
#
# Velocity S-wave (km/s) = 4.54579 4.80785 4.67866
# Velocity P-wave (km/s) = 7.11139 7.94657 7.54055
#
# Compressibility (1/GPa) = 0.02186967
#
# Stress axis : x y z
#
# Youngs Moduli (GPa) = 68.80594 119.11644 143.90583
#
# Poissons Ratio (x) = 0.08069 0.07944
# Poissons Ratio (y) = 0.04661 0.39928
# Poissons Ratio (z) = 0.03798 0.33050
#
# Static dielectric constant tensor:
#      x y z
#    x 1.741380 0.000000 0.036040 
#    y 0.000000 1.682390 0.000000 
#    z 0.036040 0.000000 1.684480 
# 
# From -- ./inp_files/80892.got.cif
#   From: 2010.05.17/outbox.ucp.g08.bks.cvg/sg14_41_cif.got.tgz:80892.got - 2010.06.11 12:31:08.
