data_PCOD9253010
_publ_section_title
;
Structure prediction by ZEFSAII (Michael W. Deem and Ramdas Pophale) SiO2 
 PCOD9253010
Probable space group: P 21/C
;
_chemical_formula_sum "Si O2"
_cell_formula_units_Z 16
_cell_length_a 11.908088
_cell_length_b 8.254314
_cell_length_c 9.641947
_cell_angle_alpha 90.000000
_cell_angle_beta 144.853028
_cell_angle_gamma 90.000000
_cell_volume 545.589153
_symmetry_space_group_name_H-M "P 21/C"
_symmetry_group_IT_number 14
_symmetry_cell_setting 'monoclinic'
loop_
_space_group_symop_operation_xyz
x,y,z
-x,1/2+y,1/2-z
-x,-y,-z
x,1/2-y,1/2+z
loop_
_atom_site_type_symbol
_atom_site_label
_atom_site_fract_x
_atom_site_fract_y
_atom_site_fract_z
Si Si1 0.932217 0.132469 0.044484
Si Si2 0.363548 0.461291 0.217669
Si Si3 0.399798 0.642212 0.986150
Si Si4 0.196475 0.066142 0.817500
O O1 0.851538 0.053821 0.104326
O O2 0.096332 0.262921 0.244791
O O3 0.755341 0.214803 0.778432
O O4 0.000000 0.000000 0.000000
O O5 0.565246 0.561575 0.447427
O O6 0.178767 0.458782 0.133125
O O7 0.298949 0.548653 0.011207
O O8 0.549765 0.777544 0.192834
O O9 0.500000 0.500000 0.000000
#
# Coordination Sequence:
#
# PCOD9253010 Si02
#       4
#     4   4   4   4
#     4  12  30  54  85 130 179 224 294 368 435 522
#     4  11  29  57  89 122 174 236 294 355 442 529
#     4  12  28  53  88 126 172 230 294 355 435 535
#     4  11  29  57  85 125 175 229 288 365 437 517
#
# _framework density 29.326097000000001
#
# number of rings (size 3 to 8) (size 9 to 14) (size 15 to 20)
#    0.000    0.500    2.500    1.500   14.000    1.000 
#    0.000    0.000    0.000    0.000    0.000    0.000 
#    0.000    0.000    0.000    0.000    0.000    0.000 
#
# Total GULP energy -89789.240564 kJ/mol
# GULP energy per Si atom -5611.827535 kJ/mol
# Density = 2.925935 g / cm^3
# Si number density = 29.326097 Si / 1000 Ang^3
#
#
#
# Elastic Constant Matrix: (Units=GPa)
#
#
# Indices 1 2 3 4 5 6 
#
# 1 333.8654 109.1663 66.8547 0.0000 -31.0431 0.0000
# 2 109.1663 211.9091 59.6834 0.0000 -0.0743 0.0000
# 3 66.8547 59.6834 144.3512 0.0000 -17.5831 0.0000
# 4 0.0000 0.0000 0.0000 51.3803 0.0000 0.3138
# 5 -31.0431 -0.0743 -17.5831 0.0000 58.8026 0.0000
# 6 0.0000 0.0000 0.0000 0.3138 0.0000 66.2045
#
#
#
# Elastic Compliance Matrix: (Units=1/GPa)
#
#
# Indices 1 2 3 4 5 6 
#
# 1 0.003916 -0.001774 -0.000860 0.000000 0.001808 0.000000
# 2 -0.001774 0.006171 -0.001913 0.000000 -0.001501 0.000000
# 3 -0.000860 -0.001913 0.008366 0.000000 0.002045 0.000000
# 4 0.000000 0.000000 0.000000 0.019463 0.000000 -0.000092
# 5 0.001808 -0.001501 0.002045 0.000000 0.018570 0.000000
# 6 0.000000 0.000000 0.000000 -0.000092 0.000000 0.015105
#
#
# Mechanical properties :
#
#
# Convention : Reuss Voigt Hill
#
# Bulk Modulus (GPa) = 106.84645 129.05939 117.95292
# Shear Modulus (GPa) = 59.66302 65.57225 62.61763
#
# Velocity S-wave (km/s) = 4.51540 4.73373 4.62586
# Velocity P-wave (km/s) = 7.98111 8.60125 8.29698
#
# Compressibility (1/GPa) = 0.00935923
#
# Stress axis : x y z
#
# Youngs Moduli (GPa) = 255.38556 162.04164 119.53754
#
# Poissons Ratio (x) = 0.28753 0.10276
# Poissons Ratio (y) = 0.45316 0.22862
# Poissons Ratio (z) = 0.21954 0.30992
#
# Static dielectric constant tensor:
#      x y z
#    x 2.219870 0.000000 -0.151040 
#    y 0.000000 2.288330 0.000000 
#    z -0.151040 0.000000 2.752830 
# 
# From -- ./inp_files/12007.got.cif
#   From: 2010.05.17/outbox.cif.g08.bks.cpg/sg14_7_cif.got.tgz:12007.got - 2010.06.03 17:49:19.
