data_PCOD9253296
_publ_section_title
;
Structure prediction by ZEFSAII (Michael W. Deem and Ramdas Pophale) SiO2 
 PCOD9253296
Probable space group: P 21/C
;
_chemical_formula_sum "Si O2"
_cell_formula_units_Z 16
_cell_length_a 8.214625
_cell_length_b 9.235563
_cell_length_c 8.464799
_cell_angle_alpha 90.000000
_cell_angle_beta 87.186701
_cell_angle_gamma 90.000000
_cell_volume 641.422261
_symmetry_space_group_name_H-M "P 21/C"
_symmetry_group_IT_number 14
_symmetry_cell_setting 'monoclinic'
loop_
_space_group_symop_operation_xyz
x,y,z
-x,1/2+y,1/2-z
-x,-y,-z
x,1/2-y,1/2+z
loop_
_atom_site_type_symbol
_atom_site_label
_atom_site_fract_x
_atom_site_fract_y
_atom_site_fract_z
Si Si1 0.546007 0.872109 0.374449
Si Si2 0.044701 0.661991 0.960455
Si Si3 0.737828 0.865423 0.052437
Si Si4 0.755379 0.344011 0.346926
O O1 0.598384 0.732543 0.474337
O O2 0.398508 0.845242 0.260214
O O3 0.500000 0.000000 0.500000
O O4 0.692459 0.895467 0.237896
O O5 0.090514 0.661223 0.776281
O O6 0.900059 0.771166 0.012924
O O7 0.208365 0.708135 0.044976
O O8 0.000000 0.500000 0.000000
O O9 0.751707 0.015076 0.957357
#
# Coordination Sequence:
#
# PCOD9253296 Si02
#       4
#     4   4   4   4
#     4  12  26  48  77 113 155 204 259 325 390 461
#     4  12  26  47  75 111 154 204 258 320 386 461
#     4  12  27  50  77 113 156 204 260 320 388 468
#     4  12  27  47  75 111 153 206 258 317 387 462
#
# _framework density 24.944565999999998
#
# number of rings (size 3 to 8) (size 9 to 14) (size 15 to 20)
#    0.000    0.000    0.000   10.500    0.000    8.000 
#    0.000    0.000    0.000    0.000    0.000    0.000 
#    0.000    0.000    0.000    0.000    0.000    0.000 
#
# Total GULP energy -89681.965312 kJ/mol
# GULP energy per Si atom -5605.122832 kJ/mol
# Density = 2.488779 g / cm^3
# Si number density = 24.944566 Si / 1000 Ang^3
#
#
#
# Elastic Constant Matrix: (Units=GPa)
#
#
# Indices 1 2 3 4 5 6 
#
# 1 128.6919 70.6861 57.2009 0.0000 4.0170 0.0000
# 2 70.6861 151.4378 92.4972 0.0000 12.6065 0.0000
# 3 57.2009 92.4972 237.5948 0.0000 -29.4949 0.0000
# 4 0.0000 0.0000 0.0000 62.7701 0.0000 -1.8470
# 5 4.0170 12.6065 -29.4949 0.0000 60.2590 0.0000
# 6 0.0000 0.0000 0.0000 -1.8470 0.0000 48.8747
#
#
#
# Elastic Compliance Matrix: (Units=1/GPa)
#
#
# Indices 1 2 3 4 5 6 
#
# 1 0.010572 -0.004391 -0.000861 0.000000 -0.000208 0.000000
# 2 -0.004391 0.011332 -0.003846 0.000000 -0.003960 0.000000
# 3 -0.000861 -0.003846 0.006410 0.000000 0.004000 0.000000
# 4 0.000000 0.000000 0.000000 0.015949 0.000000 0.000603
# 5 -0.000208 -0.003960 0.004000 0.000000 0.019395 0.000000
# 6 0.000000 0.000000 0.000000 0.000603 0.000000 0.020483
#
#
# Mechanical properties :
#
#
# Convention : Reuss Voigt Hill
#
# Bulk Modulus (GPa) = 98.84911 106.49922 102.67416
# Shear Modulus (GPa) = 47.29915 54.20345 50.75130
#
# Velocity S-wave (km/s) = 4.35923 4.66656 4.51551
# Velocity P-wave (km/s) = 8.06540 8.47483 8.27265
#
# Compressibility (1/GPa) = 0.01011643
#
# Stress axis : x y z
#
# Youngs Moduli (GPa) = 94.59173 88.24719 156.00528
#
# Poissons Ratio (x) = 0.38750 0.13439
# Poissons Ratio (y) = 0.41536 0.60000
# Poissons Ratio (z) = 0.08149 0.33940
#
# Static dielectric constant tensor:
#      x y z
#    x 2.098690 0.000000 -0.072950 
#    y 0.000000 1.877980 0.000000 
#    z -0.072950 0.000000 2.131390 
# 
# From -- ./inp_files/7607.got.cif
#   From: 2010.05.17/outbox.cif.g08.bks.cpg/sg14_4_cif.got.tgz:7607.got - 2010.06.03 17:49:19.
