data_PCOD9253154
_publ_section_title
;
Structure prediction by ZEFSAII (Michael W. Deem and Ramdas Pophale) SiO2 
 PCOD9253154
Probable space group: P 21/C
;
_chemical_formula_sum "Si O2"
_cell_formula_units_Z 16
_cell_length_a 12.502915
_cell_length_b 4.722817
_cell_length_c 21.043196
_cell_angle_alpha 90.000000
_cell_angle_beta 31.659197
_cell_angle_gamma 90.000000
_cell_volume 652.187123
_symmetry_space_group_name_H-M "P 21/C"
_symmetry_group_IT_number 14
_symmetry_cell_setting 'monoclinic'
loop_
_space_group_symop_operation_xyz
x,y,z
-x,1/2+y,1/2-z
-x,-y,-z
x,1/2-y,1/2+z
loop_
_atom_site_type_symbol
_atom_site_label
_atom_site_fract_x
_atom_site_fract_y
_atom_site_fract_z
Si Si1 0.347335 0.055055 0.460442
Si Si2 0.374309 0.446938 0.675419
Si Si3 0.865547 0.575561 0.322895
Si Si4 0.001939 0.760423 0.549215
O O1 0.500181 0.297538 0.354375
O O2 0.231953 0.247827 0.570471
O O3 0.485294 0.809468 0.419806
O O4 0.196016 0.865006 0.493576
O O5 0.273202 0.559697 0.661790
O O6 0.203439 0.300644 0.805708
O O7 0.000127 0.317219 0.279489
O O8 0.000000 0.500000 0.500000
O O9 0.000000 0.000000 0.500000
#
# Coordination Sequence:
#
# PCOD9253154 Si02
#       4
#     4   4   4   4
#     4  12  26  47  77 113 153 200 259 316 393 465
#     4  12  26  47  77 113 152 203 255 320 391 461
#     4  12  24  44  78 112 161 201 246 316 399 462
#     4  12  28  50  76 106 152 207 264 322 378 450
#
# _framework density 24.532838000000002
#
# number of rings (size 3 to 8) (size 9 to 14) (size 15 to 20)
#    0.000    0.000    2.500    7.500    3.500    4.000 
#    0.000    0.000    0.000    0.000    0.000    0.000 
#    0.000    0.000    0.000    0.000    0.000    0.000 
#
# Total GULP energy -89272.795747 kJ/mol
# GULP energy per Si atom -5579.549734 kJ/mol
# Density = 2.447700 g / cm^3
# Si number density = 24.532838 Si / 1000 Ang^3
#
#
#
# Elastic Constant Matrix: (Units=GPa)
#
#
# Indices 1 2 3 4 5 6 
#
# 1 111.9292 42.8292 63.9274 0.0000 3.8293 0.0000
# 2 42.8292 183.9492 44.6617 0.0000 -9.8860 0.0000
# 3 63.9274 44.6617 96.0586 0.0000 -2.6931 0.0000
# 4 0.0000 0.0000 0.0000 45.5459 0.0000 3.0404
# 5 3.8293 -9.8860 -2.6931 0.0000 28.5941 0.0000
# 6 0.0000 0.0000 0.0000 3.0404 0.0000 56.8778
#
#
#
# Elastic Compliance Matrix: (Units=1/GPa)
#
#
# Indices 1 2 3 4 5 6 
#
# 1 0.014945 -0.001378 -0.009400 0.000000 -0.003363 0.000000
# 2 -0.001378 0.006355 -0.001976 0.000000 0.002196 0.000000
# 3 -0.009400 -0.001976 0.017647 0.000000 0.002238 0.000000
# 4 0.000000 0.000000 0.000000 0.022035 0.000000 -0.001178
# 5 -0.003363 0.002196 0.002238 0.000000 0.036393 0.000000
# 6 0.000000 0.000000 0.000000 -0.001178 0.000000 0.017645
#
#
# Mechanical properties :
#
#
# Convention : Reuss Voigt Hill
#
# Bulk Modulus (GPa) = 74.40562 77.19707 75.80134
# Shear Modulus (GPa) = 34.48132 42.23812 38.35972
#
# Velocity S-wave (km/s) = 3.75309 4.15384 3.95854
# Velocity P-wave (km/s) = 7.01254 7.38518 7.20127
#
# Compressibility (1/GPa) = 0.01343985
#
# Stress axis : x y z
#
# Youngs Moduli (GPa) = 66.91136 157.35843 56.66649
#
# Poissons Ratio (x) = 0.21689 0.53264
# Poissons Ratio (y) = 0.09222 0.11196
# Poissons Ratio (z) = 0.62893 0.31091
#
# Static dielectric constant tensor:
#      x y z
#    x 1.799830 0.000000 -0.000600 
#    y 0.000000 1.854280 0.000000 
#    z -0.000600 0.000000 2.051140 
# 
# From -- ./inp_files/66199.got.cif
#   From: 2010.05.17/outbox.cif.g08.bks.cpg/sg14_34_cif.got.tgz:66199.got - 2010.06.03 17:49:19.
