data_PCOD9253950
_publ_section_title
;
Structure prediction by ZEFSAII (Michael W. Deem and Ramdas Pophale) SiO2 
 PCOD9253950
Probable space group: C 2/C
;
_chemical_formula_sum "Si O2"
_cell_formula_units_Z 56
_cell_length_a 16.205301
_cell_length_b 12.870564
_cell_length_c 13.699452
_cell_angle_alpha 90.000000
_cell_angle_beta 57.245470
_cell_angle_gamma 90.000000
_cell_volume 2402.989811
_symmetry_space_group_name_H-M "C 2/C"
_symmetry_group_IT_number 15
_symmetry_cell_setting 'monoclinic'
loop_
_space_group_symop_operation_xyz
x,y,z
-x,y,1/2-z
-x,-y,-z
x,-y,1/2+z
1/2+x,1/2+y,z
1/2-x,1/2+y,1/2-z
1/2-x,1/2-y,-z
1/2+x,1/2-y,1/2+z
loop_
_atom_site_type_symbol
_atom_site_label
_atom_site_fract_x
_atom_site_fract_y
_atom_site_fract_z
Si Si1 0.835864 0.706658 0.217332
Si Si2 0.161245 0.078180 0.869941
Si Si3 0.289136 0.516854 0.441742
Si Si4 0.571756 0.414618 0.791789
Si Si5 0.639888 0.287980 0.095098
Si Si6 0.899174 0.257997 0.091707
Si Si7 0.351523 0.983688 0.121081
O O1 0.860237 0.801128 0.129740
O O2 0.886304 0.729540 0.289252
O O3 0.716388 0.719737 0.314945
O O4 0.870098 0.596218 0.154299
O O5 0.083007 0.002323 0.867680
O O6 0.255874 0.054195 0.742624
O O7 0.189878 0.050388 0.962005
O O8 0.328324 0.596997 0.335363
O O9 0.348226 0.409393 0.389603
O O10 0.179642 0.493468 0.473171
O O11 0.500000 0.440470 0.750000
O O12 0.544157 0.310469 0.865867
O O13 0.750000 0.250000 0.000000
O O14 0.581781 0.270989 0.032805
O O15 0.916998 0.381039 0.091016
#
# Coordination Sequence:
#
# PCOD9253950 Si02
#       7
#     8   8   8   8   8   8   8
#     4  10  17  31  49  78 107 129 155 213 265 308
#     4  10  19  32  49  75 109 128 167 212 258 308
#     4  11  18  31  50  79 103 134 165 211 260 304
#     4  11  22  36  51  71 104 138 177 214 245 291
#     4  10  15  27  53  72 100 133 165 200 256 312
#     4  10  18  32  48  75 100 134 170 206 246 311
#     4  10  19  30  50  78 108 130 161 206 264 311
#
# _framework density 23.304303000000001
#
# number of rings (size 3 to 8) (size 9 to 14) (size 15 to 20)
#    0.000    1.714   10.000    0.857    0.000    1.143 
#    0.000    0.000    0.000    0.857    0.000    2.000 
#    0.000    0.000    0.000    0.000    0.000    0.000 
#
# Total GULP energy -156265.719798 kJ/mol
# GULP energy per Si atom -5580.918564 kJ/mol
# Density = 2.325126 g / cm^3
# Si number density = 23.304303 Si / 1000 Ang^3
#
#
#
# Elastic Constant Matrix: (Units=GPa)
#
#
# Indices 1 2 3 4 5 6 
#
# 1 26.4987 20.4831 37.4443 0.0000 9.0226 0.0000
# 2 20.4831 190.4655 53.2948 0.0000 38.8568 0.0000
# 3 37.4443 53.2948 121.8404 0.0000 43.0266 0.0000
# 4 0.0000 0.0000 0.0000 29.8141 0.0000 16.4834
# 5 9.0226 38.8568 43.0266 0.0000 45.5942 0.0000
# 6 0.0000 0.0000 0.0000 16.4834 0.0000 5.1845
#
#
#
# Elastic Compliance Matrix: (Units=1/GPa)
#
#
# Indices 1 2 3 4 5 6 
#
# 1 0.070902 -0.003165 -0.024601 0.000000 0.011883 0.000000
# 2 -0.003165 0.006637 -0.000231 0.000000 -0.004812 0.000000
# 3 -0.024601 -0.000231 0.021118 0.000000 -0.014863 0.000000
# 4 0.000000 0.000000 0.000000 -0.044263 0.000000 0.140727
# 5 0.011883 -0.004812 -0.014863 0.000000 0.037708 0.000000
# 6 0.000000 0.000000 0.000000 0.140727 0.000000 -0.254537
#
#
# Mechanical properties :
#
#
# Convention : Reuss Voigt Hill
#
# Bulk Modulus (GPa) = 23.44068 62.36098 42.90083
# Shear Modulus (GPa) = -54.21847 31.29072 -11.46387
#
# Velocity S-wave (km/s) = -4.82866 3.66826 -2.22034
# Velocity P-wave (km/s) = 4.58340 6.69022 3.44612
#
# Compressibility (1/GPa) = 0.04266087
#
# Stress axis : x y z
#
# Youngs Moduli (GPa) = 14.10405 150.66985 47.35306
#
# Poissons Ratio (x) = 0.47692 1.16495
# Poissons Ratio (y) = 0.04464 0.01094
# Poissons Ratio (z) = 0.34698 0.03482
#
# Static dielectric constant tensor:
#      x y z
#    x 2.086770 0.000000 -0.092940 
#    y 0.000000 1.886110 0.000000 
#    z -0.092940 0.000000 1.901170 
# 
# From -- ./inp_files/167211.got.cif
#   From: 2010.05.17/outbox.cif.g08.bks.cpg/sg15_84_cif.got.tgz:167211.got - 2010.06.03 18:47:42.
