data_PCOD9253308
_publ_section_title
;
Structure prediction by ZEFSAII (Michael W. Deem and Ramdas Pophale) SiO2 
 PCOD9253308
Probable space group: P 21/C
;
_chemical_formula_sum "Si O2"
_cell_formula_units_Z 16
_cell_length_a 5.383201
_cell_length_b 4.746594
_cell_length_c 25.025222
_cell_angle_alpha 90.000000
_cell_angle_beta 61.798973
_cell_angle_gamma 90.000000
_cell_volume 563.536328
_symmetry_space_group_name_H-M "P 21/C"
_symmetry_group_IT_number 14
_symmetry_cell_setting 'monoclinic'
loop_
_space_group_symop_operation_xyz
x,y,z
-x,1/2+y,1/2-z
-x,-y,-z
x,1/2-y,1/2+z
loop_
_atom_site_type_symbol
_atom_site_label
_atom_site_fract_x
_atom_site_fract_y
_atom_site_fract_z
Si Si1 0.500000 0.500000 0.500000
Si Si2 0.945516 0.038033 0.289306
Si Si3 0.368725 0.214447 0.396644
Si Si4 0.500000 0.500000 0.000000
Si Si5 0.047639 0.722237 0.386453
O O1 0.264205 0.754665 0.511832
O O2 0.723219 0.746846 0.441157
O O3 0.870499 0.788607 0.255009
O O4 0.064239 0.857939 0.326518
O O5 0.677184 0.204710 0.339184
O O6 0.180614 0.418584 0.379826
O O7 0.419398 0.264919 0.455014
O O8 0.247154 0.907235 0.402526
#
# Coordination Sequence:
#
# PCOD9253308 Si02
#       5
#     2   4   4   2   4
#     4  12  26  48  78 118 162 200 258 324 402 486
#     4  12  28  54  82 112 162 208 280 340 386 470
#     4  12  28  51  82 117 160 211 261 324 410 478
#     4  12  26  48  78 118 162 200 258 324 402 486
#     4  12  28  51  82 117 160 211 261 324 410 478
#
# _framework density 28.392136000000001
#
# number of rings (size 3 to 8) (size 9 to 14) (size 15 to 20)
#    0.000    0.000    2.500    6.000    3.500   10.000 
#    0.000    0.000    0.000    0.000    0.000    0.000 
#    0.000    0.000    0.000    0.000    0.000    0.000 
#
# Total GULP energy -89334.142178 kJ/mol
# GULP energy per Si atom -5583.383886 kJ/mol
# Density = 2.832751 g / cm^3
# Si number density = 28.392136 Si / 1000 Ang^3
#
#
#
# Elastic Constant Matrix: (Units=GPa)
#
#
# Indices 1 2 3 4 5 6 
#
# 1 76.5814 -5.2829 41.7973 0.0000 14.8345 0.0000
# 2 -5.2829 260.0040 45.9656 0.0000 9.1972 0.0000
# 3 41.7973 45.9656 156.0940 0.0000 38.2566 0.0000
# 4 0.0000 0.0000 0.0000 51.3505 0.0000 6.8367
# 5 14.8345 9.1972 38.2566 0.0000 26.8343 0.0000
# 6 0.0000 0.0000 0.0000 6.8367 0.0000 77.3408
#
#
#
# Elastic Compliance Matrix: (Units=1/GPa)
#
#
# Indices 1 2 3 4 5 6 
#
# 1 0.015873 0.001099 -0.003583 0.000000 -0.004043 0.000000
# 2 0.001099 0.004137 -0.001562 0.000000 0.000201 0.000000
# 3 -0.003583 -0.001562 0.011081 0.000000 -0.013282 0.000000
# 4 0.000000 0.000000 0.000000 0.019706 0.000000 -0.001742
# 5 -0.004043 0.000201 -0.013282 0.000000 0.058367 0.000000
# 6 0.000000 0.000000 0.000000 -0.001742 0.000000 0.013084
#
#
# Mechanical properties :
#
#
# Convention : Reuss Voigt Hill
#
# Bulk Modulus (GPa) = 43.47983 73.07105 58.27544
# Shear Modulus (GPa) = 36.23039 58.45172 47.34106
#
# Velocity S-wave (km/s) = 3.57609 4.54224 4.08781
# Velocity P-wave (km/s) = 5.69197 7.30079 6.54599
#
# Compressibility (1/GPa) = 0.02299917
#
# Stress axis : x y z
#
# Youngs Moduli (GPa) = 63.00202 241.69542 90.24568
#
# Poissons Ratio (x) = -0.26561 0.32333
# Poissons Ratio (y) = -0.06923 0.14096
# Poissons Ratio (z) = 0.22572 0.37752
#
# Static dielectric constant tensor:
#      x y z
#    x 2.120620 0.000000 0.045330 
#    y 0.000000 2.558630 0.000000 
#    z 0.045330 0.000000 2.396910 
# 
# From -- ./inp_files/70804.got.cif
#   From: 2010.05.17/outbox.cif.g08.bks.cpg/sg14_36_cif.got.tgz:70804.got - 2010.06.03 17:49:19.
