data_PCOD9253612
_publ_section_title
;
Structure prediction by ZEFSAII (Michael W. Deem and Ramdas Pophale) SiO2 
 PCOD9253612
Probable space group: P 21/C
;
_chemical_formula_sum "Si O2"
_cell_formula_units_Z 28
_cell_length_a 6.000000
_cell_length_b 18.000000
_cell_length_c 15.000000
_cell_angle_alpha 90.000000
_cell_angle_beta 60.000000
_cell_angle_gamma 90.000000
_cell_volume 1402.961154
_symmetry_space_group_name_H-M "P 21/C"
_symmetry_group_IT_number 14
_symmetry_cell_setting 'monoclinic'
loop_
_space_group_symop_operation_xyz
x,y,z
-x,1/2+y,1/2-z
-x,-y,-z
x,1/2-y,1/2+z
loop_
_atom_site_type_symbol
_atom_site_label
_atom_site_fract_x
_atom_site_fract_y
_atom_site_fract_z
Si Si1 0.232180 0.854119 0.317675
Si Si2 0.110999 0.847506 0.126647
Si Si3 0.335170 0.031001 0.793746
Si Si4 0.444380 0.699904 0.250792
Si Si5 0.004495 0.319679 0.933450
Si Si6 0.927816 0.405449 0.766281
Si Si7 0.510658 0.089061 0.095396
O O1 0.121872 0.847801 0.235096
O O2 0.391315 0.930948 0.285627
O O3 0.429927 0.785822 0.275828
O O4 0.082189 0.839720 0.445270
O O5 0.872647 0.902943 0.152750
O O6 0.084053 0.763284 0.087939
O O7 0.355248 0.886568 0.024834
O O8 0.362509 0.981668 0.878749
O O9 0.248645 0.974321 0.731772
O O10 0.685412 0.683586 0.138376
O O11 0.459582 0.656658 0.340716
O O12 0.189429 0.668459 0.255315
O O13 0.935504 0.382653 0.870418
O O14 0.202586 0.422692 0.664259
#
# Coordination Sequence:
#
# PCOD9253612 Si02
#       7
#     4   4   4   4   4   4   4
#     4  12  25  41  68 107 135 177 233 282 339 417
#     4  12  24  42  72 105 137 181 232 289 345 402
#     4  11  25  44  67 103 144 178 232 281 349 411
#     4  10  21  43  68  99 132 178 225 279 338 406
#     4  11  24  44  70 102 140 178 231 286 345 407
#     4  10  23  46  70  97 138 189 223 282 349 404
#     4  10  23  44  70  97 140 182 224 279 348 409
#
# _framework density 19.957787
#
# number of rings (size 3 to 8) (size 9 to 14) (size 15 to 20)
#    0.000    1.143    4.286    1.286    0.000    7.429 
#    0.000   10.000    0.000    0.000    0.000    0.000 
#    0.000    0.000    0.000    0.000    0.000    0.000 
#
# Total GULP energy -155948.391210 kJ/mol
# GULP energy per Si atom -5569.585400 kJ/mol
# Density = 1.991236 g / cm^3
# Si number density = 19.957787 Si / 1000 Ang^3
#
#
#
# Elastic Constant Matrix: (Units=GPa)
#
#
# Indices 1 2 3 4 5 6 
#
# 1 73.1368 26.4388 36.3123 0.0000 1.0509 0.0000
# 2 26.4388 107.7950 24.6454 0.0000 -0.3837 0.0000
# 3 36.3123 24.6454 170.7350 0.0000 5.1623 0.0000
# 4 0.0000 0.0000 0.0000 36.2301 0.0000 -2.2119
# 5 1.0509 -0.3837 5.1623 0.0000 29.2956 0.0000
# 6 0.0000 0.0000 0.0000 -2.2119 0.0000 41.7647
#
#
#
# Elastic Compliance Matrix: (Units=1/GPa)
#
#
# Indices 1 2 3 4 5 6 
#
# 1 0.016366 -0.003329 -0.002997 0.000000 -0.000103 0.000000
# 2 -0.003329 0.010275 -0.000787 0.000000 0.000393 0.000000
# 3 -0.002997 -0.000787 0.006640 0.000000 -0.001073 0.000000
# 4 0.000000 0.000000 0.000000 0.027691 0.000000 0.001467
# 5 -0.000103 0.000393 -0.001073 0.000000 0.034333 0.000000
# 6 0.000000 0.000000 0.000000 0.001467 0.000000 0.024021
#
#
# Mechanical properties :
#
#
# Convention : Reuss Voigt Hill
#
# Bulk Modulus (GPa) = 52.48037 58.49554 55.48795
# Shear Modulus (GPa) = 35.73869 39.07609 37.40739
#
# Velocity S-wave (km/s) = 4.23627 4.42966 4.33404
# Velocity P-wave (km/s) = 7.09090 7.45223 7.27381
#
# Compressibility (1/GPa) = 0.01905474
#
# Stress axis : x y z
#
# Youngs Moduli (GPa) = 61.10209 97.32603 150.59109
#
# Poissons Ratio (x) = 0.32402 0.45134
# Poissons Ratio (y) = 0.20342 0.11851
# Poissons Ratio (z) = 0.18313 0.07659
#
# Static dielectric constant tensor:
#      x y z
#    x 1.794960 0.000000 0.002460 
#    y 0.000000 1.737220 0.000000 
#    z 0.002460 0.000000 1.687850 
# 
# From -- ./inp_files/37810.got.cif
#   From: 2010.05.17/outbox.ucp.g08.bks.cvg/sg14_19_cif.got.tgz:37810.got - 2010.06.11 12:31:08.
