data_PCOD9253981
_publ_section_title
;
Structure prediction by ZEFSAII (Michael W. Deem and Ramdas Pophale) SiO2 
 PCOD9253981
Probable space group: C 2/C
;
_chemical_formula_sum "Si O2"
_cell_formula_units_Z 56
_cell_length_a 21.710381
_cell_length_b 13.820452
_cell_length_c 25.359542
_cell_angle_alpha 90.000000
_cell_angle_beta 162.272326
_cell_angle_gamma 90.000000
_cell_volume 2316.907224
_symmetry_space_group_name_H-M "C 2/C"
_symmetry_group_IT_number 15
_symmetry_cell_setting 'monoclinic'
loop_
_space_group_symop_operation_xyz
x,y,z
-x,y,1/2-z
-x,-y,-z
x,-y,1/2+z
1/2+x,1/2+y,z
1/2-x,1/2+y,1/2-z
1/2-x,1/2-y,-z
1/2+x,1/2-y,1/2+z
loop_
_atom_site_type_symbol
_atom_site_label
_atom_site_fract_x
_atom_site_fract_y
_atom_site_fract_z
Si Si1 0.857687 0.278464 0.005611
Si Si2 0.961067 0.619961 0.381543
Si Si3 0.130276 0.094625 0.728686
Si Si4 0.159905 0.388027 0.837107
Si Si5 0.891937 0.614770 0.724550
Si Si6 0.702168 0.434615 0.173203
Si Si7 0.272737 0.365057 0.703535
O O1 0.887028 0.361220 0.073054
O O2 0.039224 0.202814 0.154235
O O3 0.674515 0.205560 0.863844
O O4 0.869271 0.335193 0.960238
O O5 0.895572 0.646956 0.268168
O O6 0.890506 0.508134 0.328222
O O7 0.829370 0.657729 0.323587
O O8 0.197730 0.629729 0.590038
O O9 0.180544 0.123443 0.709361
O O10 0.896409 0.125481 0.545410
O O11 0.158718 0.977232 0.746956
O O12 0.134260 0.505607 0.815178
O O13 0.000000 0.350242 0.750000
O O14 0.739834 0.623467 0.650945
O O15 0.500000 0.500000 0.000000
#
# Coordination Sequence:
#
# PCOD9253981 Si02
#       7
#     8   8   8   8   8   8   8
#     4  10  19  28  52  74 113 142 163 202 257 319
#     4  10  20  33  54  80 104 132 175 220 274 320
#     4  11  19  33  56  76 107 138 172 223 274 313
#     4  11  23  38  54  73 101 142 186 230 267 295
#     4  10  18  33  47  73 108 137 173 210 254 312
#     4  10  15  29  53  78 103 132 159 213 278 320
#     4  10  18  32  49  84 110 136 167 204 264 333
#
# _framework density 24.170152000000002
#
# number of rings (size 3 to 8) (size 9 to 14) (size 15 to 20)
#    0.000    1.714    4.286    5.143    0.000    0.571 
#    0.000    0.714    0.000    0.000    0.000    1.000 
#    0.000    0.000    0.000    0.000    0.000    0.000 
#
# Total GULP energy -156252.922599 kJ/mol
# GULP energy per Si atom -5580.461521 kJ/mol
# Density = 2.411514 g / cm^3
# Si number density = 24.170152 Si / 1000 Ang^3
#
#
#
# Elastic Constant Matrix: (Units=GPa)
#
#
# Indices 1 2 3 4 5 6 
#
# 1 123.9462 -3.9501 50.6520 0.0133 20.5838 0.0265
# 2 -3.9501 57.8832 8.9838 0.0258 0.7310 0.0206
# 3 50.6520 8.9838 149.1526 0.0013 1.8685 -0.0297
# 4 0.0133 0.0258 0.0013 23.1435 -0.0529 -12.6019
# 5 20.5838 0.7310 1.8685 -0.0529 27.0597 -0.0551
# 6 0.0265 0.0206 -0.0297 -12.6019 -0.0551 -18.3512
#
#
#
# Elastic Compliance Matrix: (Units=1/GPa)
#
#
# Indices 1 2 3 4 5 6 
#
# 1 0.010982 0.001429 -0.003714 0.000000 -0.008136 0.000048
# 2 0.001429 0.017629 -0.001529 -0.000006 -0.001457 0.000033
# 3 -0.003714 -0.001529 0.008029 -0.000004 0.002312 -0.000024
# 4 0.000000 -0.000006 -0.000004 0.031449 0.000018 -0.021596
# 5 -0.008136 -0.001457 0.002312 0.000018 0.043024 -0.000159
# 6 0.000048 0.000033 -0.000024 -0.021596 -0.000159 -0.039661
#
#
# Mechanical properties :
#
#
# Convention : Reuss Voigt Hill
#
# Bulk Modulus (GPa) = 34.46758 49.15038 41.80898
# Shear Modulus (GPa) = 56.33756 24.72350 40.53053
#
# Velocity S-wave (km/s) = 4.83315 3.20174 4.09942
# Velocity P-wave (km/s) = 6.74071 5.83502 6.30415
#
# Compressibility (1/GPa) = 0.02901277
#
# Stress axis : x y z
#
# Youngs Moduli (GPa) = 91.05527 56.72371 124.55123
#
# Poissons Ratio (x) = -0.08103 0.46255
# Poissons Ratio (y) = -0.13008 0.19041
# Poissons Ratio (z) = 0.33815 0.08672
#
# Static dielectric constant tensor:
#      x y z
#    x 1.995350 -0.000040 -0.100030 
#    y -0.000040 1.955860 -0.000090 
#    z -0.100030 -0.000090 2.140970 
# 
# From -- ./inp_files/280458.got.cif
#   From: 2010.05.17/outbox.cif.g08.bks.cpg/sg15_141_cif.got.tgz:280458.got - 2010.06.03 18:47:42.
