data_PCOD9253912
_publ_section_title
;
Structure prediction by ZEFSAII (Michael W. Deem and Ramdas Pophale) SiO2 
 PCOD9253912
Probable space group: C 2/C
;
_chemical_formula_sum "Si O2"
_cell_formula_units_Z 44
_cell_length_a 13.467573
_cell_length_b 5.331024
_cell_length_c 25.667886
_cell_angle_alpha 90.000000
_cell_angle_beta 93.833004
_cell_angle_gamma 90.000000
_cell_volume 1838.728163
_symmetry_space_group_name_H-M "C 2/C"
_symmetry_group_IT_number 15
_symmetry_cell_setting 'monoclinic'
loop_
_space_group_symop_operation_xyz
x,y,z
-x,y,1/2-z
-x,-y,-z
x,-y,1/2+z
1/2+x,1/2+y,z
1/2-x,1/2+y,1/2-z
1/2-x,1/2-y,-z
1/2+x,1/2-y,1/2+z
loop_
_atom_site_type_symbol
_atom_site_label
_atom_site_fract_x
_atom_site_fract_y
_atom_site_fract_z
Si Si1 0.000000 0.216922 0.750000
Si Si2 0.878058 0.496154 0.001049
Si Si3 0.709865 0.020523 0.274300
Si Si4 0.137820 0.455898 0.878208
Si Si5 0.483042 0.455238 0.643210
Si Si6 0.097397 0.004243 0.041810
O O1 0.096381 0.388033 0.762087
O O2 0.980375 0.041458 0.799152
O O3 0.850697 0.493339 0.060403
O O4 0.844820 0.746609 0.971230
O O5 0.000000 0.500000 0.000000
O O6 0.846553 0.249639 0.969447
O O7 0.770981 0.248185 0.249856
O O8 0.722893 0.012641 0.337521
O O9 0.099894 0.168934 0.872435
O O10 0.058435 0.673120 0.859248
O O11 0.560260 0.483006 0.599121
O O12 0.000000 0.000000 0.000000
#
# Coordination Sequence:
#
# PCOD9253912 Si02
#       6
#     4   8   8   8   8   8
#     4  10  26  42  66  94 130 168 220 262 320 384
#     4  10  15  26  45  81 118 142 196 261 293 362
#     4  11  25  44  64  92 128 171 218 264 316 380
#     4  11  19  32  56  83 122 158 202 259 311 366
#     4  11  19  32  52  86 123 157 200 260 304 370
#     4  10  15  25  46  77 120 145 193 256 299 355
#
# _framework density 23.929584999999999
#
# number of rings (size 3 to 8) (size 9 to 14) (size 15 to 20)
#    0.000    1.455    7.273    2.182    0.000    6.545 
#    0.000    0.000    0.000    0.000    0.000    7.636 
#    0.000    0.000    0.000    0.000    0.000    0.000 
#
# Total GULP energy -123044.551938 kJ/mol
# GULP energy per Si atom -5592.934179 kJ/mol
# Density = 2.387512 g / cm^3
# Si number density = 23.929585 Si / 1000 Ang^3
#
#
#
# Elastic Constant Matrix: (Units=GPa)
#
#
# Indices 1 2 3 4 5 6 
#
# 1 74.6068 -3.6549 22.0679 0.0000 -1.4941 0.0000
# 2 -3.6549 143.3485 40.7270 0.0000 -11.5532 0.0000
# 3 22.0679 40.7270 232.0673 0.0000 -46.9492 0.0000
# 4 0.0000 0.0000 0.0000 45.5477 0.0000 -9.8873
# 5 -1.4941 -11.5532 -46.9492 0.0000 30.2446 0.0000
# 6 0.0000 0.0000 0.0000 -9.8873 0.0000 20.3426
#
#
#
# Elastic Compliance Matrix: (Units=1/GPa)
#
#
# Indices 1 2 3 4 5 6 
#
# 1 0.013944 0.000725 -0.001834 0.000000 -0.001881 0.000000
# 2 0.000725 0.007408 -0.001151 0.000000 0.001080 0.000000
# 3 -0.001834 -0.001151 0.006674 0.000000 0.009830 0.000000
# 4 0.000000 0.000000 0.000000 0.024545 0.000000 0.011930
# 5 -0.001881 0.001080 0.009830 0.000000 0.048643 0.000000
# 6 0.000000 0.000000 0.000000 0.011930 0.000000 0.054956
#
#
# Mechanical properties :
#
#
# Convention : Reuss Voigt Hill
#
# Bulk Modulus (GPa) = 42.53954 63.14474 52.84214
# Shear Modulus (GPa) = 29.66921 45.28580 37.47751
#
# Velocity S-wave (km/s) = 3.52498 4.35496 3.96176
# Velocity P-wave (km/s) = 5.86369 7.19254 6.56184
#
# Compressibility (1/GPa) = 0.02350754
#
# Stress axis : x y z
#
# Youngs Moduli (GPa) = 71.71630 134.98155 149.83191
#
# Poissons Ratio (x) = -0.09785 0.27474
# Poissons Ratio (y) = -0.05199 0.17241
# Poissons Ratio (z) = 0.13150 0.15532
#
# Static dielectric constant tensor:
#      x y z
#    x 1.367340 0.000000 -0.415020 
#    y 0.000000 1.729470 0.000000 
#    z -0.415020 0.000000 1.612740 
# 
# From -- ./inp_files/294236.got.cif
#   From: 2010.05.17/outbox.cif.g08.bks.cpg/sg15_148_cif.got.tgz:294236.got - 2010.06.03 18:47:42.
