data_PCOD9253592
_publ_section_title
;
Structure prediction by ZEFSAII (Michael W. Deem and Ramdas Pophale) SiO2 
 PCOD9253592
Probable space group: P 21/C
;
_chemical_formula_sum "Si O2"
_cell_formula_units_Z 32
_cell_length_a 9.000000
_cell_length_b 9.000000
_cell_length_c 27.000000
_cell_angle_alpha 90.000000
_cell_angle_beta 50.000000
_cell_angle_gamma 90.000000
_cell_volume 1675.339197
_symmetry_space_group_name_H-M "P 21/C"
_symmetry_group_IT_number 14
_symmetry_cell_setting 'monoclinic'
loop_
_space_group_symop_operation_xyz
x,y,z
-x,1/2+y,1/2-z
-x,-y,-z
x,1/2-y,1/2+z
loop_
_atom_site_type_symbol
_atom_site_label
_atom_site_fract_x
_atom_site_fract_y
_atom_site_fract_z
Si Si1 0.918015 0.435944 0.965749
Si Si2 0.168825 0.930394 0.928997
Si Si3 0.792274 0.785633 0.135864
Si Si4 0.121400 0.207909 0.181304
Si Si5 0.884137 0.181464 0.641515
Si Si6 0.445107 0.811126 0.418658
Si Si7 0.095454 0.407865 0.284289
Si Si8 0.531610 0.001267 0.686209
O O1 0.040457 0.287382 0.932851
O O2 0.986657 0.549855 0.909419
O O3 0.692172 0.394395 0.012634
O O4 0.000000 0.500000 0.000000
O O5 0.096112 0.819599 0.900836
O O6 0.320281 0.830390 0.926945
O O7 0.272611 0.065341 0.877792
O O8 0.000000 0.000000 0.000000
O O9 0.898980 0.824107 0.164470
O O10 0.626574 0.659640 0.174408
O O11 0.338720 0.253583 0.117109
O O12 0.099868 0.285650 0.239592
O O13 0.967419 0.278439 0.176592
O O14 0.069252 0.032017 0.190713
O O15 0.664097 0.117946 0.688846
O O16 0.448281 0.932006 0.373433
O O17 0.303130 0.492874 0.243494
#
# Coordination Sequence:
#
# PCOD9253592 Si02
#       8
#     4   4   4   4   4   4   4   4
#     4  11  18  38  67  93 124 154 208 260 303 376
#     4  11  19  35  63  95 120 156 203 267 303 357
#     4  11  21  36  67  96 114 158 221 258 311 353
#     4  11  26  44  59  89 133 169 204 254 326 379
#     4  10  21  39  63  88 124 161 206 257 312 368
#     4  10  21  40  62  93 128 164 196 254 322 378
#     4  11  26  42  61  88 129 168 212 262 312 375
#     4   9  22  39  64  90 114 163 218 258 301 365
#
# _framework density 19.10061
#
# number of rings (size 3 to 8) (size 9 to 14) (size 15 to 20)
#    0.000    1.500    6.250    0.000    5.250    2.500 
#    0.000    2.500    0.000    0.000    0.000    0.000 
#    0.000    0.000    0.000    0.000    0.000    0.000 
#
# Total GULP energy -178392.234290 kJ/mol
# GULP energy per Si atom -5574.757322 kJ/mol
# Density = 1.905714 g / cm^3
# Si number density = 19.100610 Si / 1000 Ang^3
#
#
#
# Elastic Constant Matrix: (Units=GPa)
#
#
# Indices 1 2 3 4 5 6 
#
# 1 84.2495 29.2218 25.1979 0.0000 -7.7934 0.0000
# 2 29.2218 114.5953 25.6677 0.0000 0.4677 0.0000
# 3 25.1979 25.6677 48.1301 0.0000 -9.3304 0.0000
# 4 0.0000 0.0000 0.0000 29.9689 0.0000 -0.5188
# 5 -7.7934 0.4677 -9.3304 0.0000 31.0162 0.0000
# 6 0.0000 0.0000 0.0000 -0.5188 0.0000 33.2279
#
#
#
# Elastic Compliance Matrix: (Units=1/GPa)
#
#
# Indices 1 2 3 4 5 6 
#
# 1 0.014684 -0.002400 -0.006038 0.000000 0.001910 0.000000
# 2 -0.002400 0.010403 -0.004714 0.000000 -0.002178 0.000000
# 3 -0.006038 -0.004714 0.027792 0.000000 0.006915 0.000000
# 4 0.000000 0.000000 0.000000 0.033377 0.000000 0.000521
# 5 0.001910 -0.002178 0.006915 0.000000 0.034834 0.000000
# 6 0.000000 0.000000 0.000000 0.000521 0.000000 0.030103
#
#
# Mechanical properties :
#
#
# Convention : Reuss Voigt Hill
#
# Bulk Modulus (GPa) = 37.62657 45.23885 41.43271
# Shear Modulus (GPa) = 26.83044 29.96843 28.39943
#
# Velocity S-wave (km/s) = 3.75199 3.96533 3.86013
# Velocity P-wave (km/s) = 6.20579 6.68588 6.45030
#
# Compressibility (1/GPa) = 0.02657697
#
# Stress axis : x y z
#
# Youngs Moduli (GPa) = 68.09965 96.12590 35.98129
#
# Poissons Ratio (x) = 0.23070 0.21725
# Poissons Ratio (y) = 0.16344 0.16960
# Poissons Ratio (z) = 0.41117 0.45310
#
# Static dielectric constant tensor:
#      x y z
#    x 1.630790 0.000000 -0.002020 
#    y 0.000000 1.673820 0.000000 
#    z -0.002020 0.000000 1.732230 
# 
# From -- ./inp_files/76356.got.cif
#   From: 2010.05.17/outbox.ucp.g08.bks.cvg/sg14_39_cif.got.tgz:76356.got - 2010.06.11 12:31:08.
