data_PCOD9253933
_publ_section_title
;
Structure prediction by ZEFSAII (Michael W. Deem and Ramdas Pophale) SiO2 
 PCOD9253933
Probable space group: C 2/C
;
_chemical_formula_sum "Si O2"
_cell_formula_units_Z 56
_cell_length_a 14.813148
_cell_length_b 10.445767
_cell_length_c 31.807905
_cell_angle_alpha 90.000000
_cell_angle_beta 145.160427
_cell_angle_gamma 90.000000
_cell_volume 2811.721000
_symmetry_space_group_name_H-M "C 2/C"
_symmetry_group_IT_number 15
_symmetry_cell_setting 'monoclinic'
loop_
_space_group_symop_operation_xyz
x,y,z
-x,y,1/2-z
-x,-y,-z
x,-y,1/2+z
1/2+x,1/2+y,z
1/2-x,1/2+y,1/2-z
1/2-x,1/2-y,-z
1/2+x,1/2-y,1/2+z
loop_
_atom_site_type_symbol
_atom_site_label
_atom_site_fract_x
_atom_site_fract_y
_atom_site_fract_z
Si Si1 0.744482 0.563329 0.328240
Si Si2 0.531012 0.809903 0.955861
Si Si3 0.543124 0.170545 0.561125
Si Si4 0.354624 0.798844 0.663716
Si Si5 0.548801 0.512751 0.831500
Si Si6 0.253912 0.950433 0.986969
Si Si7 0.648426 0.457538 0.528045
O O1 0.867250 0.452529 0.386583
O O2 0.633264 0.517001 0.248134
O O3 0.639686 0.568565 0.330288
O O4 0.860491 0.682903 0.368308
O O5 0.649431 0.914490 0.981846
O O6 0.516479 0.840137 0.000588
O O7 0.594927 0.666950 0.981160
O O8 0.682432 0.274951 0.619778
O O9 0.374917 0.159834 0.519000
O O10 0.500000 0.828076 0.750000
O O11 0.403767 0.662176 0.660250
O O12 0.304214 0.910402 0.612635
O O13 0.610824 0.466653 0.899691
O O14 0.196005 0.938542 0.012175
O O15 0.500000 0.500000 0.500000
#
# Coordination Sequence:
#
# PCOD9253933 Si02
#       7
#     8   8   8   8   8   8   8
#     4   9  14  25  49  91 114 129 166 247 302 316
#     4  10  17  32  56  84 109 141 191 239 283 334
#     4   9  15  28  55  90 107 127 175 249 294 323
#     4  10  18  35  62  82 110 146 190 238 292 340
#     4  10  15  26  56  92 111 132 176 244 298 332
#     4  11  18  33  58  88 110 146 195 239 282 341
#     4  11  25  39  54  77 120 171 199 220 272 346
#
# _framework density 19.916627999999999
#
# number of rings (size 3 to 8) (size 9 to 14) (size 15 to 20)
#    0.000    2.000    8.571    1.286    0.000    0.000 
#    0.000    5.714    3.143    0.000    0.000    0.000 
#    0.000    0.000    0.000    0.000    0.000    0.000 
#
# Total GULP energy -155881.601726 kJ/mol
# GULP energy per Si atom -5567.200062 kJ/mol
# Density = 1.987130 g / cm^3
# Si number density = 19.916628 Si / 1000 Ang^3
#
#
#
# Elastic Constant Matrix: (Units=GPa)
#
#
# Indices 1 2 3 4 5 6 
#
# 1 106.4207 21.4471 53.7133 0.0000 -2.6900 0.0000
# 2 21.4471 62.2163 31.2836 0.0000 8.0425 0.0000
# 3 53.7133 31.2836 171.5809 0.0000 16.1002 0.0000
# 4 0.0000 0.0000 0.0000 14.7777 0.0000 -2.1702
# 5 -2.6900 8.0425 16.1002 0.0000 15.8237 0.0000
# 6 0.0000 0.0000 0.0000 -2.1702 0.0000 -19.8051
#
#
#
# Elastic Compliance Matrix: (Units=1/GPa)
#
#
# Indices 1 2 3 4 5 6 
#
# 1 0.012250 -0.003228 -0.003975 0.000000 0.007768 0.000000
# 2 -0.003228 0.019135 -0.001674 0.000000 -0.008571 0.000000
# 3 -0.003975 -0.001674 0.008138 0.000000 -0.008105 0.000000
# 4 0.000000 0.000000 0.000000 0.066598 0.000000 -0.007298
# 5 0.007768 -0.008571 -0.008105 0.000000 0.077120 0.000000
# 6 0.000000 0.000000 0.000000 -0.007298 0.000000 -0.049692
#
#
# Mechanical properties :
#
#
# Convention : Reuss Voigt Hill
#
# Bulk Modulus (GPa) = 45.93655 61.45620 53.69637
# Shear Modulus (GPa) = 31.53372 17.74419 24.63895
#
# Velocity S-wave (km/s) = 3.98337 2.98807 3.52107
# Velocity P-wave (km/s) = 6.65363 6.54435 6.59922
#
# Compressibility (1/GPa) = 0.02176916
#
# Stress axis : x y z
#
# Youngs Moduli (GPa) = 81.63305 52.25893 122.87475
#
# Poissons Ratio (x) = 0.16870 0.48845
# Poissons Ratio (y) = 0.26352 0.20570
# Poissons Ratio (z) = 0.32450 0.08748
#
# Static dielectric constant tensor:
#      x y z
#    x 1.767620 0.000000 0.022780 
#    y 0.000000 1.766900 0.000000 
#    z 0.022780 0.000000 1.718380 
# 
# From -- ./inp_files/313453.got.cif
#   From: 2010.05.17/outbox.cif.g08.bks.cpg/sg15_157_cif.got.tgz:313453.got - 2010.06.03 18:47:42.
