data_PCOD9253056
_publ_section_title
;
Structure prediction by ZEFSAII (Michael W. Deem and Ramdas Pophale) SiO2 
 PCOD9253056
Probable space group: P 21/C
;
_chemical_formula_sum "Si O2"
_cell_formula_units_Z 32
_cell_length_a 24.429272
_cell_length_b 12.175032
_cell_length_c 30.959307
_cell_angle_alpha 90.000000
_cell_angle_beta 170.559320
_cell_angle_gamma 90.000000
_cell_volume 1510.377775
_symmetry_space_group_name_H-M "P 21/C"
_symmetry_group_IT_number 14
_symmetry_cell_setting 'monoclinic'
loop_
_space_group_symop_operation_xyz
x,y,z
-x,1/2+y,1/2-z
-x,-y,-z
x,1/2-y,1/2+z
loop_
_atom_site_type_symbol
_atom_site_label
_atom_site_fract_x
_atom_site_fract_y
_atom_site_fract_z
Si Si1 0.772755 0.601730 0.117173
Si Si2 0.765926 0.285372 0.453847
Si Si3 0.659238 0.541358 0.933269
Si Si4 0.770236 0.285822 0.796940
Si Si5 0.626700 0.412519 0.063307
Si Si6 0.224697 0.167287 0.087224
Si Si7 0.387068 0.000966 0.962002
Si Si8 0.176796 0.291591 0.196974
O O1 0.743813 0.479701 0.113170
O O2 0.053267 0.655529 0.365470
O O3 0.798243 0.595233 0.085580
O O4 0.450884 0.675826 0.877319
O O5 0.572342 0.373680 0.273449
O O6 0.497304 0.210823 0.266922
O O7 0.017073 0.212068 0.620553
O O8 0.402556 0.441592 0.744860
O O9 0.992054 0.505489 0.165594
O O10 0.561998 0.391621 0.619134
O O11 0.094702 0.256092 0.020693
O O12 0.883465 0.300808 0.934122
O O13 0.913814 0.354320 0.313786
O O14 0.500000 0.500000 0.000000
O O15 0.357197 0.325858 0.837447
O O16 0.562749 0.886560 0.112738
O O17 0.500000 0.000000 0.000000
#
# Coordination Sequence:
#
# PCOD9253056 Si02
#       8
#     4   4   4   4   4   4   4   4
#     4  12  25  45  74 106 148 183 245 305 364 431
#     4  12  25  46  72 108 146 191 241 309 363 433
#     4  12  26  47  72 112 143 188 249 310 363 432
#     4  12  26  46  74 107 147 196 243 301 367 444
#     4  12  22  43  74 103 138 190 241 300 370 429
#     4  12  25  44  74 104 142 189 242 299 370 428
#     4  12  27  51  73 103 153 203 245 295 376 451
#     4  12  25  46  73 107 147 193 247 297 364 444
#
# _framework density 21.186751000000001
#
# number of rings (size 3 to 8) (size 9 to 14) (size 15 to 20)
#    0.000    0.000    5.000    5.625    1.750    2.000 
#    6.750    0.000    0.000    0.000    0.000    0.000 
#    0.000    0.000    0.000    0.000    0.000    0.000 
#
# Total GULP energy -178801.278472 kJ/mol
# GULP energy per Si atom -5587.539952 kJ/mol
# Density = 2.113853 g / cm^3
# Si number density = 21.186751 Si / 1000 Ang^3
#
#
#
# Elastic Constant Matrix: (Units=GPa)
#
#
# Indices 1 2 3 4 5 6 
#
# 1 160.2266 39.0047 58.5965 0.0000 -14.9656 0.0000
# 2 39.0047 55.3301 6.7709 0.0000 1.4978 0.0000
# 3 58.5965 6.7709 74.1951 0.0000 -8.5586 0.0000
# 4 0.0000 0.0000 0.0000 50.9565 0.0000 -12.9038
# 5 -14.9656 1.4978 -8.5586 0.0000 45.3316 0.0000
# 6 0.0000 0.0000 0.0000 -12.9038 0.0000 49.2456
#
#
#
# Elastic Compliance Matrix: (Units=1/GPa)
#
#
# Indices 1 2 3 4 5 6 
#
# 1 0.010970 -0.006848 -0.007764 0.000000 0.002382 0.000000
# 2 -0.006848 0.022591 0.003066 0.000000 -0.002428 0.000000
# 3 -0.007764 0.003066 0.019446 0.000000 0.001007 0.000000
# 4 0.000000 0.000000 0.000000 0.021019 0.000000 0.005508
# 5 0.002382 -0.002428 0.001007 0.000000 0.023116 0.000000
# 6 0.000000 0.000000 0.000000 0.005508 0.000000 0.021750
#
#
# Mechanical properties :
#
#
# Convention : Reuss Voigt Hill
#
# Bulk Modulus (GPa) = 33.42651 55.38842 44.40746
# Shear Modulus (GPa) = 32.90449 41.46540 37.18495
#
# Velocity S-wave (km/s) = 3.94518 4.42876 4.19394
# Velocity P-wave (km/s) = 6.04681 7.23544 6.66766
#
# Compressibility (1/GPa) = 0.02991638
#
# Stress axis : x y z
#
# Youngs Moduli (GPa) = 91.15813 44.26536 51.42441
#
# Poissons Ratio (x) = 0.30311 0.39926
# Poissons Ratio (y) = 0.62421 -0.15768
# Poissons Ratio (z) = 0.70775 -0.13573
#
# Static dielectric constant tensor:
#      x y z
#    x 1.774830 0.000000 0.009510 
#    y 0.000000 1.933180 0.000000 
#    z 0.009510 0.000000 1.685060 
# 
# From -- ./inp_files/80689.got.cif
#   From: 2010.05.17/outbox.cif.g08.bks.cpg/sg14_41_cif.got.tgz:80689.got - 2010.06.03 17:49:19.
