data_PCOD9253464
_publ_section_title
;
Structure prediction by ZEFSAII (Michael W. Deem and Ramdas Pophale) SiO2 
 PCOD9253464
Probable space group: P 21/C
;
_chemical_formula_sum "Si O2"
_cell_formula_units_Z 28
_cell_length_a 12.000000
_cell_length_b 18.000000
_cell_length_c 21.000000
_cell_angle_alpha 90.000000
_cell_angle_beta 20.000000
_cell_angle_gamma 90.000000
_cell_volume 1551.403370
_symmetry_space_group_name_H-M "P 21/C"
_symmetry_group_IT_number 14
_symmetry_cell_setting 'monoclinic'
loop_
_space_group_symop_operation_xyz
x,y,z
-x,1/2+y,1/2-z
-x,-y,-z
x,1/2-y,1/2+z
loop_
_atom_site_type_symbol
_atom_site_label
_atom_site_fract_x
_atom_site_fract_y
_atom_site_fract_z
Si Si1 0.059874 0.706273 0.722262
Si Si2 0.594174 0.632370 0.358888
Si Si3 0.783242 0.708872 0.727330
Si Si4 0.285339 0.580385 0.029229
Si Si5 0.329228 0.957653 0.748318
Si Si6 0.372356 0.853542 0.615054
Si Si7 0.782894 0.084440 0.054746
O O1 0.367748 0.654580 0.540450
O O2 0.182007 0.780832 0.691068
O O3 0.931495 0.718162 0.718847
O O4 0.749927 0.669642 0.922492
O O5 0.673628 0.707271 0.274925
O O6 0.418576 0.580744 0.402099
O O7 0.914083 0.595733 0.213986
O O8 0.032378 0.664489 0.548566
O O9 0.486223 0.650958 0.893077
O O10 0.355392 0.586775 0.066712
O O11 0.396880 0.505062 0.935539
O O12 0.235928 0.890147 0.752009
O O13 0.404205 0.927472 0.778633
O O14 0.044922 0.018417 0.908832
#
# Coordination Sequence:
#
# PCOD9253464 Si02
#       7
#     4   4   4   4   4   4   4
#     4  10  18  31  57  84 106 130 175 229 276 306
#     4  11  17  33  60  83 104 133 187 232 255 313
#     4   9  16  32  58  82 103 135 178 229 263 307
#     4  10  18  31  57  83 104 141 178 219 275 315
#     4  10  22  39  52  72 117 152 175 215 266 330
#     4  11  19  36  56  80 109 143 174 224 274 323
#     4   9  21  38  55  77 106 151 186 211 265 318
#
# _framework density 18.048175000000001
#
# number of rings (size 3 to 8) (size 9 to 14) (size 15 to 20)
#    0.000    2.000    4.286    2.143    0.000    0.571 
#    2.571    4.286    0.000    0.000    0.000    0.000 
#    0.000    0.000    0.000    0.000    0.000    0.000 
#
# Total GULP energy -155912.444057 kJ/mol
# GULP energy per Si atom -5568.301573 kJ/mol
# Density = 1.800710 g / cm^3
# Si number density = 18.048175 Si / 1000 Ang^3
#
#
#
# Elastic Constant Matrix: (Units=GPa)
#
#
# Indices 1 2 3 4 5 6 
#
# 1 24.9304 24.6999 15.1848 0.0000 9.2274 0.0000
# 2 24.6999 51.3516 12.0728 0.0000 2.8434 0.0000
# 3 15.1848 12.0728 39.4598 0.0000 -7.1786 0.0000
# 4 0.0000 0.0000 0.0000 5.1014 0.0000 -2.1557
# 5 9.2274 2.8434 -7.1786 0.0000 27.3456 0.0000
# 6 0.0000 0.0000 0.0000 -2.1557 0.0000 32.0137
#
#
#
# Elastic Compliance Matrix: (Units=1/GPa)
#
#
# Indices 1 2 3 4 5 6 
#
# 1 0.146416 -0.055620 -0.049633 0.000000 -0.056652 0.000000
# 2 -0.055620 0.042550 0.011546 0.000000 0.017375 0.000000
# 3 -0.049633 0.011546 0.045931 0.000000 0.027605 0.000000
# 4 0.000000 0.000000 0.000000 0.201765 0.000000 0.013586
# 5 -0.056652 0.017375 0.027605 0.000000 0.061125 0.000000
# 6 0.000000 0.000000 0.000000 0.013586 0.000000 0.032151
#
#
# Mechanical properties :
#
#
# Convention : Reuss Voigt Hill
#
# Bulk Modulus (GPa) = 21.05961 24.40631 22.73296
# Shear Modulus (GPa) = 6.81960 17.14442 11.98201
#
# Velocity S-wave (km/s) = 1.94596 3.08543 2.57940
# Velocity P-wave (km/s) = 4.09181 5.12303 4.63618
#
# Compressibility (1/GPa) = 0.04748427
#
# Stress axis : x y z
#
# Youngs Moduli (GPa) = 6.82985 23.50174 21.77172
#
# Poissons Ratio (x) = 1.30717 1.08059
# Poissons Ratio (y) = 0.37988 -0.25138
# Poissons Ratio (z) = 0.33898 -0.27136
#
# Static dielectric constant tensor:
#      x y z
#    x 1.598810 0.000000 -0.024480 
#    y 0.000000 1.646300 0.000000 
#    z -0.024480 0.000000 1.696910 
# 
# From -- ./inp_files/18060.got.cif
#   From: 2010.05.17/outbox.ucp.g08.bks.cvg/sg14_10_cif.got.tgz:18060.got - 2010.06.11 12:31:08.
