data_PCOD9253828
_publ_section_title
;
Structure prediction by ZEFSAII (Michael W. Deem and Ramdas Pophale) SiO2 
 PCOD9253828
Probable space group: C 2/C
;
_chemical_formula_sum "Si O2"
_cell_formula_units_Z 52
_cell_length_a 15.494454
_cell_length_b 10.211113
_cell_length_c 15.458544
_cell_angle_alpha 90.000000
_cell_angle_beta 77.415125
_cell_angle_gamma 90.000000
_cell_volume 2387.021515
_symmetry_space_group_name_H-M "C 2/C"
_symmetry_group_IT_number 15
_symmetry_cell_setting 'monoclinic'
loop_
_space_group_symop_operation_xyz
x,y,z
-x,y,1/2-z
-x,-y,-z
x,-y,1/2+z
1/2+x,1/2+y,z
1/2-x,1/2+y,1/2-z
1/2-x,1/2-y,-z
1/2+x,1/2-y,1/2+z
loop_
_atom_site_type_symbol
_atom_site_label
_atom_site_fract_x
_atom_site_fract_y
_atom_site_fract_z
Si Si1 0.822882 0.827912 0.357675
Si Si2 0.825484 0.601896 0.484809
Si Si3 0.568890 0.209007 0.892181
Si Si4 0.614474 0.043834 0.286292
Si Si5 0.382195 0.853808 0.380136
Si Si6 0.500000 0.722695 0.750000
Si Si7 0.718581 0.288433 0.735876
O O1 0.814313 0.678144 0.396314
O O2 0.764656 0.903166 0.440315
O O3 0.925411 0.856503 0.318231
O O4 0.773398 0.822213 0.276619
O O5 0.891936 0.702662 0.520155
O O6 0.855694 0.455234 0.460166
O O7 0.466655 0.227964 0.893584
O O8 0.630148 0.295585 0.814868
O O9 0.584498 0.055457 0.866126
O O10 0.555681 0.174896 0.296353
O O11 0.714634 0.091181 0.278753
O O12 0.598612 0.953767 0.204565
O O13 0.309839 0.759339 0.352615
#
# Coordination Sequence:
#
# PCOD9253828 Si02
#       7
#     8   8   8   8   8   4   8
#     4   9  18  30  50  77 105 141 177 211 264 312
#     4  10  18  31  49  80 111 134 169 224 267 311
#     4  10  19  30  51  82 106 136 174 218 268 311
#     4  10  16  30  49  75 101 140 176 214 253 314
#     4  11  18  31  52  80 108 132 177 222 263 307
#     4  10  14  28  50  72  98 136 180 210 242 316
#     4   9  18  29  48  76 103 140 175 215 253 310
#
# _framework density 21.784469000000001
#
# number of rings (size 3 to 8) (size 9 to 14) (size 15 to 20)
#    0.000    2.154    4.615    1.846    0.000    0.000 
#    0.000    0.769    0.000    3.692  100.000    0.000 
#    0.000    0.000    0.000    0.000    0.000    0.000 
#
# Total GULP energy -144830.943081 kJ/mol
# GULP energy per Si atom -5570.420888 kJ/mol
# Density = 2.173489 g / cm^3
# Si number density = 21.784469 Si / 1000 Ang^3
#
#
#
# Elastic Constant Matrix: (Units=GPa)
#
#
# Indices 1 2 3 4 5 6 
#
# 1 137.0903 19.2438 30.2923 0.0000 -8.6385 0.0000
# 2 19.2438 17.1993 -2.4644 0.0000 3.0840 0.0000
# 3 30.2923 -2.4644 43.7570 0.0000 0.3534 0.0000
# 4 0.0000 0.0000 0.0000 14.2688 0.0000 -1.4495
# 5 -8.6385 3.0840 0.3534 0.0000 36.2567 0.0000
# 6 0.0000 0.0000 0.0000 -1.4495 0.0000 31.9051
#
#
#
# Elastic Compliance Matrix: (Units=1/GPa)
#
#
# Indices 1 2 3 4 5 6 
#
# 1 0.011644 -0.015053 -0.008942 0.000000 0.004142 0.000000
# 2 -0.015053 0.079001 0.014954 0.000000 -0.010452 0.000000
# 3 -0.008942 0.014954 0.029916 0.000000 -0.003694 0.000000
# 4 0.000000 0.000000 0.000000 0.070408 0.000000 0.003199
# 5 0.004142 -0.010452 -0.003694 0.000000 0.029493 0.000000
# 6 0.000000 0.000000 0.000000 0.003199 0.000000 0.031488
#
#
# Mechanical properties :
#
#
# Convention : Reuss Voigt Hill
#
# Bulk Modulus (GPa) = 9.75799 32.46553 21.11176
# Shear Modulus (GPa) = 16.43699 26.55110 21.49405
#
# Velocity S-wave (km/s) = 2.74985 3.49493 3.14454
# Velocity P-wave (km/s) = 3.81723 5.58762 4.78502
#
# Compressibility (1/GPa) = 0.10248012
#
# Stress axis : x y z
#
# Youngs Moduli (GPa) = 85.87818 12.65812 33.42663
#
# Poissons Ratio (x) = 0.19054 0.29892
# Poissons Ratio (y) = 1.29269 -0.49988
# Poissons Ratio (z) = 0.76796 -0.18929
#
# Static dielectric constant tensor:
#      x y z
#    x 1.911980 0.000000 0.021880 
#    y 0.000000 1.799550 0.000000 
#    z 0.021880 0.000000 1.865140 
# 
# From -- ./inp_files/197275.got.cif
#   From: 2010.05.17/outbox.cif.g08.bks.cpg/sg15_99_cif.got.tgz:197275.got - 2010.06.03 18:47:42.
