data_PCOD9253711
_publ_section_title
;
Structure prediction by ZEFSAII (Michael W. Deem and Ramdas Pophale) SiO2 
 PCOD9253711
Probable space group: P 21/C
;
_chemical_formula_sum "Si O2"
_cell_formula_units_Z 28
_cell_length_a 9.000000
_cell_length_b 12.000000
_cell_length_c 21.000000
_cell_angle_alpha 90.000000
_cell_angle_beta 40.000000
_cell_angle_gamma 90.000000
_cell_volume 1457.842299
_symmetry_space_group_name_H-M "P 21/C"
_symmetry_group_IT_number 14
_symmetry_cell_setting 'monoclinic'
loop_
_space_group_symop_operation_xyz
x,y,z
-x,1/2+y,1/2-z
-x,-y,-z
x,1/2-y,1/2+z
loop_
_atom_site_type_symbol
_atom_site_label
_atom_site_fract_x
_atom_site_fract_y
_atom_site_fract_z
Si Si1 0.256182 0.655155 0.704101
Si Si2 0.451302 0.451408 0.181473
Si Si3 0.835457 0.310419 0.119831
Si Si4 0.622831 0.837385 0.543773
Si Si5 0.266215 0.045506 0.104574
Si Si6 0.904716 0.048361 0.101694
Si Si7 0.744871 0.792188 0.360694
O O1 0.255683 0.649393 0.780776
O O2 0.477029 0.725050 0.607167
O O3 0.209924 0.541082 0.680256
O O4 0.021088 0.722986 0.770458
O O5 0.685616 0.384972 0.121415
O O6 0.503917 0.562601 0.122487
O O7 0.303048 0.480607 0.294175
O O8 0.317431 0.366914 0.178862
O O9 0.816012 0.175669 0.120109
O O10 0.109748 0.330468 0.022976
O O11 0.646829 0.846793 0.458704
O O12 0.331049 0.164689 0.113016
O O13 0.091720 0.053150 0.100142
O O14 0.500000 0.000000 0.000000
O O15 0.000000 0.000000 0.000000
#
# Coordination Sequence:
#
# PCOD9253711 Si02
#       7
#     4   4   4   4   4   4   4
#     4  11  22  44  72  96 133 187 222 292 341 401
#     4  12  26  44  69 105 142 182 229 290 351 417
#     4  11  26  45  68 101 141 185 230 277 360 407
#     4  11  22  47  70  95 141 179 228 281 348 413
#     4  12  23  44  72  99 134 179 239 283 341 415
#     4  12  27  45  70 100 142 182 233 290 344 417
#     4  11  24  42  69 104 133 179 234 282 350 406
#
# _framework density 19.206467
#
# number of rings (size 3 to 8) (size 9 to 14) (size 15 to 20)
#    0.000    0.571    7.143    0.857    6.000    0.000 
#    0.000    0.000    0.000    0.000    0.000    0.000 
#    0.000    0.000    0.000    0.000    0.000    0.000 
#
# Total GULP energy -156081.243612 kJ/mol
# GULP energy per Si atom -5574.330129 kJ/mol
# Density = 1.916275 g / cm^3
# Si number density = 19.206467 Si / 1000 Ang^3
#
#
#
# Elastic Constant Matrix: (Units=GPa)
#
#
# Indices 1 2 3 4 5 6 
#
# 1 74.9689 37.1969 23.0309 0.0000 5.4966 0.0000
# 2 37.1969 130.1391 36.3422 0.0000 12.1261 0.0000
# 3 23.0309 36.3422 118.1010 0.0000 10.8280 0.0000
# 4 0.0000 0.0000 0.0000 38.8442 0.0000 -2.6797
# 5 5.4966 12.1261 10.8280 0.0000 33.8017 0.0000
# 6 0.0000 0.0000 0.0000 -2.6797 0.0000 31.5542
#
#
#
# Elastic Compliance Matrix: (Units=1/GPa)
#
#
# Indices 1 2 3 4 5 6 
#
# 1 0.015920 -0.003987 -0.001825 0.000000 -0.000574 0.000000
# 2 -0.003987 0.009575 -0.001971 0.000000 -0.002155 0.000000
# 3 -0.001825 -0.001971 0.009620 0.000000 -0.002078 0.000000
# 4 0.000000 0.000000 0.000000 0.025896 0.000000 0.002199
# 5 -0.000574 -0.002155 -0.002078 0.000000 0.031116 0.000000
# 6 0.000000 0.000000 0.000000 0.002199 0.000000 0.031878
#
#
# Mechanical properties :
#
#
# Convention : Reuss Voigt Hill
#
# Bulk Modulus (GPa) = 51.15539 57.37212 54.26376
# Shear Modulus (GPa) = 34.22582 35.94928 35.08755
#
# Velocity S-wave (km/s) = 4.22595 4.33104 4.27882
# Velocity P-wave (km/s) = 7.10660 7.41260 7.26121
#
# Compressibility (1/GPa) = 0.01954828
#
# Stress axis : x y z
#
# Youngs Moduli (GPa) = 62.81450 104.43833 103.94639
#
# Poissons Ratio (x) = 0.41641 0.18970
# Poissons Ratio (y) = 0.25045 0.20491
# Poissons Ratio (z) = 0.11464 0.20588
#
# Static dielectric constant tensor:
#      x y z
#    x 1.709080 0.000000 -0.018590 
#    y 0.000000 1.705260 0.000000 
#    z -0.018590 0.000000 1.695360 
# 
# From -- ./inp_files/65542.got.cif
#   From: 2010.05.17/outbox.ucp.g08.bks.cvg/sg14_33_cif.got.tgz:65542.got - 2010.06.11 12:31:08.
