data_PCOD9253843
_publ_section_title
;
Structure prediction by ZEFSAII (Michael W. Deem and Ramdas Pophale) SiO2 
 PCOD9253843
Probable space group: C 2/C
;
_chemical_formula_sum "Si O2"
_cell_formula_units_Z 52
_cell_length_a 20.605243
_cell_length_b 8.338456
_cell_length_c 22.819965
_cell_angle_alpha 90.000000
_cell_angle_beta 134.501808
_cell_angle_gamma 90.000000
_cell_volume 2796.449250
_symmetry_space_group_name_H-M "C 2/C"
_symmetry_group_IT_number 15
_symmetry_cell_setting 'monoclinic'
loop_
_space_group_symop_operation_xyz
x,y,z
-x,y,1/2-z
-x,-y,-z
x,-y,1/2+z
1/2+x,1/2+y,z
1/2-x,1/2+y,1/2-z
1/2-x,1/2-y,-z
1/2+x,1/2-y,1/2+z
loop_
_atom_site_type_symbol
_atom_site_label
_atom_site_fract_x
_atom_site_fract_y
_atom_site_fract_z
Si Si1 0.953466 0.138049 0.901286
Si Si2 0.170880 0.611568 0.827556
Si Si3 0.483011 0.093575 0.335613
Si Si4 0.000000 0.842795 0.250000
Si Si5 0.411838 0.788513 0.101068
Si Si6 0.595743 0.585502 0.233212
Si Si7 0.130055 0.057810 0.528681
O O1 0.942880 0.308636 0.864116
O O2 0.916827 0.133872 0.943618
O O3 0.902566 0.008125 0.827330
O O4 0.059915 0.084084 0.967949
O O5 0.094112 0.497319 0.751018
O O6 0.141571 0.668542 0.873825
O O7 0.171643 0.779789 0.791915
O O8 0.266434 0.520817 0.889655
O O9 0.527090 0.226780 0.320586
O O10 0.552718 0.958517 0.400141
O O11 0.919599 0.953939 0.225317
O O12 0.501350 0.685696 0.174446
O O13 0.364759 0.683143 0.021645
#
# Coordination Sequence:
#
# PCOD9253843 Si02
#       7
#     8   8   8   4   8   8   8
#     4   9  21  39  53  79 103 159 175 216 269 330
#     4  11  19  34  56  88 103 139 179 240 255 315
#     4  10  19  33  59  79 108 135 187 219 270 309
#     4  10  14  30  52  80 102 132 166 228 252 320
#     4  10  18  35  53  82 106 146 167 220 274 335
#     4   9  17  31  59  75 104 138 187 213 269 312
#     4  10  22  37  55  73 119 143 184 210 272 325
#
# _framework density 18.595009999999998
#
# number of rings (size 3 to 8) (size 9 to 14) (size 15 to 20)
#    0.000    2.154    3.077    1.385    0.000    1.846 
#    0.000    3.846    0.000    0.000    0.000    0.000 
#    0.000    0.000    0.000    0.000    0.000    0.000 
#
# Total GULP energy -144853.635305 kJ/mol
# GULP energy per Si atom -5571.293666 kJ/mol
# Density = 1.855269 g / cm^3
# Si number density = 18.595010 Si / 1000 Ang^3
#
#
#
# Elastic Constant Matrix: (Units=GPa)
#
#
# Indices 1 2 3 4 5 6 
#
# 1 315.3323 96.8404 21.5919 0.0000 -142.2381 0.0000
# 2 96.8404 99.2540 15.7192 0.0000 -48.5413 0.0000
# 3 21.5919 15.7192 58.9540 0.0000 -4.5807 0.0000
# 4 0.0000 0.0000 0.0000 10.7668 0.0000 -8.1044
# 5 -142.2381 -48.5413 -4.5807 0.0000 85.0985 0.0000
# 6 0.0000 0.0000 0.0000 -8.1044 0.0000 17.3627
#
#
#
# Elastic Compliance Matrix: (Units=1/GPa)
#
#
# Indices 1 2 3 4 5 6 
#
# 1 0.013895 -0.002550 -0.002729 0.000000 0.021623 0.000000
# 2 -0.002550 0.015037 -0.002752 0.000000 0.004167 0.000000
# 3 -0.002729 -0.002752 0.018296 0.000000 -0.005146 0.000000
# 4 0.000000 0.000000 0.000000 0.143186 0.000000 0.066835
# 5 0.021623 0.004167 -0.005146 0.000000 0.049994 0.000000
# 6 0.000000 0.000000 0.000000 0.066835 0.000000 0.088791
#
#
# Mechanical properties :
#
#
# Convention : Reuss Voigt Hill
#
# Bulk Modulus (GPa) = 32.08566 82.42702 57.25634
# Shear Modulus (GPa) = 14.05887 45.27153 29.66520
#
# Velocity S-wave (km/s) = 2.75263 4.93953 3.99849
# Velocity P-wave (km/s) = 5.23403 8.77244 7.22325
#
# Compressibility (1/GPa) = 0.03116657
#
# Stress axis : x y z
#
# Youngs Moduli (GPa) = 71.96927 66.50386 54.65756
#
# Poissons Ratio (x) = 0.16956 0.14916
# Poissons Ratio (y) = 0.18349 0.15040
# Poissons Ratio (z) = 0.19641 0.18300
#
# Static dielectric constant tensor:
#      x y z
#    x 1.638740 0.000000 -0.011630 
#    y 0.000000 1.664900 0.000000 
#    z -0.011630 0.000000 1.662270 
# 
# From -- ./inp_files/213313.got.cif
#   From: 2010.05.17/outbox.cif.g08.bks.cpg/sg15_107_cif.got.tgz:213313.got - 2010.06.03 18:47:42.
