data_PCOD9253873
_publ_section_title
;
Structure prediction by ZEFSAII (Michael W. Deem and Ramdas Pophale) SiO2 
 PCOD9253873
Probable space group: C 2/C
;
_chemical_formula_sum "Si O2"
_cell_formula_units_Z 44
_cell_length_a 12.220427
_cell_length_b 20.738275
_cell_length_c 13.474143
_cell_angle_alpha 90.000000
_cell_angle_beta 45.594966
_cell_angle_gamma 90.000000
_cell_volume 2439.542675
_symmetry_space_group_name_H-M "C 2/C"
_symmetry_group_IT_number 15
_symmetry_cell_setting 'monoclinic'
loop_
_space_group_symop_operation_xyz
x,y,z
-x,y,1/2-z
-x,-y,-z
x,-y,1/2+z
1/2+x,1/2+y,z
1/2-x,1/2+y,1/2-z
1/2-x,1/2-y,-z
1/2+x,1/2-y,1/2+z
loop_
_atom_site_type_symbol
_atom_site_label
_atom_site_fract_x
_atom_site_fract_y
_atom_site_fract_z
Si Si1 0.384533 0.412300 0.064798
Si Si2 0.663776 0.185729 0.588708
Si Si3 0.000000 0.511493 0.250000
Si Si4 0.324254 0.554996 0.029956
Si Si5 0.416488 0.073983 0.996235
Si Si6 0.239536 0.549350 0.865273
O O1 0.281336 0.357781 0.079763
O O2 0.371463 0.479395 0.012430
O O3 0.318142 0.426964 0.216129
O O4 0.563713 0.402340 0.974372
O O5 0.500000 0.194925 0.750000
O O6 0.750000 0.250000 0.500000
O O7 0.630716 0.143217 0.511797
O O8 0.851622 0.554255 0.325838
O O9 0.969642 0.464723 0.362568
O O10 0.322329 0.569270 0.913876
O O11 0.563821 0.074373 0.973441
O O12 0.282315 0.028355 0.122652
#
# Coordination Sequence:
#
# PCOD9253873 Si02
#       6
#     8   8   4   8   8   8
#     4  11  20  37  54  84 134 147 199 249 303 364
#     4  12  23  44  61  84 125 173 207 248 292 358
#     4  10  14  34  52  80 130 152 176 238 314 358
#     4  10  20  30  56  92 113 158 180 247 313 359
#     4  10  17  32  58  84 116 165 192 234 310 358
#     4  10  17  31  60  87 113 157 186 242 314 369
#
# _framework density 18.036166999999999
#
# number of rings (size 3 to 8) (size 9 to 14) (size 15 to 20)
#    0.000    1.455    8.182    0.545    0.000    0.000 
#    6.545    0.000    0.000    1.091    0.000    0.000 
#    0.000    0.000    0.000    0.000    0.000    0.000 
#
# Total GULP energy -122679.843942 kJ/mol
# GULP energy per Si atom -5576.356543 kJ/mol
# Density = 1.799512 g / cm^3
# Si number density = 18.036167 Si / 1000 Ang^3
#
#
#
# Elastic Constant Matrix: (Units=GPa)
#
#
# Indices 1 2 3 4 5 6 
#
# 1 142.0174 41.2133 28.8653 0.0000 -12.9250 0.0000
# 2 41.2133 90.8022 32.7348 0.0000 -5.8820 0.0000
# 3 28.8653 32.7348 38.9933 0.0000 -9.6713 0.0000
# 4 0.0000 0.0000 0.0000 22.4820 0.0000 -2.1350
# 5 -12.9250 -5.8820 -9.6713 0.0000 39.3834 0.0000
# 6 0.0000 0.0000 0.0000 -2.1350 0.0000 24.2640
#
#
#
# Elastic Compliance Matrix: (Units=1/GPa)
#
#
# Indices 1 2 3 4 5 6 
#
# 1 0.008696 -0.002385 -0.004063 0.000000 0.001500 0.000000
# 2 -0.002385 0.016480 -0.012409 0.000000 -0.001369 0.000000
# 3 -0.004063 -0.012409 0.040763 0.000000 0.006823 0.000000
# 4 0.000000 0.000000 0.000000 0.044855 0.000000 0.003947
# 5 0.001500 -0.001369 0.006823 0.000000 0.027355 0.000000
# 6 0.000000 0.000000 0.000000 0.003947 0.000000 0.041561
#
#
# Mechanical properties :
#
#
# Convention : Reuss Voigt Hill
#
# Bulk Modulus (GPa) = 35.42982 53.04884 44.23933
# Shear Modulus (GPa) = 22.04274 28.49252 25.26763
#
# Velocity S-wave (km/s) = 3.49971 3.97891 3.74698
# Velocity P-wave (km/s) = 6.00142 7.11233 6.58036
#
# Compressibility (1/GPa) = 0.02822481
#
# Stress axis : x y z
#
# Youngs Moduli (GPa) = 114.99782 60.67818 24.53208
#
# Poissons Ratio (x) = 0.14471 0.09967
# Poissons Ratio (y) = 0.27426 0.30442
# Poissons Ratio (z) = 0.46724 0.75297
#
# Static dielectric constant tensor:
#      x y z
#    x 1.688370 0.000000 -0.032640 
#    y 0.000000 1.594720 0.000000 
#    z -0.032640 0.000000 1.714090 
# 
# From -- ./inp_files/145446.got.cif
#   From: 2010.05.17/outbox.cif.g08.bks.cpg/sg15_73_cif.got.tgz:145446.got - 2010.06.03 18:47:42.
