data_PCOD9253036
_publ_section_title
;
Structure prediction by ZEFSAII (Michael W. Deem and Ramdas Pophale) SiO2 
 PCOD9253036
Probable space group: P 21/C
;
_chemical_formula_sum "Si O2"
_cell_formula_units_Z 24
_cell_length_a 9.681437
_cell_length_b 13.655505
_cell_length_c 19.395777
_cell_angle_alpha 90.000000
_cell_angle_beta 29.393001
_cell_angle_gamma 90.000000
_cell_volume 1258.510837
_symmetry_space_group_name_H-M "P 21/C"
_symmetry_group_IT_number 14
_symmetry_cell_setting 'monoclinic'
loop_
_space_group_symop_operation_xyz
x,y,z
-x,1/2+y,1/2-z
-x,-y,-z
x,1/2-y,1/2+z
loop_
_atom_site_type_symbol
_atom_site_label
_atom_site_fract_x
_atom_site_fract_y
_atom_site_fract_z
Si Si1 0.751546 0.536728 0.938390
Si Si2 0.670683 0.753219 0.037190
Si Si3 0.605457 0.057291 0.886897
Si Si4 0.242030 0.569030 0.924502
Si Si5 0.671894 0.020202 0.134552
Si Si6 0.733485 0.270404 0.659752
O O1 0.057794 0.547790 0.769613
O O2 0.500000 0.500000 0.000000
O O3 0.684375 0.643194 0.001359
O O4 0.762774 0.455260 0.993454
O O5 0.502450 0.830303 0.063226
O O6 0.508832 0.754165 0.180357
O O7 0.987222 0.788653 0.915853
O O8 0.462224 0.015971 0.878765
O O9 0.500000 0.000000 0.000000
O O10 0.520521 0.532538 0.764420
O O11 0.199106 0.679769 0.919301
O O12 0.000000 0.500000 0.000000
O O13 0.638396 0.136014 0.158391
O O14 0.000000 0.000000 0.000000
#
# Coordination Sequence:
#
# PCOD9253036 Si02
#       6
#     4   4   4   4   4   4
#     4  12  28  45  71 100 142 189 229 286 352 422
#     4  12  22  45  70  97 135 183 229 281 359 418
#     4  12  28  46  67 104 146 180 230 292 348 423
#     4  12  21  44  69  99 131 175 239 285 331 412
#     4  12  23  40  69 105 132 174 232 290 340 404
#     4  12  22  39  74 103 130 180 232 290 347 405
#
# _framework density 19.070157999999999
#
# number of rings (size 3 to 8) (size 9 to 14) (size 15 to 20)
#    0.000    0.000   10.000    0.000    4.667    1.333 
#    0.000    0.000    0.000    0.000    0.000    0.000 
#    0.000    0.000    0.000    0.000    0.000    0.000 
#
# Total GULP energy -134135.158835 kJ/mol
# GULP energy per Si atom -5588.964951 kJ/mol
# Density = 1.902675 g / cm^3
# Si number density = 19.070158 Si / 1000 Ang^3
#
#
#
# Elastic Constant Matrix: (Units=GPa)
#
#
# Indices 1 2 3 4 5 6 
#
# 1 78.1987 14.8545 21.0591 0.0000 -7.7696 0.0000
# 2 14.8545 102.6186 7.4832 0.0000 11.5352 0.0000
# 3 21.0591 7.4832 110.9641 0.0000 -7.4492 0.0000
# 4 0.0000 0.0000 0.0000 33.3947 0.0000 4.3306
# 5 -7.7696 11.5352 -7.4492 0.0000 36.5439 0.0000
# 6 0.0000 0.0000 0.0000 4.3306 0.0000 36.0494
#
#
#
# Elastic Compliance Matrix: (Units=1/GPa)
#
#
# Indices 1 2 3 4 5 6 
#
# 1 0.014161 -0.002246 -0.002318 0.000000 0.003247 0.000000
# 2 -0.002246 0.010551 -0.000548 0.000000 -0.003920 0.000000
# 3 -0.002318 -0.000548 0.009599 0.000000 0.001637 0.000000
# 4 0.000000 0.000000 0.000000 0.030419 0.000000 -0.003654
# 5 0.003247 -0.003920 0.001637 0.000000 0.029626 0.000000
# 6 0.000000 0.000000 0.000000 -0.003654 0.000000 0.028179
#
#
# Mechanical properties :
#
#
# Convention : Reuss Voigt Hill
#
# Bulk Modulus (GPa) = 41.51823 42.06389 41.79106
# Shear Modulus (GPa) = 35.51455 37.75658 36.63557
#
# Velocity S-wave (km/s) = 4.32013 4.45441 4.38778
# Velocity P-wave (km/s) = 6.83398 6.96857 6.90160
#
# Compressibility (1/GPa) = 0.02408581
#
# Stress axis : x y z
#
# Youngs Moduli (GPa) = 70.61403 94.78211 104.18032
#
# Poissons Ratio (x) = 0.21287 0.24151
# Poissons Ratio (y) = 0.15859 0.05713
# Poissons Ratio (z) = 0.16369 0.05198
#
# Static dielectric constant tensor:
#      x y z
#    x 1.509500 0.000000 -0.004620 
#    y 0.000000 1.689910 0.000000 
#    z -0.004620 0.000000 1.658670 
# 
# From -- ./inp_files/17948.got.cif
#   From: 2010.05.17/outbox.cif.g08.bks.cpg/sg14_9_cif.got.tgz:17948.got - 2010.06.03 17:49:19.
