data_PCOD9253509
_publ_section_title
;
Structure prediction by ZEFSAII (Michael W. Deem and Ramdas Pophale) SiO2 
 PCOD9253509
Probable space group: P 21/C
;
_chemical_formula_sum "Si O2"
_cell_formula_units_Z 24
_cell_length_a 9.000000
_cell_length_b 9.000000
_cell_length_c 30.000000
_cell_angle_alpha 90.000000
_cell_angle_beta 150.000000
_cell_angle_gamma 90.000000
_cell_volume 1215.000000
_symmetry_space_group_name_H-M "P 21/C"
_symmetry_group_IT_number 14
_symmetry_cell_setting 'monoclinic'
loop_
_space_group_symop_operation_xyz
x,y,z
-x,1/2+y,1/2-z
-x,-y,-z
x,1/2-y,1/2+z
loop_
_atom_site_type_symbol
_atom_site_label
_atom_site_fract_x
_atom_site_fract_y
_atom_site_fract_z
Si Si1 0.198503 0.930443 0.671854
Si Si2 0.187649 0.417970 0.839658
Si Si3 0.155683 0.217259 0.162550
Si Si4 0.370814 0.180339 0.519022
Si Si5 0.194317 0.600015 0.346197
Si Si6 0.464528 0.676201 0.533328
O O1 0.529731 0.865572 0.758272
O O2 0.043825 0.901381 0.679641
O O3 0.975506 0.858175 0.576932
O O4 0.198132 0.107881 0.664926
O O5 0.428847 0.540387 0.916187
O O6 0.395499 0.272584 0.890365
O O7 0.996466 0.447559 0.745887
O O8 0.024337 0.192218 0.178234
O O9 0.891385 0.158341 0.061116
O O10 0.508033 0.304952 0.587371
O O11 0.465621 0.234912 0.494135
O O12 0.332558 0.468724 0.411668
#
# Coordination Sequence:
#
# PCOD9253509 Si02
#       6
#     4   4   4   4   4   4
#     4  11  23  39  63  84 122 157 201 239 295 353
#     4  11  20  41  63  87 117 159 195 249 295 341
#     4  11  23  40  58  91 118 158 200 242 289 358
#     4  10  19  41  61  84 115 162 200 237 289 357
#     4  11  23  36  65  92 118 148 206 249 290 345
#     4  10  20  37  63  87 116 158 202 239 285 360
#
# _framework density 19.753086
#
# number of rings (size 3 to 8) (size 9 to 14) (size 15 to 20)
#    0.000    1.333    5.000    4.000    7.000    0.000 
#    0.000    3.333    0.000    0.000    0.000    0.000 
#    0.000    0.000    0.000    0.000    0.000    0.000 
#
# Total GULP energy -133713.250116 kJ/mol
# GULP energy per Si atom -5571.385421 kJ/mol
# Density = 1.970813 g / cm^3
# Si number density = 19.753086 Si / 1000 Ang^3
#
#
#
# Elastic Constant Matrix: (Units=GPa)
#
#
# Indices 1 2 3 4 5 6 
#
# 1 12.9869 2.2134 29.3342 0.0000 6.5916 0.0000
# 2 2.2134 66.9047 55.8919 0.0000 2.6312 0.0000
# 3 29.3342 55.8919 197.1135 0.0000 16.5646 0.0000
# 4 0.0000 0.0000 0.0000 51.4635 0.0000 6.1263
# 5 6.5916 2.6312 16.5646 0.0000 29.9079 0.0000
# 6 0.0000 0.0000 0.0000 6.1263 0.0000 13.0305
#
#
#
# Elastic Compliance Matrix: (Units=1/GPa)
#
#
# Indices 1 2 3 4 5 6 
#
# 1 0.135829 0.015490 -0.023049 0.000000 -0.018533 0.000000
# 2 0.015490 0.021410 -0.008318 0.000000 -0.000691 0.000000
# 3 -0.023049 -0.008318 0.010880 0.000000 -0.000214 0.000000
# 4 0.000000 0.000000 0.000000 0.020583 0.000000 -0.009677
# 5 -0.018533 -0.000691 -0.000214 0.000000 0.037700 0.000000
# 6 0.000000 0.000000 0.000000 -0.009677 0.000000 0.081293
#
#
# Mechanical properties :
#
#
# Convention : Reuss Voigt Hill
#
# Bulk Modulus (GPa) = 7.33324 50.20935 28.77130
# Shear Modulus (GPa) = 12.99027 31.51808 22.25417
#
# Velocity S-wave (km/s) = 2.56722 3.99883 3.36015
# Velocity P-wave (km/s) = 3.53666 6.84065 5.44530
#
# Compressibility (1/GPa) = 0.13636535
#
# Stress axis : x y z
#
# Youngs Moduli (GPa) = 7.36221 46.70667 91.91257
#
# Poissons Ratio (x) = -0.72348 2.11846
# Poissons Ratio (y) = -0.11404 0.76454
# Poissons Ratio (z) = 0.16969 0.38851
#
# Static dielectric constant tensor:
#      x y z
#    x 1.677800 0.000000 -0.013010 
#    y 0.000000 1.862940 0.000000 
#    z -0.013010 0.000000 1.705850 
# 
# From -- ./inp_files/61738.got.cif
#   From: 2010.05.17/outbox.ucp.g08.bks.cvg/sg14_31_cif.got.tgz:61738.got - 2010.06.11 12:31:08.
