data_PCOD9253819
_publ_section_title
;
Structure prediction by ZEFSAII (Michael W. Deem and Ramdas Pophale) SiO2 
 PCOD9253819
Probable space group: C 2/C
;
_chemical_formula_sum "Si O2"
_cell_formula_units_Z 48
_cell_length_a 9.042751
_cell_length_b 17.017077
_cell_length_c 21.180584
_cell_angle_alpha 90.000000
_cell_angle_beta 34.127892
_cell_angle_gamma 90.000000
_cell_volume 1828.600639
_symmetry_space_group_name_H-M "C 2/C"
_symmetry_group_IT_number 15
_symmetry_cell_setting 'monoclinic'
loop_
_space_group_symop_operation_xyz
x,y,z
-x,y,1/2-z
-x,-y,-z
x,-y,1/2+z
1/2+x,1/2+y,z
1/2-x,1/2+y,1/2-z
1/2-x,1/2-y,-z
1/2+x,1/2-y,1/2+z
loop_
_atom_site_type_symbol
_atom_site_label
_atom_site_fract_x
_atom_site_fract_y
_atom_site_fract_z
Si Si1 0.802517 0.974375 0.656148
Si Si2 0.584801 0.822376 0.969524
Si Si3 0.905862 0.717296 0.653011
Si Si4 0.822997 0.827659 0.567027
Si Si5 0.974465 0.088201 0.829876
Si Si6 0.247488 0.350832 0.786675
O O1 0.500000 0.001275 0.750000
O O2 0.883887 0.915726 0.570237
O O3 0.789105 0.920286 0.723279
O O4 0.992689 0.041022 0.616230
O O5 0.637018 0.820457 0.027222
O O6 0.543799 0.731126 0.961236
O O7 0.299607 0.865572 0.070904
O O8 0.743847 0.870967 0.861700
O O9 0.776510 0.776494 0.647300
O O10 0.714955 0.649451 0.742751
O O11 0.931499 0.777176 0.701472
O O12 0.559371 0.827139 0.619349
O O13 0.000000 0.049882 0.750000
#
# Coordination Sequence:
#
# PCOD9253819 Si02
#       6
#     8   8   8   8   8   8
#     4   9  19  31  47  70 108 136 158 206 267 299
#     4   9  16  25  50  77  92 125 177 216 234 289
#     4   8  15  25  43  69  93 118 167 210 239 280
#     4   8  14  27  44  70  91 123 166 210 239 282
#     4  10  17  30  48  74  98 132 170 213 249 294
#     4  10  14  27  48  72  97 129 169 206 249 297
#
# _framework density 26.249580000000002
#
# number of rings (size 3 to 8) (size 9 to 14) (size 15 to 20)
#    1.000    2.000    1.667    3.000    0.000    0.000 
#    0.000    6.667    0.000    4.000    0.000    1.167 
#    0.000   10.833    0.000    0.000    0.000    0.000 
#
# Total GULP energy -133785.485552 kJ/mol
# GULP energy per Si atom -5574.395231 kJ/mol
# Density = 2.618983 g / cm^3
# Si number density = 26.249580 Si / 1000 Ang^3
#
#
#
# Elastic Constant Matrix: (Units=GPa)
#
#
# Indices 1 2 3 4 5 6 
#
# 1 124.5025 38.1802 13.5299 -0.0429 11.6578 0.0018
# 2 38.1802 67.1377 -1.8563 -0.0912 8.5431 0.0416
# 3 13.5299 -1.8563 115.5652 -0.1180 32.0110 0.0185
# 4 -0.0429 -0.0912 -0.1180 9.2107 0.0348 1.7118
# 5 11.6578 8.5431 32.0110 0.0348 38.4938 0.0072
# 6 0.0018 0.0416 0.0185 1.7118 0.0072 50.3423
#
#
#
# Elastic Compliance Matrix: (Units=1/GPa)
#
#
# Indices 1 2 3 4 5 6 
#
# 1 0.009932 -0.005554 -0.000988 -0.000019 -0.000954 0.000005
# 2 -0.005554 0.018649 0.002119 0.000206 -0.004219 -0.000022
# 3 -0.000988 0.002119 0.011499 0.000203 -0.009734 -0.000011
# 4 -0.000019 0.000206 0.000203 0.109266 -0.000306 -0.003716
# 5 -0.000954 -0.004219 -0.009734 -0.000306 0.035298 0.000012
# 6 0.000005 -0.000022 -0.000011 -0.003716 0.000012 0.019990
#
#
# Mechanical properties :
#
#
# Convention : Reuss Voigt Hill
#
# Bulk Modulus (GPa) = 32.01697 45.21256 38.61477
# Shear Modulus (GPa) = 22.33219 36.76613 29.54916
#
# Velocity S-wave (km/s) = 2.91995 3.74657 3.35879
# Velocity P-wave (km/s) = 4.85713 5.99810 5.45752
#
# Compressibility (1/GPa) = 0.03123344
#
# Stress axis : x y z
#
# Youngs Moduli (GPa) = 100.68645 53.62230 86.96225
#
# Poissons Ratio (x) = 0.29782 0.08590
# Poissons Ratio (y) = 0.55922 -0.18424
# Poissons Ratio (z) = 0.09946 -0.11360
#
# Static dielectric constant tensor:
#      x y z
#    x 2.126240 0.000030 -0.055320 
#    y 0.000030 2.078510 -0.000010 
#    z -0.055320 -0.000010 2.220300 
# 
# From -- ./inp_files/270171.got.cif
#   From: 2010.05.17/outbox.cif.g08.bks.cpg/sg15_136_cif.got.tgz:270171.got - 2010.06.03 18:47:42.
