data_PCOD9253881
_publ_section_title
;
Structure prediction by ZEFSAII (Michael W. Deem and Ramdas Pophale) SiO2 
 PCOD9253881
Probable space group: C 2/C
;
_chemical_formula_sum "Si O2"
_cell_formula_units_Z 32
_cell_length_a 6.713129
_cell_length_b 35.346219
_cell_length_c 5.312410
_cell_angle_alpha 90.000000
_cell_angle_beta 79.309195
_cell_angle_gamma 90.000000
_cell_volume 1238.668580
_symmetry_space_group_name_H-M "C 2/C"
_symmetry_group_IT_number 15
_symmetry_cell_setting 'monoclinic'
loop_
_space_group_symop_operation_xyz
x,y,z
-x,y,1/2-z
-x,-y,-z
x,-y,1/2+z
1/2+x,1/2+y,z
1/2-x,1/2+y,1/2-z
1/2-x,1/2-y,-z
1/2+x,1/2-y,1/2+z
loop_
_atom_site_type_symbol
_atom_site_label
_atom_site_fract_x
_atom_site_fract_y
_atom_site_fract_z
Si Si1 0.769079 0.516075 0.576056
Si Si2 0.867117 0.600575 0.534835
Si Si3 0.746828 0.176144 0.152263
Si Si4 0.761848 0.289502 0.347203
O O1 0.682354 0.506410 0.328316
O O2 0.766898 0.560700 0.624680
O O3 0.000000 0.500000 0.500000
O O4 0.727044 0.635464 0.484454
O O5 0.000000 0.611331 0.750000
O O6 0.000000 0.593236 0.250000
O O7 0.500000 0.179702 0.250000
O O8 0.819934 0.181291 0.422268
O O9 0.814773 0.206618 0.923482
O O10 0.750000 0.250000 0.500000
O O11 0.000000 0.296764 0.250000
#
# Coordination Sequence:
#
# PCOD9253881 Si02
#       4
#     8   8   8   8
#     4  10  15  22  29  47  70 103 146 175 195 235
#     4  11  16  23  36  50  77 107 141 186 201 241
#     4   9  18  28  41  62  81 109 143 179 214 255
#     4  10  19  33  48  65  86 109 143 182 218 267
#
# _framework density 25.834194
#
# number of rings (size 3 to 8) (size 9 to 14) (size 15 to 20)
#    0.000    2.000    5.000    4.500    0.000    0.000 
#    0.000    0.000    0.000    0.000    0.000    0.000 
#    0.000    0.000    0.000    0.000    0.000   25.000 
#
# Total GULP energy -89409.962785 kJ/mol
# GULP energy per Si atom -5588.122674 kJ/mol
# Density = 2.577539 g / cm^3
# Si number density = 25.834194 Si / 1000 Ang^3
#
#
#
# Elastic Constant Matrix: (Units=GPa)
#
#
# Indices 1 2 3 4 5 6 
#
# 1 73.9812 0.7708 50.0136 0.0000 18.5884 0.0000
# 2 0.7708 179.6551 40.9691 0.0000 20.4381 0.0000
# 3 50.0136 40.9691 176.1049 0.0000 33.6167 0.0000
# 4 0.0000 0.0000 0.0000 4.8244 0.0000 70.6390
# 5 18.5884 20.4381 33.6167 0.0000 68.4131 0.0000
# 6 0.0000 0.0000 0.0000 70.6390 0.0000 -62.7802
#
#
#
# Elastic Compliance Matrix: (Units=1/GPa)
#
#
# Indices 1 2 3 4 5 6 
#
# 1 0.017393 0.001319 -0.004711 0.000000 -0.002805 0.000000
# 2 0.001319 0.006068 -0.001514 0.000000 -0.001427 0.000000
# 3 -0.004711 -0.001514 0.007766 0.000000 -0.002084 0.000000
# 4 0.000000 0.000000 0.000000 0.011862 0.000000 0.013346
# 5 -0.002805 -0.001427 -0.002084 0.000000 0.016830 0.000000
# 6 0.000000 0.000000 0.000000 0.013346 0.000000 -0.000912
#
#
# Mechanical properties :
#
#
# Convention : Reuss Voigt Hill
#
# Bulk Modulus (GPa) = 46.69551 68.13869 57.41710
# Shear Modulus (GPa) = 65.82677 24.62397 45.22537
#
# Velocity S-wave (km/s) = 5.05330 3.09067 4.18856
# Velocity P-wave (km/s) = 7.22233 6.25851 6.75763
#
# Compressibility (1/GPa) = 0.02141534
#
# Stress axis : x y z
#
# Youngs Moduli (GPa) = 57.49555 164.79515 128.76167
#
# Poissons Ratio (x) = -0.21732 0.60658
# Poissons Ratio (y) = -0.07582 0.19491
# Poissons Ratio (z) = 0.27085 0.24946
#
# Static dielectric constant tensor:
#      x y z
#    x 2.118340 0.000000 0.009830 
#    y 0.000000 2.017270 0.000000 
#    z 0.009830 0.000000 1.936910 
# 
# From -- ./inp_files/8356.got.cif
#   From: 2010.05.17/outbox.cif.g08.bks.cpg/sg15_5_cif.got.tgz:8356.got - 2010.06.03 18:47:42.
