data_PCOD9253533
_publ_section_title
;
Structure prediction by ZEFSAII (Michael W. Deem and Ramdas Pophale) SiO2 
 PCOD9253533
Probable space group: P 21/C
;
_chemical_formula_sum "Si O2"
_cell_formula_units_Z 28
_cell_length_a 9.000000
_cell_length_b 9.000000
_cell_length_c 27.000000
_cell_angle_alpha 90.000000
_cell_angle_beta 40.000000
_cell_angle_gamma 90.000000
_cell_volume 1405.776502
_symmetry_space_group_name_H-M "P 21/C"
_symmetry_group_IT_number 14
_symmetry_cell_setting 'monoclinic'
loop_
_space_group_symop_operation_xyz
x,y,z
-x,1/2+y,1/2-z
-x,-y,-z
x,1/2-y,1/2+z
loop_
_atom_site_type_symbol
_atom_site_label
_atom_site_fract_x
_atom_site_fract_y
_atom_site_fract_z
Si Si1 0.146975 0.478894 0.751998
Si Si2 0.879398 0.534196 0.720419
Si Si3 0.135468 0.775620 0.604549
Si Si4 0.815055 0.431142 0.010961
Si Si5 0.874380 0.231556 0.665713
Si Si6 0.390512 0.355522 0.000473
Si Si7 0.456029 0.743751 0.845367
O O1 0.204008 0.595541 0.780250
O O2 0.375905 0.381177 0.686869
O O3 0.038841 0.542618 0.729030
O O4 0.950888 0.375055 0.827233
O O5 0.865223 0.369069 0.704856
O O6 0.631006 0.606136 0.793348
O O7 0.989345 0.628106 0.647365
O O8 0.093689 0.867948 0.564807
O O9 0.405380 0.740448 0.543394
O O10 0.692148 0.295551 0.068943
O O11 0.648138 0.571253 0.042849
O O12 0.000000 0.500000 0.000000
O O13 0.712070 0.255269 0.659252
O O14 0.141530 0.199004 0.582249
O O15 0.500000 0.500000 0.000000
#
# Coordination Sequence:
#
# PCOD9253533 Si02
#       7
#     4   4   4   4   4   4   4
#     4  11  22  42  67  92 124 172 223 258 320 394
#     4  11  26  41  66  94 131 165 220 271 326 379
#     4  10  22  41  63  95 125 165 213 273 308 387
#     4  11  20  39  68  97 124 171 214 261 327 395
#     4  12  22  42  64  95 128 172 210 275 329 383
#     4  10  20  36  67  88 125 164 219 250 322 384
#     4  11  24  41  65  96 127 167 218 272 324 387
#
# _framework density 19.917818
#
# number of rings (size 3 to 8) (size 9 to 14) (size 15 to 20)
#    0.000    1.143    4.286    3.429    6.000    1.714 
#    0.000    2.143    0.000    0.000    0.000    0.000 
#    0.000    0.000    0.000    0.000    0.000    0.000 
#
# Total GULP energy -156065.401964 kJ/mol
# GULP energy per Si atom -5573.764356 kJ/mol
# Density = 1.987248 g / cm^3
# Si number density = 19.917818 Si / 1000 Ang^3
#
#
#
# Elastic Constant Matrix: (Units=GPa)
#
#
# Indices 1 2 3 4 5 6 
#
# 1 104.3960 -5.3683 24.4192 0.0000 -7.6609 0.0000
# 2 -5.3683 36.1318 18.9489 0.0000 -1.2285 0.0000
# 3 24.4192 18.9489 69.4350 0.0000 -3.2913 0.0000
# 4 0.0000 0.0000 0.0000 17.6592 0.0000 0.1928
# 5 -7.6609 -1.2285 -3.2913 0.0000 25.5441 0.0000
# 6 0.0000 0.0000 0.0000 0.1928 0.0000 21.9816
#
#
#
# Elastic Compliance Matrix: (Units=1/GPa)
#
#
# Indices 1 2 3 4 5 6 
#
# 1 0.011186 0.004378 -0.004990 0.000000 0.002922 0.000000
# 2 0.004378 0.034017 -0.010749 0.000000 0.001564 0.000000
# 3 -0.004990 -0.010749 0.019112 0.000000 0.000449 0.000000
# 4 0.000000 0.000000 0.000000 0.056633 0.000000 -0.000497
# 5 0.002922 0.001564 0.000449 0.000000 0.040158 0.000000
# 6 0.000000 0.000000 0.000000 -0.000497 0.000000 0.045497
#
#
# Mechanical properties :
#
#
# Convention : Reuss Voigt Hill
#
# Bulk Modulus (GPa) = 24.04252 31.77361 27.90807
# Shear Modulus (GPa) = 20.56017 24.50116 22.53067
#
# Velocity S-wave (km/s) = 3.21635 3.51110 3.36695
# Velocity P-wave (km/s) = 5.08825 5.69422 5.39974
#
# Compressibility (1/GPa) = 0.04159297
#
# Stress axis : x y z
#
# Youngs Moduli (GPa) = 89.39932 29.39674 52.32407
#
# Poissons Ratio (x) = -0.12871 0.26111
# Poissons Ratio (y) = -0.39142 0.56244
# Poissons Ratio (z) = 0.44612 0.31599
#
# Static dielectric constant tensor:
#      x y z
#    x 1.683920 0.000000 -0.003310 
#    y 0.000000 1.522920 0.000000 
#    z -0.003310 0.000000 1.715280 
# 
# From -- ./inp_files/76308.got.cif
#   From: 2010.05.17/outbox.ucp.g08.bks.cvg/sg14_39_cif.got.tgz:76308.got - 2010.06.11 12:31:08.
