data_PCOD9253704
_publ_section_title
;
Structure prediction by ZEFSAII (Michael W. Deem and Ramdas Pophale) SiO2 
 PCOD9253704
Probable space group: P 21/C
;
_chemical_formula_sum "Si O2"
_cell_formula_units_Z 28
_cell_length_a 12.000000
_cell_length_b 9.000000
_cell_length_c 27.000000
_cell_angle_alpha 90.000000
_cell_angle_beta 150.000000
_cell_angle_gamma 90.000000
_cell_volume 1458.000000
_symmetry_space_group_name_H-M "P 21/C"
_symmetry_group_IT_number 14
_symmetry_cell_setting 'monoclinic'
loop_
_space_group_symop_operation_xyz
x,y,z
-x,1/2+y,1/2-z
-x,-y,-z
x,1/2-y,1/2+z
loop_
_atom_site_type_symbol
_atom_site_label
_atom_site_fract_x
_atom_site_fract_y
_atom_site_fract_z
Si Si1 0.587459 0.899048 0.410346
Si Si2 0.757491 0.382716 0.356475
Si Si3 0.313260 0.228320 0.146990
Si Si4 0.927176 0.072015 0.814130
Si Si5 0.357678 0.213302 0.973102
Si Si6 0.154238 0.797641 0.511191
Si Si7 0.691866 0.381947 0.522355
O O1 0.669719 0.772032 0.404095
O O2 0.323128 0.926296 0.301377
O O3 0.625088 0.843448 0.480561
O O4 0.722419 0.045427 0.445570
O O5 0.537051 0.296658 0.255185
O O6 0.709201 0.552349 0.353577
O O7 0.912096 0.393489 0.367296
O O8 0.841974 0.287309 0.434969
O O9 0.110702 0.308898 0.097790
O O10 0.099572 0.191446 0.857518
O O11 0.061902 0.917201 0.860411
O O12 0.594307 0.949485 0.982954
O O13 0.532456 0.216218 0.995596
O O14 0.269464 0.692643 0.515180
#
# Coordination Sequence:
#
# PCOD9253704 Si02
#       7
#     4   4   4   4   4   4   4
#     4  11  23  36  60  91 117 153 206 244 300 356
#     4  11  21  36  61  86 121 161 199 238 310 357
#     4  11  22  38  57  87 123 154 198 250 291 365
#     4   9  19  39  60  82 117 152 196 252 285 362
#     4   9  19  41  62  80 113 160 198 246 301 347
#     4  12  23  36  59  90 122 160 191 247 304 365
#     4   9  20  40  62  78 118 161 197 239 305 353
#
# _framework density 19.20439
#
# number of rings (size 3 to 8) (size 9 to 14) (size 15 to 20)
#    0.857    0.857    1.429    4.286    0.000    2.857 
#    2.571    0.000    0.000    0.000    0.000    0.000 
#    0.000    0.000    0.000    0.000    0.000    0.000 
#
# Total GULP energy -156015.481585 kJ/mol
# GULP energy per Si atom -5571.981485 kJ/mol
# Density = 1.916068 g / cm^3
# Si number density = 19.204390 Si / 1000 Ang^3
#
#
#
# Elastic Constant Matrix: (Units=GPa)
#
#
# Indices 1 2 3 4 5 6 
#
# 1 81.6734 -0.9630 11.0065 0.0000 27.4610 0.0000
# 2 -0.9630 47.2163 20.4033 0.0000 9.7497 0.0000
# 3 11.0065 20.4033 24.3691 0.0000 13.5956 0.0000
# 4 0.0000 0.0000 0.0000 8.4915 0.0000 -18.3967
# 5 27.4610 9.7497 13.5956 0.0000 22.4514 0.0000
# 6 0.0000 0.0000 0.0000 -18.3967 0.0000 0.8075
#
#
#
# Elastic Compliance Matrix: (Units=1/GPa)
#
#
# Indices 1 2 3 4 5 6 
#
# 1 0.022688 0.005935 0.002573 0.000000 -0.031886 0.000000
# 2 0.005935 0.034937 -0.029325 0.000000 -0.004673 0.000000
# 3 0.002573 -0.029325 0.089219 0.000000 -0.044439 0.000000
# 4 0.000000 0.000000 0.000000 -0.002435 0.000000 -0.055482
# 5 -0.031886 -0.004673 -0.044439 0.000000 0.112481 0.000000
# 6 0.000000 0.000000 0.000000 -0.055482 0.000000 -0.025609
#
#
# Mechanical properties :
#
#
# Convention : Reuss Voigt Hill
#
# Bulk Modulus (GPa) = 9.50482 23.79470 16.64976
# Shear Modulus (GPa) = 16.23462 14.53757 15.38610
#
# Velocity S-wave (km/s) = 2.91066 2.75433 2.83358
# Velocity P-wave (km/s) = 4.03187 4.74682 4.40388
#
# Compressibility (1/GPa) = 0.10520976
#
# Stress axis : x y z
#
# Youngs Moduli (GPa) = 44.07608 28.62287 11.20842
#
# Poissons Ratio (x) = -0.16988 -0.02884
# Poissons Ratio (y) = -0.26160 0.32868
# Poissons Ratio (z) = -0.11339 0.83936
#
# Static dielectric constant tensor:
#      x y z
#    x 1.663490 0.000000 -0.016970 
#    y 0.000000 1.654380 0.000000 
#    z -0.016970 0.000000 1.741840 
# 
# From -- ./inp_files/77160.got.cif
#   From: 2010.05.17/outbox.ucp.g08.bks.cvg/sg14_39_cif.got.tgz:77160.got - 2010.06.11 12:31:08.
