data_PCOD9253465
_publ_section_title
;
Structure prediction by ZEFSAII (Michael W. Deem and Ramdas Pophale) SiO2 
 PCOD9253465
Probable space group: P 21/C
;
_chemical_formula_sum "Si O2"
_cell_formula_units_Z 32
_cell_length_a 12.000000
_cell_length_b 21.000000
_cell_length_c 9.000000
_cell_angle_alpha 90.000000
_cell_angle_beta 50.000000
_cell_angle_gamma 90.000000
_cell_volume 1737.388797
_symmetry_space_group_name_H-M "P 21/C"
_symmetry_group_IT_number 14
_symmetry_cell_setting 'monoclinic'
loop_
_space_group_symop_operation_xyz
x,y,z
-x,1/2+y,1/2-z
-x,-y,-z
x,1/2-y,1/2+z
loop_
_atom_site_type_symbol
_atom_site_label
_atom_site_fract_x
_atom_site_fract_y
_atom_site_fract_z
Si Si1 0.205364 0.066426 0.714753
Si Si2 0.078000 0.593484 0.043765
Si Si3 0.360212 0.243455 0.311962
Si Si4 0.680002 0.951938 0.070045
Si Si5 0.788697 0.833412 0.817755
Si Si6 0.639014 0.065473 0.514398
Si Si7 0.076461 0.960607 0.224038
Si Si8 0.462385 0.339544 0.970591
O O1 0.219580 0.072878 0.879575
O O2 0.313273 0.121295 0.565195
O O3 0.040708 0.067022 0.794193
O O4 0.284924 0.999374 0.607956
O O5 0.959289 0.648417 0.176585
O O6 0.001714 0.527326 0.162720
O O7 0.235066 0.597412 0.990594
O O8 0.090330 0.583997 0.855869
O O9 0.262544 0.284254 0.510761
O O10 0.262524 0.197298 0.293251
O O11 0.476349 0.203997 0.312156
O O12 0.434896 0.292967 0.134410
O O13 0.511926 0.951790 0.268152
O O14 0.702563 0.899961 0.921344
O O15 0.760612 0.018251 0.963242
O O16 0.583360 0.110421 0.426211
#
# Coordination Sequence:
#
# PCOD9253465 Si02
#       8
#     4   4   4   4   4   4   4   4
#     4  10  18  33  56  81 115 144 185 232 282 335
#     4   9  19  34  51  77 112 142 173 223 276 322
#     4  10  20  34  60  81 100 141 194 237 271 326
#     4  10  18  32  53  81 112 145 184 222 273 336
#     4  10  19  36  57  80 104 140 187 234 272 325
#     4  10  20  35  55  81 118 150 180 228 285 337
#     4   9  18  31  52  79 108 145 177 214 272 329
#     4  10  19  35  56  82 106 141 187 229 281 329
#
# _framework density 18.418444999999998
#
# number of rings (size 3 to 8) (size 9 to 14) (size 15 to 20)
#    0.000    2.250    2.500    2.625    0.000    1.500 
#    0.000    2.500    0.000    0.000    0.000    0.000 
#    0.000    0.000    0.000    0.000    0.000    0.000 
#
# Total GULP energy -178346.710062 kJ/mol
# GULP energy per Si atom -5573.334689 kJ/mol
# Density = 1.837652 g / cm^3
# Si number density = 18.418445 Si / 1000 Ang^3
#
#
#
# Elastic Constant Matrix: (Units=GPa)
#
#
# Indices 1 2 3 4 5 6 
#
# 1 114.9410 28.0224 32.8840 0.0000 -3.2125 0.0000
# 2 28.0224 60.3930 14.2139 0.0000 4.2109 0.0000
# 3 32.8840 14.2139 47.9816 0.0000 0.3481 0.0000
# 4 0.0000 0.0000 0.0000 29.8333 0.0000 1.9361
# 5 -3.2125 4.2109 0.3481 0.0000 30.0145 0.0000
# 6 0.0000 0.0000 0.0000 1.9361 0.0000 29.9290
#
#
#
# Elastic Compliance Matrix: (Units=1/GPa)
#
#
# Indices 1 2 3 4 5 6 
#
# 1 0.011671 -0.003935 -0.006846 0.000000 0.001881 0.000000
# 2 -0.003935 0.019306 -0.003000 0.000000 -0.003095 0.000000
# 3 -0.006846 -0.003000 0.026427 0.000000 -0.000618 0.000000
# 4 0.000000 0.000000 0.000000 0.033661 0.000000 -0.002178
# 5 0.001881 -0.003095 -0.000618 0.000000 0.033960 0.000000
# 6 0.000000 0.000000 0.000000 -0.002178 0.000000 0.033553
#
#
# Mechanical properties :
#
#
# Convention : Reuss Voigt Hill
#
# Bulk Modulus (GPa) = 33.51125 41.50625 37.50875
# Shear Modulus (GPa) = 25.49892 27.83506 26.66699
#
# Velocity S-wave (km/s) = 3.72482 3.89171 3.80918
# Velocity P-wave (km/s) = 6.06077 6.54049 6.30519
#
# Compressibility (1/GPa) = 0.02984073
#
# Stress axis : x y z
#
# Youngs Moduli (GPa) = 85.68432 51.79763 37.84061
#
# Poissons Ratio (x) = 0.20382 0.25907
# Poissons Ratio (y) = 0.33717 0.11352
# Poissons Ratio (z) = 0.58663 0.15538
#
# Static dielectric constant tensor:
#      x y z
#    x 1.624900 0.000000 0.023840 
#    y 0.000000 1.666840 0.000000 
#    z 0.023840 0.000000 1.679890 
# 
# From -- ./inp_files/14303.got.cif
#   From: 2010.05.17/outbox.ucp.g08.bks.cvg/sg14_8_cif.got.tgz:14303.got - 2010.06.11 12:31:08.
