data_PCOD9253183
_publ_section_title
;
Structure prediction by ZEFSAII (Michael W. Deem and Ramdas Pophale) SiO2 
 PCOD9253183
Probable space group: P 21/C
;
_chemical_formula_sum "Si O2"
_cell_formula_units_Z 16
_cell_length_a 11.247479
_cell_length_b 7.713423
_cell_length_c 11.711190
_cell_angle_alpha 90.000000
_cell_angle_beta 38.776716
_cell_angle_gamma 90.000000
_cell_volume 636.321794
_symmetry_space_group_name_H-M "P 21/C"
_symmetry_group_IT_number 14
_symmetry_cell_setting 'monoclinic'
loop_
_space_group_symop_operation_xyz
x,y,z
-x,1/2+y,1/2-z
-x,-y,-z
x,1/2-y,1/2+z
loop_
_atom_site_type_symbol
_atom_site_label
_atom_site_fract_x
_atom_site_fract_y
_atom_site_fract_z
Si Si1 0.639182 0.230901 0.187534
Si Si2 0.934561 0.537564 0.382379
Si Si3 0.653179 0.981124 0.485926
Si Si4 0.884790 0.398298 0.180878
O O1 0.665475 0.345096 0.054359
O O2 0.696613 0.336957 0.257132
O O3 0.429183 0.160566 0.364834
O O4 0.785521 0.069444 0.069148
O O5 0.992350 0.728850 0.377478
O O6 0.856588 0.516805 0.312214
O O7 0.141425 0.445488 0.220054
O O8 0.500000 0.000000 0.500000
O O9 0.000000 0.500000 0.000000
#
# Coordination Sequence:
#
# PCOD9253183 Si02
#       4
#     4   4   4   4
#     4  12  27  47  74 112 149 200 246 305 368 437
#     4  12  25  48  76 105 152 193 250 303 368 438
#     4  12  27  47  73 110 149 193 251 304 370 437
#     4  12  24  48  77 110 143 200 244 301 376 438
#
# _framework density 25.14451
#
# number of rings (size 3 to 8) (size 9 to 14) (size 15 to 20)
#    0.000    0.000    7.500    0.750    3.500    0.000 
#    4.500    2.500    0.000    0.000    0.000    0.000 
#    0.000    0.000    0.000    0.000    0.000    0.000 
#
# Total GULP energy -89715.136125 kJ/mol
# GULP energy per Si atom -5607.196008 kJ/mol
# Density = 2.508728 g / cm^3
# Si number density = 25.144510 Si / 1000 Ang^3
#
#
#
# Elastic Constant Matrix: (Units=GPa)
#
#
# Indices 1 2 3 4 5 6 
#
# 1 110.4328 37.7329 22.5033 0.0000 19.8251 0.0000
# 2 37.7329 116.4455 20.8034 0.0000 7.5418 0.0000
# 3 22.5033 20.8034 106.7338 0.0000 -7.9173 0.0000
# 4 0.0000 0.0000 0.0000 41.6540 0.0000 8.5629
# 5 19.8251 7.5418 -7.9173 0.0000 52.2269 0.0000
# 6 0.0000 0.0000 0.0000 8.5629 0.0000 45.8617
#
#
#
# Elastic Compliance Matrix: (Units=1/GPa)
#
#
# Indices 1 2 3 4 5 6 
#
# 1 0.011255 -0.003003 -0.002096 0.000000 -0.004156 0.000000
# 2 -0.003003 0.009827 -0.001318 0.000000 -0.000479 0.000000
# 3 -0.002096 -0.001318 0.010256 0.000000 0.002541 0.000000
# 4 0.000000 0.000000 0.000000 0.024966 0.000000 -0.004661
# 5 -0.004156 -0.000479 0.002541 0.000000 0.021179 0.000000
# 6 0.000000 0.000000 0.000000 -0.004661 0.000000 0.022675
#
#
# Mechanical properties :
#
#
# Convention : Reuss Voigt Hill
#
# Bulk Modulus (GPa) = 54.04094 55.07682 54.55888
# Shear Modulus (GPa) = 41.96038 44.78669 43.37354
#
# Velocity S-wave (km/s) = 4.08949 4.22497 4.15778
# Velocity P-wave (km/s) = 6.62098 6.76404 6.69289
#
# Compressibility (1/GPa) = 0.01850449
#
# Stress axis : x y z
#
# Youngs Moduli (GPa) = 88.85190 101.75688 97.50129
#
# Poissons Ratio (x) = 0.30561 0.20434
# Poissons Ratio (y) = 0.26685 0.12848
# Poissons Ratio (z) = 0.18622 0.13409
#
# Static dielectric constant tensor:
#      x y z
#    x 1.991550 0.000000 -0.007090 
#    y 0.000000 2.055210 0.000000 
#    z -0.007090 0.000000 1.949450 
# 
# From -- ./inp_files/27683.got.cif
#   From: 2010.05.17/outbox.cif.g08.bks.cpg/sg14_14_cif.got.tgz:27683.got - 2010.06.03 17:49:19.
