data_PCOD9253553
_publ_section_title
;
Structure prediction by ZEFSAII (Michael W. Deem and Ramdas Pophale) SiO2 
 PCOD9253553
Probable space group: P 21/C
;
_chemical_formula_sum "Si O2"
_cell_formula_units_Z 28
_cell_length_a 9.000000
_cell_length_b 21.000000
_cell_length_c 9.000000
_cell_angle_alpha 90.000000
_cell_angle_beta 50.000000
_cell_angle_gamma 90.000000
_cell_volume 1303.041598
_symmetry_space_group_name_H-M "P 21/C"
_symmetry_group_IT_number 14
_symmetry_cell_setting 'monoclinic'
loop_
_space_group_symop_operation_xyz
x,y,z
-x,1/2+y,1/2-z
-x,-y,-z
x,1/2-y,1/2+z
loop_
_atom_site_type_symbol
_atom_site_label
_atom_site_fract_x
_atom_site_fract_y
_atom_site_fract_z
Si Si1 0.183652 0.145037 0.826342
Si Si2 0.382445 0.053344 0.917232
Si Si3 0.371835 0.817267 0.512836
Si Si4 0.777214 0.203544 0.080161
Si Si5 0.135824 0.423778 0.050895
Si Si6 0.182940 0.568847 0.993312
Si Si7 0.528576 0.411035 0.628209
O O1 0.227284 0.087900 0.913578
O O2 0.400481 0.175612 0.674868
O O3 0.118032 0.115848 0.711475
O O4 0.000852 0.189973 0.980984
O O5 0.605867 0.059151 0.718170
O O6 0.354157 0.977724 0.949059
O O7 0.397495 0.088262 0.064606
O O8 0.257589 0.768537 0.482724
O O9 0.353280 0.792839 0.689928
O O10 0.246707 0.882421 0.580133
O O11 0.677589 0.146291 0.050624
O O12 0.977664 0.408127 0.023687
O O13 0.114061 0.499660 0.091444
O O14 0.361082 0.412532 0.860138
#
# Coordination Sequence:
#
# PCOD9253553 Si02
#       7
#     4   4   4   4   4   4   4
#     4  11  25  44  71  96 129 171 219 274 333 390
#     4   9  21  39  65 100 134 169 210 275 329 392
#     4  11  28  47  64  95 132 176 223 272 315 392
#     4  12  28  45  68  95 131 178 221 271 322 391
#     4  10  20  39  70 100 130 172 211 276 332 390
#     4   9  21  40  67  93 137 172 216 266 336 383
#     4  10  21  40  65  99 137 168 216 269 330 386
#
# _framework density 21.488185999999999
#
# number of rings (size 3 to 8) (size 9 to 14) (size 15 to 20)
#    0.000    1.714    1.429    0.857   10.000    5.714 
#    0.000    0.000    0.000    0.000    0.000    0.000 
#    0.000    0.000    0.000    0.000    0.000    0.000 
#
# Total GULP energy -156319.497224 kJ/mol
# GULP energy per Si atom -5582.839187 kJ/mol
# Density = 2.143928 g / cm^3
# Si number density = 21.488186 Si / 1000 Ang^3
#
#
#
# Elastic Constant Matrix: (Units=GPa)
#
#
# Indices 1 2 3 4 5 6 
#
# 1 54.0667 -2.6969 -11.5284 0.0000 -27.2859 0.0000
# 2 -2.6969 8.4327 6.6701 0.0000 -13.6090 0.0000
# 3 -11.5284 6.6701 32.9722 0.0000 -1.1425 0.0000
# 4 0.0000 0.0000 0.0000 13.3058 0.0000 5.0888
# 5 -27.2859 -13.6090 -1.1425 0.0000 32.1012 0.0000
# 6 0.0000 0.0000 0.0000 5.0888 0.0000 33.6205
#
#
#
# Elastic Compliance Matrix: (Units=1/GPa)
#
#
# Indices 1 2 3 4 5 6 
#
# 1 -0.014607 -0.115945 0.016234 0.000000 -0.060992 0.000000
# 2 -0.115945 -0.254229 0.003746 0.000000 -0.206197 0.000000
# 3 0.016234 0.003746 0.035824 0.000000 0.016662 0.000000
# 4 0.000000 0.000000 0.000000 0.079773 0.000000 -0.012074
# 5 -0.060992 -0.206197 0.016662 0.000000 -0.107514 0.000000
# 6 0.000000 0.000000 0.000000 -0.012074 0.000000 0.031571
#
#
# Mechanical properties :
#
#
# Convention : Reuss Voigt Hill
#
# Bulk Modulus (GPa) = -2.35327 8.92901 3.28787
# Shear Modulus (GPa) = -27.94874 22.67396 -2.63739
#
# Velocity S-wave (km/s) = -3.61037 3.25188 -1.10907
# Velocity P-wave (km/s) = 4.29852 4.27364 0.32656
#
# Compressibility (1/GPa) = -0.42494035
#
# Stress axis : x y z
#
# Youngs Moduli (GPa) = -68.45984 -3.93347 27.91394
#
# Poissons Ratio (x) = -0.45606 -0.45317
# Poissons Ratio (y) = -7.93755 -0.10456
# Poissons Ratio (z) = 1.11141 0.01473
#
# Static dielectric constant tensor:
#      x y z
#    x 1.713500 0.000000 0.026900 
#    y 0.000000 1.846660 0.000000 
#    z 0.026900 0.000000 1.847520 
# 
# From -- ./inp_files/10381.got.cif
#   From: 2010.05.17/outbox.ucp.g08.bks.cvg/sg14_6_cif.got.tgz:10381.got - 2010.06.11 12:31:08.
