data_PCOD9253384
_publ_section_title
;
Structure prediction by ZEFSAII (Michael W. Deem and Ramdas Pophale) SiO2 
 PCOD9253384
Probable space group: P 21/C
;
_chemical_formula_sum "Si O2"
_cell_formula_units_Z 16
_cell_length_a 9.475249
_cell_length_b 4.955613
_cell_length_c 18.514609
_cell_angle_alpha 90.000000
_cell_angle_beta 45.744975
_cell_angle_gamma 90.000000
_cell_volume 622.675218
_symmetry_space_group_name_H-M "P 21/C"
_symmetry_group_IT_number 14
_symmetry_cell_setting 'monoclinic'
loop_
_space_group_symop_operation_xyz
x,y,z
-x,1/2+y,1/2-z
-x,-y,-z
x,1/2-y,1/2+z
loop_
_atom_site_type_symbol
_atom_site_label
_atom_site_fract_x
_atom_site_fract_y
_atom_site_fract_z
Si Si1 0.588694 0.029387 0.184396
Si Si2 0.660105 0.070744 0.002030
Si Si3 0.022644 0.902977 0.692691
Si Si4 0.980503 0.301525 0.075479
O O1 0.474550 0.224536 0.280036
O O2 0.821009 0.073448 0.114855
O O3 0.556429 0.134335 0.114624
O O4 0.787357 0.303204 0.919097
O O5 0.819290 0.840149 0.967933
O O6 0.500000 0.000000 0.000000
O O7 0.941289 0.640179 0.762468
O O8 0.894644 0.033380 0.674750
O O9 0.000000 0.500000 0.000000
#
# Coordination Sequence:
#
# PCOD9253384 Si02
#       4
#     4   4   4   4
#     4  12  30  50  84 122 161 214 279 332 413 498
#     4  12  30  53  82 120 170 214 277 341 418 498
#     4  12  28  50  83 118 160 214 275 332 420 483
#     4  12  27  56  84 115 170 219 276 345 419 488
#
# _framework density 25.69558
#
# number of rings (size 3 to 8) (size 9 to 14) (size 15 to 20)
#    0.000    0.000    5.000    2.250    7.000    3.000 
#    4.500    0.000    0.000    0.000    0.000    0.000 
#    0.000    0.000    0.000    0.000    0.000    0.000 
#
# Total GULP energy -89738.517075 kJ/mol
# GULP energy per Si atom -5608.657317 kJ/mol
# Density = 2.563710 g / cm^3
# Si number density = 25.695580 Si / 1000 Ang^3
#
#
#
# Elastic Constant Matrix: (Units=GPa)
#
#
# Indices 1 2 3 4 5 6 
#
# 1 164.4624 41.8338 39.7803 0.0000 9.6830 0.0000
# 2 41.8338 141.3548 35.4085 0.0000 9.6001 0.0000
# 3 39.7803 35.4085 124.2942 0.0000 33.4190 0.0000
# 4 0.0000 0.0000 0.0000 42.0279 0.0000 10.9720
# 5 9.6830 9.6001 33.4190 0.0000 53.3527 0.0000
# 6 0.0000 0.0000 0.0000 10.9720 0.0000 49.9246
#
#
#
# Elastic Compliance Matrix: (Units=1/GPa)
#
#
# Indices 1 2 3 4 5 6 
#
# 1 0.006915 -0.001607 -0.001799 0.000000 0.000161 0.000000
# 2 -0.001607 0.007991 -0.001749 0.000000 -0.000051 0.000000
# 3 -0.001799 -0.001749 0.010759 0.000000 -0.006098 0.000000
# 4 0.000000 0.000000 0.000000 0.025242 0.000000 -0.005547
# 5 0.000161 -0.000051 -0.006098 0.000000 0.022543 0.000000
# 6 0.000000 0.000000 0.000000 -0.005547 0.000000 0.021249
#
#
# Mechanical properties :
#
#
# Convention : Reuss Voigt Hill
#
# Bulk Modulus (GPa) = 65.11669 73.79517 69.45593
# Shear Modulus (GPa) = 45.40263 49.93365 47.66814
#
# Velocity S-wave (km/s) = 4.20806 4.41304 4.31177
# Velocity P-wave (km/s) = 7.00050 7.39919 7.20260
#
# Compressibility (1/GPa) = 0.01535705
#
# Stress axis : x y z
#
# Youngs Moduli (GPa) = 144.61952 125.13450 92.94769
#
# Poissons Ratio (x) = 0.20107 0.16717
# Poissons Ratio (y) = 0.23237 0.16253
# Poissons Ratio (z) = 0.26010 0.21881
#
# Static dielectric constant tensor:
#      x y z
#    x 2.080840 0.000000 -0.018470 
#    y 0.000000 2.065710 0.000000 
#    z -0.018470 0.000000 2.080920 
# 
# From -- ./inp_files/53920.got.cif
#   From: 2010.05.17/outbox.cif.g08.bks.cpg/sg14_27_cif.got.tgz:53920.got - 2010.06.03 17:49:19.
