data_PCOD9253085
_publ_section_title
;
Structure prediction by ZEFSAII (Michael W. Deem and Ramdas Pophale) SiO2 
 PCOD9253085
Probable space group: P 21/C
;
_chemical_formula_sum "Si O2"
_cell_formula_units_Z 24
_cell_length_a 13.518540
_cell_length_b 5.032836
_cell_length_c 17.812209
_cell_angle_alpha 90.000000
_cell_angle_beta 62.618296
_cell_angle_gamma 90.000000
_cell_volume 1076.105561
_symmetry_space_group_name_H-M "P 21/C"
_symmetry_group_IT_number 14
_symmetry_cell_setting 'monoclinic'
loop_
_space_group_symop_operation_xyz
x,y,z
-x,1/2+y,1/2-z
-x,-y,-z
x,1/2-y,1/2+z
loop_
_atom_site_type_symbol
_atom_site_label
_atom_site_fract_x
_atom_site_fract_y
_atom_site_fract_z
Si Si1 0.924970 0.120291 0.288352
Si Si2 0.121198 0.524903 0.922897
Si Si3 0.196168 0.037309 0.814156
Si Si4 0.754538 0.534470 0.970226
Si Si5 0.606640 0.481265 0.516320
Si Si6 0.562892 0.630666 0.704661
O O1 0.830640 0.070792 0.258496
O O2 0.864757 0.053261 0.387147
O O3 0.138678 0.179194 0.348729
O O4 0.977011 0.411425 0.264499
O O5 0.143623 0.823592 0.889446
O O6 0.209794 0.441701 0.955555
O O7 0.000000 0.500000 0.000000
O O8 0.324927 0.065024 0.789371
O O9 0.661231 0.308460 0.995432
O O10 0.702353 0.808596 0.959738
O O11 0.500000 0.500000 0.500000
O O12 0.575233 0.559384 0.612714
O O13 0.530984 0.936391 0.728462
#
# Coordination Sequence:
#
# PCOD9253085 Si02
#       6
#     4   4   4   4   4   4
#     4  12  27  46  68 103 140 181 224 273 338 402
#     4  12  23  43  72  98 131 177 222 278 334 398
#     4  12  25  45  68 101 135 173 228 276 332 404
#     4  12  24  47  68 101 139 175 225 281 332 405
#     4  12  27  46  70 102 135 179 226 278 344 400
#     4  12  26  45  72 100 134 176 228 279 338 400
#
# _framework density 22.302645999999999
#
# number of rings (size 3 to 8) (size 9 to 14) (size 15 to 20)
#    0.000    0.000    3.333    7.000    4.667    0.000 
#    0.000    0.000    0.000    0.000    0.000    0.000 
#    0.000    0.000    0.000    0.000    0.000    0.000 
#
# Total GULP energy -134539.774499 kJ/mol
# GULP energy per Si atom -5605.823937 kJ/mol
# Density = 2.225188 g / cm^3
# Si number density = 22.302646 Si / 1000 Ang^3
#
#
#
# Elastic Constant Matrix: (Units=GPa)
#
#
# Indices 1 2 3 4 5 6 
#
# 1 98.8222 8.9025 -3.9438 0.0000 14.4701 0.0000
# 2 8.9025 68.1665 -26.8587 0.0000 -3.9407 0.0000
# 3 -3.9438 -26.8587 48.2614 0.0000 -0.0446 0.0000
# 4 0.0000 0.0000 0.0000 34.4547 0.0000 -9.1117
# 5 14.4701 -3.9407 -0.0446 0.0000 36.5833 0.0000
# 6 0.0000 0.0000 0.0000 -9.1117 0.0000 41.1831
#
#
#
# Elastic Compliance Matrix: (Units=1/GPa)
#
#
# Indices 1 2 3 4 5 6 
#
# 1 0.010931 -0.001714 -0.000065 0.000000 -0.004508 0.000000
# 2 -0.001714 0.019212 0.010554 0.000000 0.002760 0.000000
# 3 -0.000065 0.010554 0.026590 0.000000 0.001195 0.000000
# 4 0.000000 0.000000 0.000000 0.030827 0.000000 0.006820
# 5 -0.004508 0.002760 0.001195 0.000000 0.029417 0.000000
# 6 0.000000 0.000000 0.000000 0.006820 0.000000 0.025791
#
#
# Mechanical properties :
#
#
# Convention : Reuss Voigt Hill
#
# Bulk Modulus (GPa) = 13.46158 19.05002 16.25580
# Shear Modulus (GPa) = 33.33827 38.25422 35.79625
#
# Velocity S-wave (km/s) = 3.87047 4.14603 4.01062
# Velocity P-wave (km/s) = 5.10128 5.61066 5.36202
#
# Compressibility (1/GPa) = 0.07428548
#
# Stress axis : x y z
#
# Youngs Moduli (GPa) = 91.48190 52.05098 37.60795
#
# Poissons Ratio (x) = 0.08920 0.00243
# Poissons Ratio (y) = 0.15677 -0.39693
# Poissons Ratio (z) = 0.00591 -0.54937
#
# Static dielectric constant tensor:
#      x y z
#    x 1.808890 0.000000 0.008800 
#    y 0.000000 1.771410 0.000000 
#    z 0.008800 0.000000 1.805250 
# 
# From -- ./inp_files/56558.got.cif
#   From: 2010.05.17/outbox.cif.g08.bks.cpg/sg14_29_cif.got.tgz:56558.got - 2010.06.03 17:49:19.
