data_PCOD9253435
_publ_section_title
;
Structure prediction by ZEFSAII (Michael W. Deem and Ramdas Pophale) SiO2 
 PCOD9253435
Probable space group: P 21/C
;
_chemical_formula_sum "Si O2"
_cell_formula_units_Z 32
_cell_length_a 17.744785
_cell_length_b 13.218450
_cell_length_c 21.665045
_cell_angle_alpha 90.000000
_cell_angle_beta 161.895365
_cell_angle_gamma 90.000000
_cell_volume 1579.161870
_symmetry_space_group_name_H-M "P 21/C"
_symmetry_group_IT_number 14
_symmetry_cell_setting 'monoclinic'
loop_
_space_group_symop_operation_xyz
x,y,z
-x,1/2+y,1/2-z
-x,-y,-z
x,1/2-y,1/2+z
loop_
_atom_site_type_symbol
_atom_site_label
_atom_site_fract_x
_atom_site_fract_y
_atom_site_fract_z
Si Si1 0.273046 0.603478 0.923676
Si Si2 0.861136 0.912431 0.724838
Si Si3 0.323439 0.637744 0.099396
Si Si4 0.282138 0.356121 0.497224
Si Si5 0.765608 0.681633 0.678706
Si Si6 0.152501 0.368476 0.932161
Si Si7 0.381254 0.660481 0.481502
Si Si8 0.402187 0.879370 0.139872
O O1 0.983045 0.595495 0.708933
O O2 0.303100 0.513201 0.897736
O O3 0.381300 0.591797 0.076817
O O4 0.343055 0.717048 0.957982
O O5 0.784238 0.805273 0.694927
O O6 0.847000 0.895686 0.639675
O O7 0.146020 0.925713 0.962975
O O8 0.036195 0.634104 0.890709
O O9 0.500773 0.602934 0.292134
O O10 0.362020 0.758749 0.119550
O O11 0.347059 0.343178 0.476140
O O12 0.215771 0.249538 0.476875
O O13 0.596594 0.643425 0.601762
O O14 0.360329 0.411557 0.137639
O O15 0.879142 0.382294 0.742727
O O16 0.427324 0.614110 0.585309
#
# Coordination Sequence:
#
# PCOD9253435 Si02
#       8
#     4   4   4   4   4   4   4   4
#     4   9  17  28  44  68  93 115 142 176 216 263
#     4   9  17  28  44  68  93 115 142 176 216 263
#     4   8  15  29  46  61  81 115 156 187 207 239
#     4   8  15  29  46  61  81 115 156 187 207 239
#     4   9  17  28  44  68  93 115 142 176 216 263
#     4   8  15  29  46  61  81 115 156 187 207 239
#     4   9  17  28  44  68  93 115 142 176 216 263
#     4   8  15  29  46  61  81 115 156 187 207 239
#
# _framework density 20.263915000000001
#
# number of rings (size 3 to 8) (size 9 to 14) (size 15 to 20)
#    0.000    3.500    0.000    3.000    0.000    2.500 
#    0.000    0.000    0.000   12.000    0.000   28.000 
#    0.000    0.000    0.000    0.000    0.000    0.000 
#
# Total GULP energy -178143.964848 kJ/mol
# GULP energy per Si atom -5566.998902 kJ/mol
# Density = 2.021779 g / cm^3
# Si number density = 20.263915 Si / 1000 Ang^3
#
#
#
# Elastic Constant Matrix: (Units=GPa)
#
#
# Indices 1 2 3 4 5 6 
#
# 1 67.5682 -14.2941 43.4842 0.0000 8.6648 0.0000
# 2 -14.2941 32.6150 0.3529 0.0000 -1.9620 0.0000
# 3 43.4842 0.3529 144.8966 0.0000 -21.0044 0.0000
# 4 0.0000 0.0000 0.0000 15.4796 0.0000 -5.4521
# 5 8.6648 -1.9620 -21.0044 0.0000 20.5645 0.0000
# 6 0.0000 0.0000 0.0000 -5.4521 0.0000 8.9697
#
#
#
# Elastic Compliance Matrix: (Units=1/GPa)
#
#
# Indices 1 2 3 4 5 6 
#
# 1 0.027248 0.010735 -0.011408 0.000000 -0.022109 0.000000
# 2 0.010735 0.035088 -0.004082 0.000000 -0.005345 0.000000
# 3 -0.011408 -0.004082 0.012883 0.000000 0.017576 0.000000
# 4 0.000000 0.000000 0.000000 0.082199 0.000000 0.049963
# 5 -0.022109 -0.005345 0.017576 0.000000 0.075385 0.000000
# 6 0.000000 0.000000 0.000000 0.049963 0.000000 0.141856
#
#
# Mechanical properties :
#
#
# Convention : Reuss Voigt Hill
#
# Bulk Modulus (GPa) = 15.21853 33.79621 24.50737
# Shear Modulus (GPa) = 12.31307 23.37186 17.84246
#
# Velocity S-wave (km/s) = 2.46770 3.39982 2.97055
# Velocity P-wave (km/s) = 3.95548 5.66797 4.88732
#
# Compressibility (1/GPa) = 0.06570936
#
# Stress axis : x y z
#
# Youngs Moduli (GPa) = 36.69972 28.49952 77.62174
#
# Poissons Ratio (x) = -0.30595 0.88554
# Poissons Ratio (y) = -0.39399 0.31685
# Poissons Ratio (z) = 0.41869 0.11634
#
# Static dielectric constant tensor:
#      x y z
#    x 1.674410 0.000000 -0.007440 
#    y 0.000000 1.913980 0.000000 
#    z -0.007440 0.000000 1.723600 
# 
# From -- ./inp_files/61453.got.cif
#   From: 2010.05.17/outbox.cif.g08.bks.cpg/sg14_31_cif.got.tgz:61453.got - 2010.06.03 17:49:19.
