data_PCOD9253000
_publ_section_title
;
Structure prediction by ZEFSAII (Michael W. Deem and Ramdas Pophale) SiO2 
 PCOD9253000
Probable space group: P 21/C
;
_chemical_formula_sum "Si O2"
_cell_formula_units_Z 18
_cell_length_a 11.584314
_cell_length_b 7.805027
_cell_length_c 9.141741
_cell_angle_alpha 90.000000
_cell_angle_beta 56.551458
_cell_angle_gamma 90.000000
_cell_volume 689.664937
_symmetry_space_group_name_H-M "P 21/C"
_symmetry_group_IT_number 14
_symmetry_cell_setting 'monoclinic'
loop_
_space_group_symop_operation_xyz
x,y,z
-x,1/2+y,1/2-z
-x,-y,-z
x,1/2-y,1/2+z
loop_
_atom_site_type_symbol
_atom_site_label
_atom_site_fract_x
_atom_site_fract_y
_atom_site_fract_z
Si Si1 0.000000 0.000000 0.500000
Si Si2 0.113830 0.382338 0.235422
Si Si3 0.592710 0.088462 0.140943
Si Si4 0.421778 0.231407 0.509426
Si Si5 0.131654 0.716030 0.411702
O O1 0.078663 0.092262 0.591512
O O2 0.851634 0.093761 0.658333
O O3 0.095662 0.566689 0.325624
O O4 0.008015 0.248237 0.391274
O O5 0.270271 0.331494 0.157210
O O6 0.501703 0.097805 0.351246
O O7 0.742644 0.159340 0.078062
O O8 0.601507 0.898934 0.073957
O O9 0.518679 0.205295 0.072132
#
# Coordination Sequence:
#
# PCOD9253000 Si02
#       5
#     2   4   4   4   4
#     4  12  28  44  80 110 148 200 256 310 374 456
#     4  11  28  50  75 108 154 200 250 315 380 451
#     4  11  28  49  78 112 154 203 253 312 384 455
#     4  11  28  50  77 113 155 200 254 314 384 455
#     4  11  28  49  74 110 150 198 253 312 379 449
#
# _framework density 26.099630999999999
#
# number of rings (size 3 to 8) (size 9 to 14) (size 15 to 20)
#    0.000    0.889    0.000    2.667   21.778    1.778 
#    0.000    0.000    0.000    0.000    0.000    0.000 
#    0.000    0.000    0.000    0.000    0.000    0.000 
#
# Total GULP energy -100642.794663 kJ/mol
# GULP energy per Si atom -5591.266370 kJ/mol
# Density = 2.604023 g / cm^3
# Si number density = 26.099631 Si / 1000 Ang^3
#
#
#
# Elastic Constant Matrix: (Units=GPa)
#
#
# Indices 1 2 3 4 5 6 
#
# 1 152.5100 13.7433 41.2523 0.0000 19.7491 0.0000
# 2 13.7433 98.6861 18.7011 0.0000 0.3955 0.0000
# 3 41.2523 18.7011 89.1391 0.0000 -16.8749 0.0000
# 4 0.0000 0.0000 0.0000 51.6120 0.0000 -1.3753
# 5 19.7491 0.3955 -16.8749 0.0000 38.8200 0.0000
# 6 0.0000 0.0000 0.0000 -1.3753 0.0000 21.2863
#
#
#
# Elastic Compliance Matrix: (Units=1/GPa)
#
#
# Indices 1 2 3 4 5 6 
#
# 1 0.008924 -0.000193 -0.005392 0.000000 -0.006882 0.000000
# 2 -0.000193 0.010606 -0.002329 0.000000 -0.001022 0.000000
# 3 -0.005392 -0.002329 0.016047 0.000000 0.009742 0.000000
# 4 0.000000 0.000000 0.000000 0.019409 0.000000 0.001254
# 5 -0.006882 -0.001022 0.009742 0.000000 0.033506 0.000000
# 6 0.000000 0.000000 0.000000 0.001254 0.000000 0.047060
#
#
# Mechanical properties :
#
#
# Convention : Reuss Voigt Hill
#
# Bulk Modulus (GPa) = 50.63999 54.19207 52.41603
# Shear Modulus (GPa) = 31.65305 40.11955 35.88630
#
# Velocity S-wave (km/s) = 3.48627 3.92493 3.71209
# Velocity P-wave (km/s) = 5.97078 6.43030 6.20479
#
# Compressibility (1/GPa) = 0.01974724
#
# Stress axis : x y z
#
# Youngs Moduli (GPa) = 112.05644 94.29052 62.31775
#
# Poissons Ratio (x) = 0.01823 0.33603
# Poissons Ratio (y) = 0.02167 0.14514
# Poissons Ratio (z) = 0.60423 0.21960
#
# Static dielectric constant tensor:
#      x y z
#    x 1.733830 0.000000 -0.242790 
#    y 0.000000 1.056960 0.000000 
#    z -0.242790 0.000000 1.832070 
# 
# From -- ./inp_files/11723.got.cif
#   From: 2010.05.17/outbox.cif.g08.bks.cpg/sg14_6_cif.got.tgz:11723.got - 2010.06.03 17:49:19.
