data_PCOD9253150
_publ_section_title
;
Structure prediction by ZEFSAII (Michael W. Deem and Ramdas Pophale) SiO2 
 PCOD9253150
Probable space group: P 21/C
;
_chemical_formula_sum "Si O2"
_cell_formula_units_Z 24
_cell_length_a 15.737189
_cell_length_b 4.767069
_cell_length_c 25.208018
_cell_angle_alpha 90.000000
_cell_angle_beta 155.275403
_cell_angle_gamma 90.000000
_cell_volume 790.971027
_symmetry_space_group_name_H-M "P 21/C"
_symmetry_group_IT_number 14
_symmetry_cell_setting 'monoclinic'
loop_
_space_group_symop_operation_xyz
x,y,z
-x,1/2+y,1/2-z
-x,-y,-z
x,1/2-y,1/2+z
loop_
_atom_site_type_symbol
_atom_site_label
_atom_site_fract_x
_atom_site_fract_y
_atom_site_fract_z
Si Si1 0.355633 0.707042 0.854891
Si Si2 0.449908 0.799468 0.254123
Si Si3 0.698240 0.438859 0.991181
Si Si4 0.118143 0.173365 0.679276
Si Si5 0.000000 0.000000 0.000000
Si Si6 0.000000 0.000000 0.500000
Si Si7 0.847450 0.063337 0.157005
O O1 0.581073 0.592728 0.973520
O O2 0.203938 0.448364 0.756541
O O3 0.302534 0.849286 0.880569
O O4 0.298758 0.951064 0.781452
O O5 0.480206 0.987591 0.218889
O O6 0.550367 0.967514 0.359656
O O7 0.204691 0.767149 0.122766
O O8 0.735897 0.130246 0.038214
O O9 0.928063 0.473913 0.100242
O O10 0.062046 0.245600 0.586597
O O11 0.111978 0.256035 0.027238
O O12 0.040405 0.272257 0.271863
#
# Coordination Sequence:
#
# PCOD9253150 Si02
#       7
#     4   4   4   4   2   2   4
#     4  12  27  48  74 109 147 198 248 314 376 446
#     4  12  28  47  73 111 150 196 249 299 369 450
#     4  12  27  46  82 109 148 205 250 307 379 450
#     4  12  26  47  72 109 155 194 251 307 372 437
#     4  12  24  48  68 100 152 188 244 304 358 426
#     4  12  24  44  74 102 148 202 238 302 366 440
#     4  12  25  52  76 107 152 195 250 320 379 436
#
# _framework density 30.342451000000001
#
# number of rings (size 3 to 8) (size 9 to 14) (size 15 to 20)
#    0.000    0.000    3.333    6.500    0.000    6.667 
#    0.000    3.333    0.000    0.000    0.000    0.000 
#    0.000    0.000    0.000    0.000    0.000    0.000 
#
# Total GULP energy -134300.660056 kJ/mol
# GULP energy per Si atom -5595.860836 kJ/mol
# Density = 3.027339 g / cm^3
# Si number density = 30.342451 Si / 1000 Ang^3
#
#
#
# Elastic Constant Matrix: (Units=GPa)
#
#
# Indices 1 2 3 4 5 6 
#
# 1 139.2903 23.7629 54.2799 0.0000 3.5825 0.0000
# 2 23.7629 249.2999 63.0611 0.0000 0.2925 0.0000
# 3 54.2799 63.0611 217.8518 0.0000 19.0837 0.0000
# 4 0.0000 0.0000 0.0000 70.1275 0.0000 -0.4077
# 5 3.5825 0.2925 19.0837 0.0000 64.6428 0.0000
# 6 0.0000 0.0000 0.0000 -0.4077 0.0000 52.8832
#
#
#
# Elastic Compliance Matrix: (Units=1/GPa)
#
#
# Indices 1 2 3 4 5 6 
#
# 1 0.007970 -0.000275 -0.001917 0.000000 0.000126 0.000000
# 2 -0.000275 0.004346 -0.001221 0.000000 0.000356 0.000000
# 3 -0.001917 -0.001221 0.005555 0.000000 -0.001528 0.000000
# 4 0.000000 0.000000 0.000000 0.014260 0.000000 0.000110
# 5 0.000126 0.000356 -0.001528 0.000000 0.015912 0.000000
# 6 0.000000 0.000000 0.000000 0.000110 0.000000 0.018910
#
#
# Mechanical properties :
#
#
# Convention : Reuss Voigt Hill
#
# Bulk Modulus (GPa) = 90.53485 98.73888 94.63687
# Shear Modulus (GPa) = 64.54824 68.55322 66.55073
#
# Velocity S-wave (km/s) = 4.61730 4.75838 4.68837
# Velocity P-wave (km/s) = 7.63730 7.92476 7.78236
#
# Compressibility (1/GPa) = 0.01104547
#
# Stress axis : x y z
#
# Youngs Moduli (GPa) = 125.46985 230.10805 180.01184
#
# Poissons Ratio (x) = 0.06325 0.34513
# Poissons Ratio (y) = 0.03449 0.21973
# Poissons Ratio (z) = 0.24056 0.28088
#
# Static dielectric constant tensor:
#      x y z
#    x 2.338780 0.000000 -0.077350 
#    y 0.000000 2.438360 0.000000 
#    z -0.077350 0.000000 2.461890 
# 
# From -- ./inp_files/77374.got.cif
#   From: 2010.05.17/outbox.cif.g08.bks.cpg/sg14_39_cif.got.tgz:77374.got - 2010.06.03 17:49:19.
