data_PCOD9253633
_publ_section_title
;
Structure prediction by ZEFSAII (Michael W. Deem and Ramdas Pophale) SiO2 
 PCOD9253633
Probable space group: P 21/C
;
_chemical_formula_sum "Si O2"
_cell_formula_units_Z 30
_cell_length_a 21.000000
_cell_length_b 6.000000
_cell_length_c 24.000000
_cell_angle_alpha 90.000000
_cell_angle_beta 150.000000
_cell_angle_gamma 90.000000
_cell_volume 1512.000000
_symmetry_space_group_name_H-M "P 21/C"
_symmetry_group_IT_number 14
_symmetry_cell_setting 'monoclinic'
loop_
_space_group_symop_operation_xyz
x,y,z
-x,1/2+y,1/2-z
-x,-y,-z
x,1/2-y,1/2+z
loop_
_atom_site_type_symbol
_atom_site_label
_atom_site_fract_x
_atom_site_fract_y
_atom_site_fract_z
Si Si1 0.790247 0.383335 0.856058
Si Si2 0.212932 0.268208 0.734467
Si Si3 0.681861 0.043909 0.473461
Si Si4 0.862156 0.057597 0.091334
Si Si5 0.147389 0.232840 0.312929
Si Si6 0.393039 0.002812 0.285119
Si Si7 0.000000 0.500000 0.500000
Si Si8 0.248354 0.268887 0.078351
O O1 0.797156 0.533346 0.805901
O O2 0.809743 0.545714 0.924076
O O3 0.655235 0.252831 0.755368
O O4 0.897581 0.197095 0.936862
O O5 0.209381 0.244003 0.798532
O O6 0.334031 0.389400 0.796687
O O7 0.094403 0.412556 0.622403
O O8 0.744308 0.271940 0.498837
O O9 0.542299 0.046132 0.393802
O O10 0.778877 0.951256 0.593958
O O11 0.675876 0.885334 0.414423
O O12 0.850143 0.942054 0.142925
O O13 0.850088 0.883566 0.030888
O O14 0.999254 0.172667 0.192354
O O15 0.329364 0.122338 0.182956
#
# Coordination Sequence:
#
# PCOD9253633 Si02
#       8
#     4   4   4   4   4   4   2   4
#     4  10  22  43  61 101 136 176 225 277 345 405
#     4  10  24  40  66  98 140 181 224 281 338 408
#     4  11  25  44  68  97 135 179 231 280 342 410
#     4  11  24  44  65 102 132 180 227 283 345 406
#     4  11  25  44  67  98 136 180 229 278 337 416
#     4  10  24  44  66  99 135 176 231 277 348 406
#     4  10  22  40  64 100 132 178 222 274 336 392
#     4  10  24  38  69  99 134 173 218 293 337 408
#
# _framework density 19.841270000000002
#
# number of rings (size 3 to 8) (size 9 to 14) (size 15 to 20)
#    0.000    1.600    1.333    1.200   11.200    5.867 
#    0.000    1.333    0.000    0.000    0.000    0.000 
#    0.000    0.000    0.000    0.000    0.000    0.000 
#
# Total GULP energy -167005.974909 kJ/mol
# GULP energy per Si atom -5566.865830 kJ/mol
# Density = 1.979611 g / cm^3
# Si number density = 19.841270 Si / 1000 Ang^3
#
#
#
# Elastic Constant Matrix: (Units=GPa)
#
#
# Indices 1 2 3 4 5 6 
#
# 1 129.2997 47.9337 39.1590 0.0000 -14.0775 0.0000
# 2 47.9337 64.6061 29.3356 0.0000 2.2473 0.0000
# 3 39.1590 29.3356 47.0213 0.0000 -6.5045 0.0000
# 4 0.0000 0.0000 0.0000 15.1790 0.0000 -7.9506
# 5 -14.0775 2.2473 -6.5045 0.0000 17.7238 0.0000
# 6 0.0000 0.0000 0.0000 -7.9506 0.0000 21.4732
#
#
#
# Elastic Compliance Matrix: (Units=1/GPa)
#
#
# Indices 1 2 3 4 5 6 
#
# 1 0.013167 -0.008015 -0.004612 0.000000 0.009782 0.000000
# 2 -0.008015 0.027637 -0.012571 0.000000 -0.014484 0.000000
# 3 -0.004612 -0.012571 0.034411 0.000000 0.010560 0.000000
# 4 0.000000 0.000000 0.000000 0.081731 0.000000 0.030261
# 5 0.009782 -0.014484 0.010560 0.000000 0.069903 0.000000
# 6 0.000000 0.000000 0.000000 0.030261 0.000000 0.057774
#
#
# Mechanical properties :
#
#
# Convention : Reuss Voigt Hill
#
# Bulk Modulus (GPa) = 40.29073 52.64264 46.46668
# Shear Modulus (GPa) = 14.56489 19.17512 16.87001
#
# Velocity S-wave (km/s) = 2.71231 3.11211 2.91907
# Velocity P-wave (km/s) = 5.49176 6.28515 5.90181
#
# Compressibility (1/GPa) = 0.02481961
#
# Stress axis : x y z
#
# Youngs Moduli (GPa) = 75.94679 36.18332 29.06077
#
# Poissons Ratio (x) = 0.29003 0.13402
# Poissons Ratio (y) = 0.60875 0.36531
# Poissons Ratio (z) = 0.35024 0.45484
#
# Static dielectric constant tensor:
#      x y z
#    x 1.690370 0.000000 0.021110 
#    y 0.000000 1.757120 0.000000 
#    z 0.021110 0.000000 1.663900 
# 
# From -- ./inp_files/74523.got.cif
#   From: 2010.05.17/outbox.ucp.g08.bks.cvg/sg14_38_cif.got.tgz:74523.got - 2010.06.11 12:31:08.
