data_PCOD9253463
_publ_section_title
;
Structure prediction by ZEFSAII (Michael W. Deem and Ramdas Pophale) SiO2 
 PCOD9253463
Probable space group: P 21/C
;
_chemical_formula_sum "Si O2"
_cell_formula_units_Z 32
_cell_length_a 12.000000
_cell_length_b 9.000000
_cell_length_c 21.000000
_cell_angle_alpha 90.000000
_cell_angle_beta 130.000000
_cell_angle_gamma 90.000000
_cell_volume 1737.388797
_symmetry_space_group_name_H-M "P 21/C"
_symmetry_group_IT_number 14
_symmetry_cell_setting 'monoclinic'
loop_
_space_group_symop_operation_xyz
x,y,z
-x,1/2+y,1/2-z
-x,-y,-z
x,1/2-y,1/2+z
loop_
_atom_site_type_symbol
_atom_site_label
_atom_site_fract_x
_atom_site_fract_y
_atom_site_fract_z
Si Si1 0.346286 0.069798 0.459617
Si Si2 0.630168 0.535313 0.887616
Si Si3 0.658035 0.180688 0.755877
Si Si4 0.242175 0.019682 0.693257
Si Si5 0.474156 0.704349 0.663947
Si Si6 0.146551 0.004101 0.269453
Si Si7 0.579518 0.880279 0.071005
Si Si8 0.886081 0.859010 0.242265
O O1 0.311461 0.040534 0.519817
O O2 0.238709 0.001974 0.368438
O O3 0.370671 0.242296 0.453571
O O4 0.500000 0.000000 0.500000
O O5 0.505599 0.660587 0.832277
O O6 0.758593 0.535037 0.883128
O O7 0.541371 0.382281 0.841206
O O8 0.710046 0.351667 0.771688
O O9 0.639136 0.145388 0.824604
O O10 0.763666 0.073044 0.754620
O O11 0.371424 0.137186 0.757459
O O12 0.104188 0.066020 0.684478
O O13 0.469967 0.662798 0.588197
O O14 0.118469 0.180708 0.249867
O O15 0.004559 0.910143 0.235011
O O16 0.732217 0.922926 0.159693
O O17 0.500000 0.000000 0.000000
#
# Coordination Sequence:
#
# PCOD9253463 Si02
#       8
#     4   4   4   4   4   4   4   4
#     4  11  20  33  56  83 113 143 179 222 278 323
#     4  10  18  33  51  82 113 143 179 226 270 321
#     4  10  18  30  55  79 106 146 179 222 270 318
#     4   9  19  32  53  80 110 144 182 222 272 317
#     4   9  18  32  48  79 115 138 176 226 265 317
#     4  11  22  38  58  79 109 144 187 225 271 328
#     4  10  21  35  54  84 113 137 175 228 275 325
#     4  10  22  39  55  80 108 143 184 227 266 328
#
# _framework density 18.418444999999998
#
# number of rings (size 3 to 8) (size 9 to 14) (size 15 to 20)
#    0.000    2.000    2.500    2.250    3.500    2.000 
#    0.000    0.625    0.000    0.750    0.000    0.000 
#    0.000    0.000    0.000    0.000    0.000    0.000 
#
# Total GULP energy -178138.390465 kJ/mol
# GULP energy per Si atom -5566.824702 kJ/mol
# Density = 1.837652 g / cm^3
# Si number density = 18.418445 Si / 1000 Ang^3
#
#
#
# Elastic Constant Matrix: (Units=GPa)
#
#
# Indices 1 2 3 4 5 6 
#
# 1 129.6333 29.7751 32.1257 0.0000 -26.4179 0.0000
# 2 29.7751 26.1850 30.3999 0.0000 -15.6368 0.0000
# 3 32.1257 30.3999 46.1501 0.0000 -20.3633 0.0000
# 4 0.0000 0.0000 0.0000 20.5071 0.0000 -5.0451
# 5 -26.4179 -15.6368 -20.3633 0.0000 29.8896 0.0000
# 6 0.0000 0.0000 0.0000 -5.0451 0.0000 26.2771
#
#
#
# Elastic Compliance Matrix: (Units=1/GPa)
#
#
# Indices 1 2 3 4 5 6 
#
# 1 0.010980 -0.013552 0.003485 0.000000 0.004989 0.000000
# 2 -0.013552 0.185542 -0.107581 0.000000 0.011795 0.000000
# 3 0.003485 -0.107581 0.095274 0.000000 0.011708 0.000000
# 4 0.000000 0.000000 0.000000 0.051181 0.000000 0.009827
# 5 0.004989 0.011795 0.011708 0.000000 0.052013 0.000000
# 6 0.000000 0.000000 0.000000 0.009827 0.000000 0.039943
#
#
# Mechanical properties :
#
#
# Convention : Reuss Voigt Hill
#
# Bulk Modulus (GPa) = 17.69937 42.95219 30.32578
# Shear Modulus (GPa) = 7.25625 22.64595 14.95110
#
# Velocity S-wave (km/s) = 1.98701 3.51026 2.85221
# Velocity P-wave (km/s) = 3.85937 6.30873 5.22948
#
# Compressibility (1/GPa) = 0.05649919
#
# Stress axis : x y z
#
# Youngs Moduli (GPa) = 91.07608 5.38962 10.49607
#
# Poissons Ratio (x) = 0.07304 -0.03658
# Poissons Ratio (y) = 1.23427 1.12918
# Poissons Ratio (z) = -0.31741 0.57982
#
# Static dielectric constant tensor:
#      x y z
#    x 1.693380 0.000000 0.008270 
#    y 0.000000 2.086910 0.000000 
#    z 0.008270 0.000000 1.596290 
# 
# From -- ./inp_files/67055.got.cif
#   From: 2010.05.17/outbox.ucp.g08.bks.cvg/sg14_34_cif.got.tgz:67055.got - 2010.06.11 12:31:08.
