data_PCOD9253520
_publ_section_title
;
Structure prediction by ZEFSAII (Michael W. Deem and Ramdas Pophale) SiO2 
 PCOD9253520
Probable space group: P 21/C
;
_chemical_formula_sum "Si O2"
_cell_formula_units_Z 32
_cell_length_a 15.000000
_cell_length_b 24.000000
_cell_length_c 9.000000
_cell_angle_alpha 90.000000
_cell_angle_beta 30.000000
_cell_angle_gamma 90.000000
_cell_volume 1620.000000
_symmetry_space_group_name_H-M "P 21/C"
_symmetry_group_IT_number 14
_symmetry_cell_setting 'monoclinic'
loop_
_space_group_symop_operation_xyz
x,y,z
-x,1/2+y,1/2-z
-x,-y,-z
x,1/2-y,1/2+z
loop_
_atom_site_type_symbol
_atom_site_label
_atom_site_fract_x
_atom_site_fract_y
_atom_site_fract_z
Si Si1 0.947024 0.603711 0.330733
Si Si2 0.832552 0.903242 0.665174
Si Si3 0.633345 0.420491 0.844305
Si Si4 0.448983 0.615215 0.693318
Si Si5 0.818992 0.296420 0.058962
Si Si6 0.833098 0.324005 0.386973
Si Si7 0.261844 0.512972 0.875758
Si Si8 0.293742 0.033560 0.656526
O O1 0.846749 0.591295 0.322250
O O2 0.834429 0.585507 0.633454
O O3 0.007615 0.667237 0.236147
O O4 0.109677 0.560499 0.101492
O O5 0.995062 0.865082 0.374954
O O6 0.804223 0.965769 0.642663
O O7 0.654232 0.870163 0.885126
O O8 0.698317 0.366583 0.661739
O O9 0.760672 0.475112 0.682697
O O10 0.589715 0.401963 0.077981
O O11 0.474315 0.446069 0.974476
O O12 0.333269 0.667262 0.804754
O O13 0.423401 0.558200 0.631677
O O14 0.793067 0.304840 0.274283
O O15 0.839135 0.232945 0.975122
O O16 0.293846 0.482663 0.985703
#
# Coordination Sequence:
#
# PCOD9253520 Si02
#       8
#     4   4   4   4   4   4   4   4
#     4  10  20  39  59  89 124 164 199 250 304 362
#     4  11  22  38  61  93 123 160 205 250 304 366
#     4  10  21  38  62  88 128 163 198 250 303 364
#     4  10  21  41  61  90 128 161 202 249 305 363
#     4  10  24  42  64  87 118 160 206 256 311 356
#     4  11  24  44  65  86 119 161 208 255 306 364
#     4  10  21  33  60  94 130 163 196 250 303 363
#     4  10  20  35  59  95 125 161 204 243 304 363
#
# _framework density 19.753086
#
# number of rings (size 3 to 8) (size 9 to 14) (size 15 to 20)
#    0.000    1.750    1.250    2.625    1.750    5.000 
#    2.250    1.250    0.000    0.000    0.000    0.000 
#    0.000    0.000    0.000    0.000    0.000    0.000 
#
# Total GULP energy -178185.262053 kJ/mol
# GULP energy per Si atom -5568.289439 kJ/mol
# Density = 1.970813 g / cm^3
# Si number density = 19.753086 Si / 1000 Ang^3
#
#
#
# Elastic Constant Matrix: (Units=GPa)
#
#
# Indices 1 2 3 4 5 6 
#
# 1 67.4392 23.9714 3.0315 0.0000 -11.5658 0.0000
# 2 23.9714 130.9875 22.3692 0.0000 2.7020 0.0000
# 3 3.0315 22.3692 7.7876 0.0000 -8.2773 0.0000
# 4 0.0000 0.0000 0.0000 19.0523 0.0000 5.4485
# 5 -11.5658 2.7020 -8.2773 0.0000 13.3510 0.0000
# 6 0.0000 0.0000 0.0000 5.4485 0.0000 31.4709
#
#
#
# Elastic Compliance Matrix: (Units=1/GPa)
#
#
# Indices 1 2 3 4 5 6 
#
# 1 0.010245 0.007491 -0.051850 0.000000 -0.024786 0.000000
# 2 0.007491 -0.005986 0.065867 0.000000 0.048537 0.000000
# 3 -0.051850 0.065867 -0.300588 0.000000 -0.244604 0.000000
# 4 0.000000 0.000000 0.000000 0.055221 0.000000 -0.009560
# 5 -0.024786 0.048537 -0.244604 0.000000 -0.108043 0.000000
# 6 0.000000 0.000000 0.000000 -0.009560 0.000000 0.033431
#
#
# Mechanical properties :
#
#
# Convention : Reuss Voigt Hill
#
# Bulk Modulus (GPa) = -3.94769 33.88428 14.96829
# Shear Modulus (GPa) = -11.28229 23.23096 5.97434
#
# Velocity S-wave (km/s) = -2.39250 3.43310 1.74100
# Velocity P-wave (km/s) = 3.10402 5.73638 3.41110
#
# Compressibility (1/GPa) = -0.25331267
#
# Stress axis : x y z
#
# Youngs Moduli (GPa) = 97.60470 -167.05245 -3.32682
#
# Poissons Ratio (x) = 1.25139 -0.17250
# Poissons Ratio (y) = -0.73116 0.21913
# Poissons Ratio (z) = 5.06082 11.00324
#
# Static dielectric constant tensor:
#      x y z
#    x 1.730070 0.000000 -0.057740 
#    y 0.000000 1.647940 0.000000 
#    z -0.057740 0.000000 1.806970 
# 
# From -- ./inp_files/17030.got.cif
#   From: 2010.05.17/outbox.ucp.g08.bks.cvg/sg14_9_cif.got.tgz:17030.got - 2010.06.11 12:31:08.
