data_PCOD9253224
_publ_section_title
;
Structure prediction by ZEFSAII (Michael W. Deem and Ramdas Pophale) SiO2 
 PCOD9253224
Probable space group: P 21/C
;
_chemical_formula_sum "Si O2"
_cell_formula_units_Z 28
_cell_length_a 14.884347
_cell_length_b 7.769998
_cell_length_c 12.894830
_cell_angle_alpha 90.000000
_cell_angle_beta 124.685622
_cell_angle_gamma 90.000000
_cell_volume 1226.280073
_symmetry_space_group_name_H-M "P 21/C"
_symmetry_group_IT_number 14
_symmetry_cell_setting 'monoclinic'
loop_
_space_group_symop_operation_xyz
x,y,z
-x,1/2+y,1/2-z
-x,-y,-z
x,1/2-y,1/2+z
loop_
_atom_site_type_symbol
_atom_site_label
_atom_site_fract_x
_atom_site_fract_y
_atom_site_fract_z
Si Si1 0.706849 0.958757 0.361145
Si Si2 0.713531 0.341985 0.303527
Si Si3 0.617367 0.916810 0.086048
Si Si4 0.534763 0.902544 0.418464
Si Si5 0.114427 0.886838 0.257747
Si Si6 0.100311 0.281207 0.887023
Si Si7 0.206101 0.568913 0.425173
O O1 0.651703 0.868398 0.224938
O O2 0.612137 0.992732 0.384768
O O3 0.807665 0.853248 0.474682
O O4 0.744531 0.143949 0.345129
O O5 0.582576 0.349893 0.205209
O O6 0.783641 0.409126 0.252457
O O7 0.749352 0.443073 0.429604
O O8 0.696167 0.060903 0.091884
O O9 0.610357 0.754682 0.006017
O O10 0.500000 0.000000 0.000000
O O11 0.500000 0.000000 0.500000
O O12 0.146497 0.748559 0.367268
O O13 0.012400 0.788525 0.136451
O O14 0.085257 0.066749 0.293077
O O15 0.141225 0.106012 0.859583
#
# Coordination Sequence:
#
# PCOD9253224 Si02
#       7
#     4   4   4   4   4   4   4
#     4  12  26  45  73 112 145 199 249 303 379 442
#     4  12  28  47  75 108 153 194 252 311 375 446
#     4  12  25  46  73 105 153 197 240 306 375 440
#     4  12  28  44  72 108 151 198 249 306 372 454
#     4  12  26  53  76 111 147 199 247 315 374 445
#     4  12  27  49  79 109 149 196 252 307 376 448
#     4  12  26  49  72 110 150 193 250 309 371 443
#
# _framework density 22.833283000000002
#
# number of rings (size 3 to 8) (size 9 to 14) (size 15 to 20)
#    0.000    0.000    7.143    1.714    6.000    1.143 
#    2.571    0.000    0.000    0.000    0.000    0.000 
#    0.000    0.000    0.000    0.000    0.000    0.000 
#
# Total GULP energy -156579.942177 kJ/mol
# GULP energy per Si atom -5592.140792 kJ/mol
# Density = 2.278131 g / cm^3
# Si number density = 22.833283 Si / 1000 Ang^3
#
#
#
# Elastic Constant Matrix: (Units=GPa)
#
#
# Indices 1 2 3 4 5 6 
#
# 1 73.4268 11.8774 41.4039 0.0000 7.9052 0.0000
# 2 11.8774 91.2226 27.0847 0.0000 -8.7203 0.0000
# 3 41.4039 27.0847 112.8053 0.0000 7.2902 0.0000
# 4 0.0000 0.0000 0.0000 35.1718 0.0000 -1.2741
# 5 7.9052 -8.7203 7.2902 0.0000 29.3598 0.0000
# 6 0.0000 0.0000 0.0000 -1.2741 0.0000 31.5900
#
#
#
# Elastic Compliance Matrix: (Units=1/GPa)
#
#
# Indices 1 2 3 4 5 6 
#
# 1 0.017513 -0.000829 -0.006004 0.000000 -0.003471 0.000000
# 2 -0.000829 0.012396 -0.002972 0.000000 0.004643 0.000000
# 3 -0.006004 -0.002972 0.011926 0.000000 -0.002227 0.000000
# 4 0.000000 0.000000 0.000000 0.028473 0.000000 0.001148
# 5 -0.003471 0.004643 -0.002227 0.000000 0.036927 0.000000
# 6 0.000000 0.000000 0.000000 0.001148 0.000000 0.031702
#
#
# Mechanical properties :
#
#
# Convention : Reuss Voigt Hill
#
# Bulk Modulus (GPa) = 44.99679 48.68741 46.84210
# Shear Modulus (GPa) = 30.12832 32.36357 31.24595
#
# Velocity S-wave (km/s) = 3.63642 3.76890 3.70325
# Velocity P-wave (km/s) = 6.11399 6.34892 6.23256
#
# Compressibility (1/GPa) = 0.02222381
#
# Stress axis : x y z
#
# Youngs Moduli (GPa) = 57.10188 80.66818 83.84874
#
# Poissons Ratio (x) = 0.06689 0.50346
# Poissons Ratio (y) = 0.04735 0.24921
# Poissons Ratio (z) = 0.34286 0.23976
#
# Static dielectric constant tensor:
#      x y z
#    x 1.892430 0.000000 0.067180 
#    y 0.000000 1.913520 0.000000 
#    z 0.067180 0.000000 1.944150 
# 
# From -- ./inp_files/31678.got.cif
#   From: 2010.05.17/outbox.cif.g08.bks.cpg/sg14_16_cif.got.tgz:31678.got - 2010.06.03 17:49:19.
