data_PCOD9253028
_publ_section_title
;
Structure prediction by ZEFSAII (Michael W. Deem and Ramdas Pophale) SiO2 
 PCOD9253028
Probable space group: P 21/C
;
_chemical_formula_sum "Si O2"
_cell_formula_units_Z 20
_cell_length_a 12.220457
_cell_length_b 6.934219
_cell_length_c 21.329914
_cell_angle_alpha 90.000000
_cell_angle_beta 153.187631
_cell_angle_gamma 90.000000
_cell_volume 815.301539
_symmetry_space_group_name_H-M "P 21/C"
_symmetry_group_IT_number 14
_symmetry_cell_setting 'monoclinic'
loop_
_space_group_symop_operation_xyz
x,y,z
-x,1/2+y,1/2-z
-x,-y,-z
x,1/2-y,1/2+z
loop_
_atom_site_type_symbol
_atom_site_label
_atom_site_fract_x
_atom_site_fract_y
_atom_site_fract_z
Si Si1 0.204740 0.997130 0.395948
Si Si2 0.747768 0.903230 0.851720
Si Si3 0.907991 0.542043 0.854032
Si Si4 0.633330 0.681855 0.903297
Si Si5 0.695162 0.143094 0.128287
O O1 0.337234 0.855613 0.416576
O O2 0.089927 0.867262 0.394146
O O3 0.966951 0.086491 0.242889
O O4 0.322738 0.167346 0.499406
O O5 0.788128 0.708889 0.832207
O O6 0.608025 0.865074 0.845771
O O7 0.583030 0.040448 0.725100
O O8 0.000000 0.000000 0.000000
O O9 0.732841 0.407393 0.721578
O O10 0.104140 0.403686 0.987377
O O11 0.500000 0.000000 0.000000
#
# Coordination Sequence:
#
# PCOD9253028 Si02
#       5
#     4   4   4   4   4
#     4   8  20  37  58  91 125 150 210 241 298 361
#     4  12  21  40  64  89 123 164 201 250 310 359
#     4   8  21  36  60  89 127 154 206 241 304 359
#     4   9  22  38  59  93 123 156 201 257 292 369
#     4   9  17  38  62  81 117 164 193 255 298 354
#
# _framework density 24.530799999999999
#
# number of rings (size 3 to 8) (size 9 to 14) (size 15 to 20)
#    2.400    0.000    0.000    3.000    0.000    0.000 
#    7.200    9.000    0.000    0.000    0.000    0.000 
#    0.000    0.000    0.000    0.000    0.000    0.000 
#
# Total GULP energy -111385.163074 kJ/mol
# GULP energy per Si atom -5569.258154 kJ/mol
# Density = 2.447497 g / cm^3
# Si number density = 24.530800 Si / 1000 Ang^3
#
#
#
# Elastic Constant Matrix: (Units=GPa)
#
#
# Indices 1 2 3 4 5 6 
#
# 1 105.8976 22.6207 -18.7367 0.0000 -13.1925 0.0000
# 2 22.6207 91.9867 41.5295 0.0000 -10.5756 0.0000
# 3 -18.7367 41.5295 151.3644 0.0000 -27.1362 0.0000
# 4 0.0000 0.0000 0.0000 49.6862 0.0000 -0.7480
# 5 -13.1925 -10.5756 -27.1362 0.0000 16.6767 0.0000
# 6 0.0000 0.0000 0.0000 -0.7480 0.0000 40.0659
#
#
#
# Elastic Compliance Matrix: (Units=1/GPa)
#
#
# Indices 1 2 3 4 5 6 
#
# 1 0.013599 -0.003985 0.006004 0.000000 0.018000 0.000000
# 2 -0.003985 0.013705 -0.004604 0.000000 -0.001952 0.000000
# 3 0.006004 -0.004604 0.012623 0.000000 0.022371 0.000000
# 4 0.000000 0.000000 0.000000 0.020132 0.000000 0.000376
# 5 0.018000 -0.001952 0.022371 0.000000 0.109367 0.000000
# 6 0.000000 0.000000 0.000000 0.000376 0.000000 0.024966
#
#
# Mechanical properties :
#
#
# Convention : Reuss Voigt Hill
#
# Bulk Modulus (GPa) = 28.77095 48.89731 38.83413
# Shear Modulus (GPa) = 23.68009 41.54144 32.61077
#
# Velocity S-wave (km/s) = 3.11033 4.11961 3.65002
# Velocity P-wave (km/s) = 4.96516 6.52721 5.79902
#
# Compressibility (1/GPa) = 0.03475728
#
# Stress axis : x y z
#
# Youngs Moduli (GPa) = 73.53474 72.96561 79.21810
#
# Poissons Ratio (x) = 0.29079 -0.47561
# Poissons Ratio (y) = 0.29306 0.36469
# Poissons Ratio (z) = -0.44148 0.33590
#
# Static dielectric constant tensor:
#      x y z
#    x 2.047990 0.000000 0.105690 
#    y 0.000000 2.035030 0.000000 
#    z 0.105690 0.000000 2.070720 
# 
# From -- ./inp_files/80254.got.cif
#   From: 2010.05.17/outbox.cif.g08.bks.cpg/sg14_41_cif.got.tgz:80254.got - 2010.06.03 17:49:19.
