data_PCOD9253590
_publ_section_title
;
Structure prediction by ZEFSAII (Michael W. Deem and Ramdas Pophale) SiO2 
 PCOD9253590
Probable space group: P 21/C
;
_chemical_formula_sum "Si O2"
_cell_formula_units_Z 32
_cell_length_a 15.000000
_cell_length_b 12.000000
_cell_length_c 9.000000
_cell_angle_alpha 90.000000
_cell_angle_beta 70.000000
_cell_angle_gamma 90.000000
_cell_volume 1522.302046
_symmetry_space_group_name_H-M "P 21/C"
_symmetry_group_IT_number 14
_symmetry_cell_setting 'monoclinic'
loop_
_space_group_symop_operation_xyz
x,y,z
-x,1/2+y,1/2-z
-x,-y,-z
x,1/2-y,1/2+z
loop_
_atom_site_type_symbol
_atom_site_label
_atom_site_fract_x
_atom_site_fract_y
_atom_site_fract_z
Si Si1 0.650351 0.089854 0.665830
Si Si2 0.515831 0.612108 0.289825
Si Si3 0.318190 0.815279 0.016436
Si Si4 0.627872 0.716356 0.501326
Si Si5 0.044385 0.310580 0.054553
Si Si6 0.827757 0.501075 0.893391
Si Si7 0.102136 0.738678 0.118049
Si Si8 0.770246 0.671388 0.677632
O O1 0.646706 0.189810 0.547025
O O2 0.558304 0.010423 0.729144
O O3 0.736769 0.013341 0.554635
O O4 0.672270 0.144388 0.816405
O O5 0.400696 0.617258 0.375937
O O6 0.560182 0.648475 0.425828
O O7 0.561904 0.696456 0.136802
O O8 0.202328 0.809912 0.047190
O O9 0.694651 0.654946 0.586115
O O10 0.707396 0.765706 0.341098
O O11 0.094114 0.429129 0.058608
O O12 0.987837 0.284234 0.238818
O O13 0.135328 0.234948 0.944172
O O14 0.953346 0.297510 0.999136
O O15 0.862445 0.377827 0.833629
O O16 0.804458 0.565384 0.753739
#
# Coordination Sequence:
#
# PCOD9253590 Si02
#       8
#     4   4   4   4   4   4   4   4
#     4  11  24  48  73 103 142 190 236 291 358 423
#     4  11  22  44  73 103 140 188 233 287 357 420
#     4  11  25  46  70  98 147 185 235 291 341 423
#     4  10  21  38  71 108 138 172 231 302 347 414
#     4  12  22  43  67  96 138 183 229 288 350 417
#     4  11  22  42  71  97 137 182 231 292 358 421
#     4  11  25  41  65  97 140 184 231 283 346 421
#     4  11  19  40  65 101 137 170 229 299 348 409
#
# _framework density 21.020796000000001
#
# number of rings (size 3 to 8) (size 9 to 14) (size 15 to 20)
#    0.000    1.000    3.750    3.750    0.000    0.500 
#    6.750    2.500    0.000    0.000    0.000    0.000 
#    0.000    0.000    0.000    0.000    0.000    0.000 
#
# Total GULP energy -178454.968275 kJ/mol
# GULP energy per Si atom -5576.717759 kJ/mol
# Density = 2.097295 g / cm^3
# Si number density = 21.020796 Si / 1000 Ang^3
#
#
#
# Elastic Constant Matrix: (Units=GPa)
#
#
# Indices 1 2 3 4 5 6 
#
# 1 104.9532 27.5997 29.5971 0.0000 -26.1888 0.0000
# 2 27.5997 60.2579 22.5479 0.0000 -16.7083 0.0000
# 3 29.5971 22.5479 98.3692 0.0000 -22.8623 0.0000
# 4 0.0000 0.0000 0.0000 39.4105 0.0000 -4.8980
# 5 -26.1888 -16.7083 -22.8623 0.0000 58.2682 0.0000
# 6 0.0000 0.0000 0.0000 -4.8980 0.0000 43.8946
#
#
#
# Elastic Compliance Matrix: (Units=1/GPa)
#
#
# Indices 1 2 3 4 5 6 
#
# 1 0.011941 -0.003776 -0.001905 0.000000 0.003537 0.000000
# 2 -0.003776 0.020203 -0.002798 0.000000 0.002998 0.000000
# 3 -0.001905 -0.002798 0.012098 0.000000 0.003088 0.000000
# 4 0.000000 0.000000 0.000000 0.025731 0.000000 0.002871
# 5 0.003537 0.002998 0.003088 0.000000 0.020823 0.000000
# 6 0.000000 0.000000 0.000000 0.002871 0.000000 0.023102
#
#
# Mechanical properties :
#
#
# Convention : Reuss Voigt Hill
#
# Bulk Modulus (GPa) = 36.65145 47.00773 41.82959
# Shear Modulus (GPa) = 35.72692 40.57036 38.14864
#
# Velocity S-wave (km/s) = 4.12709 4.39795 4.26467
# Velocity P-wave (km/s) = 6.33910 6.94265 6.64773
#
# Compressibility (1/GPa) = 0.02728405
#
# Stress axis : x y z
#
# Youngs Moduli (GPa) = 83.74713 49.49746 82.65732
#
# Poissons Ratio (x) = 0.18688 0.15749
# Poissons Ratio (y) = 0.31619 0.23128
# Poissons Ratio (z) = 0.15957 0.13850
#
# Static dielectric constant tensor:
#      x y z
#    x 1.785270 0.000000 0.012620 
#    y 0.000000 1.809050 0.000000 
#    z 0.012620 0.000000 1.786720 
# 
# From -- ./inp_files/15740.got.cif
#   From: 2010.05.17/outbox.ucp.g08.bks.cvg/sg14_8_cif.got.tgz:15740.got - 2010.06.11 12:31:08.
