data_PCOD9253478
_publ_section_title
;
Structure prediction by ZEFSAII (Michael W. Deem and Ramdas Pophale) SiO2 
 PCOD9253478
Probable space group: P 21/C
;
_chemical_formula_sum "Si O2"
_cell_formula_units_Z 30
_cell_length_a 24.000000
_cell_length_b 9.000000
_cell_length_c 15.000000
_cell_angle_alpha 90.000000
_cell_angle_beta 30.000000
_cell_angle_gamma 90.000000
_cell_volume 1620.000000
_symmetry_space_group_name_H-M "P 21/C"
_symmetry_group_IT_number 14
_symmetry_cell_setting 'monoclinic'
loop_
_space_group_symop_operation_xyz
x,y,z
-x,1/2+y,1/2-z
-x,-y,-z
x,1/2-y,1/2+z
loop_
_atom_site_type_symbol
_atom_site_label
_atom_site_fract_x
_atom_site_fract_y
_atom_site_fract_z
Si Si1 0.296465 0.102064 0.194089
Si Si2 0.919010 0.083549 0.914009
Si Si3 0.471148 0.751035 0.175788
Si Si4 0.860828 0.747375 0.438380
Si Si5 0.596680 0.457188 0.059748
Si Si6 0.690600 0.245530 0.770482
Si Si7 0.791208 0.804606 0.332969
Si Si8 0.000000 0.000000 0.000000
O O1 0.221783 0.182345 0.373428
O O2 0.246249 0.157788 0.169039
O O3 0.301117 0.924849 0.205068
O O4 0.420393 0.171587 0.019075
O O5 0.018838 0.169355 0.724602
O O6 0.879757 0.928987 0.924165
O O7 0.813069 0.189571 0.078912
O O8 0.968933 0.038748 0.939960
O O9 0.504356 0.581903 0.159348
O O10 0.438168 0.850765 0.308683
O O11 0.378345 0.750826 0.226748
O O12 0.808042 0.774921 0.414016
O O13 0.633545 0.352209 0.925146
O O14 0.700516 0.563203 0.944075
O O15 0.904232 0.867566 0.134544
#
# Coordination Sequence:
#
# PCOD9253478 Si02
#       8
#     4   4   4   4   4   4   4   2
#     4  11  23  43  62  99 134 167 221 266 326 389
#     4  11  23  42  65  96 129 170 219 268 328 391
#     4  11  25  42  67  95 132 174 217 272 324 390
#     4  11  23  42  66  96 126 171 216 269 328 389
#     4  11  23  43  64  97 128 176 219 265 330 391
#     4  12  24  42  66  97 130 174 216 273 324 391
#     4  10  22  41  68  92 130 172 211 272 327 386
#     4  10  18  44  66  86 128 172 204 266 330 372
#
# _framework density 18.518519000000001
#
# number of rings (size 3 to 8) (size 9 to 14) (size 15 to 20)
#    0.000    1.067    2.667    4.000    0.000    6.400 
#    2.400    2.000    0.000    0.000    0.000    0.000 
#    0.000    0.000    0.000    0.000    0.000    0.000 
#
# Total GULP energy -167047.227639 kJ/mol
# GULP energy per Si atom -5568.240921 kJ/mol
# Density = 1.847637 g / cm^3
# Si number density = 18.518519 Si / 1000 Ang^3
#
#
#
# Elastic Constant Matrix: (Units=GPa)
#
#
# Indices 1 2 3 4 5 6 
#
# 1 101.1544 49.7427 40.8045 0.0000 12.0646 0.0000
# 2 49.7427 138.6695 46.9421 0.0000 14.4936 0.0000
# 3 40.8045 46.9421 97.3082 0.0000 28.4917 0.0000
# 4 0.0000 0.0000 0.0000 40.3554 0.0000 9.0849
# 5 12.0646 14.4936 28.4917 0.0000 16.6511 0.0000
# 6 0.0000 0.0000 0.0000 9.0849 0.0000 33.3224
#
#
#
# Elastic Compliance Matrix: (Units=1/GPa)
#
#
# Indices 1 2 3 4 5 6 
#
# 1 0.013114 -0.003398 -0.003895 0.000000 0.000121 0.000000
# 2 -0.003398 0.009504 -0.002923 0.000000 -0.000809 0.000000
# 3 -0.003895 -0.002923 0.023545 0.000000 -0.034922 0.000000
# 4 0.000000 0.000000 0.000000 0.026400 0.000000 -0.007198
# 5 0.000121 -0.000809 -0.034922 0.000000 0.120427 0.000000
# 6 0.000000 0.000000 0.000000 -0.007198 0.000000 0.031972
#
#
# Mechanical properties :
#
#
# Convention : Reuss Voigt Hill
#
# Bulk Modulus (GPa) = 38.86501 68.01228 53.43864
# Shear Modulus (GPa) = 19.68716 31.37529 25.53123
#
# Velocity S-wave (km/s) = 3.26407 4.12061 3.71709
# Velocity P-wave (km/s) = 5.93618 7.71010 6.88055
#
# Compressibility (1/GPa) = 0.02573009
#
# Stress axis : x y z
#
# Youngs Moduli (GPa) = 76.25584 105.21376 42.47147
#
# Poissons Ratio (x) = 0.35753 0.16544
# Poissons Ratio (y) = 0.25913 0.12415
# Poissons Ratio (z) = 0.29704 0.30756
#
# Static dielectric constant tensor:
#      x y z
#    x 1.635470 0.000000 -0.022490 
#    y 0.000000 1.619930 0.000000 
#    z -0.022490 0.000000 1.651320 
# 
# From -- ./inp_files/46588.got.cif
#   From: 2010.05.17/outbox.ucp.g08.bks.cvg/sg14_24_cif.got.tgz:46588.got - 2010.06.11 12:31:08.
