data_PCOD9253854
_publ_section_title
;
Structure prediction by ZEFSAII (Michael W. Deem and Ramdas Pophale) SiO2 
 PCOD9253854
Probable space group: C 2/C
;
_chemical_formula_sum "Si O2"
_cell_formula_units_Z 44
_cell_length_a 11.390410
_cell_length_b 8.248513
_cell_length_c 15.224676
_cell_angle_alpha 90.000000
_cell_angle_beta 84.676490
_cell_angle_gamma 90.000000
_cell_volume 1424.248565
_symmetry_space_group_name_H-M "C 2/C"
_symmetry_group_IT_number 15
_symmetry_cell_setting 'monoclinic'
loop_
_space_group_symop_operation_xyz
x,y,z
-x,y,1/2-z
-x,-y,-z
x,-y,1/2+z
1/2+x,1/2+y,z
1/2-x,1/2+y,1/2-z
1/2-x,1/2-y,-z
1/2+x,1/2-y,1/2+z
loop_
_atom_site_type_symbol
_atom_site_label
_atom_site_fract_x
_atom_site_fract_y
_atom_site_fract_z
Si Si1 0.701230 0.809922 0.098482
Si Si2 0.830964 0.450234 0.033339
Si Si3 0.973055 0.917387 0.652330
Si Si4 0.490355 0.756383 0.923282
Si Si5 0.714712 0.837964 0.288940
Si Si6 0.500000 0.924041 0.750000
O O1 0.578175 0.712322 0.121059
O O2 0.767970 0.802386 0.188107
O O3 0.750000 0.750000 0.000000
O O4 0.693937 0.992331 0.063892
O O5 0.743124 0.421285 0.121736
O O6 0.920463 0.592651 0.060373
O O7 0.895373 0.281219 0.006537
O O8 0.000000 0.975608 0.750000
O O9 0.850643 0.824996 0.677559
O O10 0.969711 0.071210 0.587952
O O11 0.453024 0.807894 0.828837
O O12 0.606915 0.958334 0.268871
#
# Coordination Sequence:
#
# PCOD9253854 Si02
#       6
#     8   8   8   8   8   4
#     4  11  22  40  57  81 120 159 186 234 290 342
#     4  10  21  35  58  83 113 156 192 232 294 343
#     4  10  19  34  59  90 111 143 193 245 289 327
#     4  10  18  31  59  90 112 144 193 247 281 336
#     4  10  19  37  60  83 112 147 194 243 280 339
#     4  10  14  30  58  84 112 140 182 236 288 332
#
# _framework density 30.893481000000001
#
# number of rings (size 3 to 8) (size 9 to 14) (size 15 to 20)
#    0.000    1.818    5.455    2.182    0.000    2.909 
#    0.000    6.364    0.000    0.000    0.000    0.000 
#    0.000    0.000    0.000    0.000    0.000    0.000 
#
# Total GULP energy -122980.237157 kJ/mol
# GULP energy per Si atom -5590.010780 kJ/mol
# Density = 3.082317 g / cm^3
# Si number density = 30.893481 Si / 1000 Ang^3
#
#
#
# Elastic Constant Matrix: (Units=GPa)
#
#
# Indices 1 2 3 4 5 6 
#
# 1 56.6491 35.7174 52.9009 0.0000 -13.6143 0.0000
# 2 35.7174 174.7312 96.2248 0.0000 -8.0751 0.0000
# 3 52.9009 96.2248 311.6007 0.0000 -18.5200 0.0000
# 4 0.0000 0.0000 0.0000 94.5810 0.0000 -8.6878
# 5 -13.6143 -8.0751 -18.5200 0.0000 52.1010 0.0000
# 6 0.0000 0.0000 0.0000 -8.6878 0.0000 52.5188
#
#
#
# Elastic Compliance Matrix: (Units=1/GPa)
#
#
# Indices 1 2 3 4 5 6 
#
# 1 0.023227 -0.003029 -0.002733 0.000000 0.004628 0.000000
# 2 -0.003029 0.007296 -0.001756 0.000000 -0.000285 0.000000
# 3 -0.002733 -0.001756 0.004246 0.000000 0.000523 0.000000
# 4 0.000000 0.000000 0.000000 0.010736 0.000000 0.001776
# 5 0.004628 -0.000285 0.000523 0.000000 0.020545 0.000000
# 6 0.000000 0.000000 0.000000 0.001776 0.000000 0.019335
#
#
# Mechanical properties :
#
#
# Convention : Reuss Voigt Hill
#
# Bulk Modulus (GPa) = 50.67385 101.40748 76.04066
# Shear Modulus (GPa) = 46.73007 63.71601 55.22304
#
# Velocity S-wave (km/s) = 3.89346 4.54634 4.23251
# Velocity P-wave (km/s) = 6.05396 7.77529 6.96798
#
# Compressibility (1/GPa) = 0.01973405
#
# Stress axis : x y z
#
# Youngs Moduli (GPa) = 43.05410 137.06187 235.49003
#
# Poissons Ratio (x) = 0.41516 0.64353
# Poissons Ratio (y) = 0.13041 0.41346
# Poissons Ratio (z) = 0.11766 0.24065
#
# Static dielectric constant tensor:
#      x y z
#    x 4.892860 0.000000 0.477000 
#    y 0.000000 3.257270 0.000000 
#    z 0.477000 0.000000 2.456580 
# 
# From -- ./inp_files/165667.got.cif
#   From: 2010.05.17/outbox.cif.g08.bks.cpg/sg15_83_cif.got.tgz:165667.got - 2010.06.03 18:47:42.
