data_PCOD9253659
_publ_section_title
;
Structure prediction by ZEFSAII (Michael W. Deem and Ramdas Pophale) SiO2 
 PCOD9253659
Probable space group: P 21/C
;
_chemical_formula_sum "Si O2"
_cell_formula_units_Z 32
_cell_length_a 21.000000
_cell_length_b 15.000000
_cell_length_c 15.000000
_cell_angle_alpha 90.000000
_cell_angle_beta 20.000000
_cell_angle_gamma 90.000000
_cell_volume 1616.045177
_symmetry_space_group_name_H-M "P 21/C"
_symmetry_group_IT_number 14
_symmetry_cell_setting 'monoclinic'
loop_
_space_group_symop_operation_xyz
x,y,z
-x,1/2+y,1/2-z
-x,-y,-z
x,1/2-y,1/2+z
loop_
_atom_site_type_symbol
_atom_site_label
_atom_site_fract_x
_atom_site_fract_y
_atom_site_fract_z
Si Si1 0.671094 0.885782 0.779673
Si Si2 0.423072 0.976494 0.248210
Si Si3 0.308598 0.114053 0.545063
Si Si4 0.985721 0.232897 0.679968
Si Si5 0.525636 0.297698 0.032197
Si Si6 0.079937 0.624815 0.552049
Si Si7 0.200285 0.080434 0.886150
Si Si8 0.416876 0.723388 0.837282
O O1 0.853992 0.831597 0.569705
O O2 0.690933 0.957434 0.671468
O O3 0.597125 0.948229 0.956942
O O4 0.535876 0.800829 0.927429
O O5 0.381239 0.874432 0.338247
O O6 0.422985 0.042084 0.334277
O O7 0.253646 0.072835 0.712088
O O8 0.432036 0.204228 0.399341
O O9 0.108257 0.130259 0.760205
O O10 0.055815 0.336153 0.588478
O O11 0.959502 0.187471 0.810970
O O12 0.785803 0.230929 0.896503
O O13 0.733691 0.330484 0.734556
O O14 0.383916 0.376593 0.189878
O O15 0.514298 0.289926 0.153100
O O16 0.126724 0.518827 0.509946
#
# Coordination Sequence:
#
# PCOD9253659 Si02
#       8
#     4   4   4   4   4   4   4   4
#     4  10  22  45  68  94 137 178 234 280 359 413
#     4  11  22  42  73  94 130 187 222 286 347 426
#     4  12  23  44  67 101 134 178 231 287 348 415
#     4  11  23  42  65 101 135 179 230 284 343 415
#     4  11  23  43  65 102 139 178 229 295 339 417
#     4  12  23  40  68  99 137 180 229 286 347 414
#     4  11  24  43  67  99 134 184 229 288 345 416
#     4  12  24  41  69 100 138 183 231 282 355 410
#
# _framework density 19.801427
#
# number of rings (size 3 to 8) (size 9 to 14) (size 15 to 20)
#    0.000    0.750    2.500    6.750    0.000    1.000 
#    0.000    0.625    0.000    0.000    0.000    0.000 
#    0.000    0.000    0.000    0.000    0.000    0.000 
#
# Total GULP energy -178357.201586 kJ/mol
# GULP energy per Si atom -5573.662550 kJ/mol
# Density = 1.975636 g / cm^3
# Si number density = 19.801427 Si / 1000 Ang^3
#
#
#
# Elastic Constant Matrix: (Units=GPa)
#
#
# Indices 1 2 3 4 5 6 
#
# 1 81.2671 17.4433 24.3227 0.0000 3.3735 0.0000
# 2 17.4433 142.5462 36.6081 0.0000 0.2406 0.0000
# 3 24.3227 36.6081 92.3926 0.0000 -11.0440 0.0000
# 4 0.0000 0.0000 0.0000 50.2205 0.0000 14.2404
# 5 3.3735 0.2406 -11.0440 0.0000 45.8926 0.0000
# 6 0.0000 0.0000 0.0000 14.2404 0.0000 35.3039
#
#
#
# Elastic Compliance Matrix: (Units=1/GPa)
#
#
# Indices 1 2 3 4 5 6 
#
# 1 0.013591 -0.000762 -0.003495 0.000000 -0.001836 0.000000
# 2 -0.000762 0.007882 -0.003007 0.000000 -0.000709 0.000000
# 3 -0.003495 -0.003007 0.013352 0.000000 0.003486 0.000000
# 4 0.000000 0.000000 0.000000 0.022484 0.000000 -0.009069
# 5 -0.001836 -0.000709 0.003486 0.000000 0.022768 0.000000
# 6 0.000000 0.000000 0.000000 -0.009069 0.000000 0.031984
#
#
# Mechanical properties :
#
#
# Convention : Reuss Voigt Hill
#
# Bulk Modulus (GPa) = 49.27267 52.55044 50.91156
# Shear Modulus (GPa) = 37.49404 42.13886 39.81645
#
# Velocity S-wave (km/s) = 4.35616 4.61811 4.48904
# Velocity P-wave (km/s) = 7.08794 7.41837 7.25504
#
# Compressibility (1/GPa) = 0.02029523
#
# Stress axis : x y z
#
# Youngs Moduli (GPa) = 73.57758 126.87099 74.89691
#
# Poissons Ratio (x) = 0.09672 0.26179
# Poissons Ratio (y) = 0.05609 0.22522
# Poissons Ratio (z) = 0.25718 0.38151
#
# Static dielectric constant tensor:
#      x y z
#    x 1.721570 0.000000 0.017520 
#    y 0.000000 1.690170 0.000000 
#    z 0.017520 0.000000 1.776470 
# 
# From -- ./inp_files/50679.got.cif
#   From: 2010.05.17/outbox.ucp.g08.bks.cvg/sg14_26_cif.got.tgz:50679.got - 2010.06.11 12:31:08.
