data_PCOD9253243
_publ_section_title
;
Structure prediction by ZEFSAII (Michael W. Deem and Ramdas Pophale) SiO2 
 PCOD9253243
Probable space group: P 21/C
;
_chemical_formula_sum "Si O2"
_cell_formula_units_Z 24
_cell_length_a 21.993788
_cell_length_b 4.889934
_cell_length_c 14.590625
_cell_angle_alpha 90.000000
_cell_angle_beta 38.053842
_cell_angle_gamma 90.000000
_cell_volume 967.254513
_symmetry_space_group_name_H-M "P 21/C"
_symmetry_group_IT_number 14
_symmetry_cell_setting 'monoclinic'
loop_
_space_group_symop_operation_xyz
x,y,z
-x,1/2+y,1/2-z
-x,-y,-z
x,1/2-y,1/2+z
loop_
_atom_site_type_symbol
_atom_site_label
_atom_site_fract_x
_atom_site_fract_y
_atom_site_fract_z
Si Si1 0.291248 0.874538 0.126455
Si Si2 0.668408 0.612462 0.223968
Si Si3 0.250546 0.913204 0.976375
Si Si4 0.070906 0.750463 0.940803
Si Si5 0.486466 0.857808 0.331823
Si Si6 0.940916 0.148562 0.335739
O O1 0.182027 0.752833 0.270860
O O2 0.319582 0.047935 0.182943
O O3 0.287942 0.020514 0.030612
O O4 0.379349 0.659551 0.005619
O O5 0.687948 0.332539 0.144427
O O6 0.566449 0.751317 0.311165
O O7 0.748024 0.835008 0.095188
O O8 0.146042 0.771958 0.120593
O O9 0.036513 0.167638 0.702115
O O10 0.000000 0.500000 0.000000
O O11 0.088266 0.722289 0.027692
O O12 0.494446 0.649760 0.236185
O O13 0.000000 0.500000 0.500000
#
# Coordination Sequence:
#
# PCOD9253243 Si02
#       6
#     4   4   4   4   4   4
#     4  12  27  49  83 108 156 203 251 319 381 445
#     4  12  26  48  75 112 150 196 255 310 380 459
#     4  12  26  47  75 108 153 195 249 318 382 447
#     4  12  28  48  74 115 149 198 260 308 378 461
#     4  12  25  50  76 112 155 200 252 314 384 454
#     4  12  25  48  73 105 152 198 250 321 376 447
#
# _framework density 24.812495999999999
#
# number of rings (size 3 to 8) (size 9 to 14) (size 15 to 20)
#    0.000    0.000    5.000    4.500    2.333    5.333 
#    0.000    3.333    0.000    0.000    0.000    0.000 
#    0.000    0.000    0.000    0.000    0.000    0.000 
#
# Total GULP energy -134365.500236 kJ/mol
# GULP energy per Si atom -5598.562510 kJ/mol
# Density = 2.475602 g / cm^3
# Si number density = 24.812496 Si / 1000 Ang^3
#
#
#
# Elastic Constant Matrix: (Units=GPa)
#
#
# Indices 1 2 3 4 5 6 
#
# 1 130.2133 4.7466 29.4619 0.0000 5.0497 0.0000
# 2 4.7466 113.6331 9.0971 0.0000 -5.6151 0.0000
# 3 29.4619 9.0971 120.1396 0.0000 -22.7171 0.0000
# 4 0.0000 0.0000 0.0000 32.0293 0.0000 -2.1906
# 5 5.0497 -5.6151 -22.7171 0.0000 70.0440 0.0000
# 6 0.0000 0.0000 0.0000 -2.1906 0.0000 25.2458
#
#
#
# Elastic Compliance Matrix: (Units=1/GPa)
#
#
# Indices 1 2 3 4 5 6 
#
# 1 0.008252 -0.000230 -0.002261 0.000000 -0.001347 0.000000
# 2 -0.000230 0.008878 -0.000509 0.000000 0.000563 0.000000
# 3 -0.002261 -0.000509 0.009524 0.000000 0.003211 0.000000
# 4 0.000000 0.000000 0.000000 0.031408 0.000000 0.002725
# 5 -0.001347 0.000563 0.003211 0.000000 0.015460 0.000000
# 6 0.000000 0.000000 0.000000 0.002725 0.000000 0.039847
#
#
# Mechanical properties :
#
#
# Convention : Reuss Voigt Hill
#
# Bulk Modulus (GPa) = 48.41828 50.06637 49.24232
# Shear Modulus (GPa) = 39.60254 46.84251 43.22253
#
# Velocity S-wave (km/s) = 3.99942 4.34966 4.17821
# Velocity P-wave (km/s) = 6.39400 6.74150 6.57005
#
# Compressibility (1/GPa) = 0.02065336
#
# Stress axis : x y z
#
# Youngs Moduli (GPa) = 121.18502 112.63201 105.00014
#
# Poissons Ratio (x) = 0.02593 0.23738
# Poissons Ratio (y) = 0.02790 0.05348
# Poissons Ratio (z) = 0.27398 0.05737
#
# Static dielectric constant tensor:
#      x y z
#    x 2.098870 0.000000 -0.075160 
#    y 0.000000 1.830000 0.000000 
#    z -0.075160 0.000000 1.978230 
# 
# From -- ./inp_files/49471.got.cif
#   From: 2010.05.17/outbox.cif.g08.bks.cpg/sg14_25_cif.got.tgz:49471.got - 2010.06.03 17:49:19.
