data_PCOD9253864
_publ_section_title
;
Structure prediction by ZEFSAII (Michael W. Deem and Ramdas Pophale) SiO2 
 PCOD9253864
Probable space group: C 2/C
;
_chemical_formula_sum "Si O2"
_cell_formula_units_Z 52
_cell_length_a 17.687184
_cell_length_b 17.598191
_cell_length_c 18.476813
_cell_angle_alpha 90.000000
_cell_angle_beta 152.605062
_cell_angle_gamma 90.000000
_cell_volume 2646.221329
_symmetry_space_group_name_H-M "C 2/C"
_symmetry_group_IT_number 15
_symmetry_cell_setting 'monoclinic'
loop_
_space_group_symop_operation_xyz
x,y,z
-x,y,1/2-z
-x,-y,-z
x,-y,1/2+z
1/2+x,1/2+y,z
1/2-x,1/2+y,1/2-z
1/2-x,1/2-y,-z
1/2+x,1/2-y,1/2+z
loop_
_atom_site_type_symbol
_atom_site_label
_atom_site_fract_x
_atom_site_fract_y
_atom_site_fract_z
Si Si1 0.833863 0.331017 0.973896
Si Si2 0.709022 0.994168 0.103816
Si Si3 0.238798 0.613278 0.939236
Si Si4 0.075216 0.532825 0.238672
Si Si5 0.658925 0.552565 0.141709
Si Si6 0.500000 0.490098 0.750000
Si Si7 0.533477 0.696715 0.121331
O O1 0.832489 0.418594 0.950762
O O2 0.656780 0.303116 0.794175
O O3 0.839435 0.333209 0.065712
O O4 0.980797 0.283450 0.062202
O O5 0.733021 0.001731 0.209839
O O6 0.879277 0.971961 0.207067
O O7 0.559679 0.952173 0.938058
O O8 0.120993 0.555560 0.796287
O O9 0.370570 0.559842 0.094153
O O10 0.355864 0.661437 0.987927
O O11 0.245110 0.563255 0.351428
O O12 0.000000 0.562395 0.250000
O O13 0.614835 0.635638 0.136244
O O14 0.500000 0.500000 0.000000
#
# Coordination Sequence:
#
# PCOD9253864 Si02
#       7
#     8   8   8   8   8   4   8
#     4  10  21  31  51  77 112 149 190 239 276 345
#     4  10  21  36  54  81 113 149 198 238 292 344
#     4  11  18  33  49  76 116 149 190 224 283 338
#     4  12  22  34  58  85 113 156 199 243 289 344
#     4  11  22  39  57  75 115 162 197 239 290 345
#     4  10  14  32  50  72 110 148 180 234 274 328
#     4  11  21  35  51  79 112 156 199 226 287 342
#
# _framework density 19.650662000000001
#
# number of rings (size 3 to 8) (size 9 to 14) (size 15 to 20)
#    0.000    1.231    9.231    0.923    2.154    0.000 
#    0.000    0.000    0.000    0.000    0.000    4.308 
#    0.000    0.000    0.000    0.462    0.000    0.000 
#
# Total GULP energy -144774.695718 kJ/mol
# GULP energy per Si atom -5568.257528 kJ/mol
# Density = 1.960594 g / cm^3
# Si number density = 19.650662 Si / 1000 Ang^3
#
#
#
# Elastic Constant Matrix: (Units=GPa)
#
#
# Indices 1 2 3 4 5 6 
#
# 1 126.4512 22.5912 16.3686 -0.0016 13.7026 -0.0007
# 2 22.5912 32.7613 3.7129 -0.0045 6.0082 -0.0018
# 3 16.3686 3.7129 92.8477 -0.0070 0.0689 -0.0023
# 4 -0.0016 -0.0045 -0.0070 18.7835 -0.0030 7.1905
# 5 13.7026 6.0082 0.0689 -0.0030 22.5924 -0.0007
# 6 -0.0007 -0.0018 -0.0023 7.1905 -0.0007 23.4886
#
#
#
# Elastic Compliance Matrix: (Units=1/GPa)
#
#
# Indices 1 2 3 4 5 6 
#
# 1 0.009572 -0.005647 -0.001458 -0.000002 -0.004299 0.000000
# 2 -0.005647 0.035572 -0.000423 0.000007 -0.006034 0.000000
# 3 -0.001458 -0.000423 0.011044 0.000004 0.000963 0.000000
# 4 -0.000002 0.000007 0.000004 0.060305 0.000007 -0.018461
# 5 -0.004299 -0.006034 0.000963 0.000007 0.048472 -0.000001
# 6 0.000000 0.000000 0.000000 -0.018461 -0.000001 0.048225
#
#
# Mechanical properties :
#
#
# Convention : Reuss Voigt Hill
#
# Bulk Modulus (GPa) = 24.31189 37.48951 30.90070
# Shear Modulus (GPa) = 20.66497 26.93208 23.79852
#
# Velocity S-wave (km/s) = 3.24638 3.70610 3.48383
# Velocity P-wave (km/s) = 5.14304 6.11825 5.65172
#
# Compressibility (1/GPa) = 0.04113213
#
# Stress axis : x y z
#
# Youngs Moduli (GPa) = 104.47518 28.11199 90.54994
#
# Poissons Ratio (x) = 0.15874 0.13206
# Poissons Ratio (y) = 0.58993 0.03826
# Poissons Ratio (z) = 0.15237 0.01188
#
# Static dielectric constant tensor:
#      x y z
#    x 1.770720 0.000000 0.005590 
#    y 0.000000 1.729170 0.000000 
#    z 0.005590 0.000000 1.786900 
# 
# From -- ./inp_files/211690.got.cif
#   From: 2010.05.17/outbox.cif.g08.bks.cpg/sg15_106_cif.got.tgz:211690.got - 2010.06.03 18:47:42.
