data_PCOD9253751
_publ_section_title
;
Structure prediction by ZEFSAII (Michael W. Deem and Ramdas Pophale) SiO2 
 PCOD9253751
Probable space group: P 21/C
;
_chemical_formula_sum "Si O2"
_cell_formula_units_Z 28
_cell_length_a 30.000000
_cell_length_b 9.000000
_cell_length_c 30.000000
_cell_angle_alpha 90.000000
_cell_angle_beta 170.000000
_cell_angle_gamma 90.000000
_cell_volume 1406.550239
_symmetry_space_group_name_H-M "P 21/C"
_symmetry_group_IT_number 14
_symmetry_cell_setting 'monoclinic'
loop_
_space_group_symop_operation_xyz
x,y,z
-x,1/2+y,1/2-z
-x,-y,-z
x,1/2-y,1/2+z
loop_
_atom_site_type_symbol
_atom_site_label
_atom_site_fract_x
_atom_site_fract_y
_atom_site_fract_z
Si Si1 0.636824 0.720911 0.242040
Si Si2 0.577597 0.117001 0.711570
Si Si3 0.341965 0.314234 0.076138
Si Si4 0.750382 0.895392 0.755034
Si Si5 0.123170 0.914898 0.749857
Si Si6 0.891304 0.741738 0.804142
Si Si7 0.183885 0.527664 0.413865
O O1 0.609125 0.561207 0.239225
O O2 0.704312 0.681033 0.257295
O O3 0.870283 0.817125 0.491682
O O4 0.374275 0.815092 0.986915
O O5 0.492650 0.165623 0.677528
O O6 0.336071 0.170842 0.444839
O O7 0.836745 0.192524 0.946566
O O8 0.562411 0.372158 0.326981
O O9 0.076704 0.410568 0.818792
O O10 0.256820 0.142299 0.998514
O O11 0.821983 0.776693 0.787190
O O12 0.500000 0.000000 0.500000
O O13 0.000000 0.000000 0.000000
O O14 0.128990 0.964076 0.807171
O O15 0.118929 0.067049 0.717213
#
# Coordination Sequence:
#
# PCOD9253751 Si02
#       7
#     4   4   4   4   4   4   4
#     4  12  26  44  74 106 142 185 237 291 347 417
#     4  12  25  46  72 104 134 194 235 273 355 428
#     4  12  28  47  74 103 140 184 238 290 354 418
#     4  12  23  45  72 108 139 181 244 292 341 416
#     4  12  28  46  68 105 148 182 228 295 361 412
#     4  12  24  47  75  98 146 190 226 289 352 421
#     4  12  28  49  69 104 141 183 233 296 347 419
#
# _framework density 19.906860999999999
#
# number of rings (size 3 to 8) (size 9 to 14) (size 15 to 20)
#    0.000    0.000    4.286    5.143    8.000    1.143 
#    0.000    0.000    0.000    0.000    0.000    0.000 
#    0.000    0.000    0.000    0.000    0.000    0.000 
#
# Total GULP energy -156711.839704 kJ/mol
# GULP energy per Si atom -5596.851418 kJ/mol
# Density = 1.986155 g / cm^3
# Si number density = 19.906861 Si / 1000 Ang^3
#
#
#
# Elastic Constant Matrix: (Units=GPa)
#
#
# Indices 1 2 3 4 5 6 
#
# 1 75.4222 12.8347 13.0655 0.0000 12.2322 0.0000
# 2 12.8347 150.8778 61.8272 0.0000 9.1604 0.0000
# 3 13.0655 61.8272 175.7345 0.0000 24.3642 0.0000
# 4 0.0000 0.0000 0.0000 46.9559 0.0000 3.1821
# 5 12.2322 9.1604 24.3642 0.0000 43.8730 0.0000
# 6 0.0000 0.0000 0.0000 3.1821 0.0000 40.8494
#
#
#
# Elastic Compliance Matrix: (Units=1/GPa)
#
#
# Indices 1 2 3 4 5 6 
#
# 1 0.014033 -0.000879 -0.000235 0.000000 -0.003598 0.000000
# 2 -0.000879 0.007800 -0.002694 0.000000 0.000113 0.000000
# 3 -0.000235 -0.002694 0.007117 0.000000 -0.003324 0.000000
# 4 0.000000 0.000000 0.000000 0.021410 0.000000 -0.001668
# 5 -0.003598 0.000113 -0.003324 0.000000 0.025619 0.000000
# 6 0.000000 0.000000 0.000000 -0.001668 0.000000 0.024610
#
#
# Mechanical properties :
#
#
# Convention : Reuss Voigt Hill
#
# Bulk Modulus (GPa) = 46.87769 64.16549 55.52159
# Shear Modulus (GPa) = 43.35935 47.28947 45.32441
#
# Velocity S-wave (km/s) = 4.67209 4.87924 4.77678
# Velocity P-wave (km/s) = 7.25976 8.00284 7.64034
#
# Compressibility (1/GPa) = 0.02133211
#
# Stress axis : x y z
#
# Youngs Moduli (GPa) = 71.26279 128.20591 140.51432
#
# Poissons Ratio (x) = 0.11267 0.03305
# Poissons Ratio (y) = 0.06263 0.37861
# Poissons Ratio (z) = 0.01676 0.34545
#
# Static dielectric constant tensor:
#      x y z
#    x 1.744180 0.000000 -0.046890 
#    y 0.000000 1.680100 0.000000 
#    z -0.046890 0.000000 1.681120 
# 
# From -- ./inp_files/80879.got.cif
#   From: 2010.05.17/outbox.ucp.g08.bks.cvg/sg14_41_cif.got.tgz:80879.got - 2010.06.11 12:31:08.
