data_PCOD9253072
_publ_section_title
;
Structure prediction by ZEFSAII (Michael W. Deem and Ramdas Pophale) SiO2 
 PCOD9253072
Probable space group: P 21/C
;
_chemical_formula_sum "Si O2"
_cell_formula_units_Z 20
_cell_length_a 25.276449
_cell_length_b 6.985383
_cell_length_c 10.243067
_cell_angle_alpha 90.000000
_cell_angle_beta 149.047852
_cell_angle_gamma 90.000000
_cell_volume 930.189448
_symmetry_space_group_name_H-M "P 21/C"
_symmetry_group_IT_number 14
_symmetry_cell_setting 'monoclinic'
loop_
_space_group_symop_operation_xyz
x,y,z
-x,1/2+y,1/2-z
-x,-y,-z
x,1/2-y,1/2+z
loop_
_atom_site_type_symbol
_atom_site_label
_atom_site_fract_x
_atom_site_fract_y
_atom_site_fract_z
Si Si1 0.862575 0.062794 0.412940
Si Si2 0.380825 0.951285 0.763034
Si Si3 0.028524 0.177731 0.149404
Si Si4 0.297911 0.679342 0.808636
Si Si5 0.246253 0.332525 0.518508
O O1 0.811433 0.212550 0.405008
O O2 0.932276 0.183293 0.461776
O O3 0.936421 0.910170 0.638026
O O4 0.768557 0.953089 0.145358
O O5 0.362809 0.812466 0.848322
O O6 0.342000 0.853314 0.546765
O O7 0.314664 0.144526 0.645574
O O8 0.500000 0.000000 0.000000
O O9 0.130032 0.275292 0.308341
O O10 0.000000 0.000000 0.000000
O O11 0.286542 0.474369 0.715221
#
# Coordination Sequence:
#
# PCOD9253072 Si02
#       5
#     4   4   4   4   4
#     4  12  23  43  69 108 146 197 243 299 368 443
#     4  12  30  49  80 109 145 198 248 313 375 436
#     4  12  23  40  68 104 146 194 244 296 365 439
#     4  12  26  51  74 110 152 188 248 307 371 446
#     4  12  25  47  72 106 151 193 247 305 370 439
#
# _framework density 21.500995
#
# number of rings (size 3 to 8) (size 9 to 14) (size 15 to 20)
#    0.000    0.000    4.000    6.600    2.800    0.800 
#    0.000    0.000    0.000    0.000    0.000    0.000 
#    0.000    0.000    0.000    0.000    0.000    0.000 
#
# Total GULP energy -112005.120248 kJ/mol
# GULP energy per Si atom -5600.256012 kJ/mol
# Density = 2.145206 g / cm^3
# Si number density = 21.500995 Si / 1000 Ang^3
#
#
#
# Elastic Constant Matrix: (Units=GPa)
#
#
# Indices 1 2 3 4 5 6 
#
# 1 108.4036 66.0721 30.0983 0.0000 19.9890 0.0000
# 2 66.0721 137.3334 39.5447 0.0000 8.3331 0.0000
# 3 30.0983 39.5447 51.1187 0.0000 19.5391 0.0000
# 4 0.0000 0.0000 0.0000 27.3257 0.0000 -5.3818
# 5 19.9890 8.3331 19.5391 0.0000 41.4635 0.0000
# 6 0.0000 0.0000 0.0000 -5.3818 0.0000 56.0713
#
#
#
# Elastic Compliance Matrix: (Units=1/GPa)
#
#
# Indices 1 2 3 4 5 6 
#
# 1 0.014329 -0.006048 -0.001930 0.000000 -0.004783 0.000000
# 2 -0.006048 0.012041 -0.007249 0.000000 0.003912 0.000000
# 3 -0.001930 -0.007249 0.030973 0.000000 -0.012208 0.000000
# 4 0.000000 0.000000 0.000000 0.037301 0.000000 0.003580
# 5 -0.004783 0.003912 -0.012208 0.000000 0.031390 0.000000
# 6 0.000000 0.000000 0.000000 0.003580 0.000000 0.018178
#
#
# Mechanical properties :
#
#
# Convention : Reuss Voigt Hill
#
# Bulk Modulus (GPa) = 37.19020 63.14288 50.16654
# Shear Modulus (GPa) = 27.22890 35.71479 31.47184
#
# Velocity S-wave (km/s) = 3.56251 4.08005 3.83003
# Velocity P-wave (km/s) = 5.85291 7.18519 6.55299
#
# Compressibility (1/GPa) = 0.02688881
#
# Stress axis : x y z
#
# Youngs Moduli (GPa) = 69.79029 83.04853 32.28623
#
# Poissons Ratio (x) = 0.50225 0.06232
# Poissons Ratio (y) = 0.42207 0.23405
# Poissons Ratio (z) = 0.13470 0.60204
#
# Static dielectric constant tensor:
#      x y z
#    x 1.696400 0.000000 -0.096860 
#    y 0.000000 1.788690 0.000000 
#    z -0.096860 0.000000 1.744710 
# 
# From -- ./inp_files/33315.got.cif
#   From: 2010.05.17/outbox.cif.g08.bks.cpg/sg14_17_cif.got.tgz:33315.got - 2010.06.03 17:49:19.
