data_PCOD9253625
_publ_section_title
;
Structure prediction by ZEFSAII (Michael W. Deem and Ramdas Pophale) SiO2 
 PCOD9253625
Probable space group: P 21/C
;
_chemical_formula_sum "Si O2"
_cell_formula_units_Z 32
_cell_length_a 12.000000
_cell_length_b 18.000000
_cell_length_c 15.000000
_cell_angle_alpha 90.000000
_cell_angle_beta 30.000000
_cell_angle_gamma 90.000000
_cell_volume 1620.000000
_symmetry_space_group_name_H-M "P 21/C"
_symmetry_group_IT_number 14
_symmetry_cell_setting 'monoclinic'
loop_
_space_group_symop_operation_xyz
x,y,z
-x,1/2+y,1/2-z
-x,-y,-z
x,1/2-y,1/2+z
loop_
_atom_site_type_symbol
_atom_site_label
_atom_site_fract_x
_atom_site_fract_y
_atom_site_fract_z
Si Si1 0.504040 0.416614 0.877706
Si Si2 0.447585 0.747398 0.167067
Si Si3 0.281986 0.567484 0.074560
Si Si4 0.285979 0.892765 0.963039
Si Si5 0.378084 0.161254 0.119524
Si Si6 0.225564 0.446266 0.576267
Si Si7 0.395429 0.144450 0.790370
Si Si8 0.976045 0.784951 0.075137
O O1 0.429063 0.331247 0.930984
O O2 0.329182 0.483209 0.008414
O O3 0.629138 0.419731 0.694709
O O4 0.644750 0.425557 0.872394
O O5 0.535262 0.785777 0.196676
O O6 0.185806 0.736767 0.367706
O O7 0.487994 0.793129 0.049129
O O8 0.420347 0.617696 0.908813
O O9 0.023664 0.585349 0.251167
O O10 0.478298 0.854992 0.890922
O O11 0.088315 0.834757 0.075942
O O12 0.216904 0.965426 0.067099
O O13 0.323083 0.085498 0.101995
O O14 0.165668 0.213549 0.292676
O O15 0.346222 0.414823 0.403384
O O16 0.185496 0.164605 0.873905
#
# Coordination Sequence:
#
# PCOD9253625 Si02
#       8
#     4   4   4   4   4   4   4   4
#     4  10  22  39  64  94 132 158 212 273 315 371
#     4  10  23  42  61  96 126 167 213 261 321 387
#     4  11  23  40  66  96 128 167 214 270 321 381
#     4  11  24  44  65  94 133 170 219 262 322 390
#     4  11  25  44  65  92 137 168 218 266 318 385
#     4  11  24  42  66  94 129 180 213 258 326 387
#     4  11  23  42  67  93 136 159 214 278 316 374
#     4  11  23  39  69  94 125 175 209 271 328 374
#
# _framework density 19.753086
#
# number of rings (size 3 to 8) (size 9 to 14) (size 15 to 20)
#    0.000    1.250    1.250    4.875    5.250    4.000 
#    2.250    0.625    0.000    0.000    0.000    0.000 
#    0.000    0.000    0.000    0.000    0.000    0.000 
#
# Total GULP energy -178557.320025 kJ/mol
# GULP energy per Si atom -5579.916251 kJ/mol
# Density = 1.970813 g / cm^3
# Si number density = 19.753086 Si / 1000 Ang^3
#
#
#
# Elastic Constant Matrix: (Units=GPa)
#
#
# Indices 1 2 3 4 5 6 
#
# 1 129.4791 35.7460 30.9984 0.0000 14.2394 0.0000
# 2 35.7460 92.1017 14.7549 0.0000 7.1556 0.0000
# 3 30.9984 14.7549 64.6191 0.0000 18.9894 0.0000
# 4 0.0000 0.0000 0.0000 30.6342 0.0000 -3.3132
# 5 14.2394 7.1556 18.9894 0.0000 28.7147 0.0000
# 6 0.0000 0.0000 0.0000 -3.3132 0.0000 29.6052
#
#
#
# Elastic Compliance Matrix: (Units=1/GPa)
#
#
# Indices 1 2 3 4 5 6 
#
# 1 0.009563 -0.003034 -0.003380 0.000000 -0.001751 0.000000
# 2 -0.003034 0.012276 -0.001106 0.000000 -0.000823 0.000000
# 3 -0.003380 -0.001106 0.020822 0.000000 -0.011818 0.000000
# 4 0.000000 0.000000 0.000000 0.033043 0.000000 0.003698
# 5 -0.001751 -0.000823 -0.011818 0.000000 0.043714 0.000000
# 6 0.000000 0.000000 0.000000 0.003698 0.000000 0.034192
#
#
# Mechanical properties :
#
#
# Convention : Reuss Voigt Hill
#
# Bulk Modulus (GPa) = 36.20344 49.91097 43.05720
# Shear Modulus (GPa) = 28.11249 31.43751 29.77500
#
# Velocity S-wave (km/s) = 3.77662 3.99372 3.88668
# Velocity P-wave (km/s) = 6.11432 6.82559 6.47972
#
# Compressibility (1/GPa) = 0.02762168
#
# Stress axis : x y z
#
# Youngs Moduli (GPa) = 104.57432 81.45864 48.02558
#
# Poissons Ratio (x) = 0.24713 0.16233
# Poissons Ratio (y) = 0.31726 0.05310
# Poissons Ratio (z) = 0.35347 0.09007
#
# Static dielectric constant tensor:
#      x y z
#    x 1.670170 0.000000 -0.017360 
#    y 0.000000 1.763720 0.000000 
#    z -0.017360 0.000000 1.692460 
# 
# From -- ./inp_files/45415.got.cif
#   From: 2010.05.17/outbox.ucp.g08.bks.cvg/sg14_23_cif.got.tgz:45415.got - 2010.06.11 12:31:08.
