data_PCOD9253834
_publ_section_title
;
Structure prediction by ZEFSAII (Michael W. Deem and Ramdas Pophale) SiO2 
 PCOD9253834
Probable space group: C 2/C
;
_chemical_formula_sum "Si O2"
_cell_formula_units_Z 52
_cell_length_a 11.222982
_cell_length_b 11.656745
_cell_length_c 19.537193
_cell_angle_alpha 90.000000
_cell_angle_beta 119.375581
_cell_angle_gamma 90.000000
_cell_volume 2227.289774
_symmetry_space_group_name_H-M "C 2/C"
_symmetry_group_IT_number 15
_symmetry_cell_setting 'monoclinic'
loop_
_space_group_symop_operation_xyz
x,y,z
-x,y,1/2-z
-x,-y,-z
x,-y,1/2+z
1/2+x,1/2+y,z
1/2-x,1/2+y,1/2-z
1/2-x,1/2-y,-z
1/2+x,1/2-y,1/2+z
loop_
_atom_site_type_symbol
_atom_site_label
_atom_site_fract_x
_atom_site_fract_y
_atom_site_fract_z
Si Si1 0.683842 0.864486 0.015447
Si Si2 0.205591 0.247305 0.158564
Si Si3 0.648213 0.631636 0.286047
Si Si4 0.000000 0.680389 0.250000
Si Si5 0.604864 0.144090 0.842261
Si Si6 0.659470 0.479114 0.554076
Si Si7 0.051298 0.464630 0.629547
O O1 0.687363 0.847025 0.097007
O O2 0.750000 0.750000 0.000000
O O3 0.774343 0.960256 0.002614
O O4 0.528208 0.895623 0.951803
O O5 0.147447 0.211902 0.216845
O O6 0.366170 0.254642 0.218649
O O7 0.174808 0.133813 0.104890
O O8 0.500000 0.571212 0.250000
O O9 0.648162 0.723398 0.348265
O O10 0.786228 0.557534 0.323164
O O11 0.995051 0.601413 0.181645
O O12 0.500000 0.122386 0.750000
O O13 0.747467 0.074623 0.882546
O O14 0.516147 0.090644 0.879247
O O15 0.500000 0.500000 0.500000
#
# Coordination Sequence:
#
# PCOD9253834 Si02
#       7
#     8   8   8   4   8   8   8
#     4   9  17  31  54  89 124 163 212 253 327 388
#     4  10  19  34  57  87 127 161 215 266 315 392
#     4  10  23  36  61  91 119 165 224 261 323 392
#     4  10  14  28  56  88 106 164 210 246 316 378
#     4  10  18  35  59  88 116 161 217 252 314 384
#     4  10  20  31  60  90 127 168 206 264 333 388
#     4  10  17  33  59  88 120 167 208 264 320 384
#
# _framework density 23.34676
#
# number of rings (size 3 to 8) (size 9 to 14) (size 15 to 20)
#    0.000    2.154    5.385    0.923    4.308    0.000 
#    0.000    0.769   10.154    7.385    8.000    0.000 
#    0.000    0.000    0.000    0.000    0.000    0.000 
#
# Total GULP energy -144864.425488 kJ/mol
# GULP energy per Si atom -5571.708673 kJ/mol
# Density = 2.329362 g / cm^3
# Si number density = 23.346760 Si / 1000 Ang^3
#
#
#
# Elastic Constant Matrix: (Units=GPa)
#
#
# Indices 1 2 3 4 5 6 
#
# 1 163.9956 6.0742 44.3183 0.0000 16.3853 0.0000
# 2 6.0742 45.2479 17.3103 0.0000 -7.8012 0.0000
# 3 44.3183 17.3103 65.6252 0.0000 9.6595 0.0000
# 4 0.0000 0.0000 0.0000 16.5757 0.0000 -8.8919
# 5 16.3853 -7.8012 9.6595 0.0000 41.6730 0.0000
# 6 0.0000 0.0000 0.0000 -8.8919 0.0000 8.8125
#
#
#
# Elastic Compliance Matrix: (Units=1/GPa)
#
#
# Indices 1 2 3 4 5 6 
#
# 1 0.007610 0.000617 -0.005051 0.000000 -0.001706 0.000000
# 2 0.000617 0.026351 -0.008342 0.000000 0.006624 0.000000
# 3 -0.005051 -0.008342 0.021521 0.000000 -0.004564 0.000000
# 4 0.000000 0.000000 0.000000 0.131516 0.000000 0.132702
# 5 -0.001706 0.006624 -0.004564 0.000000 0.026965 0.000000
# 6 0.000000 0.000000 0.000000 0.132702 0.000000 0.247375
#
#
# Mechanical properties :
#
#
# Convention : Reuss Voigt Hill
#
# Bulk Modulus (GPa) = 33.41161 45.58605 39.49883
# Shear Modulus (GPa) = 10.06302 27.22329 18.64315
#
# Velocity S-wave (km/s) = 2.07836 3.41844 2.82890
# Velocity P-wave (km/s) = 4.48348 5.92866 5.25598
#
# Compressibility (1/GPa) = 0.02992972
#
# Stress axis : x y z
#
# Youngs Moduli (GPa) = 131.40047 37.94886 46.46548
#
# Poissons Ratio (x) = -0.02340 0.23469
# Poissons Ratio (y) = -0.08101 0.38762
# Poissons Ratio (z) = 0.66370 0.31658
#
# Static dielectric constant tensor:
#      x y z
#    x 1.925190 0.000000 -0.047140 
#    y 0.000000 2.036070 0.000000 
#    z -0.047140 0.000000 1.769210 
# 
# From -- ./inp_files/238448.got.cif
#   From: 2010.05.17/outbox.cif.g08.bks.cpg/sg15_120_cif.got.tgz:238448.got - 2010.06.03 18:47:42.
