data_PCOD9253301
_publ_section_title
;
Structure prediction by ZEFSAII (Michael W. Deem and Ramdas Pophale) SiO2 
 PCOD9253301
Probable space group: P 21/C
;
_chemical_formula_sum "Si O2"
_cell_formula_units_Z 16
_cell_length_a 18.220140
_cell_length_b 4.624293
_cell_length_c 8.961702
_cell_angle_alpha 90.000000
_cell_angle_beta 135.782011
_cell_angle_gamma 90.000000
_cell_volume 526.578792
_symmetry_space_group_name_H-M "P 21/C"
_symmetry_group_IT_number 14
_symmetry_cell_setting 'monoclinic'
loop_
_space_group_symop_operation_xyz
x,y,z
-x,1/2+y,1/2-z
-x,-y,-z
x,1/2-y,1/2+z
loop_
_atom_site_type_symbol
_atom_site_label
_atom_site_fract_x
_atom_site_fract_y
_atom_site_fract_z
Si Si1 0.715921 0.058542 0.347013
Si Si2 0.573259 0.410763 0.367531
Si Si3 0.000000 0.500000 0.000000
Si Si4 0.131195 0.445694 0.421030
Si Si5 0.000000 0.000000 0.000000
O O1 0.647843 0.229438 0.367990
O O2 0.800366 0.290895 0.408924
O O3 0.779914 0.782892 0.499187
O O4 0.640518 0.969790 0.102345
O O5 0.512864 0.676146 0.203547
O O6 0.090666 0.690284 0.210429
O O7 0.978354 0.741852 0.836259
O O8 0.081720 0.307597 0.512848
#
# Coordination Sequence:
#
# PCOD9253301 Si02
#       5
#     4   4   2   4   2
#     4  12  28  48  80 117 151 198 264 321 374 487
#     4  12  26  52  82 114 152 200 248 330 418 466
#     4  12  26  48  72 106 154 212 252 316 378 438
#     4  12  28  48  74 113 157 208 260 314 376 446
#     4  12  26  48  72 106 154 212 252 316 378 438
#
# _framework density 30.384820000000001
#
# number of rings (size 3 to 8) (size 9 to 14) (size 15 to 20)
#    0.000    0.000    0.000    9.000   10.500    0.000 
#    0.000    0.000    0.000    0.000    0.000    0.000 
#    0.000    0.000    0.000    0.000    0.000    0.000 
#
# Total GULP energy -89152.751224 kJ/mol
# GULP energy per Si atom -5572.046951 kJ/mol
# Density = 3.031566 g / cm^3
# Si number density = 30.384820 Si / 1000 Ang^3
#
#
#
# Elastic Constant Matrix: (Units=GPa)
#
#
# Indices 1 2 3 4 5 6 
#
# 1 171.6807 21.6936 52.9326 0.0000 -15.6890 0.0000
# 2 21.6936 243.9710 28.3596 0.0000 12.5001 0.0000
# 3 52.9326 28.3596 220.7004 0.0000 -4.7023 0.0000
# 4 0.0000 0.0000 0.0000 55.0586 0.0000 25.7186
# 5 -15.6890 12.5001 -4.7023 0.0000 57.1904 0.0000
# 6 0.0000 0.0000 0.0000 25.7186 0.0000 57.6335
#
#
#
# Elastic Compliance Matrix: (Units=1/GPa)
#
#
# Indices 1 2 3 4 5 6 
#
# 1 0.006499 -0.000499 -0.001457 0.000000 0.001772 0.000000
# 2 -0.000499 0.004252 -0.000450 0.000000 -0.001103 0.000000
# 3 -0.001457 -0.000450 0.004941 0.000000 0.000105 0.000000
# 4 0.000000 0.000000 0.000000 0.022945 0.000000 -0.010239
# 5 0.001772 -0.001103 0.000105 0.000000 0.018221 0.000000
# 6 0.000000 0.000000 0.000000 -0.010239 0.000000 0.021920
#
#
# Mechanical properties :
#
#
# Convention : Reuss Voigt Hill
#
# Bulk Modulus (GPa) = 91.91974 93.59152 92.75563
# Shear Modulus (GPa) = 57.32799 69.53426 63.43112
#
# Velocity S-wave (km/s) = 4.34836 4.78897 4.57397
# Velocity P-wave (km/s) = 7.45175 7.83887 7.64776
#
# Compressibility (1/GPa) = 0.01087906
#
# Stress axis : x y z
#
# Youngs Moduli (GPa) = 153.87040 235.17762 202.40855
#
# Poissons Ratio (x) = 0.11743 0.29487
# Poissons Ratio (y) = 0.07683 0.09111
# Poissons Ratio (z) = 0.22416 0.10586
#
# Static dielectric constant tensor:
#      x y z
#    x 2.238280 0.000000 0.232070 
#    y 0.000000 1.547740 0.000000 
#    z 0.232070 0.000000 1.725960 
# 
# From -- ./inp_files/14838.got.cif
#   From: 2010.05.17/outbox.cif.g08.bks.cpg/sg14_8_cif.got.tgz:14838.got - 2010.06.03 17:49:19.
