data_PCOD9253653
_publ_section_title
;
Structure prediction by ZEFSAII (Michael W. Deem and Ramdas Pophale) SiO2 
 PCOD9253653
Probable space group: P 21/C
;
_chemical_formula_sum "Si O2"
_cell_formula_units_Z 32
_cell_length_a 15.000000
_cell_length_b 9.000000
_cell_length_c 12.000000
_cell_angle_alpha 90.000000
_cell_angle_beta 70.000000
_cell_angle_gamma 90.000000
_cell_volume 1522.302046
_symmetry_space_group_name_H-M "P 21/C"
_symmetry_group_IT_number 14
_symmetry_cell_setting 'monoclinic'
loop_
_space_group_symop_operation_xyz
x,y,z
-x,1/2+y,1/2-z
-x,-y,-z
x,1/2-y,1/2+z
loop_
_atom_site_type_symbol
_atom_site_label
_atom_site_fract_x
_atom_site_fract_y
_atom_site_fract_z
Si Si1 0.570573 0.522110 0.692047
Si Si2 0.686540 0.346107 0.452619
Si Si3 0.389509 0.975658 0.576116
Si Si4 0.853305 0.228383 0.532507
Si Si5 0.385345 0.144652 0.361084
Si Si6 0.775343 0.537066 0.215551
Si Si7 0.052364 0.548905 0.363271
Si Si8 0.039100 0.220028 0.298639
O O1 0.620500 0.423404 0.575021
O O2 0.624964 0.516874 0.788470
O O3 0.570293 0.691447 0.649111
O O4 0.466243 0.460252 0.769968
O O5 0.636901 0.196438 0.429127
O O6 0.782382 0.290503 0.470691
O O7 0.719048 0.456631 0.340423
O O8 0.500000 0.000000 0.500000
O O9 0.347671 0.078520 0.495139
O O10 0.810309 0.086049 0.611922
O O11 0.862000 0.354671 0.624426
O O12 0.954063 0.198966 0.426604
O O13 0.296960 0.145536 0.315867
O O14 0.868536 0.623745 0.214277
O O15 0.065626 0.394977 0.291452
O O16 0.000000 0.500000 0.500000
O O17 0.997610 0.661752 0.304994
#
# Coordination Sequence:
#
# PCOD9253653 Si02
#       8
#     4   4   4   4   4   4   4   4
#     4  11  26  46  73 101 147 183 243 295 361 425
#     4  12  25  45  75 105 144 190 240 295 366 432
#     4  10  23  45  73 104 141 188 239 290 353 428
#     4  11  23  45  71 100 137 192 235 295 357 424
#     4  11  26  47  72 105 141 193 236 298 358 431
#     4  12  26  44  67 107 144 181 246 291 363 427
#     4  10  22  43  72  98 139 181 237 290 357 422
#     4  11  24  45  69 102 139 193 234 296 356 426
#
# _framework density 21.020796000000001
#
# number of rings (size 3 to 8) (size 9 to 14) (size 15 to 20)
#    0.000    1.000    1.250    5.625    7.000    1.500 
#    2.250    0.000    0.000    0.000    0.000    0.000 
#    0.000    0.000    0.000    0.000    0.000    0.000 
#
# Total GULP energy -178873.010719 kJ/mol
# GULP energy per Si atom -5589.781585 kJ/mol
# Density = 2.097295 g / cm^3
# Si number density = 21.020796 Si / 1000 Ang^3
#
#
#
# Elastic Constant Matrix: (Units=GPa)
#
#
# Indices 1 2 3 4 5 6 
#
# 1 65.8654 -4.5581 8.9811 0.0000 11.5880 0.0000
# 2 -4.5581 92.2630 9.7191 0.0000 7.4259 0.0000
# 3 8.9811 9.7191 92.1016 0.0000 7.3961 0.0000
# 4 0.0000 0.0000 0.0000 39.8269 0.0000 3.2684
# 5 11.5880 7.4259 7.3961 0.0000 35.7218 0.0000
# 6 0.0000 0.0000 0.0000 3.2684 0.0000 42.0978
#
#
#
# Elastic Compliance Matrix: (Units=1/GPa)
#
#
# Indices 1 2 3 4 5 6 
#
# 1 0.016395 0.001378 -0.001316 0.000000 -0.005333 0.000000
# 2 0.001378 0.011229 -0.001115 0.000000 -0.002551 0.000000
# 3 -0.001316 -0.001115 0.011237 0.000000 -0.001668 0.000000
# 4 0.000000 0.000000 0.000000 0.025270 0.000000 -0.001962
# 5 -0.005333 -0.002551 -0.001668 0.000000 0.030600 0.000000
# 6 0.000000 0.000000 0.000000 -0.001962 0.000000 0.023907
#
#
# Mechanical properties :
#
#
# Convention : Reuss Voigt Hill
#
# Bulk Modulus (GPa) = 27.20570 30.94599 29.07585
# Shear Modulus (GPa) = 37.59523 39.26850 38.43187
#
# Velocity S-wave (km/s) = 4.23363 4.32682 4.28048
# Velocity P-wave (km/s) = 6.07195 6.30201 6.18805
#
# Compressibility (1/GPa) = 0.03675700
#
# Stress axis : x y z
#
# Youngs Moduli (GPa) = 60.99251 89.05239 88.98803
#
# Poissons Ratio (x) = -0.12270 0.11710
# Poissons Ratio (y) = -0.08404 0.09918
# Poissons Ratio (z) = 0.08026 0.09925
#
# Static dielectric constant tensor:
#      x y z
#    x 1.792410 0.000000 0.040220 
#    y 0.000000 1.759630 0.000000 
#    z 0.040220 0.000000 1.748990 
# 
# From -- ./inp_files/31806.got.cif
#   From: 2010.05.17/outbox.ucp.g08.bks.cvg/sg14_16_cif.got.tgz:31806.got - 2010.06.11 12:31:08.
