data_PCOD9253617
_publ_section_title
;
Structure prediction by ZEFSAII (Michael W. Deem and Ramdas Pophale) SiO2 
 PCOD9253617
Probable space group: P 21/C
;
_chemical_formula_sum "Si O2"
_cell_formula_units_Z 28
_cell_length_a 12.000000
_cell_length_b 9.000000
_cell_length_c 15.000000
_cell_angle_alpha 90.000000
_cell_angle_beta 60.000000
_cell_angle_gamma 90.000000
_cell_volume 1402.961154
_symmetry_space_group_name_H-M "P 21/C"
_symmetry_group_IT_number 14
_symmetry_cell_setting 'monoclinic'
loop_
_space_group_symop_operation_xyz
x,y,z
-x,1/2+y,1/2-z
-x,-y,-z
x,1/2-y,1/2+z
loop_
_atom_site_type_symbol
_atom_site_label
_atom_site_fract_x
_atom_site_fract_y
_atom_site_fract_z
Si Si1 0.111482 0.843966 0.144435
Si Si2 0.629753 0.236154 0.671717
Si Si3 0.924771 0.698932 0.368577
Si Si4 0.532018 0.010879 0.337569
Si Si5 0.072184 0.836405 0.473936
Si Si6 0.412771 0.857123 0.009377
Si Si7 0.353937 0.141086 0.544659
O O1 0.020709 0.775889 0.258127
O O2 0.081645 0.019957 0.141148
O O3 0.080932 0.742913 0.068308
O O4 0.266186 0.843458 0.104740
O O5 0.593970 0.348804 0.764643
O O6 0.776039 0.170644 0.617737
O O7 0.611303 0.329138 0.586536
O O8 0.517776 0.111441 0.712948
O O9 0.779720 0.770424 0.415411
O O10 0.985937 0.739330 0.440115
O O11 0.395864 0.039671 0.444550
O O12 0.637189 0.947827 0.365729
O O13 0.000000 0.000000 0.500000
O O14 0.513562 0.734275 0.001483
O O15 0.500000 0.000000 0.000000
#
# Coordination Sequence:
#
# PCOD9253617 Si02
#       7
#     4   4   4   4   4   4   4
#     4  11  26  44  71 104 137 183 239 283 351 426
#     4  10  24  41  68 102 133 179 231 281 346 410
#     4  12  25  44  70 100 140 187 225 286 357 415
#     4  10  23  42  67 101 136 175 232 288 343 412
#     4  11  25  47  67  98 143 184 232 288 349 424
#     4  10  21  44  69  98 132 175 228 285 339 401
#     4  10  23  43  69  97 139 180 225 285 348 411
#
# _framework density 19.957787
#
# number of rings (size 3 to 8) (size 9 to 14) (size 15 to 20)
#    0.000    1.429    1.429    2.143    6.000    3.429 
#   10.286    0.000    0.000    0.000    0.000    0.000 
#    0.000    0.000    0.000    0.000    0.000    0.000 
#
# Total GULP energy -156222.681650 kJ/mol
# GULP energy per Si atom -5579.381488 kJ/mol
# Density = 1.991236 g / cm^3
# Si number density = 19.957787 Si / 1000 Ang^3
#
#
#
# Elastic Constant Matrix: (Units=GPa)
#
#
# Indices 1 2 3 4 5 6 
#
# 1 164.0662 54.0576 45.6567 0.0000 -16.2858 0.0000
# 2 54.0576 131.7269 31.8674 0.0000 -3.6089 0.0000
# 3 45.6567 31.8674 59.2827 0.0000 -18.4208 0.0000
# 4 0.0000 0.0000 0.0000 40.2985 0.0000 0.2417
# 5 -16.2858 -3.6089 -18.4208 0.0000 32.0987 0.0000
# 6 0.0000 0.0000 0.0000 0.2417 0.0000 47.1925
#
#
#
# Elastic Compliance Matrix: (Units=1/GPa)
#
#
# Indices 1 2 3 4 5 6 
#
# 1 0.008280 -0.002198 -0.004828 0.000000 0.001183 0.000000
# 2 -0.002198 0.009425 -0.004127 0.000000 -0.002424 0.000000
# 3 -0.004828 -0.004127 0.026653 0.000000 0.012382 0.000000
# 4 0.000000 0.000000 0.000000 0.024816 0.000000 -0.000127
# 5 0.001183 -0.002424 0.012382 0.000000 0.038587 0.000000
# 6 0.000000 0.000000 0.000000 -0.000127 0.000000 0.021190
#
#
# Mechanical properties :
#
#
# Convention : Reuss Voigt Hill
#
# Bulk Modulus (GPa) = 45.34651 68.69325 57.01988
# Shear Modulus (GPa) = 31.52423 38.81755 35.17089
#
# Velocity S-wave (km/s) = 3.97866 4.41498 4.20249
# Velocity P-wave (km/s) = 6.62396 7.77711 7.22358
#
# Compressibility (1/GPa) = 0.02205241
#
# Stress axis : x y z
#
# Youngs Moduli (GPa) = 120.77030 106.09673 37.51980
#
# Poissons Ratio (x) = 0.23316 0.18115
# Poissons Ratio (y) = 0.26540 0.15485
# Poissons Ratio (z) = 0.58308 0.43789
#
# Static dielectric constant tensor:
#      x y z
#    x 1.678910 0.000000 0.039510 
#    y 0.000000 1.821760 0.000000 
#    z 0.039510 0.000000 1.760960 
# 
# From -- ./inp_files/43595.got.cif
#   From: 2010.05.17/outbox.ucp.g08.bks.cvg/sg14_22_cif.got.tgz:43595.got - 2010.06.11 12:31:08.
