data_PCOD9253167
_publ_section_title
;
Structure prediction by ZEFSAII (Michael W. Deem and Ramdas Pophale) SiO2 
 PCOD9253167
Probable space group: P 21/C
;
_chemical_formula_sum "Si O2"
_cell_formula_units_Z 12
_cell_length_a 8.644646
_cell_length_b 6.550971
_cell_length_c 19.004753
_cell_angle_alpha 90.000000
_cell_angle_beta 30.744954
_cell_angle_gamma 90.000000
_cell_volume 550.200201
_symmetry_space_group_name_H-M "P 21/C"
_symmetry_group_IT_number 14
_symmetry_cell_setting 'monoclinic'
loop_
_space_group_symop_operation_xyz
x,y,z
-x,1/2+y,1/2-z
-x,-y,-z
x,1/2-y,1/2+z
loop_
_atom_site_type_symbol
_atom_site_label
_atom_site_fract_x
_atom_site_fract_y
_atom_site_fract_z
Si Si1 0.222839 0.288133 0.235707
Si Si2 0.785717 0.638406 0.412616
Si Si3 0.142361 0.515625 0.020957
O O1 0.053576 0.488323 0.330292
O O2 0.422099 0.828520 0.406342
O O3 0.119243 0.254254 0.195960
O O4 0.110300 0.102644 0.327183
O O5 0.500000 0.500000 0.500000
O O6 0.731608 0.806244 0.493885
O O7 0.000000 0.500000 0.000000
#
# Coordination Sequence:
#
# PCOD9253167 Si02
#       3
#     4   4   4
#     4  12  25  47  74 104 144 191 246 300 362 447
#     4  12  24  46  76 107 142 193 252 294 360 444
#     4  12  30  45  73 112 149 190 241 311 373 426
#
# _framework density 21.810244999999998
#
# number of rings (size 3 to 8) (size 9 to 14) (size 15 to 20)
#    0.000    0.000    6.667    3.000    4.667    1.333 
#    0.000    0.000    0.000    0.000    0.000    0.000 
#    0.000    0.000    0.000    0.000    0.000    0.000 
#
# Total GULP energy -67141.811533 kJ/mol
# GULP energy per Si atom -5595.150961 kJ/mol
# Density = 2.176060 g / cm^3
# Si number density = 21.810245 Si / 1000 Ang^3
#
#
#
# Elastic Constant Matrix: (Units=GPa)
#
#
# Indices 1 2 3 4 5 6 
#
# 1 92.6796 46.8839 36.4041 0.0000 38.3311 0.0000
# 2 46.8839 91.1561 42.8157 0.0000 3.9471 0.0000
# 3 36.4041 42.8157 87.3653 0.0000 10.4853 0.0000
# 4 0.0000 0.0000 0.0000 50.5225 0.0000 -7.2901
# 5 38.3311 3.9471 10.4853 0.0000 28.8834 0.0000
# 6 0.0000 0.0000 0.0000 -7.2901 0.0000 23.1679
#
#
#
# Elastic Compliance Matrix: (Units=1/GPa)
#
#
# Indices 1 2 3 4 5 6 
#
# 1 0.044475 -0.019350 -0.002387 0.000000 -0.055512 0.000000
# 2 -0.019350 0.022679 -0.006024 0.000000 0.024767 0.000000
# 3 -0.002387 -0.006024 0.015594 0.000000 -0.001670 0.000000
# 4 0.000000 0.000000 0.000000 0.020735 0.000000 0.006524
# 5 -0.055512 0.024767 -0.001670 0.000000 0.105513 0.000000
# 6 0.000000 0.000000 0.000000 0.006524 0.000000 0.045216
#
#
# Mechanical properties :
#
#
# Convention : Reuss Voigt Hill
#
# Bulk Modulus (GPa) = 36.72964 58.15650 47.44307
# Shear Modulus (GPa) = 15.68336 30.18792 22.93564
#
# Velocity S-wave (km/s) = 2.68448 3.72441 3.24636
# Velocity P-wave (km/s) = 5.14642 6.72440 5.98762
#
# Compressibility (1/GPa) = 0.02722597
#
# Stress axis : x y z
#
# Youngs Moduli (GPa) = 22.48457 44.09272 64.12901
#
# Poissons Ratio (x) = 0.85319 0.15307
# Poissons Ratio (y) = 0.43507 0.38633
# Poissons Ratio (z) = 0.05367 0.26563
#
# Static dielectric constant tensor:
#      x y z
#    x 1.767650 0.000000 -0.020290 
#    y 0.000000 1.858520 0.000000 
#    z -0.020290 0.000000 1.812910 
# 
# From -- ./inp_files/38404.got.cif
#   From: 2010.05.17/outbox.cif.g08.bks.cpg/sg14_20_cif.got.tgz:38404.got - 2010.06.03 17:49:19.
