data_PCOD9253418
_publ_section_title
;
Structure prediction by ZEFSAII (Michael W. Deem and Ramdas Pophale) SiO2 
 PCOD9253418
Probable space group: P 21/C
;
_chemical_formula_sum "Si O2"
_cell_formula_units_Z 20
_cell_length_a 5.011726
_cell_length_b 7.486026
_cell_length_c 17.544004
_cell_angle_alpha 90.000000
_cell_angle_beta 89.999959
_cell_angle_gamma 90.000000
_cell_volume 658.214383
_symmetry_space_group_name_H-M "P 21/C"
_symmetry_group_IT_number 14
_symmetry_cell_setting 'monoclinic'
loop_
_space_group_symop_operation_xyz
x,y,z
-x,1/2+y,1/2-z
-x,-y,-z
x,1/2-y,1/2+z
loop_
_atom_site_type_symbol
_atom_site_label
_atom_site_fract_x
_atom_site_fract_y
_atom_site_fract_z
Si Si1 0.349858 0.218783 0.695898
Si Si2 0.962979 0.376152 0.573865
Si Si3 0.750001 0.500001 0.097525
Si Si4 0.150143 0.781216 0.695898
Si Si5 0.537022 0.623846 0.573865
O O1 0.507058 0.062453 0.651049
O O2 0.838251 0.180424 0.554310
O O3 0.596327 0.295311 0.746642
O O4 0.096328 0.204689 0.753358
O O5 0.212418 0.327423 0.626737
O O6 0.287583 0.672574 0.626738
O O7 0.000000 0.500000 0.500000
O O8 0.750001 0.499999 0.618294
O O9 0.661750 0.680426 0.054310
O O10 0.992946 0.562455 0.151049
O O11 0.500000 0.500000 0.500000
#
# Coordination Sequence:
#
# PCOD9253418 Si02
#       5
#     4   4   4   4   4
#     4  12  29  62 106 153 206 278 357 440 540 638
#     4  12  33  61  99 152 210 277 355 436 539 652
#     4  12  30  64  98 150 212 278 348 456 532 646
#     4  12  29  62 106 153 206 278 357 440 540 638
#     4  12  33  61  99 152 210 277 355 436 539 652
#
# _framework density 30.385237
#
# number of rings (size 3 to 8) (size 9 to 14) (size 15 to 20)
#    0.000    0.000    4.000    1.200    5.600    8.000 
#    0.000    0.000    0.000    0.000    0.000    0.000 
#    0.000    0.000    0.000    0.000    0.000    0.000 
#
# Total GULP energy -111979.934659 kJ/mol
# GULP energy per Si atom -5598.996733 kJ/mol
# Density = 3.031608 g / cm^3
# Si number density = 30.385237 Si / 1000 Ang^3
#
#
#
# Elastic Constant Matrix: (Units=GPa)
#
#
# Indices 1 2 3 4 5 6 
#
# 1 359.6338 101.7285 125.7708 0.0000 8.2144 0.0000
# 2 101.7285 322.9009 130.4162 0.0000 -2.5284 0.0000
# 3 125.7708 130.4162 256.1878 0.0000 0.9063 0.0000
# 4 0.0000 0.0000 0.0000 71.7511 0.0000 1.1402
# 5 8.2144 -2.5284 0.9063 0.0000 70.9920 0.0000
# 6 0.0000 0.0000 0.0000 1.1402 0.0000 84.6987
#
#
#
# Elastic Compliance Matrix: (Units=1/GPa)
#
#
# Indices 1 2 3 4 5 6 
#
# 1 0.003432 -0.000509 -0.001424 0.000000 -0.000397 0.000000
# 2 -0.000509 0.003976 -0.001775 0.000000 0.000223 0.000000
# 3 -0.001424 -0.001775 0.005506 0.000000 0.000031 0.000000
# 4 0.000000 0.000000 0.000000 0.013940 0.000000 -0.000188
# 5 -0.000397 0.000223 0.000031 0.000000 0.014140 0.000000
# 6 0.000000 0.000000 0.000000 -0.000188 0.000000 0.011809
#
#
# Mechanical properties :
#
#
# Convention : Reuss Voigt Hill
#
# Bulk Modulus (GPa) = 181.90495 183.83929 182.87212
# Shear Modulus (GPa) = 80.57881 84.20883 82.39382
#
# Velocity S-wave (km/s) = 5.15525 5.27009 5.21299
# Velocity P-wave (km/s) = 9.76892 9.88261 9.82593
#
# Compressibility (1/GPa) = 0.00549738
#
# Stress axis : x y z
#
# Youngs Moduli (GPa) = 291.39745 251.51562 181.62033
#
# Poissons Ratio (x) = 0.12803 0.25867
# Poissons Ratio (y) = 0.14833 0.32235
# Poissons Ratio (z) = 0.41501 0.44641
#
# Static dielectric constant tensor:
#      x y z
#    x 2.938360 0.000000 0.044510 
#    y 0.000000 2.679160 0.000000 
#    z 0.044510 0.000000 2.433370 
# 
# From -- ./inp_files/63184.got.cif
#   From: 2010.05.17/outbox.cif.g08.bks.cpg/sg14_32_cif.got.tgz:63184.got - 2010.06.03 17:49:19.
