data_PCOD9253148
_publ_section_title
;
Structure prediction by ZEFSAII (Michael W. Deem and Ramdas Pophale) SiO2 
 PCOD9253148
Probable space group: P 21/C
;
_chemical_formula_sum "Si O2"
_cell_formula_units_Z 24
_cell_length_a 18.625798
_cell_length_b 8.432645
_cell_length_c 14.667051
_cell_angle_alpha 90.000000
_cell_angle_beta 24.827744
_cell_angle_gamma 90.000000
_cell_volume 967.294450
_symmetry_space_group_name_H-M "P 21/C"
_symmetry_group_IT_number 14
_symmetry_cell_setting 'monoclinic'
loop_
_space_group_symop_operation_xyz
x,y,z
-x,1/2+y,1/2-z
-x,-y,-z
x,1/2-y,1/2+z
loop_
_atom_site_type_symbol
_atom_site_label
_atom_site_fract_x
_atom_site_fract_y
_atom_site_fract_z
Si Si1 0.883333 0.146668 0.869422
Si Si2 0.243686 0.389536 0.883627
Si Si3 0.307064 0.302396 0.138493
Si Si4 0.752783 0.370444 0.871207
Si Si5 0.378371 0.366659 0.368103
Si Si6 0.680775 0.231030 0.765423
O O1 0.868774 0.290116 0.813719
O O2 0.068659 0.075534 0.638300
O O3 0.836157 0.201617 0.025326
O O4 0.738084 0.018528 0.014836
O O5 0.212377 0.294946 0.825856
O O6 0.343253 0.269339 0.834058
O O7 0.338307 0.550378 0.746390
O O8 0.212859 0.464562 0.220102
O O9 0.329950 0.201403 0.021349
O O10 0.503231 0.323288 0.949096
O O11 0.722821 0.247011 0.823123
O O12 0.576555 0.406096 0.128353
#
# Coordination Sequence:
#
# PCOD9253148 Si02
#       6
#     4   4   4   4   4   4
#     4  12  27  46  69 104 143 179 232 292 351 410
#     4  12  28  44  69 106 143 181 227 292 357 408
#     4  12  25  43  73 103 133 184 237 284 342 417
#     4  12  24  44  74 100 134 182 239 287 337 419
#     4  12  24  44  72 100 136 183 233 285 345 414
#     4  12  24  44  73 101 139 184 231 288 341 422
#
# _framework density 24.811472999999999
#
# number of rings (size 3 to 8) (size 9 to 14) (size 15 to 20)
#    0.000    0.000    5.000    5.000    2.333    4.667 
#    0.000    0.000    0.000    0.000    0.000    0.000 
#    0.000    0.000    0.000    0.000    0.000    0.000 
#
# Total GULP energy -134598.012755 kJ/mol
# GULP energy per Si atom -5608.250531 kJ/mol
# Density = 2.475500 g / cm^3
# Si number density = 24.811473 Si / 1000 Ang^3
#
#
#
# Elastic Constant Matrix: (Units=GPa)
#
#
# Indices 1 2 3 4 5 6 
#
# 1 79.7609 28.6420 17.5309 0.0000 33.7649 0.0000
# 2 28.6420 115.4939 20.3599 0.0000 6.6016 0.0000
# 3 17.5309 20.3599 104.4049 0.0000 30.7085 0.0000
# 4 0.0000 0.0000 0.0000 34.5888 0.0000 7.3486
# 5 33.7649 6.6016 30.7085 0.0000 36.2095 0.0000
# 6 0.0000 0.0000 0.0000 7.3486 0.0000 47.4857
#
#
#
# Elastic Compliance Matrix: (Units=1/GPa)
#
#
# Indices 1 2 3 4 5 6 
#
# 1 0.024222 -0.005339 0.004438 0.000000 -0.025377 0.000000
# 2 -0.005339 0.010145 -0.002667 0.000000 0.005391 0.000000
# 3 0.004438 -0.002667 0.013893 0.000000 -0.015434 0.000000
# 4 0.000000 0.000000 0.000000 0.029894 0.000000 -0.004626
# 5 -0.025377 0.005391 -0.015434 0.000000 0.063387 0.000000
# 6 0.000000 0.000000 0.000000 -0.004626 0.000000 0.021775
#
#
# Mechanical properties :
#
#
# Convention : Reuss Voigt Hill
#
# Bulk Modulus (GPa) = 24.31737 48.08058 36.19897
# Shear Modulus (GPa) = 27.15040 39.19861 33.17451
#
# Velocity S-wave (km/s) = 3.31156 3.97906 3.66055
# Velocity P-wave (km/s) = 4.94409 6.36639 5.69978
#
# Compressibility (1/GPa) = 0.04112286
#
# Stress axis : x y z
#
# Youngs Moduli (GPa) = 41.28493 98.57525 71.98020
#
# Poissons Ratio (x) = 0.52627 -0.31945
# Poissons Ratio (y) = 0.22041 0.19201
# Poissons Ratio (z) = -0.18323 0.26295
#
# Static dielectric constant tensor:
#      x y z
#    x 1.941790 0.000000 -0.049680 
#    y 0.000000 1.996370 0.000000 
#    z -0.049680 0.000000 1.938400 
# 
# From -- ./inp_files/48486.got.cif
#   From: 2010.05.17/outbox.cif.g08.bks.cpg/sg14_25_cif.got.tgz:48486.got - 2010.06.03 17:49:19.
