data_PCOD9253468
_publ_section_title
;
Structure prediction by ZEFSAII (Michael W. Deem and Ramdas Pophale) SiO2 
 PCOD9253468
Probable space group: P 21/C
;
_chemical_formula_sum "Si O2"
_cell_formula_units_Z 32
_cell_length_a 12.000000
_cell_length_b 15.000000
_cell_length_c 9.000000
_cell_angle_alpha 90.000000
_cell_angle_beta 70.000000
_cell_angle_gamma 90.000000
_cell_volume 1522.302046
_symmetry_space_group_name_H-M "P 21/C"
_symmetry_group_IT_number 14
_symmetry_cell_setting 'monoclinic'
loop_
_space_group_symop_operation_xyz
x,y,z
-x,1/2+y,1/2-z
-x,-y,-z
x,1/2-y,1/2+z
loop_
_atom_site_type_symbol
_atom_site_label
_atom_site_fract_x
_atom_site_fract_y
_atom_site_fract_z
Si Si1 0.252071 0.968994 0.587929
Si Si2 0.953331 0.863243 0.569723
Si Si3 0.301957 0.161954 0.698152
Si Si4 0.707867 0.182541 0.841673
Si Si5 0.909825 0.323308 0.728972
Si Si6 0.579405 0.180402 0.595336
Si Si7 0.827571 0.780192 0.975797
Si Si8 0.862279 0.036572 0.690257
O O1 0.156443 0.918075 0.735586
O O2 0.363607 0.902115 0.522035
O O3 0.199045 0.970848 0.444576
O O4 0.281348 0.066652 0.630647
O O5 0.843980 0.810681 0.559926
O O6 0.049528 0.807869 0.617866
O O7 0.019237 0.907773 0.400194
O O8 0.905801 0.938286 0.704668
O O9 0.440278 0.183928 0.636557
O O10 0.232574 0.240904 0.643331
O O11 0.253065 0.156990 0.888415
O O12 0.811909 0.249326 0.738143
O O13 0.615798 0.169543 0.749974
O O14 0.643395 0.230807 0.005548
O O15 0.775848 0.089593 0.837097
O O16 0.035836 0.313085 0.592129
#
# Coordination Sequence:
#
# PCOD9253468 Si02
#       8
#     4   4   4   4   4   4   4   4
#     4   9  20  38  62  85 115 154 204 250 285 355
#     4  10  18  34  54  88 120 149 192 229 285 375
#     4  12  24  40  60  86 119 163 195 244 300 352
#     4  10  20  38  63  88 115 152 204 256 280 348
#     4  10  21  36  58  93 118 148 193 241 304 345
#     4  10  22  40  62  86 114 156 210 247 289 341
#     4  12  23  36  60  86 125 152 189 243 300 369
#     4   9  17  32  61  85 115 159 195 228 295 358
#
# _framework density 21.020796000000001
#
# number of rings (size 3 to 8) (size 9 to 14) (size 15 to 20)
#    0.000    1.750    3.750    1.875    0.000    0.500 
#    0.000    2.500    0.000    0.750    0.000    0.000 
#    0.000    0.000    0.000    0.000    0.000    0.000 
#
# Total GULP energy -178293.103538 kJ/mol
# GULP energy per Si atom -5571.659486 kJ/mol
# Density = 2.097295 g / cm^3
# Si number density = 21.020796 Si / 1000 Ang^3
#
#
#
# Elastic Constant Matrix: (Units=GPa)
#
#
# Indices 1 2 3 4 5 6 
#
# 1 107.3441 17.5735 21.6113 0.0000 -16.9525 0.0000
# 2 17.5735 24.6859 5.2899 0.0000 6.1590 0.0000
# 3 21.6113 5.2899 32.9713 0.0000 -7.8548 0.0000
# 4 0.0000 0.0000 0.0000 14.4985 0.0000 -6.4279
# 5 -16.9525 6.1590 -7.8548 0.0000 25.9336 0.0000
# 6 0.0000 0.0000 0.0000 -6.4279 0.0000 22.4001
#
#
#
# Elastic Compliance Matrix: (Units=1/GPa)
#
#
# Indices 1 2 3 4 5 6 
#
# 1 0.013741 -0.011316 -0.004754 0.000000 0.010230 0.000000
# 2 -0.011316 0.055723 -0.006939 0.000000 -0.022732 0.000000
# 3 -0.004754 -0.006939 0.036872 0.000000 0.009708 0.000000
# 4 0.000000 0.000000 0.000000 0.079027 0.000000 0.022677
# 5 0.010230 -0.022732 0.009708 0.000000 0.053586 0.000000
# 6 0.000000 0.000000 0.000000 0.022677 0.000000 0.051150
#
#
# Mechanical properties :
#
#
# Convention : Reuss Voigt Hill
#
# Bulk Modulus (GPa) = 16.57871 28.21676 22.39774
# Shear Modulus (GPa) = 14.03620 20.60153 17.31887
#
# Velocity S-wave (km/s) = 2.58685 3.13398 2.87347
# Velocity P-wave (km/s) = 4.10199 5.15249 4.65696
#
# Compressibility (1/GPa) = 0.06031831
#
# Stress axis : x y z
#
# Youngs Moduli (GPa) = 72.77480 17.94595 27.12114
#
# Poissons Ratio (x) = 0.20307 0.12894
# Poissons Ratio (y) = 0.82349 0.18819
# Poissons Ratio (z) = 0.34598 0.12453
#
# Static dielectric constant tensor:
#      x y z
#    x 1.730670 0.000000 -0.003740 
#    y 0.000000 1.838250 0.000000 
#    z -0.003740 0.000000 1.802480 
# 
# From -- ./inp_files/13300.got.cif
#   From: 2010.05.17/outbox.ucp.g08.bks.cvg/sg14_7_cif.got.tgz:13300.got - 2010.06.11 12:31:08.
