data_PCOD9253387
_publ_section_title
;
Structure prediction by ZEFSAII (Michael W. Deem and Ramdas Pophale) SiO2 
 PCOD9253387
Probable space group: P 21/C
;
_chemical_formula_sum "Si O2"
_cell_formula_units_Z 20
_cell_length_a 16.371411
_cell_length_b 4.989199
_cell_length_c 23.760369
_cell_angle_alpha 90.000000
_cell_angle_beta 22.387142
_cell_angle_gamma 90.000000
_cell_volume 739.160537
_symmetry_space_group_name_H-M "P 21/C"
_symmetry_group_IT_number 14
_symmetry_cell_setting 'monoclinic'
loop_
_space_group_symop_operation_xyz
x,y,z
-x,1/2+y,1/2-z
-x,-y,-z
x,1/2-y,1/2+z
loop_
_atom_site_type_symbol
_atom_site_label
_atom_site_fract_x
_atom_site_fract_y
_atom_site_fract_z
Si Si1 0.302513 0.883266 0.091209
Si Si2 0.839747 0.569823 0.653129
Si Si3 0.634785 0.665404 0.186077
Si Si4 0.938323 0.037555 0.408320
Si Si5 0.399879 0.127048 0.461781
O O1 0.294557 0.086804 0.043142
O O2 0.100322 0.917950 0.260071
O O3 0.345687 0.580132 0.046276
O O4 0.500000 0.000000 0.000000
O O5 0.689159 0.789354 0.716681
O O6 0.000000 0.500000 0.500000
O O7 0.962129 0.693520 0.628648
O O8 0.655908 0.362067 0.789595
O O9 0.482933 0.412696 0.269909
O O10 0.866520 0.621934 0.009324
O O11 0.715154 0.019771 0.517042
#
# Coordination Sequence:
#
# PCOD9253387 Si02
#       5
#     4   4   4   4   4
#     4  12  28  52  79 115 154 208 265 323 400 466
#     4  12  29  50  82 121 159 212 269 324 409 480
#     4  12  28  51  79 118 158 206 262 328 400 475
#     4  12  28  49  83 109 165 204 266 331 394 474
#     4  12  29  51  79 116 158 204 265 327 394 478
#
# _framework density 27.057722999999999
#
# number of rings (size 3 to 8) (size 9 to 14) (size 15 to 20)
#    0.000    0.000    4.000    3.600    5.600    1.600 
#    0.000    0.000    0.000    0.000    0.000    0.000 
#    0.000    0.000    0.000    0.000    0.000    0.000 
#
# Total GULP energy -112096.784389 kJ/mol
# GULP energy per Si atom -5604.839219 kJ/mol
# Density = 2.699614 g / cm^3
# Si number density = 27.057723 Si / 1000 Ang^3
#
#
#
# Elastic Constant Matrix: (Units=GPa)
#
#
# Indices 1 2 3 4 5 6 
#
# 1 88.7131 5.0868 4.7048 0.0000 -17.6231 0.0000
# 2 5.0868 125.4026 22.6040 0.0000 2.5267 0.0000
# 3 4.7048 22.6040 201.5474 0.0000 18.8179 0.0000
# 4 0.0000 0.0000 0.0000 37.8714 0.0000 6.7621
# 5 -17.6231 2.5267 18.8179 0.0000 49.0003 0.0000
# 6 0.0000 0.0000 0.0000 6.7621 0.0000 56.8920
#
#
#
# Elastic Compliance Matrix: (Units=1/GPa)
#
#
# Indices 1 2 3 4 5 6 
#
# 1 0.012267 -0.000471 -0.000672 0.000000 0.004694 0.000000
# 2 -0.000471 0.008157 -0.000880 0.000000 -0.000252 0.000000
# 3 -0.000672 -0.000880 0.005284 0.000000 -0.002225 0.000000
# 4 0.000000 0.000000 0.000000 0.026978 0.000000 -0.003207
# 5 0.004694 -0.000252 -0.002225 0.000000 0.022964 0.000000
# 6 0.000000 0.000000 0.000000 -0.003207 0.000000 0.017958
#
#
# Mechanical properties :
#
#
# Convention : Reuss Voigt Hill
#
# Bulk Modulus (GPa) = 46.16388 53.38382 49.77385
# Shear Modulus (GPa) = 47.67555 54.30391 50.98973
#
# Velocity S-wave (km/s) = 4.20217 4.48478 4.34577
# Velocity P-wave (km/s) = 6.37515 6.82569 6.60426
#
# Compressibility (1/GPa) = 0.02166196
#
# Stress axis : x y z
#
# Youngs Moduli (GPa) = 81.51639 122.59139 189.25761
#
# Poissons Ratio (x) = 0.05775 0.12715
# Poissons Ratio (y) = 0.03840 0.16661
# Poissons Ratio (z) = 0.05476 0.10792
#
# Static dielectric constant tensor:
#      x y z
#    x 2.207940 0.000000 0.038000 
#    y 0.000000 2.108690 0.000000 
#    z 0.038000 0.000000 2.158030 
# 
# From -- ./inp_files/77684.got.cif
#   From: 2010.05.17/outbox.cif.g08.bks.cpg/sg14_39_cif.got.tgz:77684.got - 2010.06.03 17:49:19.
