data_PCOD9253870
_publ_section_title
;
Structure prediction by ZEFSAII (Michael W. Deem and Ramdas Pophale) SiO2 
 PCOD9253870
Probable space group: C 2/C
;
_chemical_formula_sum "Si O2"
_cell_formula_units_Z 40
_cell_length_a 12.760356
_cell_length_b 9.105784
_cell_length_c 13.136887
_cell_angle_alpha 90.000000
_cell_angle_beta 106.725117
_cell_angle_gamma 90.000000
_cell_volume 1461.842111
_symmetry_space_group_name_H-M "C 2/C"
_symmetry_group_IT_number 15
_symmetry_cell_setting 'monoclinic'
loop_
_space_group_symop_operation_xyz
x,y,z
-x,y,1/2-z
-x,-y,-z
x,-y,1/2+z
1/2+x,1/2+y,z
1/2-x,1/2+y,1/2-z
1/2-x,1/2-y,-z
1/2+x,1/2-y,1/2+z
loop_
_atom_site_type_symbol
_atom_site_label
_atom_site_fract_x
_atom_site_fract_y
_atom_site_fract_z
Si Si1 0.335163 0.692950 0.204368
Si Si2 0.490913 0.795024 0.580829
Si Si3 0.000000 0.056884 0.750000
Si Si4 0.000000 0.456745 0.250000
Si Si5 0.201094 0.799972 0.593065
Si Si6 0.118187 0.910893 0.010577
O O1 0.411185 0.557076 0.269239
O O2 0.399034 0.845783 0.217898
O O3 0.256728 0.720910 0.280825
O O4 0.339295 0.633550 0.089271
O O5 0.455039 0.667560 0.651808
O O6 0.415937 0.783276 0.458366
O O7 0.606765 0.738402 0.570735
O O8 0.495887 0.940030 0.648713
O O9 0.250000 0.750000 0.500000
O O10 0.201993 0.973977 0.577237
O O11 0.000000 0.000000 0.000000
#
# Coordination Sequence:
#
# PCOD9253870 Si02
#       6
#     8   8   4   4   8   8
#     4  11  20  35  60  93 120 156 206 258 317 366
#     4  10  19  35  62  91 121 152 208 266 310 354
#     4  10  14  32  64  90 104 150 214 254 290 362
#     4  10  22  34  62  98 124 148 204 284 314 336
#     4  11  23  39  59  89 127 166 209 255 313 384
#     4  10  18  35  66  90 114 159 218 264 299 371
#
# _framework density 27.362735000000001
#
# number of rings (size 3 to 8) (size 9 to 14) (size 15 to 20)
#    0.000    1.600    6.000    3.600    0.000    3.200 
#    3.600    0.000    0.000    2.400    0.000    0.000 
#    0.000    0.000    0.000    0.000    0.000    0.000 
#
# Total GULP energy -111378.894579 kJ/mol
# GULP energy per Si atom -5568.944729 kJ/mol
# Density = 2.730046 g / cm^3
# Si number density = 27.362735 Si / 1000 Ang^3
#
#
#
# Elastic Constant Matrix: (Units=GPa)
#
#
# Indices 1 2 3 4 5 6 
#
# 1 25.0570 23.6494 56.0735 0.0000 -15.3944 0.0000
# 2 23.6494 152.0131 69.2132 0.0000 -15.7798 0.0000
# 3 56.0735 69.2132 263.0731 0.0000 -26.8062 0.0000
# 4 0.0000 0.0000 0.0000 61.2603 0.0000 -11.4670
# 5 -15.3944 -15.7798 -26.8062 0.0000 55.6965 0.0000
# 6 0.0000 0.0000 0.0000 -11.4670 0.0000 5.3396
#
#
#
# Elastic Compliance Matrix: (Units=1/GPa)
#
#
# Indices 1 2 3 4 5 6 
#
# 1 0.091467 -0.005046 -0.016550 0.000000 0.015887 0.000000
# 2 -0.005046 0.007833 -0.000948 0.000000 0.000368 0.000000
# 3 -0.016550 -0.000948 0.007450 0.000000 -0.001257 0.000000
# 4 0.000000 0.000000 0.000000 0.027297 0.000000 0.058621
# 5 0.015887 0.000368 -0.001257 0.000000 0.021845 0.000000
# 6 0.000000 0.000000 0.000000 0.058621 0.000000 0.313173
#
#
# Mechanical properties :
#
#
# Convention : Reuss Voigt Hill
#
# Bulk Modulus (GPa) = 16.21689 82.00169 49.10929
# Shear Modulus (GPa) = 9.35093 43.87309 26.61201
#
# Velocity S-wave (km/s) = 1.85063 4.00858 3.12198
# Velocity P-wave (km/s) = 3.24128 7.17345 5.56616
#
# Compressibility (1/GPa) = 0.06166409
#
# Stress axis : x y z
#
# Youngs Moduli (GPa) = 10.93286 127.66229 134.22725
#
# Poissons Ratio (x) = 0.64413 2.22144
# Poissons Ratio (y) = 0.05516 0.12723
# Poissons Ratio (z) = 0.18094 0.12101
#
# Static dielectric constant tensor:
#      x y z
#    x 2.950390 0.000000 0.157630 
#    y 0.000000 2.098570 0.000000 
#    z 0.157630 0.000000 2.224100 
# 
# From -- ./inp_files/158782.got.cif
#   From: 2010.05.17/outbox.cif.g08.bks.cpg/sg15_80_cif.got.tgz:158782.got - 2010.06.03 18:47:42.
