data_PCOD9253328
_publ_section_title
;
Structure prediction by ZEFSAII (Michael W. Deem and Ramdas Pophale) SiO2 
 PCOD9253328
Probable space group: P 21/C
;
_chemical_formula_sum "Si O2"
_cell_formula_units_Z 16
_cell_length_a 9.225196
_cell_length_b 11.319046
_cell_length_c 9.832523
_cell_angle_alpha 90.000000
_cell_angle_beta 47.215268
_cell_angle_gamma 90.000000
_cell_volume 753.518175
_symmetry_space_group_name_H-M "P 21/C"
_symmetry_group_IT_number 14
_symmetry_cell_setting 'monoclinic'
loop_
_space_group_symop_operation_xyz
x,y,z
-x,1/2+y,1/2-z
-x,-y,-z
x,1/2-y,1/2+z
loop_
_atom_site_type_symbol
_atom_site_label
_atom_site_fract_x
_atom_site_fract_y
_atom_site_fract_z
Si Si1 0.309705 0.008832 0.718467
Si Si2 0.824905 0.253071 0.145807
Si Si3 0.569486 0.900701 0.061476
Si Si4 0.079028 0.275143 0.232664
O O1 0.373310 0.043197 0.830414
O O2 0.173405 0.110857 0.743428
O O3 0.500000 0.000000 0.500000
O O4 0.199366 0.884095 0.799016
O O5 0.614934 0.313953 0.298467
O O6 0.987361 0.305136 0.144962
O O7 0.902883 0.265902 0.943417
O O8 0.754044 0.824620 0.889630
O O9 0.500000 0.000000 0.000000
#
# Coordination Sequence:
#
# PCOD9253328 Si02
#       4
#     4   4   4   4
#     4  12  26  50  77 104 153 194 242 307 364 434
#     4  12  27  48  76 105 147 194 242 299 371 432
#     4  12  29  48  75 109 147 191 250 302 364 435
#     4  12  27  47  73 109 145 192 242 299 365 436
#
# _framework density 21.233729
#
# number of rings (size 3 to 8) (size 9 to 14) (size 15 to 20)
#    0.000    0.000    5.000    3.750   10.500    1.000 
#    0.000    0.000    0.000    0.000    0.000    0.000 
#    0.000    0.000    0.000    0.000    0.000    0.000 
#
# Total GULP energy -89690.517526 kJ/mol
# GULP energy per Si atom -5605.657345 kJ/mol
# Density = 2.118540 g / cm^3
# Si number density = 21.233729 Si / 1000 Ang^3
#
#
#
# Elastic Constant Matrix: (Units=GPa)
#
#
# Indices 1 2 3 4 5 6 
#
# 1 80.6336 39.1523 -16.2525 0.0000 15.1356 0.0000
# 2 39.1523 84.6458 41.7316 0.0000 10.1484 0.0000
# 3 -16.2525 41.7316 112.0440 0.0000 -19.9657 0.0000
# 4 0.0000 0.0000 0.0000 25.3371 0.0000 9.3440
# 5 15.1356 10.1484 -19.9657 0.0000 40.8865 0.0000
# 6 0.0000 0.0000 0.0000 9.3440 0.0000 30.7223
#
#
#
# Elastic Compliance Matrix: (Units=1/GPa)
#
#
# Indices 1 2 3 4 5 6 
#
# 1 0.020539 -0.013319 0.007858 0.000000 -0.000460 0.000000
# 2 -0.013319 0.025080 -0.012600 0.000000 -0.007447 0.000000
# 3 0.007858 -0.012600 0.016207 0.000000 0.008133 0.000000
# 4 0.000000 0.000000 0.000000 0.044454 0.000000 -0.013520
# 5 -0.000460 -0.007447 0.008133 0.000000 0.030448 0.000000
# 6 0.000000 0.000000 0.000000 -0.013520 0.000000 0.036662
#
#
# Mechanical properties :
#
#
# Convention : Reuss Voigt Hill
#
# Bulk Modulus (GPa) = 38.90511 45.17623 42.04067
# Shear Modulus (GPa) = 22.92726 33.56866 28.24796
#
# Velocity S-wave (km/s) = 3.28953 3.98038 3.65133
# Velocity P-wave (km/s) = 5.72626 6.51510 6.13337
#
# Compressibility (1/GPa) = 0.02570356
#
# Stress axis : x y z
#
# Youngs Moduli (GPa) = 48.68684 39.87280 61.70085
#
# Poissons Ratio (x) = 0.53108 -0.48486
# Poissons Ratio (y) = 0.64848 0.77745
# Poissons Ratio (z) = -0.38260 0.50241
#
# Static dielectric constant tensor:
#      x y z
#    x 1.729100 0.000000 -0.008850 
#    y 0.000000 1.741980 0.000000 
#    z -0.008850 0.000000 1.735980 
# 
# From -- ./inp_files/7351.got.cif
#   From: 2010.05.17/outbox.cif.g08.bks.cpg/sg14_4_cif.got.tgz:7351.got - 2010.06.03 17:49:19.
