data_PCOD9253097
_publ_section_title
;
Structure prediction by ZEFSAII (Michael W. Deem and Ramdas Pophale) SiO2 
 PCOD9253097
Probable space group: P 21/C
;
_chemical_formula_sum "Si O2"
_cell_formula_units_Z 20
_cell_length_a 8.677366
_cell_length_b 13.019488
_cell_length_c 7.664135
_cell_angle_alpha 90.000000
_cell_angle_beta 53.212781
_cell_angle_gamma 90.000000
_cell_volume 693.432621
_symmetry_space_group_name_H-M "P 21/C"
_symmetry_group_IT_number 14
_symmetry_cell_setting 'monoclinic'
loop_
_space_group_symop_operation_xyz
x,y,z
-x,1/2+y,1/2-z
-x,-y,-z
x,1/2-y,1/2+z
loop_
_atom_site_type_symbol
_atom_site_label
_atom_site_fract_x
_atom_site_fract_y
_atom_site_fract_z
Si Si1 0.385467 0.744847 0.054134
Si Si2 0.580708 0.927772 0.594597
Si Si3 0.897185 0.178711 0.535793
Si Si4 0.288713 0.400006 0.644670
Si Si5 0.880576 0.895979 0.110110
O O1 0.430696 0.667234 0.184602
O O2 0.228185 0.832957 0.204796
O O3 0.271960 0.677794 0.992148
O O4 0.593064 0.795747 0.891109
O O5 0.612750 0.967586 0.768620
O O6 0.783182 0.895378 0.367516
O O7 0.500000 0.000000 0.500000
O O8 0.067508 0.107413 0.356392
O O9 0.997206 0.291311 0.491260
O O10 0.272932 0.402509 0.446473
O O11 0.000000 0.000000 0.000000
#
# Coordination Sequence:
#
# PCOD9253097 Si02
#       5
#     4   4   4   4   4
#     4  12  23  45  78 104 139 188 239 293 359 426
#     4  12  27  48  70 107 149 187 240 298 356 425
#     4  12  23  45  78 104 139 188 239 293 359 426
#     4  12  26  50  74 106 146 190 242 298 350 432
#     4  12  27  48  70 107 149 187 240 298 356 425
#
# _framework density 28.842027000000002
#
# number of rings (size 3 to 8) (size 9 to 14) (size 15 to 20)
#    0.000    0.000    6.000    4.800    0.000    1.600 
#    3.600    0.000    0.000    0.000    0.000    0.000 
#    0.000    0.000    0.000    0.000    0.000    0.000 
#
# Total GULP energy -111860.317968 kJ/mol
# GULP energy per Si atom -5593.015898 kJ/mol
# Density = 2.877638 g / cm^3
# Si number density = 28.842027 Si / 1000 Ang^3
#
#
#
# Elastic Constant Matrix: (Units=GPa)
#
#
# Indices 1 2 3 4 5 6 
#
# 1 225.9652 27.9721 24.6137 0.0000 31.6179 0.0000
# 2 27.9721 58.7170 -19.5222 0.0000 -5.1046 0.0000
# 3 24.6137 -19.5222 124.9346 0.0000 -3.3232 0.0000
# 4 0.0000 0.0000 0.0000 18.8111 0.0000 3.8932
# 5 31.6179 -5.1046 -3.3232 0.0000 74.0916 0.0000
# 6 0.0000 0.0000 0.0000 3.8932 0.0000 51.6224
#
#
#
# Elastic Compliance Matrix: (Units=1/GPa)
#
#
# Indices 1 2 3 4 5 6 
#
# 1 0.005383 -0.003339 -0.001651 0.000000 -0.002601 0.000000
# 2 -0.003339 0.020175 0.003890 0.000000 0.002990 0.000000
# 3 -0.001651 0.003890 0.008974 0.000000 0.001375 0.000000
# 4 0.000000 0.000000 0.000000 0.054003 0.000000 -0.004073
# 5 -0.002601 0.002990 0.001375 0.000000 0.014874 0.000000
# 6 0.000000 0.000000 0.000000 -0.004073 0.000000 0.019679
#
#
# Mechanical properties :
#
#
# Convention : Reuss Voigt Hill
#
# Bulk Modulus (GPa) = 30.93133 52.86044 41.89588
# Shear Modulus (GPa) = 36.74678 54.00858 45.37768
#
# Velocity S-wave (km/s) = 3.57329 4.33201 3.97081
# Velocity P-wave (km/s) = 5.26993 6.58704 5.96495
#
# Compressibility (1/GPa) = 0.03232968
#
# Stress axis : x y z
#
# Youngs Moduli (GPa) = 185.78006 49.56637 111.43335
#
# Poissons Ratio (x) = 0.16553 0.18403
# Poissons Ratio (y) = 0.62041 -0.43347
# Poissons Ratio (z) = 0.30681 -0.19281
#
# Static dielectric constant tensor:
#      x y z
#    x 2.195810 0.000000 0.007190 
#    y 0.000000 2.348370 0.000000 
#    z 0.007190 0.000000 2.405740 
# 
# From -- ./inp_files/8979.got.cif
#   From: 2010.05.17/outbox.cif.g08.bks.cpg/sg14_5_cif.got.tgz:8979.got - 2010.06.03 17:49:19.
