data_PCOD9253630
_publ_section_title
;
Structure prediction by ZEFSAII (Michael W. Deem and Ramdas Pophale) SiO2 
 PCOD9253630
Probable space group: P 21/C
;
_chemical_formula_sum "Si O2"
_cell_formula_units_Z 28
_cell_length_a 9.000000
_cell_length_b 15.000000
_cell_length_c 21.000000
_cell_angle_alpha 90.000000
_cell_angle_beta 150.000000
_cell_angle_gamma 90.000000
_cell_volume 1417.500000
_symmetry_space_group_name_H-M "P 21/C"
_symmetry_group_IT_number 14
_symmetry_cell_setting 'monoclinic'
loop_
_space_group_symop_operation_xyz
x,y,z
-x,1/2+y,1/2-z
-x,-y,-z
x,1/2-y,1/2+z
loop_
_atom_site_type_symbol
_atom_site_label
_atom_site_fract_x
_atom_site_fract_y
_atom_site_fract_z
Si Si1 0.493303 0.122176 0.721602
Si Si2 0.624725 0.440315 0.643054
Si Si3 0.916186 0.344842 0.943106
Si Si4 0.333314 0.442986 0.671824
Si Si5 0.698218 0.883071 0.105481
Si Si6 0.892445 0.264140 0.801984
Si Si7 0.269141 0.671618 0.556420
O O1 0.620279 0.204572 0.728187
O O2 0.509941 0.150578 0.801969
O O3 0.176138 0.099076 0.573261
O O4 0.698471 0.034160 0.799970
O O5 0.438117 0.461942 0.637884
O O6 0.419487 0.414743 0.507068
O O7 0.797512 0.528537 0.682106
O O8 0.806899 0.352415 0.731011
O O9 0.612656 0.392057 0.807723
O O10 0.036424 0.297932 0.922390
O O11 0.837161 0.270664 0.966169
O O12 0.031262 0.387467 0.555964
O O13 0.436566 0.843277 0.052499
O O14 0.924545 0.804074 0.173470
#
# Coordination Sequence:
#
# PCOD9253630 Si02
#       7
#     4   4   4   4   4   4   4
#     4  11  21  38  64  92 121 163 209 260 312 376
#     4  10  22  40  62  87 126 164 210 253 307 374
#     4  10  22  41  63  90 128 165 204 258 323 371
#     4  11  22  40  64  93 122 165 209 262 314 372
#     4  11  23  38  63  94 124 165 210 259 305 369
#     4  10  22  40  63  88 126 171 205 250 318 379
#     4  11  22  37  63  95 123 155 214 262 304 369
#
# _framework density 19.753086
#
# number of rings (size 3 to 8) (size 9 to 14) (size 15 to 20)
#    0.000    1.429    1.429    6.000    4.000    2.286 
#    0.000    0.000    0.000    2.571    0.000    0.000 
#    0.000    0.000    0.000    0.000    0.000    0.000 
#
# Total GULP energy -156195.038817 kJ/mol
# GULP energy per Si atom -5578.394243 kJ/mol
# Density = 1.970813 g / cm^3
# Si number density = 19.753086 Si / 1000 Ang^3
#
#
#
# Elastic Constant Matrix: (Units=GPa)
#
#
# Indices 1 2 3 4 5 6 
#
# 1 73.0358 42.3099 35.4550 0.0000 -1.6724 0.0000
# 2 42.3099 113.1784 30.7731 0.0000 -6.0698 0.0000
# 3 35.4550 30.7731 115.5997 0.0000 -12.9347 0.0000
# 4 0.0000 0.0000 0.0000 32.4392 0.0000 1.5451
# 5 -1.6724 -6.0698 -12.9347 0.0000 16.2816 0.0000
# 6 0.0000 0.0000 0.0000 1.5451 0.0000 37.1791
#
#
#
# Elastic Compliance Matrix: (Units=1/GPa)
#
#
# Indices 1 2 3 4 5 6 
#
# 1 0.019527 -0.006217 -0.004795 0.000000 -0.004121 0.000000
# 2 -0.006217 0.011547 -0.000831 0.000000 0.003006 0.000000
# 3 -0.004795 -0.000831 0.011253 0.000000 0.008138 0.000000
# 4 0.000000 0.000000 0.000000 0.030888 0.000000 -0.001284
# 5 -0.004121 0.003006 0.008138 0.000000 0.068581 0.000000
# 6 0.000000 0.000000 0.000000 -0.001284 0.000000 0.026950
#
#
# Mechanical properties :
#
#
# Convention : Reuss Voigt Hill
#
# Bulk Modulus (GPa) = 53.64540 57.65442 55.64991
# Shear Modulus (GPa) = 25.17049 30.06505 27.61777
#
# Velocity S-wave (km/s) = 3.57354 3.90557 3.74324
# Velocity P-wave (km/s) = 6.65161 7.04194 6.84955
#
# Compressibility (1/GPa) = 0.01864093
#
# Stress axis : x y z
#
# Youngs Moduli (GPa) = 51.21139 86.60391 88.86609
#
# Poissons Ratio (x) = 0.53842 0.42613
# Poissons Ratio (y) = 0.31838 0.07382
# Poissons Ratio (z) = 0.24557 0.07194
#
# Static dielectric constant tensor:
#      x y z
#    x 1.663520 0.000000 0.013320 
#    y 0.000000 1.774900 0.000000 
#    z 0.013320 0.000000 1.689820 
# 
# From -- ./inp_files/65904.got.cif
#   From: 2010.05.17/outbox.ucp.g08.bks.cvg/sg14_33_cif.got.tgz:65904.got - 2010.06.11 12:31:08.
