data_PCOD9253129
_publ_section_title
;
Structure prediction by ZEFSAII (Michael W. Deem and Ramdas Pophale) SiO2 
 PCOD9253129
Probable space group: P 21/C
;
_chemical_formula_sum "Si O2"
_cell_formula_units_Z 16
_cell_length_a 26.578337
_cell_length_b 5.624020
_cell_length_c 9.487765
_cell_angle_alpha 90.000000
_cell_angle_beta 150.739151
_cell_angle_gamma 90.000000
_cell_volume 693.198683
_symmetry_space_group_name_H-M "P 21/C"
_symmetry_group_IT_number 14
_symmetry_cell_setting 'monoclinic'
loop_
_space_group_symop_operation_xyz
x,y,z
-x,1/2+y,1/2-z
-x,-y,-z
x,1/2-y,1/2+z
loop_
_atom_site_type_symbol
_atom_site_label
_atom_site_fract_x
_atom_site_fract_y
_atom_site_fract_z
Si Si1 0.071689 0.667177 0.582195
Si Si2 0.772909 0.508565 0.484555
Si Si3 0.860522 0.707186 0.445483
Si Si4 0.532111 0.470568 0.910507
O O1 0.150851 0.525587 0.678268
O O2 0.000000 0.500000 0.500000
O O3 0.143531 0.816243 0.860705
O O4 0.981885 0.798360 0.276503
O O5 0.790617 0.710792 0.412103
O O6 0.822695 0.582990 0.753733
O O7 0.655643 0.443144 0.210159
O O8 0.507805 0.722476 0.764753
O O9 0.500000 0.500000 0.000000
#
# Coordination Sequence:
#
# PCOD9253129 Si02
#       4
#     4   4   4   4
#     4  12  24  41  67 107 151 188 244 297 374 471
#     4  12  28  43  77 102 151 199 246 317 388 452
#     4  12  24  43  66 108 145 193 241 299 380 470
#     4  12  30  55  84 118 158 209 281 344 401 472
#
# _framework density 23.081403999999999
#
# number of rings (size 3 to 8) (size 9 to 14) (size 15 to 20)
#    0.000    0.000    5.000    4.500    7.000    0.000 
#    0.000    0.000    0.000    0.000    0.000    0.000 
#    0.000    0.000    0.000    0.000    0.000    0.000 
#
# Total GULP energy -89231.930617 kJ/mol
# GULP energy per Si atom -5576.995664 kJ/mol
# Density = 2.302887 g / cm^3
# Si number density = 23.081404 Si / 1000 Ang^3
#
#
#
# Elastic Constant Matrix: (Units=GPa)
#
#
# Indices 1 2 3 4 5 6 
#
# 1 124.1015 38.1724 66.0339 0.0000 -8.8093 0.0000
# 2 38.1724 95.3761 39.1681 0.0000 -6.2430 0.0000
# 3 66.0339 39.1681 126.5149 0.0000 25.4841 0.0000
# 4 0.0000 0.0000 0.0000 27.9554 0.0000 -3.3032
# 5 -8.8093 -6.2430 25.4841 0.0000 47.7130 0.0000
# 6 0.0000 0.0000 0.0000 -3.3032 0.0000 36.1198
#
#
#
# Elastic Compliance Matrix: (Units=1/GPa)
#
#
# Indices 1 2 3 4 5 6 
#
# 1 0.013024 -0.001723 -0.007512 0.000000 0.006191 0.000000
# 2 -0.001723 0.012957 -0.003798 0.000000 0.003406 0.000000
# 3 -0.007512 -0.003798 0.014994 0.000000 -0.009892 0.000000
# 4 0.000000 0.000000 0.000000 0.036162 0.000000 0.003307
# 5 0.006191 0.003406 -0.009892 0.000000 0.027831 0.000000
# 6 0.000000 0.000000 0.000000 0.003307 0.000000 0.027988
#
#
# Mechanical properties :
#
#
# Convention : Reuss Voigt Hill
#
# Bulk Modulus (GPa) = 67.07247 70.30460 68.68854
# Shear Modulus (GPa) = 30.48941 35.86552 33.17747
#
# Velocity S-wave (km/s) = 3.63843 3.94619 3.79543
# Velocity P-wave (km/s) = 6.83909 7.16162 7.00221
#
# Compressibility (1/GPa) = 0.01490925
#
# Stress axis : x y z
#
# Youngs Moduli (GPa) = 76.77973 77.17786 66.69540
#
# Poissons Ratio (x) = 0.13294 0.50100
# Poissons Ratio (y) = 0.13226 0.25334
# Poissons Ratio (z) = 0.57676 0.29316
#
# Static dielectric constant tensor:
#      x y z
#    x 1.951210 0.000000 -0.153030 
#    y 0.000000 2.162130 0.000000 
#    z -0.153030 0.000000 1.952730 
# 
# From -- ./inp_files/14740.got.cif
#   From: 2010.05.17/outbox.cif.g08.bks.cpg/sg14_8_cif.got.tgz:14740.got - 2010.06.03 17:49:19.
