data_PCOD9253993
_publ_section_title
;
Structure prediction by ZEFSAII (Michael W. Deem and Ramdas Pophale) SiO2 
 PCOD9253993
Probable space group: C 2/C
;
_chemical_formula_sum "Si O2"
_cell_formula_units_Z 48
_cell_length_a 7.914567
_cell_length_b 13.745011
_cell_length_c 23.410691
_cell_angle_alpha 90.000000
_cell_angle_beta 42.336527
_cell_angle_gamma 90.000000
_cell_volume 1715.195801
_symmetry_space_group_name_H-M "C 2/C"
_symmetry_group_IT_number 15
_symmetry_cell_setting 'monoclinic'
loop_
_space_group_symop_operation_xyz
x,y,z
-x,y,1/2-z
-x,-y,-z
x,-y,1/2+z
1/2+x,1/2+y,z
1/2-x,1/2+y,1/2-z
1/2-x,1/2-y,-z
1/2+x,1/2-y,1/2+z
loop_
_atom_site_type_symbol
_atom_site_label
_atom_site_fract_x
_atom_site_fract_y
_atom_site_fract_z
Si Si1 0.397562 0.945346 0.389651
Si Si2 0.360586 0.243783 0.207386
Si Si3 0.379811 0.202230 0.570387
Si Si4 0.765105 0.034167 0.961138
Si Si5 0.863923 0.979727 0.224128
Si Si6 0.297086 0.748088 0.377301
O O1 0.553683 0.874684 0.395731
O O2 0.232559 0.006667 0.474021
O O3 0.580476 0.011037 0.306073
O O4 0.280028 0.865982 0.377729
O O5 0.348368 0.361948 0.220692
O O6 0.320916 0.210588 0.151721
O O7 0.089705 0.215519 0.303024
O O8 0.656667 0.226596 0.147644
O O9 0.639452 0.229116 0.474065
O O10 0.244831 0.147085 0.551107
O O11 0.979441 0.986016 0.869116
O O12 0.500000 0.000000 0.000000
O O13 0.000000 0.000839 0.250000
#
# Coordination Sequence:
#
# PCOD9253993 Si02
#       6
#     8   8   8   8   8   8
#     4  10  19  33  53  81 103 139 184 228 267 330
#     4   9  19  33  50  76 105 145 182 213 276 335
#     4  10  18  33  53  76 106 140 179 224 272 324
#     4   9  17  29  51  80  99 133 185 219 268 320
#     4  10  15  30  53  72  99 138 181 221 261 320
#     4  10  20  32  52  79 110 138 180 228 272 326
#
# _framework density 27.985142
#
# number of rings (size 3 to 8) (size 9 to 14) (size 15 to 20)
#    0.000    2.333    5.000    1.000    0.000    0.000 
#    0.000   10.000    0.000    0.000    0.000   21.000 
#    0.000    0.000    0.000    0.000    0.000    0.000 
#
# Total GULP energy -133947.996517 kJ/mol
# GULP energy per Si atom -5581.166522 kJ/mol
# Density = 2.792145 g / cm^3
# Si number density = 27.985142 Si / 1000 Ang^3
#
#
#
# Elastic Constant Matrix: (Units=GPa)
#
#
# Indices 1 2 3 4 5 6 
#
# 1 124.0680 -2.6183 44.0629 -0.0004 -2.4631 -0.0005
# 2 -2.6183 38.8305 20.8044 0.0008 -7.6525 0.0001
# 3 44.0629 20.8044 266.1491 -0.0005 -26.7085 0.0000
# 4 -0.0004 0.0008 -0.0005 36.3760 0.0009 2.7334
# 5 -2.4631 -7.6525 -26.7085 0.0009 29.2952 0.0000
# 6 -0.0005 0.0001 0.0000 2.7334 0.0000 26.4092
#
#
#
# Elastic Compliance Matrix: (Units=1/GPa)
#
#
# Indices 1 2 3 4 5 6 
#
# 1 0.008640 0.001355 -0.001572 0.000000 -0.000353 0.000000
# 2 0.001355 0.027959 -0.001833 -0.000001 0.005746 0.000000
# 3 -0.001572 -0.001833 0.004512 0.000000 0.003503 0.000000
# 4 0.000000 -0.000001 0.000000 0.027706 -0.000001 -0.002868
# 5 -0.000353 0.005746 0.003503 -0.000001 0.038800 0.000000
# 6 0.000000 0.000000 0.000000 -0.002868 0.000000 0.038162
#
#
# Mechanical properties :
#
#
# Convention : Reuss Voigt Hill
#
# Bulk Modulus (GPa) = 27.01856 61.50507 44.26181
# Shear Modulus (GPa) = 30.82300 42.86932 36.84616
#
# Velocity S-wave (km/s) = 3.32234 3.91814 3.63248
# Velocity P-wave (km/s) = 4.93891 6.51879 5.78306
#
# Compressibility (1/GPa) = 0.03701160
#
# Stress axis : x y z
#
# Youngs Moduli (GPa) = 115.74221 35.76679 221.61558
#
# Poissons Ratio (x) = -0.04847 0.34831
# Poissons Ratio (y) = -0.15685 0.40627
# Poissons Ratio (z) = 0.18191 0.06557
#
# Static dielectric constant tensor:
#      x y z
#    x 2.477280 0.000000 0.237160 
#    y 0.000000 2.353320 0.000000 
#    z 0.237160 0.000000 2.715870 
# 
# From -- ./inp_files/265855.got.cif
#   From: 2010.05.17/outbox.cif.g08.bks.cpg/sg15_133_cif.got.tgz:265855.got - 2010.06.03 18:47:42.
