data_PCOD9253350
_publ_section_title
;
Structure prediction by ZEFSAII (Michael W. Deem and Ramdas Pophale) SiO2 
 PCOD9253350
Probable space group: P 21/C
;
_chemical_formula_sum "Si O2"
_cell_formula_units_Z 20
_cell_length_a 11.827911
_cell_length_b 7.115203
_cell_length_c 8.814463
_cell_angle_alpha 90.000000
_cell_angle_beta 91.179938
_cell_angle_gamma 90.000000
_cell_volume 741.650173
_symmetry_space_group_name_H-M "P 21/C"
_symmetry_group_IT_number 14
_symmetry_cell_setting 'monoclinic'
loop_
_space_group_symop_operation_xyz
x,y,z
-x,1/2+y,1/2-z
-x,-y,-z
x,1/2-y,1/2+z
loop_
_atom_site_type_symbol
_atom_site_label
_atom_site_fract_x
_atom_site_fract_y
_atom_site_fract_z
Si Si1 0.240162 0.311227 0.611867
Si Si2 0.816242 0.131865 0.094527
Si Si3 0.896731 0.448815 0.890494
Si Si4 0.607787 0.578678 0.116583
Si Si5 0.556678 0.152588 0.117727
O O1 0.165767 0.451115 0.509651
O O2 0.339102 0.210508 0.513084
O O3 0.291164 0.426703 0.753662
O O4 0.164527 0.139161 0.659881
O O5 0.907611 0.154053 0.229759
O O6 0.687655 0.100093 0.148981
O O7 0.818425 0.314051 0.989104
O O8 0.000000 0.500000 0.000000
O O9 0.510873 0.656961 0.226820
O O10 0.430855 0.629797 0.932613
O O11 0.500000 0.000000 0.000000
#
# Coordination Sequence:
#
# PCOD9253350 Si02
#       5
#     4   4   4   4   4
#     4  12  26  52  79 118 162 213 279 345 406 497
#     4  12  27  51  80 118 162 208 281 341 409 497
#     4  12  31  52  83 116 161 219 278 354 419 479
#     4  12  27  47  81 116 168 219 273 330 416 498
#     4  12  27  47  78 124 166 219 265 333 414 502
#
# _framework density 26.966891
#
# number of rings (size 3 to 8) (size 9 to 14) (size 15 to 20)
#    0.000    0.000    6.000    2.400    2.800    1.600 
#    0.000    0.000    0.000    0.000    0.000    0.000 
#    0.000    0.000    0.000    0.000    0.000    0.000 
#
# Total GULP energy -112101.807588 kJ/mol
# GULP energy per Si atom -5605.090379 kJ/mol
# Density = 2.690551 g / cm^3
# Si number density = 26.966891 Si / 1000 Ang^3
#
#
#
# Elastic Constant Matrix: (Units=GPa)
#
#
# Indices 1 2 3 4 5 6 
#
# 1 59.0467 37.8018 28.9273 0.0000 15.8165 0.0000
# 2 37.8018 126.2155 49.5120 0.0000 19.8635 0.0000
# 3 28.9273 49.5120 165.6718 0.0000 32.7328 0.0000
# 4 0.0000 0.0000 0.0000 52.2610 0.0000 11.6388
# 5 15.8165 19.8635 32.7328 0.0000 41.3428 0.0000
# 6 0.0000 0.0000 0.0000 11.6388 0.0000 32.6462
#
#
#
# Elastic Compliance Matrix: (Units=1/GPa)
#
#
# Indices 1 2 3 4 5 6 
#
# 1 0.022358 -0.005406 -0.001317 0.000000 -0.004913 0.000000
# 2 -0.005406 0.010523 -0.001909 0.000000 -0.001476 0.000000
# 3 -0.001317 -0.001909 0.007772 0.000000 -0.004732 0.000000
# 4 0.000000 0.000000 0.000000 0.020785 0.000000 -0.007410
# 5 -0.004913 -0.001476 -0.004732 0.000000 0.030523 0.000000
# 6 0.000000 0.000000 0.000000 -0.007410 0.000000 0.033273
#
#
# Mechanical properties :
#
#
# Convention : Reuss Voigt Hill
#
# Bulk Modulus (GPa) = 42.75892 64.82402 53.79147
# Shear Modulus (GPa) = 33.26751 40.89620 37.08185
#
# Velocity S-wave (km/s) = 3.51614 3.89849 3.71224
# Velocity P-wave (km/s) = 5.68988 6.65995 6.19394
#
# Compressibility (1/GPa) = 0.02338693
#
# Stress axis : x y z
#
# Youngs Moduli (GPa) = 44.72594 95.02553 128.67416
#
# Poissons Ratio (x) = 0.51374 0.16953
# Poissons Ratio (y) = 0.24180 0.24569
# Poissons Ratio (z) = 0.05893 0.18144
#
# Static dielectric constant tensor:
#      x y z
#    x 2.221290 0.000000 0.055490 
#    y 0.000000 2.121510 0.000000 
#    z 0.055490 0.000000 2.091870 
# 
# From -- ./inp_files/11854.got.cif
#   From: 2010.05.17/outbox.cif.g08.bks.cpg/sg14_6_cif.got.tgz:11854.got - 2010.06.03 17:49:19.
