data_PCOD9253648
_publ_section_title
;
Structure prediction by ZEFSAII (Michael W. Deem and Ramdas Pophale) SiO2 
 PCOD9253648
Probable space group: P 21/C
;
_chemical_formula_sum "Si O2"
_cell_formula_units_Z 28
_cell_length_a 15.000000
_cell_length_b 9.000000
_cell_length_c 18.000000
_cell_angle_alpha 90.000000
_cell_angle_beta 40.000000
_cell_angle_gamma 90.000000
_cell_volume 1561.973892
_symmetry_space_group_name_H-M "P 21/C"
_symmetry_group_IT_number 14
_symmetry_cell_setting 'monoclinic'
loop_
_space_group_symop_operation_xyz
x,y,z
-x,1/2+y,1/2-z
-x,-y,-z
x,1/2-y,1/2+z
loop_
_atom_site_type_symbol
_atom_site_label
_atom_site_fract_x
_atom_site_fract_y
_atom_site_fract_z
Si Si1 0.085692 0.695351 0.758997
Si Si2 0.471075 0.430366 0.690187
Si Si3 0.945501 0.120254 0.376099
Si Si4 0.316558 0.722276 0.855899
Si Si5 0.130497 0.566117 0.365736
Si Si6 0.233690 0.242922 0.243625
Si Si7 0.650489 0.979290 0.941488
O O1 0.055681 0.787294 0.701606
O O2 0.087886 0.817200 0.825664
O O3 0.234179 0.605198 0.654625
O O4 0.977384 0.556632 0.841099
O O5 0.387669 0.573707 0.775352
O O6 0.556745 0.319072 0.689620
O O7 0.350193 0.333339 0.723759
O O8 0.599338 0.496771 0.558386
O O9 0.801756 0.162189 0.510253
O O10 0.077024 0.174808 0.342526
O O11 0.232863 0.833056 0.852507
O O12 0.208047 0.418288 0.280459
O O13 0.000000 0.500000 0.500000
O O14 0.289827 0.179112 0.127086
O O15 0.500000 0.000000 0.000000
#
# Coordination Sequence:
#
# PCOD9253648 Si02
#       7
#     4   4   4   4   4   4   4
#     4  11  24  43  68  99 135 176 225 281 340 395
#     4  11  24  45  67  97 139 182 225 282 341 405
#     4  11  23  43  72 100 130 176 227 282 333 404
#     4  12  25  45  67 100 137 179 228 277 346 404
#     4  12  25  41  67 103 139 172 221 286 340 399
#     4  10  22  42  69  98 131 175 222 278 340 393
#     4   9  19  42  67  90 129 174 219 273 331 401
#
# _framework density 17.926036
#
# number of rings (size 3 to 8) (size 9 to 14) (size 15 to 20)
#    0.000    1.143    2.857    4.286    2.000    1.143 
#    7.714    3.571    0.000    0.000    0.000    0.000 
#    0.000    0.000    0.000    0.000    0.000    0.000 
#
# Total GULP energy -155885.115493 kJ/mol
# GULP energy per Si atom -5567.325553 kJ/mol
# Density = 1.788524 g / cm^3
# Si number density = 17.926036 Si / 1000 Ang^3
#
#
#
# Elastic Constant Matrix: (Units=GPa)
#
#
# Indices 1 2 3 4 5 6 
#
# 1 117.7325 62.7869 34.5342 0.0000 -6.2078 0.0000
# 2 62.7869 193.0865 73.5033 0.0000 9.3822 0.0000
# 3 34.5342 73.5033 129.0380 0.0000 -5.8864 0.0000
# 4 0.0000 0.0000 0.0000 50.3009 0.0000 -2.6716
# 5 -6.2078 9.3822 -5.8864 0.0000 33.9283 0.0000
# 6 0.0000 0.0000 0.0000 -2.6716 0.0000 51.4003
#
#
#
# Elastic Compliance Matrix: (Units=1/GPa)
#
#
# Indices 1 2 3 4 5 6 
#
# 1 0.010627 -0.003257 -0.000866 0.000000 0.002695 0.000000
# 2 -0.003257 0.007829 -0.003743 0.000000 -0.003410 0.000000
# 3 -0.000866 -0.003743 0.010235 0.000000 0.002652 0.000000
# 4 0.000000 0.000000 0.000000 0.019935 0.000000 0.001036
# 5 0.002695 -0.003410 0.002652 0.000000 0.031370 0.000000
# 6 0.000000 0.000000 0.000000 0.001036 0.000000 0.019509
#
#
# Mechanical properties :
#
#
# Convention : Reuss Voigt Hill
#
# Bulk Modulus (GPa) = 77.17274 86.83399 82.00336
# Shear Modulus (GPa) = 41.82118 45.06144 43.44131
#
# Velocity S-wave (km/s) = 4.83534 5.01916 4.92811
# Velocity P-wave (km/s) = 8.62079 9.06282 8.84457
#
# Compressibility (1/GPa) = 0.01295794
#
# Stress axis : x y z
#
# Youngs Moduli (GPa) = 94.10161 127.73313 97.70638
#
# Poissons Ratio (x) = 0.41601 0.08460
# Poissons Ratio (y) = 0.30648 0.36576
# Poissons Ratio (z) = 0.08148 0.47816
#
# Static dielectric constant tensor:
#      x y z
#    x 1.660890 0.000000 0.038520 
#    y 0.000000 1.613330 0.000000 
#    z 0.038520 0.000000 1.651450 
# 
# From -- ./inp_files/59047.got.cif
#   From: 2010.05.17/outbox.ucp.g08.bks.cvg/sg14_30_cif.got.tgz:59047.got - 2010.06.11 12:31:08.
