data_PCOD9253143
_publ_section_title
;
Structure prediction by ZEFSAII (Michael W. Deem and Ramdas Pophale) SiO2 
 PCOD9253143
Probable space group: P 21/C
;
_chemical_formula_sum "Si O2"
_cell_formula_units_Z 20
_cell_length_a 19.235247
_cell_length_b 4.708484
_cell_length_c 8.288502
_cell_angle_alpha 90.000000
_cell_angle_beta 89.282010
_cell_angle_gamma 90.000000
_cell_volume 750.621177
_symmetry_space_group_name_H-M "P 21/C"
_symmetry_group_IT_number 14
_symmetry_cell_setting 'monoclinic'
loop_
_space_group_symop_operation_xyz
x,y,z
-x,1/2+y,1/2-z
-x,-y,-z
x,1/2-y,1/2+z
loop_
_atom_site_type_symbol
_atom_site_label
_atom_site_fract_x
_atom_site_fract_y
_atom_site_fract_z
Si Si1 0.267567 0.185228 0.371555
Si Si2 0.526712 0.167193 0.843972
Si Si3 0.927271 0.944978 0.416471
Si Si4 0.682233 0.348318 0.437163
Si Si5 0.871333 0.052818 0.080122
O O1 0.325054 0.422969 0.416935
O O2 0.199459 0.388151 0.376793
O O3 0.275801 0.022062 0.201815
O O4 0.279336 0.932429 0.500812
O O5 0.484209 0.448940 0.803691
O O6 0.607497 0.228462 0.869549
O O7 0.500000 0.000000 0.000000
O O8 0.870722 0.126616 0.519789
O O9 0.921130 0.031867 0.232674
O O10 0.906977 0.618812 0.434313
O O11 0.000000 0.000000 0.500000
#
# Coordination Sequence:
#
# PCOD9253143 Si02
#       5
#     4   4   4   4   4
#     4  12  26  45  69 100 140 188 240 293 358 430
#     4  12  24  43  70 104 141 186 242 302 361 428
#     4  12  25  47  74 106 142 184 232 288 349 418
#     4  12  25  46  70 102 143 191 239 299 363 427
#     4  12  26  45  71 104 141 185 234 288 349 421
#
# _framework density 26.644601999999999
#
# number of rings (size 3 to 8) (size 9 to 14) (size 15 to 20)
#    0.000    0.000    0.000   10.800    0.000    3.200 
#    0.000    2.000    0.000    0.000    0.000    0.000 
#    0.000    0.000    0.000    0.000    0.000    0.000 
#
# Total GULP energy -112242.441691 kJ/mol
# GULP energy per Si atom -5612.122085 kJ/mol
# Density = 2.658396 g / cm^3
# Si number density = 26.644602 Si / 1000 Ang^3
#
#
#
# Elastic Constant Matrix: (Units=GPa)
#
#
# Indices 1 2 3 4 5 6 
#
# 1 118.0225 41.1829 18.1503 0.0000 20.5826 0.0000
# 2 41.1829 147.4457 53.8408 0.0000 18.8253 0.0000
# 3 18.1503 53.8408 103.4569 0.0000 3.7377 0.0000
# 4 0.0000 0.0000 0.0000 56.6720 0.0000 1.2515
# 5 20.5826 18.8253 3.7377 0.0000 39.8791 0.0000
# 6 0.0000 0.0000 0.0000 1.2515 0.0000 30.6298
#
#
#
# Elastic Compliance Matrix: (Units=1/GPa)
#
#
# Indices 1 2 3 4 5 6 
#
# 1 0.009998 -0.002073 -0.000526 0.000000 -0.004132 0.000000
# 2 -0.002073 0.009338 -0.004390 0.000000 -0.002927 0.000000
# 3 -0.000526 -0.004390 0.011999 0.000000 0.001219 0.000000
# 4 0.000000 0.000000 0.000000 0.017661 0.000000 -0.000722
# 5 -0.004132 -0.002927 0.001219 0.000000 0.028476 0.000000
# 6 0.000000 0.000000 0.000000 -0.000722 0.000000 0.032677
#
#
# Mechanical properties :
#
#
# Convention : Reuss Voigt Hill
#
# Bulk Modulus (GPa) = 57.61527 66.14145 61.87836
# Shear Modulus (GPa) = 38.48739 42.48626 40.48682
#
# Velocity S-wave (km/s) = 3.80474 3.99752 3.90232
# Velocity P-wave (km/s) = 6.40094 6.79591 6.60138
#
# Compressibility (1/GPa) = 0.01735651
#
# Stress axis : x y z
#
# Youngs Moduli (GPa) = 100.02206 107.09043 83.34145
#
# Poissons Ratio (x) = 0.22198 0.04384
# Poissons Ratio (y) = 0.20733 0.36589
# Poissons Ratio (z) = 0.05261 0.47015
#
# Static dielectric constant tensor:
#      x y z
#    x 2.109700 0.000000 -0.020700 
#    y 0.000000 1.980220 0.000000 
#    z -0.020700 0.000000 2.086990 
# 
# From -- ./inp_files/18286.got.cif
#   From: 2010.05.17/outbox.cif.g08.bks.cpg/sg14_10_cif.got.tgz:18286.got - 2010.06.03 17:49:19.
