data_PCOD9253406
_publ_section_title
;
Structure prediction by ZEFSAII (Michael W. Deem and Ramdas Pophale) SiO2 
 PCOD9253406
Probable space group: P 21/C
;
_chemical_formula_sum "Si O2"
_cell_formula_units_Z 12
_cell_length_a 5.221380
_cell_length_b 9.535543
_cell_length_c 11.561272
_cell_angle_alpha 90.000000
_cell_angle_beta 55.715258
_cell_angle_gamma 90.000000
_cell_volume 475.605585
_symmetry_space_group_name_H-M "P 21/C"
_symmetry_group_IT_number 14
_symmetry_cell_setting 'monoclinic'
loop_
_space_group_symop_operation_xyz
x,y,z
-x,1/2+y,1/2-z
-x,-y,-z
x,1/2-y,1/2+z
loop_
_atom_site_type_symbol
_atom_site_label
_atom_site_fract_x
_atom_site_fract_y
_atom_site_fract_z
Si Si1 0.854320 0.456475 0.915840
Si Si2 0.147869 0.704494 0.731533
Si Si3 0.750439 0.900682 0.003962
O O1 0.885720 0.293791 0.876845
O O2 0.011143 0.549966 0.776789
O O3 0.500000 0.500000 0.000000
O O4 0.000000 0.500000 0.000000
O O5 0.518723 0.684726 0.649850
O O6 0.949262 0.791824 0.876080
O O7 0.500000 0.000000 0.000000
O O8 0.000000 0.000000 0.000000
#
# Coordination Sequence:
#
# PCOD9253406 Si02
#       3
#     4   4   4
#     4  12  30  49  81 121 165 215 274 338 414 496
#     4  12  28  54  82 120 168 213 279 338 419 487
#     4  12  30  49  81 119 163 213 274 338 414 491
#
# _framework density 25.230986999999999
#
# number of rings (size 3 to 8) (size 9 to 14) (size 15 to 20)
#    0.000    0.000    6.667    0.000    9.333    5.333 
#    0.000    0.000    0.000    0.000    0.000    0.000 
#    0.000    0.000    0.000    0.000    0.000    0.000 
#
# Total GULP energy -67183.609916 kJ/mol
# GULP energy per Si atom -5598.634160 kJ/mol
# Density = 2.517356 g / cm^3
# Si number density = 25.230987 Si / 1000 Ang^3
#
#
#
# Elastic Constant Matrix: (Units=GPa)
#
#
# Indices 1 2 3 4 5 6 
#
# 1 194.8594 56.0207 62.3553 0.0000 -35.4035 0.0000
# 2 56.0207 138.9782 39.2089 0.0000 -10.3508 0.0000
# 3 62.3553 39.2089 178.8253 0.0000 -62.9533 0.0000
# 4 0.0000 0.0000 0.0000 77.4797 0.0000 -7.3274
# 5 -35.4035 -10.3508 -62.9533 0.0000 46.5517 0.0000
# 6 0.0000 0.0000 0.0000 -7.3274 0.0000 50.0816
#
#
#
# Elastic Compliance Matrix: (Units=1/GPa)
#
#
# Indices 1 2 3 4 5 6 
#
# 1 0.006639 -0.002262 -0.000417 0.000000 0.003982 0.000000
# 2 -0.002262 0.008469 -0.001929 0.000000 -0.002446 0.000000
# 3 -0.000417 -0.001929 0.011257 0.000000 0.014477 0.000000
# 4 0.000000 0.000000 0.000000 0.013088 0.000000 0.001915
# 5 0.003982 -0.002446 0.014477 0.000000 0.043543 0.000000
# 6 0.000000 0.000000 0.000000 0.001915 0.000000 0.020248
#
#
# Mechanical properties :
#
#
# Convention : Reuss Voigt Hill
#
# Bulk Modulus (GPa) = 58.31521 91.98140 75.14831
# Shear Modulus (GPa) = 42.30924 58.49446 50.40185
#
# Velocity S-wave (km/s) = 4.09941 4.82016 4.47432
# Velocity P-wave (km/s) = 6.75053 8.21665 7.51941
#
# Compressibility (1/GPa) = 0.01714818
#
# Stress axis : x y z
#
# Youngs Moduli (GPa) = 150.62057 118.07403 88.83367
#
# Poissons Ratio (x) = 0.26707 0.03707
# Poissons Ratio (y) = 0.34069 0.17140
# Poissons Ratio (z) = 0.06285 0.22782
#
# Static dielectric constant tensor:
#      x y z
#    x 1.931280 0.000000 0.087550 
#    y 0.000000 2.035030 0.000000 
#    z 0.087550 0.000000 2.100200 
# 
# From -- ./inp_files/4796.got.cif
#   From: 2010.05.17/outbox.cif.g08.bks.cpg/sg14_3_cif.got.tgz:4796.got - 2010.06.03 17:49:19.
