data_PCOD9253505
_publ_section_title
;
Structure prediction by ZEFSAII (Michael W. Deem and Ramdas Pophale) SiO2 
 PCOD9253505
Probable space group: P 21/C
;
_chemical_formula_sum "Si O2"
_cell_formula_units_Z 28
_cell_length_a 15.000000
_cell_length_b 6.000000
_cell_length_c 18.000000
_cell_angle_alpha 90.000000
_cell_angle_beta 120.000000
_cell_angle_gamma 90.000000
_cell_volume 1402.961154
_symmetry_space_group_name_H-M "P 21/C"
_symmetry_group_IT_number 14
_symmetry_cell_setting 'monoclinic'
loop_
_space_group_symop_operation_xyz
x,y,z
-x,1/2+y,1/2-z
-x,-y,-z
x,1/2-y,1/2+z
loop_
_atom_site_type_symbol
_atom_site_label
_atom_site_fract_x
_atom_site_fract_y
_atom_site_fract_z
Si Si1 0.240526 0.811020 0.385832
Si Si2 0.661395 0.552201 0.344903
Si Si3 0.984940 0.318340 0.704957
Si Si4 0.481957 0.714131 0.161815
Si Si5 0.800722 0.862076 0.767425
Si Si6 0.628315 0.924694 0.115399
Si Si7 0.366075 0.144808 0.527745
O O1 0.135758 0.687179 0.365561
O O2 0.336053 0.652910 0.406244
O O3 0.218423 0.941384 0.300039
O O4 0.275381 0.980215 0.463786
O O5 0.564131 0.653320 0.258832
O O6 0.623989 0.303583 0.348282
O O7 0.756487 0.573149 0.328931
O O8 0.673329 0.686063 0.426047
O O9 0.999203 0.568649 0.749003
O O10 0.078114 0.312279 0.684586
O O11 0.533951 0.906626 0.132957
O O12 0.457244 0.501460 0.101085
O O13 0.728191 0.666652 0.702787
O O14 0.603418 0.766119 0.035570
#
# Coordination Sequence:
#
# PCOD9253505 Si02
#       7
#     4   4   4   4   4   4   4
#     4  10  21  37  64  90 121 155 206 258 316 364
#     4  11  23  38  58  85 124 160 208 248 314 372
#     4  10  19  39  67  98 125 163 212 268 315 375
#     4  11  23  38  60  83 120 167 205 251 307 370
#     4   9  21  37  61  93 119 157 205 257 310 373
#     4  10  21  38  61  88 120 156 206 255 306 366
#     4  11  23  39  56  87 123 164 202 257 306 371
#
# _framework density 19.957787
#
# number of rings (size 3 to 8) (size 9 to 14) (size 15 to 20)
#    0.000    1.714    2.857    1.286    2.000    3.429 
#    0.000    0.714    0.000    3.429    0.000    0.000 
#    0.000    0.000    0.000    0.000    0.000    0.000 
#
# Total GULP energy -156199.413504 kJ/mol
# GULP energy per Si atom -5578.550482 kJ/mol
# Density = 1.991236 g / cm^3
# Si number density = 19.957787 Si / 1000 Ang^3
#
#
#
# Elastic Constant Matrix: (Units=GPa)
#
#
# Indices 1 2 3 4 5 6 
#
# 1 101.3383 -2.8144 8.4150 0.0000 -10.9877 0.0000
# 2 -2.8144 47.2503 1.7024 0.0000 2.4163 0.0000
# 3 8.4150 1.7024 51.5185 0.0000 -13.9996 0.0000
# 4 0.0000 0.0000 0.0000 26.9979 0.0000 5.3342
# 5 -10.9877 2.4163 -13.9996 0.0000 19.8222 0.0000
# 6 0.0000 0.0000 0.0000 5.3342 0.0000 25.7966
#
#
#
# Elastic Compliance Matrix: (Units=1/GPa)
#
#
# Indices 1 2 3 4 5 6 
#
# 1 0.010506 0.000344 -0.000193 0.000000 0.005645 0.000000
# 2 0.000344 0.021435 -0.001761 0.000000 -0.003666 0.000000
# 3 -0.000193 -0.001761 0.024168 0.000000 0.017176 0.000000
# 4 0.000000 0.000000 0.000000 0.038618 0.000000 -0.007985
# 5 0.005645 -0.003666 0.017176 0.000000 0.066155 0.000000
# 6 0.000000 0.000000 0.000000 -0.007985 0.000000 0.040416
#
#
# Mechanical properties :
#
#
# Convention : Reuss Voigt Hill
#
# Bulk Modulus (GPa) = 18.90767 23.85701 21.38234
# Shear Modulus (GPa) = 22.50764 27.37695 24.94229
#
# Velocity S-wave (km/s) = 3.36186 3.70772 3.53902
# Velocity P-wave (km/s) = 4.95620 5.50539 5.23799
#
# Compressibility (1/GPa) = 0.05288858
#
# Stress axis : x y z
#
# Youngs Moduli (GPa) = 95.18732 46.65203 41.37753
#
# Poissons Ratio (x) = -0.01605 0.00800
# Poissons Ratio (y) = -0.03275 0.07285
# Poissons Ratio (z) = 0.01841 0.08214
#
# Static dielectric constant tensor:
#      x y z
#    x 1.696430 0.000000 0.007500 
#    y 0.000000 1.776760 0.000000 
#    z 0.007500 0.000000 1.686500 
# 
# From -- ./inp_files/58409.got.cif
#   From: 2010.05.17/outbox.ucp.g08.bks.cvg/sg14_30_cif.got.tgz:58409.got - 2010.06.11 12:31:08.
