data_PCOD9253501
_publ_section_title
;
Structure prediction by ZEFSAII (Michael W. Deem and Ramdas Pophale) SiO2 
 PCOD9253501
Probable space group: P 21/C
;
_chemical_formula_sum "Si O2"
_cell_formula_units_Z 32
_cell_length_a 27.000000
_cell_length_b 9.000000
_cell_length_c 15.000000
_cell_angle_alpha 90.000000
_cell_angle_beta 30.000000
_cell_angle_gamma 90.000000
_cell_volume 1822.500000
_symmetry_space_group_name_H-M "P 21/C"
_symmetry_group_IT_number 14
_symmetry_cell_setting 'monoclinic'
loop_
_space_group_symop_operation_xyz
x,y,z
-x,1/2+y,1/2-z
-x,-y,-z
x,1/2-y,1/2+z
loop_
_atom_site_type_symbol
_atom_site_label
_atom_site_fract_x
_atom_site_fract_y
_atom_site_fract_z
Si Si1 0.039316 0.339930 0.409463
Si Si2 0.098385 0.582923 0.888130
Si Si3 0.544083 0.212084 0.850718
Si Si4 0.407821 0.135789 0.222616
Si Si5 0.837232 0.702556 0.124306
Si Si6 0.201657 0.262076 0.512004
Si Si7 0.379163 0.299704 0.453383
Si Si8 0.706913 0.450621 0.531440
O O1 0.085724 0.276066 0.428250
O O2 0.000000 0.500000 0.500000
O O3 0.946941 0.242023 0.518416
O O4 0.126372 0.310822 0.200898
O O5 0.138948 0.473876 0.902247
O O6 0.192547 0.604211 0.675161
O O7 0.000000 0.500000 0.000000
O O8 0.463103 0.220350 0.897165
O O9 0.635024 0.327836 0.690195
O O10 0.576320 0.039970 0.800161
O O11 0.486696 0.222275 0.035937
O O12 0.299538 0.162641 0.350808
O O13 0.404441 0.197988 0.328515
O O14 0.846041 0.764230 0.011176
O O15 0.727414 0.733252 0.335074
O O16 0.246385 0.419812 0.477379
O O17 0.360745 0.462022 0.436534
#
# Coordination Sequence:
#
# PCOD9253501 Si02
#       8
#     4   4   4   4   4   4   4   4
#     4  11  23  40  63  92 119 153 202 257 305 359
#     4   9  18  40  63  82 117 158 196 245 308 354
#     4  11  22  37  60  89 120 163 204 246 303 364
#     4  10  22  38  57  85 125 157 199 251 302 352
#     4  10  20  39  64  82 120 160 196 245 305 361
#     4  11  21  40  61  85 125 161 196 249 308 358
#     4  10  19  39  60  85 118 162 199 246 303 352
#     4  10  21  37  63  89 119 161 205 248 301 364
#
# _framework density 17.558299000000002
#
# number of rings (size 3 to 8) (size 9 to 14) (size 15 to 20)
#    0.000    1.750    6.250    0.750    1.750    3.000 
#    2.250    1.250    0.000    0.000    0.000    0.000 
#    0.000    0.000    0.000    0.000    0.000    0.000 
#
# Total GULP energy -178138.097954 kJ/mol
# GULP energy per Si atom -5566.815561 kJ/mol
# Density = 1.751834 g / cm^3
# Si number density = 17.558299 Si / 1000 Ang^3
#
#
#
# Elastic Constant Matrix: (Units=GPa)
#
#
# Indices 1 2 3 4 5 6 
#
# 1 86.1669 20.1680 33.0722 0.0000 9.2456 0.0000
# 2 20.1680 89.9367 60.2762 0.0000 -1.0846 0.0000
# 3 33.0722 60.2762 117.1832 0.0000 -5.7146 0.0000
# 4 0.0000 0.0000 0.0000 33.6707 0.0000 -5.1149
# 5 9.2456 -1.0846 -5.7146 0.0000 29.1186 0.0000
# 6 0.0000 0.0000 0.0000 -5.1149 0.0000 16.1607
#
#
#
# Elastic Compliance Matrix: (Units=1/GPa)
#
#
# Indices 1 2 3 4 5 6 
#
# 1 0.013766 -0.000575 -0.003840 0.000000 -0.005146 0.000000
# 2 -0.000575 0.017027 -0.008639 0.000000 -0.000878 0.000000
# 3 -0.003840 -0.008639 0.014241 0.000000 0.003692 0.000000
# 4 0.000000 0.000000 0.000000 0.031199 0.000000 0.009875
# 5 -0.005146 -0.000878 0.003692 0.000000 0.036668 0.000000
# 6 0.000000 0.000000 0.000000 0.009875 0.000000 0.065004
#
#
# Mechanical properties :
#
#
# Convention : Reuss Voigt Hill
#
# Bulk Modulus (GPa) = 52.83820 57.81330 55.32575
# Shear Modulus (GPa) = 23.77293 27.77468 25.77381
#
# Velocity S-wave (km/s) = 3.68359 3.98157 3.83547
# Velocity P-wave (km/s) = 6.94623 7.35766 7.15490
#
# Compressibility (1/GPa) = 0.01892570
#
# Stress axis : x y z
#
# Youngs Moduli (GPa) = 72.64207 58.72976 70.21934
#
# Poissons Ratio (x) = 0.03379 0.26965
# Poissons Ratio (y) = 0.04180 0.60661
# Poissons Ratio (z) = 0.27896 0.50735
#
# Static dielectric constant tensor:
#      x y z
#    x 1.616790 0.000000 0.005050 
#    y 0.000000 1.647360 0.000000 
#    z 0.005050 0.000000 1.608410 
# 
# From -- ./inp_files/51906.got.cif
#   From: 2010.05.17/outbox.ucp.g08.bks.cvg/sg14_26_cif.got.tgz:51906.got - 2010.06.11 12:31:08.
