data_PCOD9253802
_publ_section_title
;
Structure prediction by ZEFSAII (Michael W. Deem and Ramdas Pophale) SiO2 
 PCOD9253802
Probable space group: C 2/C
;
_chemical_formula_sum "Si O2"
_cell_formula_units_Z 40
_cell_length_a 14.743485
_cell_length_b 7.366284
_cell_length_c 19.874856
_cell_angle_alpha 90.000000
_cell_angle_beta 136.139157
_cell_angle_gamma 90.000000
_cell_volume 1495.646459
_symmetry_space_group_name_H-M "C 2/C"
_symmetry_group_IT_number 15
_symmetry_cell_setting 'monoclinic'
loop_
_space_group_symop_operation_xyz
x,y,z
-x,y,1/2-z
-x,-y,-z
x,-y,1/2+z
1/2+x,1/2+y,z
1/2-x,1/2+y,1/2-z
1/2-x,1/2-y,-z
1/2+x,1/2-y,1/2+z
loop_
_atom_site_type_symbol
_atom_site_label
_atom_site_fract_x
_atom_site_fract_y
_atom_site_fract_z
Si Si1 0.107219 0.141244 0.024378
Si Si2 0.431868 0.805951 0.362822
Si Si3 0.283218 0.111437 0.457664
Si Si4 0.960786 0.924908 0.151375
Si Si5 0.654329 0.910028 0.312699
O O1 0.133729 0.272832 0.100917
O O2 0.247471 0.040202 0.095239
O O3 0.037958 0.192427 0.916766
O O4 0.000000 0.000000 0.000000
O O5 0.564503 0.902953 0.456430
O O6 0.477792 0.620662 0.344479
O O7 0.347317 0.929177 0.268170
O O8 0.250000 0.250000 0.500000
O O9 0.195358 0.940342 0.422547
O O10 0.220737 0.214851 0.361383
O O11 0.000000 0.882140 0.250000
O O12 0.500000 0.919401 0.250000
#
# Coordination Sequence:
#
# PCOD9253802 Si02
#       5
#     8   8   8   8   8
#     4  10  20  30  44  80 111 129 165 215 256 302
#     4  10  18  28  44  74 110 133 160 206 262 301
#     4  10  14  25  43  74 103 127 159 208 253 302
#     4  10  15  25  45  74 103 132 162 200 254 304
#     4  12  17  28  53  78 106 135 165 208 259 301
#
# _framework density 26.744288000000001
#
# number of rings (size 3 to 8) (size 9 to 14) (size 15 to 20)
#    0.000    1.600   12.000    0.000    0.000    0.000 
#    0.000    0.000    0.000    1.200    0.000   14.000 
#    0.000    0.000    0.000    0.000    0.000    0.000 
#
# Total GULP energy -111455.440566 kJ/mol
# GULP energy per Si atom -5572.772028 kJ/mol
# Density = 2.668342 g / cm^3
# Si number density = 26.744288 Si / 1000 Ang^3
#
#
#
# Elastic Constant Matrix: (Units=GPa)
#
#
# Indices 1 2 3 4 5 6 
#
# 1 84.6213 21.8216 68.7830 0.0000 -39.4140 0.0000
# 2 21.8216 66.6090 28.9673 0.0000 -3.9260 0.0000
# 3 68.7830 28.9673 241.6201 0.0000 -47.0472 0.0000
# 4 0.0000 0.0000 0.0000 14.3647 0.0000 -7.8094
# 5 -39.4140 -3.9260 -47.0472 0.0000 62.1472 0.0000
# 6 0.0000 0.0000 0.0000 -7.8094 0.0000 16.1890
#
#
#
# Elastic Compliance Matrix: (Units=1/GPa)
#
#
# Indices 1 2 3 4 5 6 
#
# 1 0.020422 -0.004667 -0.003272 0.000000 0.010180 0.000000
# 2 -0.004667 0.016919 -0.001253 0.000000 -0.002840 0.000000
# 3 -0.003272 -0.001253 0.005631 0.000000 0.002109 0.000000
# 4 0.000000 0.000000 0.000000 0.094362 0.000000 0.045519
# 5 0.010180 -0.002840 0.002109 0.000000 0.023964 0.000000
# 6 0.000000 0.000000 0.000000 0.045519 0.000000 0.083728
#
#
# Mechanical properties :
#
#
# Convention : Reuss Voigt Hill
#
# Bulk Modulus (GPa) = 40.66960 70.22159 55.44559
# Shear Modulus (GPa) = 18.40901 36.75875 27.58388
#
# Velocity S-wave (km/s) = 2.62646 3.71138 3.21502
# Velocity P-wave (km/s) = 4.94344 6.68427 5.87865
#
# Compressibility (1/GPa) = 0.02458839
#
# Stress axis : x y z
#
# Youngs Moduli (GPa) = 48.96694 59.10344 177.59192
#
# Poissons Ratio (x) = 0.27587 0.58105
# Poissons Ratio (y) = 0.22855 0.22246
# Poissons Ratio (z) = 0.16021 0.07404
#
# Static dielectric constant tensor:
#      x y z
#    x 2.274490 0.000000 0.176500 
#    y 0.000000 2.430900 0.000000 
#    z 0.176500 0.000000 2.599840 
# 
# From -- ./inp_files/95325.got.cif
#   From: 2010.05.17/outbox.cif.g08.bks.cpg/sg15_48_cif.got.tgz:95325.got - 2010.06.03 18:47:42.
