data_PCOD9253998
_publ_section_title
;
Structure prediction by ZEFSAII (Michael W. Deem and Ramdas Pophale) SiO2 
 PCOD9253998
Probable space group: C 2/C
;
_chemical_formula_sum "Si O2"
_cell_formula_units_Z 56
_cell_length_a 15.117733
_cell_length_b 8.544840
_cell_length_c 20.989578
_cell_angle_alpha 90.000000
_cell_angle_beta 58.734633
_cell_angle_gamma 90.000000
_cell_volume 2317.634555
_symmetry_space_group_name_H-M "C 2/C"
_symmetry_group_IT_number 15
_symmetry_cell_setting 'monoclinic'
loop_
_space_group_symop_operation_xyz
x,y,z
-x,y,1/2-z
-x,-y,-z
x,-y,1/2+z
1/2+x,1/2+y,z
1/2-x,1/2+y,1/2-z
1/2-x,1/2-y,-z
1/2+x,1/2-y,1/2+z
loop_
_atom_site_type_symbol
_atom_site_label
_atom_site_fract_x
_atom_site_fract_y
_atom_site_fract_z
Si Si1 0.019044 0.445689 0.574992
Si Si2 0.308868 0.674507 0.236782
Si Si3 0.324133 0.078251 0.905902
Si Si4 0.123989 0.512556 0.254571
Si Si5 0.551593 0.504612 0.395005
Si Si6 0.670701 0.802829 0.904518
Si Si7 0.863767 0.145020 0.012629
O O1 0.090664 0.591109 0.570263
O O2 0.102202 0.313110 0.525171
O O3 0.961187 0.413213 0.665898
O O4 0.922779 0.428779 0.561283
O O5 0.220672 0.631024 0.218812
O O6 0.406423 0.566761 0.186454
O O7 0.254900 0.635695 0.323188
O O8 0.340817 0.853920 0.222967
O O9 0.383589 0.048770 0.815642
O O10 0.244395 0.222466 0.929143
O O11 0.250221 0.925532 0.942233
O O12 0.612825 0.348137 0.394046
O O13 0.584244 0.628326 0.436963
O O14 0.431438 0.472159 0.443664
#
# Coordination Sequence:
#
# PCOD9253998 Si02
#       7
#     8   8   8   8   8   8   8
#     4  10  19  30  51  83 108 141 195 244 287 361
#     4  10  15  31  51  78 107 146 182 242 292 349
#     4  10  17  33  52  79 111 149 184 249 295 353
#     4  10  20  31  53  83 108 145 197 239 298 356
#     4   9  15  29  50  75 112 147 186 235 295 360
#     4   8  17  29  48  82 106 140 192 236 294 351
#     4   9  17  29  49  79 108 146 191 232 296 362
#
# _framework density 24.162565000000001
#
# number of rings (size 3 to 8) (size 9 to 14) (size 15 to 20)
#    0.000    2.571    4.286    1.714    0.000    0.000 
#    0.000    0.714    0.000    0.857   37.143    0.000 
#    0.000    0.000    0.000    0.000    0.000    0.000 
#
# Total GULP energy -155987.546856 kJ/mol
# GULP energy per Si atom -5570.983816 kJ/mol
# Density = 2.410757 g / cm^3
# Si number density = 24.162565 Si / 1000 Ang^3
#
#
#
# Elastic Constant Matrix: (Units=GPa)
#
#
# Indices 1 2 3 4 5 6 
#
# 1 111.6860 36.6464 5.9439 0.0000 21.9283 0.0000
# 2 36.6464 63.3316 31.9615 0.0000 -0.4588 0.0000
# 3 5.9439 31.9615 56.1487 0.0000 -9.6643 0.0000
# 4 0.0000 0.0000 0.0000 46.6146 0.0000 -10.2889
# 5 21.9283 -0.4588 -9.6643 0.0000 20.5146 0.0000
# 6 0.0000 0.0000 0.0000 -10.2889 0.0000 28.0570
#
#
#
# Elastic Compliance Matrix: (Units=1/GPa)
#
#
# Indices 1 2 3 4 5 6 
#
# 1 0.015080 -0.009341 0.000991 0.000000 -0.015862 0.000000
# 2 -0.009341 0.028622 -0.014664 0.000000 0.003717 0.000000
# 3 0.000991 -0.014664 0.028091 0.000000 0.011847 0.000000
# 4 0.000000 0.000000 0.000000 0.023342 0.000000 0.008560
# 5 -0.015862 0.003717 0.011847 0.000000 0.071365 0.000000
# 6 0.000000 0.000000 0.000000 0.008560 0.000000 0.038781
#
#
# Mechanical properties :
#
#
# Convention : Reuss Voigt Hill
#
# Bulk Modulus (GPa) = 38.81236 42.25221 40.53229
# Shear Modulus (GPa) = 19.23828 29.47821 24.35824
#
# Velocity S-wave (km/s) = 2.82477 3.49663 3.17850
# Velocity P-wave (km/s) = 5.17078 5.81606 5.50288
#
# Compressibility (1/GPa) = 0.02576499
#
# Stress axis : x y z
#
# Youngs Moduli (GPa) = 66.31242 34.93767 35.59815
#
# Poissons Ratio (x) = 0.32635 -0.03526
# Poissons Ratio (y) = 0.61941 0.52202
# Poissons Ratio (z) = -0.06569 0.51233
#
# Static dielectric constant tensor:
#      x y z
#    x 1.965790 0.000000 0.007710 
#    y 0.000000 1.941100 0.000000 
#    z 0.007710 0.000000 1.999340 
# 
# From -- ./inp_files/298110.got.cif
#   From: 2010.05.17/outbox.cif.g08.bks.cpg/sg15_150_cif.got.tgz:298110.got - 2010.06.03 18:47:42.
