data_PCOD9253253
_publ_section_title
;
Structure prediction by ZEFSAII (Michael W. Deem and Ramdas Pophale) SiO2 
 PCOD9253253
Probable space group: P 21/C
;
_chemical_formula_sum "Si O2"
_cell_formula_units_Z 20
_cell_length_a 7.844537
_cell_length_b 12.620910
_cell_length_c 10.449359
_cell_angle_alpha 90.000000
_cell_angle_beta 56.178260
_cell_angle_gamma 90.000000
_cell_volume 859.468932
_symmetry_space_group_name_H-M "P 21/C"
_symmetry_group_IT_number 14
_symmetry_cell_setting 'monoclinic'
loop_
_space_group_symop_operation_xyz
x,y,z
-x,1/2+y,1/2-z
-x,-y,-z
x,1/2-y,1/2+z
loop_
_atom_site_type_symbol
_atom_site_label
_atom_site_fract_x
_atom_site_fract_y
_atom_site_fract_z
Si Si1 0.282819 0.276587 0.846223
Si Si2 0.094250 0.353074 0.191792
Si Si3 0.061215 0.560855 0.342220
Si Si4 0.332421 0.770717 0.188641
Si Si5 0.618400 0.895875 0.911241
O O1 0.139786 0.217187 0.801502
O O2 0.490327 0.209294 0.781437
O O3 0.342911 0.386487 0.754301
O O4 0.194481 0.310236 0.019836
O O5 0.147315 0.471716 0.210625
O O6 0.854466 0.349283 0.256813
O O7 0.219963 0.659569 0.270679
O O8 0.000000 0.500000 0.500000
O O9 0.839807 0.601305 0.385945
O O10 0.473863 0.794365 0.004968
O O11 0.500000 0.000000 0.000000
#
# Coordination Sequence:
#
# PCOD9253253 Si02
#       5
#     4   4   4   4   4
#     4  12  27  48  74 117 149 201 260 319 385 469
#     4  12  27  49  77 109 155 202 260 314 395 461
#     4  12  26  49  78 114 156 204 259 324 395 460
#     4  12  25  48  79 105 157 202 251 322 387 453
#     4  12  25  49  74 111 150 202 257 317 381 458
#
# _framework density 23.270182999999999
#
# number of rings (size 3 to 8) (size 9 to 14) (size 15 to 20)
#    0.000    0.000    6.000    3.600    2.800    1.600 
#    3.600    0.000    0.000    0.000    0.000    0.000 
#    0.000    0.000    0.000    0.000    0.000    0.000 
#
# Total GULP energy -111469.299339 kJ/mol
# GULP energy per Si atom -5573.464967 kJ/mol
# Density = 2.321722 g / cm^3
# Si number density = 23.270183 Si / 1000 Ang^3
#
#
#
# Elastic Constant Matrix: (Units=GPa)
#
#
# Indices 1 2 3 4 5 6 
#
# 1 109.1085 2.4772 49.7151 0.0000 -10.8152 0.0000
# 2 2.4772 86.4570 49.5679 0.0000 6.8225 0.0000
# 3 49.7151 49.5679 134.9035 0.0000 12.7494 0.0000
# 4 0.0000 0.0000 0.0000 42.4608 0.0000 -8.2402
# 5 -10.8152 6.8225 12.7494 0.0000 37.8779 0.0000
# 6 0.0000 0.0000 0.0000 -8.2402 0.0000 31.2735
#
#
#
# Elastic Compliance Matrix: (Units=1/GPa)
#
#
# Indices 1 2 3 4 5 6 
#
# 1 0.012350 0.002699 -0.006022 0.000000 0.005067 0.000000
# 2 0.002699 0.015270 -0.006629 0.000000 0.000251 0.000000
# 3 -0.006022 -0.006629 0.012515 0.000000 -0.004738 0.000000
# 4 0.000000 0.000000 0.000000 0.024820 0.000000 0.006540
# 5 0.005067 0.000251 -0.004738 0.000000 0.029397 0.000000
# 6 0.000000 0.000000 0.000000 0.006540 0.000000 0.033699
#
#
# Mechanical properties :
#
#
# Convention : Reuss Voigt Hill
#
# Bulk Modulus (GPa) = 49.42863 59.33216 54.38040
# Shear Modulus (GPa) = 32.32085 37.56969 34.94527
#
# Velocity S-wave (km/s) = 3.73089 4.02244 3.87941
# Velocity P-wave (km/s) = 6.31242 6.86482 6.59441
#
# Compressibility (1/GPa) = 0.02023119
#
# Stress axis : x y z
#
# Youngs Moduli (GPa) = 80.97185 65.48878 79.90222
#
# Poissons Ratio (x) = -0.17673 0.48115
# Poissons Ratio (y) = -0.21852 0.52966
# Poissons Ratio (z) = 0.48759 0.43412
#
# Static dielectric constant tensor:
#      x y z
#    x 1.900280 0.000000 0.002650 
#    y 0.000000 1.966780 0.000000 
#    z 0.002650 0.000000 1.983950 
# 
# From -- ./inp_files/24429.got.cif
#   From: 2010.05.17/outbox.cif.g08.bks.cpg/sg14_13_cif.got.tgz:24429.got - 2010.06.03 17:49:19.
