data_PCOD9253927
_publ_section_title
;
Structure prediction by ZEFSAII (Michael W. Deem and Ramdas Pophale) SiO2 
 PCOD9253927
Probable space group: C 2/C
;
_chemical_formula_sum "Si O2"
_cell_formula_units_Z 64
_cell_length_a 17.792399
_cell_length_b 12.109209
_cell_length_c 19.490156
_cell_angle_alpha 90.000000
_cell_angle_beta 59.421464
_cell_angle_gamma 90.000000
_cell_volume 3615.220442
_symmetry_space_group_name_H-M "C 2/C"
_symmetry_group_IT_number 15
_symmetry_cell_setting 'monoclinic'
loop_
_space_group_symop_operation_xyz
x,y,z
-x,y,1/2-z
-x,-y,-z
x,-y,1/2+z
1/2+x,1/2+y,z
1/2-x,1/2+y,1/2-z
1/2-x,1/2-y,-z
1/2+x,1/2-y,1/2+z
loop_
_atom_site_type_symbol
_atom_site_label
_atom_site_fract_x
_atom_site_fract_y
_atom_site_fract_z
Si Si1 0.076050 0.880524 0.270738
Si Si2 0.031082 0.235350 0.346329
Si Si3 0.234608 0.548969 0.665358
Si Si4 0.267697 0.441226 0.830651
Si Si5 0.792575 0.681680 0.282060
Si Si6 0.858499 0.750420 0.848312
Si Si7 0.563204 0.503961 0.406952
Si Si8 0.165066 0.630261 0.846367
O O1 0.125865 0.764326 0.256291
O O2 0.000000 0.879174 0.250000
O O3 0.149078 0.976392 0.220541
O O4 0.036917 0.915570 0.361628
O O5 0.085909 0.238832 0.249261
O O6 0.054242 0.122561 0.374333
O O7 0.067102 0.336575 0.374799
O O8 0.930172 0.244098 0.374071
O O9 0.191277 0.428319 0.681742
O O10 0.196495 0.638088 0.630881
O O11 0.337845 0.526085 0.617209
O O12 0.210288 0.598273 0.751990
O O13 0.239830 0.366798 0.776971
O O14 0.294834 0.355231 0.875962
O O15 0.188201 0.525141 0.881251
O O16 0.714892 0.759152 0.346374
O O17 0.500000 0.500000 0.500000
#
# Coordination Sequence:
#
# PCOD9253927 Si02
#       8
#     8   8   8   8   8   8   8   8
#     4  11  20  33  52  80 110 126 173 228 264 292
#     4  10  17  30  46  79 101 128 171 214 268 292
#     4  10  17  32  49  77 107 135 176 209 265 312
#     4  10  15  26  49  75  98 130 165 207 258 300
#     4  10  15  29  50  72 104 135 164 214 262 302
#     4  10  17  28  54  77 106 126 166 233 259 293
#     4  12  21  32  54  79 108 143 179 213 254 325
#     4   9  14  26  49  68 102 128 165 212 253 303
#
# _framework density 17.702932000000001
#
# number of rings (size 3 to 8) (size 9 to 14) (size 15 to 20)
#    0.000    1.750    8.750    0.750    0.000    0.000 
#    6.750    0.625    0.000    0.750    0.000   14.000 
#    0.000    0.000    0.000    0.000    0.000    0.000 
#
# Total GULP energy -178170.805202 kJ/mol
# GULP energy per Si atom -5567.837663 kJ/mol
# Density = 1.766264 g / cm^3
# Si number density = 17.702932 Si / 1000 Ang^3
#
#
#
# Elastic Constant Matrix: (Units=GPa)
#
#
# Indices 1 2 3 4 5 6 
#
# 1 160.6697 87.6353 24.2111 0.0000 -4.3948 0.0000
# 2 87.6353 152.9767 17.0223 0.0000 -4.0827 0.0000
# 3 24.2111 17.0223 34.3322 0.0000 -4.2733 0.0000
# 4 0.0000 0.0000 0.0000 3.0934 0.0000 -0.5031
# 5 -4.3948 -4.0827 -4.2733 0.0000 5.0790 0.0000
# 6 0.0000 0.0000 0.0000 -0.5031 0.0000 23.9535
#
#
#
# Elastic Compliance Matrix: (Units=1/GPa)
#
#
# Indices 1 2 3 4 5 6 
#
# 1 0.009616 -0.005022 -0.004198 0.000000 0.000752 0.000000
# 2 -0.005022 0.009582 -0.000884 0.000000 0.002613 0.000000
# 3 -0.004198 -0.000884 0.035727 0.000000 0.025716 0.000000
# 4 0.000000 0.000000 0.000000 0.324373 0.000000 0.006813
# 5 0.000752 0.002613 0.025716 0.000000 0.221277 0.000000
# 6 0.000000 0.000000 0.000000 0.006813 0.000000 0.041891
#
#
# Mechanical properties :
#
#
# Convention : Reuss Voigt Hill
#
# Bulk Modulus (GPa) = 28.80426 67.30178 48.05302
# Shear Modulus (GPa) = 7.41570 21.03252 14.22411
#
# Velocity S-wave (km/s) = 2.04892 3.45059 2.83766
# Velocity P-wave (km/s) = 4.68013 7.34679 6.15950
#
# Compressibility (1/GPa) = 0.03471709
#
# Stress axis : x y z
#
# Youngs Moduli (GPa) = 103.99320 104.36519 27.99024
#
# Poissons Ratio (x) = 0.52407 0.11750
# Poissons Ratio (y) = 0.52220 0.02475
# Poissons Ratio (z) = 0.43655 0.09229
#
# Static dielectric constant tensor:
#      x y z
#    x 1.639480 0.000000 -0.001620 
#    y 0.000000 1.645130 0.000000 
#    z -0.001620 0.000000 1.590650 
# 
# From -- ./inp_files/248371.got.cif
#   From: 2010.05.17/outbox.cif.g08.bks.cpg/sg15_125_cif.got.tgz:248371.got - 2010.06.03 18:47:42.
