data_PCOD9253935
_publ_section_title
;
Structure prediction by ZEFSAII (Michael W. Deem and Ramdas Pophale) SiO2 
 PCOD9253935
Probable space group: C 2/C
;
_chemical_formula_sum "Si O2"
_cell_formula_units_Z 32
_cell_length_a 8.033970
_cell_length_b 16.914639
_cell_length_c 9.417034
_cell_angle_alpha 90.000000
_cell_angle_beta 75.819725
_cell_angle_gamma 90.000000
_cell_volume 1240.704092
_symmetry_space_group_name_H-M "C 2/C"
_symmetry_group_IT_number 15
_symmetry_cell_setting 'monoclinic'
loop_
_space_group_symop_operation_xyz
x,y,z
-x,y,1/2-z
-x,-y,-z
x,-y,1/2+z
1/2+x,1/2+y,z
1/2-x,1/2+y,1/2-z
1/2-x,1/2-y,-z
1/2+x,1/2-y,1/2+z
loop_
_atom_site_type_symbol
_atom_site_label
_atom_site_fract_x
_atom_site_fract_y
_atom_site_fract_z
Si Si1 0.476493 0.908551 0.036050
Si Si2 0.792301 0.309442 0.700768
Si Si3 0.715585 0.626113 0.810284
Si Si4 0.494389 0.388572 0.601183
O O1 0.619214 0.884899 0.123008
O O2 0.289361 0.901108 0.144064
O O3 0.543447 0.856263 0.890685
O O4 0.500000 0.000000 0.000000
O O5 0.828365 0.217706 0.704113
O O6 0.637073 0.321822 0.616686
O O7 0.692761 0.349211 0.854747
O O8 0.565916 0.584455 0.934820
O O9 0.500000 0.438031 0.750000
#
# Coordination Sequence:
#
# PCOD9253935 Si02
#       4
#     8   8   8   8
#     4  10  18  25  40  69  94 111 143 187 227 256
#     4   8  14  25  42  62  85 113 147 176 213 269
#     4  10  15  27  43  58  87 123 141 175 221 262
#     4   7  13  20  37  57  76 105 143 167 202 249
#
# _framework density 25.791808
#
# number of rings (size 3 to 8) (size 9 to 14) (size 15 to 20)
#    1.500    1.500    0.000    7.500    0.000    0.000 
#    0.000    1.250    0.000    0.000    0.000    7.000 
#    0.000    0.000    0.000    0.000    0.000    0.000 
#
# Total GULP energy -89103.898040 kJ/mol
# GULP energy per Si atom -5568.993628 kJ/mol
# Density = 2.573310 g / cm^3
# Si number density = 25.791808 Si / 1000 Ang^3
#
#
#
# Elastic Constant Matrix: (Units=GPa)
#
#
# Indices 1 2 3 4 5 6 
#
# 1 134.5385 10.0122 57.3127 0.0000 -20.3597 0.0000
# 2 10.0122 133.9616 89.9321 0.0000 -22.9473 0.0000
# 3 57.3127 89.9321 286.5586 0.0000 -80.2887 0.0000
# 4 0.0000 0.0000 0.0000 21.4609 0.0000 -27.5319
# 5 -20.3597 -22.9473 -80.2887 0.0000 54.5513 0.0000
# 6 0.0000 0.0000 0.0000 -27.5319 0.0000 1.6696
#
#
#
# Elastic Compliance Matrix: (Units=1/GPa)
#
#
# Indices 1 2 3 4 5 6 
#
# 1 0.008201 0.000596 -0.001531 0.000000 0.001059 0.000000
# 2 0.000596 0.009515 -0.003270 0.000000 -0.000588 0.000000
# 3 -0.001531 -0.003270 0.007278 0.000000 0.008765 0.000000
# 4 0.000000 0.000000 0.000000 -0.002312 0.000000 -0.038124
# 5 0.001059 -0.000588 0.008765 0.000000 0.031379 0.000000
# 6 0.000000 0.000000 0.000000 -0.038124 0.000000 -0.029717
#
#
# Mechanical properties :
#
#
# Convention : Reuss Voigt Hill
#
# Bulk Modulus (GPa) = 60.29909 96.61917 78.45913
# Shear Modulus (GPa) = 130.61540 42.05648 86.33594
#
# Velocity S-wave (km/s) = 7.12405 4.04247 5.79196
# Velocity P-wave (km/s) = 9.54460 7.70268 8.67268
#
# Compressibility (1/GPa) = 0.01658400
#
# Stress axis : x y z
#
# Youngs Moduli (GPa) = 121.94090 105.09925 137.40538
#
# Poissons Ratio (x) = -0.06263 0.21031
# Poissons Ratio (y) = -0.07267 0.44931
# Poissons Ratio (z) = 0.18664 0.34367
#
# Static dielectric constant tensor:
#      x y z
#    x 2.082920 0.000000 0.037440 
#    y 0.000000 2.160520 0.000000 
#    z 0.037440 0.000000 2.178680 
# 
# From -- ./inp_files/84914.got.cif
#   From: 2010.05.17/outbox.cif.g08.bks.cpg/sg15_43_cif.got.tgz:84914.got - 2010.06.03 18:47:42.
