data_PCOD9253789
_publ_section_title
;
Structure prediction by ZEFSAII (Michael W. Deem and Ramdas Pophale) SiO2 
 PCOD9253789
Probable space group: C 2/C
;
_chemical_formula_sum "Si O2"
_cell_formula_units_Z 56
_cell_length_a 6.956487
_cell_length_b 27.034564
_cell_length_c 18.080477
_cell_angle_alpha 90.000000
_cell_angle_beta 139.233943
_cell_angle_gamma 90.000000
_cell_volume 2220.311008
_symmetry_space_group_name_H-M "C 2/C"
_symmetry_group_IT_number 15
_symmetry_cell_setting 'monoclinic'
loop_
_space_group_symop_operation_xyz
x,y,z
-x,y,1/2-z
-x,-y,-z
x,-y,1/2+z
1/2+x,1/2+y,z
1/2-x,1/2+y,1/2-z
1/2-x,1/2-y,-z
1/2+x,1/2-y,1/2+z
loop_
_atom_site_type_symbol
_atom_site_label
_atom_site_fract_x
_atom_site_fract_y
_atom_site_fract_z
Si Si1 0.643882 0.311739 0.151403
Si Si2 0.639890 0.897735 0.657927
Si Si3 0.237637 0.086375 0.731561
Si Si4 0.900860 0.803505 0.532523
Si Si5 0.294673 0.792278 0.782597
Si Si6 0.590668 0.522764 0.189080
Si Si7 0.900043 0.407584 0.014891
O O1 0.565814 0.361503 0.173235
O O2 0.549708 0.312009 0.039229
O O3 0.546938 0.260087 0.159495
O O4 0.000000 0.309119 0.250000
O O5 0.546291 0.843114 0.651107
O O6 0.628003 0.941376 0.714098
O O7 0.490000 0.911557 0.537391
O O8 0.000000 0.892052 0.750000
O O9 0.500000 0.093556 0.750000
O O10 0.624101 0.081187 0.646033
O O11 0.114246 0.033413 0.671398
O O12 0.750000 0.750000 0.500000
O O13 0.716438 0.851560 0.506366
O O14 0.177503 0.799641 0.666319
O O15 0.000000 0.790159 0.750000
O O16 0.500000 0.516136 0.250000
O O17 0.370646 0.553253 0.071450
#
# Coordination Sequence:
#
# PCOD9253789 Si02
#       7
#     8   8   8   8   8   8   8
#     4  10  18  25  37  68 101 128 148 193 248 306
#     4   8  14  26  44  65  86 117 165 199 232 282
#     4  11  21  33  46  71 106 131 162 207 247 294
#     4  12  15  23  43  67 101 131 147 191 264 307
#     4  10  14  23  40  63  94 126 153 189 245 304
#     4   9  20  35  51  69  94 133 176 205 236 289
#     4  10  17  30  47  69  98 130 160 205 246 288
#
# _framework density 25.221691
#
# number of rings (size 3 to 8) (size 9 to 14) (size 15 to 20)
#    0.000    2.286   10.000    0.000    0.000    2.857 
#    0.000    0.000    0.000    0.000    0.000    1.000 
#    0.000    6.857    0.000    0.000    0.000    0.000 
#
# Total GULP energy -156327.084100 kJ/mol
# GULP energy per Si atom -5583.110146 kJ/mol
# Density = 2.516429 g / cm^3
# Si number density = 25.221691 Si / 1000 Ang^3
#
#
#
# Elastic Constant Matrix: (Units=GPa)
#
#
# Indices 1 2 3 4 5 6 
#
# 1 41.3461 16.6286 27.2822 -0.0001 -2.2645 0.0000
# 2 16.6286 267.5626 62.4614 0.0000 -0.8767 0.0000
# 3 27.2822 62.4614 193.9159 -0.0002 -12.0967 0.0000
# 4 -0.0001 0.0000 -0.0002 28.1573 -0.0001 -1.8382
# 5 -2.2645 -0.8767 -12.0967 -0.0001 31.5296 0.0000
# 6 0.0000 0.0000 0.0000 -1.8382 0.0000 13.7880
#
#
#
# Elastic Compliance Matrix: (Units=1/GPa)
#
#
# Indices 1 2 3 4 5 6 
#
# 1 0.026849 -0.000858 -0.003465 0.000000 0.000575 0.000000
# 2 -0.000858 0.004074 -0.001217 0.000000 -0.000415 0.000000
# 3 -0.003465 -0.001217 0.006166 0.000000 0.002083 0.000000
# 4 0.000000 0.000000 0.000000 0.035827 0.000000 0.004776
# 5 0.000575 -0.000415 0.002083 0.000000 0.032545 0.000000
# 6 0.000000 0.000000 0.000000 0.004776 0.000000 0.073163
#
#
# Mechanical properties :
#
#
# Convention : Reuss Voigt Hill
#
# Bulk Modulus (GPa) = 38.44918 79.50765 58.97841
# Shear Modulus (GPa) = 25.20483 41.12515 33.16499
#
# Velocity S-wave (km/s) = 3.16465 4.04238 3.63014
# Velocity P-wave (km/s) = 5.35079 7.30615 6.40354
#
# Compressibility (1/GPa) = 0.02600836
#
# Stress axis : x y z
#
# Youngs Moduli (GPa) = 37.24520 245.48445 162.16749
#
# Poissons Ratio (x) = 0.21058 0.56195
# Poissons Ratio (y) = 0.03195 0.19741
# Poissons Ratio (z) = 0.12906 0.29884
#
# Static dielectric constant tensor:
#      x y z
#    x 2.233130 0.000000 0.086750 
#    y 0.000000 2.057230 0.000000 
#    z 0.086750 0.000000 2.123380 
# 
# From -- ./inp_files/200687.got.cif
#   From: 2010.05.17/outbox.cif.g08.bks.cpg/sg15_101_cif.got.tgz:200687.got - 2010.06.03 18:47:42.
