data_PCOD9253361
_publ_section_title
;
Structure prediction by ZEFSAII (Michael W. Deem and Ramdas Pophale) SiO2 
 PCOD9253361
Probable space group: P 21/C
;
_chemical_formula_sum "Si O2"
_cell_formula_units_Z 16
_cell_length_a 9.434342
_cell_length_b 7.423985
_cell_length_c 18.413522
_cell_angle_alpha 90.000000
_cell_angle_beta 147.504202
_cell_angle_gamma 90.000000
_cell_volume 692.870532
_symmetry_space_group_name_H-M "P 21/C"
_symmetry_group_IT_number 14
_symmetry_cell_setting 'monoclinic'
loop_
_space_group_symop_operation_xyz
x,y,z
-x,1/2+y,1/2-z
-x,-y,-z
x,1/2-y,1/2+z
loop_
_atom_site_type_symbol
_atom_site_label
_atom_site_fract_x
_atom_site_fract_y
_atom_site_fract_z
Si Si1 0.664878 0.659982 0.223460
Si Si2 0.065535 0.684499 0.693259
Si Si3 0.247751 0.969715 0.658209
Si Si4 0.491101 0.717187 0.494417
O O1 0.910910 0.527632 0.314457
O O2 0.493662 0.564174 0.211741
O O3 0.507651 0.692474 0.080593
O O4 0.729938 0.856853 0.281089
O O5 0.201887 0.797444 0.688703
O O6 0.771006 0.757391 0.576258
O O7 0.241778 0.716654 0.840997
O O8 0.000000 0.000000 0.500000
O O9 0.500000 0.500000 0.500000
#
# Coordination Sequence:
#
# PCOD9253361 Si02
#       4
#     4   4   4   4
#     4  12  27  48  74 110 152 197 252 307 374 448
#     4  12  27  50  77 113 151 197 252 311 374 446
#     4  12  28  46  75 109 151 201 247 306 377 446
#     4  12  27  49  81 111 150 200 252 311 378 442
#
# _framework density 23.092337000000001
#
# number of rings (size 3 to 8) (size 9 to 14) (size 15 to 20)
#    0.000    0.000    5.000    3.750    7.000    1.000 
#    0.000    0.000    0.000    0.000    0.000    0.000 
#    0.000    0.000    0.000    0.000    0.000    0.000 
#
# Total GULP energy -89694.132894 kJ/mol
# GULP energy per Si atom -5605.883306 kJ/mol
# Density = 2.303978 g / cm^3
# Si number density = 23.092337 Si / 1000 Ang^3
#
#
#
# Elastic Constant Matrix: (Units=GPa)
#
#
# Indices 1 2 3 4 5 6 
#
# 1 95.7971 29.9888 0.9212 0.0000 -8.0019 0.0000
# 2 29.9888 115.1613 -13.8121 0.0000 -5.5544 0.0000
# 3 0.9212 -13.8121 32.5450 0.0000 -1.5718 0.0000
# 4 0.0000 0.0000 0.0000 30.9035 0.0000 1.3028
# 5 -8.0019 -5.5544 -1.5718 0.0000 39.1646 0.0000
# 6 0.0000 0.0000 0.0000 1.3028 0.0000 33.1690
#
#
#
# Elastic Compliance Matrix: (Units=1/GPa)
#
#
# Indices 1 2 3 4 5 6 
#
# 1 0.011584 -0.003114 -0.001559 0.000000 0.001863 0.000000
# 2 -0.003114 0.010070 0.004409 0.000000 0.000969 0.000000
# 3 -0.001559 0.004409 0.032720 0.000000 0.001620 0.000000
# 4 0.000000 0.000000 0.000000 0.032412 0.000000 -0.001273
# 5 0.001863 0.000969 0.001620 0.000000 0.026116 0.000000
# 6 0.000000 0.000000 0.000000 -0.001273 0.000000 0.030199
#
#
# Mechanical properties :
#
#
# Convention : Reuss Voigt Hill
#
# Bulk Modulus (GPa) = 18.57194 30.85546 24.71370
# Shear Modulus (GPa) = 30.94465 35.74110 33.34288
#
# Velocity S-wave (km/s) = 3.66463 3.93841 3.80398
# Velocity P-wave (km/s) = 5.09568 5.83714 5.47897
#
# Compressibility (1/GPa) = 0.05384468
#
# Stress axis : x y z
#
# Youngs Moduli (GPa) = 86.32552 99.30681 30.56228
#
# Poissons Ratio (x) = 0.30922 0.04766
# Poissons Ratio (y) = 0.26880 -0.13474
# Poissons Ratio (z) = 0.13462 -0.43780
#
# Static dielectric constant tensor:
#      x y z
#    x 1.923090 0.000000 0.006680 
#    y 0.000000 1.859180 0.000000 
#    z 0.006680 0.000000 1.812430 
# 
# From -- ./inp_files/11717.got.cif
#   From: 2010.05.17/outbox.cif.g08.bks.cpg/sg14_6_cif.got.tgz:11717.got - 2010.06.03 17:49:19.
