data_PCOD9253338
_publ_section_title
;
Structure prediction by ZEFSAII (Michael W. Deem and Ramdas Pophale) SiO2 
 PCOD9253338
Probable space group: P 21/C
;
_chemical_formula_sum "Si O2"
_cell_formula_units_Z 28
_cell_length_a 16.734826
_cell_length_b 4.870824
_cell_length_c 15.340908
_cell_angle_alpha 90.000000
_cell_angle_beta 62.288908
_cell_angle_gamma 90.000000
_cell_volume 1107.049254
_symmetry_space_group_name_H-M "P 21/C"
_symmetry_group_IT_number 14
_symmetry_cell_setting 'monoclinic'
loop_
_space_group_symop_operation_xyz
x,y,z
-x,1/2+y,1/2-z
-x,-y,-z
x,1/2-y,1/2+z
loop_
_atom_site_type_symbol
_atom_site_label
_atom_site_fract_x
_atom_site_fract_y
_atom_site_fract_z
Si Si1 0.033053 0.177900 0.679205
Si Si2 0.775173 0.852661 0.353070
Si Si3 0.275828 0.810442 0.874365
Si Si4 0.000000 0.000000 0.500000
Si Si5 0.826067 0.811927 0.634454
Si Si6 0.329079 0.849740 0.045710
Si Si7 0.500000 0.000000 0.500000
Si Si8 0.534070 0.319828 0.784693
O O1 0.142147 0.179779 0.622571
O O2 0.996077 0.469301 0.729089
O O3 0.994718 0.071778 0.607923
O O4 0.809488 0.741105 0.243858
O O5 0.689498 0.668523 0.425315
O O6 0.741906 0.164103 0.363800
O O7 0.191867 0.622574 0.888471
O O8 0.360984 0.735416 0.771309
O O9 0.247436 0.122739 0.875076
O O10 0.303636 0.774909 0.959845
O O11 0.925704 0.751236 0.551822
O O12 0.427712 0.752168 0.019107
O O13 0.505207 0.064253 0.391696
O O14 0.523151 0.561635 0.718946
#
# Coordination Sequence:
#
# PCOD9253338 Si02
#       8
#     4   4   4   2   4   4   2   4
#     4  12  27  49  79 113 158 202 268 326 386 474
#     4  12  26  51  74 114 154 205 261 326 384 471
#     4  12  26  51  74 115 154 205 257 322 384 470
#     4  12  28  50  80 116 156 212 254 330 400 456
#     4  12  27  48  78 110 156 202 262 317 393 463
#     4  12  27  48  78 111 155 202 260 320 395 463
#     4  12  28  50  80 116 154 206 254 324 394 464
#     4  12  27  49  79 111 156 197 259 319 381 468
#
# _framework density 25.292463000000001
#
# number of rings (size 3 to 8) (size 9 to 14) (size 15 to 20)
#    0.000    0.000    2.857    6.857    4.000    4.571 
#    0.000    0.000    0.000    0.000    0.000    0.000 
#    0.000    0.000    0.000    0.000    0.000    0.000 
#
# Total GULP energy -156131.311006 kJ/mol
# GULP energy per Si atom -5576.118250 kJ/mol
# Density = 2.523490 g / cm^3
# Si number density = 25.292463 Si / 1000 Ang^3
#
#
#
# Elastic Constant Matrix: (Units=GPa)
#
#
# Indices 1 2 3 4 5 6 
#
# 1 81.0645 1.5932 12.4228 0.0000 9.0585 0.0000
# 2 1.5932 64.2909 1.1208 0.0000 -6.6897 0.0000
# 3 12.4228 1.1208 95.8871 0.0000 14.4928 0.0000
# 4 0.0000 0.0000 0.0000 21.2624 0.0000 -4.5309
# 5 9.0585 -6.6897 14.4928 0.0000 31.0017 0.0000
# 6 0.0000 0.0000 0.0000 -4.5309 0.0000 39.2722
#
#
#
# Elastic Compliance Matrix: (Units=1/GPa)
#
#
# Indices 1 2 3 4 5 6 
#
# 1 0.012902 -0.000650 -0.001155 0.000000 -0.003371 0.000000
# 2 -0.000650 0.015996 -0.000703 0.000000 0.003970 0.000000
# 3 -0.001155 -0.000703 0.011361 0.000000 -0.005126 0.000000
# 4 0.000000 0.000000 0.000000 0.048217 0.000000 0.005563
# 5 -0.003371 0.003970 -0.005126 0.000000 0.036494 0.000000
# 6 0.000000 0.000000 0.000000 0.005563 0.000000 0.026105
#
#
# Mechanical properties :
#
#
# Convention : Reuss Voigt Hill
#
# Bulk Modulus (GPa) = 28.37352 30.16847 29.27100
# Shear Modulus (GPa) = 29.79051 33.38097 31.58574
#
# Velocity S-wave (km/s) = 3.43569 3.63685 3.53770
# Velocity P-wave (km/s) = 5.19434 5.43960 5.31839
#
# Compressibility (1/GPa) = 0.03524412
#
# Stress axis : x y z
#
# Youngs Moduli (GPa) = 77.50609 62.51644 88.01710
#
# Poissons Ratio (x) = 0.04066 0.10162
# Poissons Ratio (y) = 0.05040 0.06186
# Poissons Ratio (z) = 0.08948 0.04394
#
# Static dielectric constant tensor:
#      x y z
#    x 2.004950 0.000000 -0.084080 
#    y 0.000000 1.911870 0.000000 
#    z -0.084080 0.000000 1.974920 
# 
# From -- ./inp_files/47951.got.cif
#   From: 2010.05.17/outbox.cif.g08.bks.cpg/sg14_24_cif.got.tgz:47951.got - 2010.06.03 17:49:19.
