data_PCOD9253706
_publ_section_title
;
Structure prediction by ZEFSAII (Michael W. Deem and Ramdas Pophale) SiO2 
 PCOD9253706
Probable space group: P 21/C
;
_chemical_formula_sum "Si O2"
_cell_formula_units_Z 28
_cell_length_a 15.000000
_cell_length_b 15.000000
_cell_length_c 9.000000
_cell_angle_alpha 90.000000
_cell_angle_beta 140.000000
_cell_angle_gamma 90.000000
_cell_volume 1301.644910
_symmetry_space_group_name_H-M "P 21/C"
_symmetry_group_IT_number 14
_symmetry_cell_setting 'monoclinic'
loop_
_space_group_symop_operation_xyz
x,y,z
-x,1/2+y,1/2-z
-x,-y,-z
x,1/2-y,1/2+z
loop_
_atom_site_type_symbol
_atom_site_label
_atom_site_fract_x
_atom_site_fract_y
_atom_site_fract_z
Si Si1 0.044612 0.423342 0.290340
Si Si2 0.415392 0.639252 0.133361
Si Si3 0.271240 0.361691 0.365314
Si Si4 0.729318 0.468303 0.796857
Si Si5 0.036811 0.223238 0.002767
Si Si6 0.757871 0.177857 0.097307
Si Si7 0.170487 0.911656 0.112881
O O1 0.151163 0.420297 0.290805
O O2 0.117100 0.492058 0.495727
O O3 0.043446 0.321821 0.348630
O O4 0.888483 0.454921 0.056983
O O5 0.584438 0.646358 0.356272
O O6 0.372293 0.585385 0.224756
O O7 0.347344 0.738503 0.034408
O O8 0.313860 0.585952 0.889226
O O9 0.301986 0.426894 0.264515
O O10 0.185537 0.269761 0.224328
O O11 0.712193 0.409637 0.626250
O O12 0.910558 0.293497 0.850774
O O13 0.965582 0.139637 0.997139
O O14 0.784036 0.149705 0.964418
#
# Coordination Sequence:
#
# PCOD9253706 Si02
#       7
#     4   4   4   4   4   4   4
#     4  12  23  43  70 103 131 174 236 280 335 393
#     4  11  26  43  68 100 139 179 225 270 347 403
#     4  12  26  45  66 105 139 175 225 283 336 404
#     4  12  23  46  71  97 134 185 224 274 337 413
#     4  11  23  40  70 101 135 168 231 284 330 391
#     4  11  21  44  72  92 133 182 225 271 340 403
#     4  11  23  44  70 100 133 181 224 283 333 404
#
# _framework density 21.511243
#
# number of rings (size 3 to 8) (size 9 to 14) (size 15 to 20)
#    0.000    0.571    5.714    4.714    0.000    2.857 
#    2.571    0.000    0.000    0.000    0.000    0.000 
#    0.000    0.000    0.000    0.000    0.000    0.000 
#
# Total GULP energy -156040.385352 kJ/mol
# GULP energy per Si atom -5572.870905 kJ/mol
# Density = 2.146228 g / cm^3
# Si number density = 21.511243 Si / 1000 Ang^3
#
#
#
# Elastic Constant Matrix: (Units=GPa)
#
#
# Indices 1 2 3 4 5 6 
#
# 1 30.0214 -13.1512 19.1802 0.0000 10.8183 0.0000
# 2 -13.1512 54.2874 33.6949 0.0000 5.0389 0.0000
# 3 19.1802 33.6949 137.8860 0.0000 40.4572 0.0000
# 4 0.0000 0.0000 0.0000 41.4343 0.0000 -15.9402
# 5 10.8183 5.0389 40.4572 0.0000 36.7071 0.0000
# 6 0.0000 0.0000 0.0000 -15.9402 0.0000 8.1292
#
#
#
# Elastic Compliance Matrix: (Units=1/GPa)
#
#
# Indices 1 2 3 4 5 6 
#
# 1 0.050018 0.018657 -0.009518 0.000000 -0.006812 0.000000
# 2 0.018657 0.029128 -0.010237 0.000000 0.001786 0.000000
# 3 -0.009518 -0.010237 0.014547 0.000000 -0.011823 0.000000
# 4 0.000000 0.000000 0.000000 0.098253 0.000000 0.192660
# 5 -0.006812 0.001786 -0.011823 0.000000 0.042036 0.000000
# 6 0.000000 0.000000 0.000000 0.192660 0.000000 0.500793
#
#
# Mechanical properties :
#
#
# Convention : Reuss Voigt Hill
#
# Bulk Modulus (GPa) = 10.92945 33.51585 22.22265
# Shear Modulus (GPa) = 6.51491 29.41884 17.96688
#
# Velocity S-wave (km/s) = 1.74218 3.70212 2.89317
# Velocity P-wave (km/s) = 3.02304 5.82140 4.63829
#
# Compressibility (1/GPa) = 0.09149591
#
# Stress axis : x y z
#
# Youngs Moduli (GPa) = 19.99288 34.33086 68.74338
#
# Poissons Ratio (x) = -0.64050 0.65430
# Poissons Ratio (y) = -0.37300 0.70374
# Poissons Ratio (z) = 0.19029 0.35145
#
# Static dielectric constant tensor:
#      x y z
#    x 1.902590 0.000000 -0.084490 
#    y 0.000000 1.782110 0.000000 
#    z -0.084490 0.000000 1.806810 
# 
# From -- ./inp_files/16446.got.cif
#   From: 2010.05.17/outbox.ucp.g08.bks.cvg/sg14_9_cif.got.tgz:16446.got - 2010.06.11 12:31:08.
