data_PCOD9253238
_publ_section_title
;
Structure prediction by ZEFSAII (Michael W. Deem and Ramdas Pophale) SiO2 
 PCOD9253238
Probable space group: P 21/C
;
_chemical_formula_sum "Si O2"
_cell_formula_units_Z 14
_cell_length_a 5.177379
_cell_length_b 6.431072
_cell_length_c 16.757049
_cell_angle_alpha 90.000000
_cell_angle_beta 88.960545
_cell_angle_gamma 90.000000
_cell_volume 557.852516
_symmetry_space_group_name_H-M "P 21/C"
_symmetry_group_IT_number 14
_symmetry_cell_setting 'monoclinic'
loop_
_space_group_symop_operation_xyz
x,y,z
-x,1/2+y,1/2-z
-x,-y,-z
x,1/2-y,1/2+z
loop_
_atom_site_type_symbol
_atom_site_label
_atom_site_fract_x
_atom_site_fract_y
_atom_site_fract_z
Si Si1 0.500000 0.500000 0.500000
Si Si2 0.263998 0.209459 0.685185
Si Si3 0.245628 0.591121 0.044521
Si Si4 0.768623 0.487514 0.651410
O O1 0.714202 0.334490 0.464292
O O2 0.709381 0.582301 0.566310
O O3 0.530057 0.322727 0.660253
O O4 0.030476 0.359942 0.661999
O O5 0.240298 0.999115 0.633908
O O6 0.254644 0.153815 0.777873
O O7 0.500000 0.500000 0.000000
O O8 0.000000 0.500000 0.000000
#
# Coordination Sequence:
#
# PCOD9253238 Si02
#       4
#     2   4   4   4
#     4  12  26  48  80 116 152 214 254 332 406 472
#     4  12  25  50  71 114 154 206 258 331 389 488
#     4  12  25  47  75 111 158 195 263 326 387 481
#     4  12  27  46  78 108 158 201 265 321 408 468
#
# _framework density 25.096238
#
# number of rings (size 3 to 8) (size 9 to 14) (size 15 to 20)
#    0.000    0.000    5.714    3.429    0.000    6.857 
#    0.000    0.000    0.000    0.000    0.000    0.000 
#    0.000    0.000    0.000    0.000    0.000    0.000 
#
# Total GULP energy -78033.592952 kJ/mol
# GULP energy per Si atom -5573.828068 kJ/mol
# Density = 2.503912 g / cm^3
# Si number density = 25.096238 Si / 1000 Ang^3
#
#
#
# Elastic Constant Matrix: (Units=GPa)
#
#
# Indices 1 2 3 4 5 6 
#
# 1 174.5193 55.7373 62.9303 0.0000 24.8148 0.0000
# 2 55.7373 85.8696 1.1759 0.0000 4.3967 0.0000
# 3 62.9303 1.1759 13.7066 0.0000 42.5018 0.0000
# 4 0.0000 0.0000 0.0000 28.0028 0.0000 22.6847
# 5 24.8148 4.3967 42.5018 0.0000 39.7272 0.0000
# 6 0.0000 0.0000 0.0000 22.6847 0.0000 33.2997
#
#
#
# Elastic Compliance Matrix: (Units=1/GPa)
#
#
# Indices 1 2 3 4 5 6 
#
# 1 0.005788 -0.003303 0.006997 0.000000 -0.010736 0.000000
# 2 -0.003303 0.013544 -0.005288 0.000000 0.006222 0.000000
# 3 0.006997 -0.005288 -0.022881 0.000000 0.020693 0.000000
# 4 0.000000 0.000000 0.000000 0.079685 0.000000 -0.054284
# 5 -0.010736 0.006222 0.020693 0.000000 0.009050 0.000000
# 6 0.000000 0.000000 0.000000 -0.054284 0.000000 0.067010
#
#
# Mechanical properties :
#
#
# Convention : Reuss Voigt Hill
#
# Bulk Modulus (GPa) = -148.43028 57.08696 -45.67166
# Shear Modulus (GPa) = 32.65000 30.48942 31.56971
#
# Velocity S-wave (km/s) = 3.61084 3.48932 3.55060
# Velocity P-wave (km/s) = 6.47214 6.24743 1.19545
#
# Compressibility (1/GPa) = -0.00673717
#
# Stress axis : x y z
#
# Youngs Moduli (GPa) = 172.75712 73.83555 -43.70491
#
# Poissons Ratio (x) = 0.24391 0.30581
# Poissons Ratio (y) = 0.57068 -0.23111
# Poissons Ratio (z) = -1.20880 0.39044
#
# Static dielectric constant tensor:
#      x y z
#    x 1.970390 0.000000 -0.072150 
#    y 0.000000 2.097610 0.000000 
#    z -0.072150 0.000000 2.092300 
# 
# From -- ./inp_files/52417.got.cif
#   From: 2010.05.17/outbox.cif.g08.bks.cpg/sg14_27_cif.got.tgz:52417.got - 2010.06.03 17:49:19.
