data_PCOD9253024
_publ_section_title
;
Structure prediction by ZEFSAII (Michael W. Deem and Ramdas Pophale) SiO2 
 PCOD9253024
Probable space group: P 21/C
;
_chemical_formula_sum "Si O2"
_cell_formula_units_Z 28
_cell_length_a 9.485136
_cell_length_b 10.857468
_cell_length_c 20.275723
_cell_angle_alpha 90.000000
_cell_angle_beta 40.912548
_cell_angle_gamma 90.000000
_cell_volume 1367.501023
_symmetry_space_group_name_H-M "P 21/C"
_symmetry_group_IT_number 14
_symmetry_cell_setting 'monoclinic'
loop_
_space_group_symop_operation_xyz
x,y,z
-x,1/2+y,1/2-z
-x,-y,-z
x,1/2-y,1/2+z
loop_
_atom_site_type_symbol
_atom_site_label
_atom_site_fract_x
_atom_site_fract_y
_atom_site_fract_z
Si Si1 0.152227 0.283344 0.778742
Si Si2 0.170724 0.142245 0.896858
Si Si3 0.067202 0.965410 0.366673
Si Si4 0.215789 0.030942 0.011744
Si Si5 0.779942 0.736658 0.898615
Si Si6 0.343310 0.776777 0.011067
Si Si7 0.822851 0.150577 0.547830
O O1 0.179491 0.427457 0.785452
O O2 0.896650 0.253764 0.879480
O O3 0.264074 0.204527 0.797819
O O4 0.195403 0.254609 0.688130
O O5 0.301510 0.086899 0.912067
O O6 0.007865 0.036750 0.928485
O O7 0.020559 0.251310 0.980835
O O8 0.928729 0.872453 0.371955
O O9 0.221960 0.894192 0.362868
O O10 0.902495 0.036830 0.474373
O O11 0.170607 0.140026 0.078325
O O12 0.357860 0.923352 0.994363
O O13 0.521666 0.720994 0.995846
O O14 0.353343 0.718133 0.934265
#
# Coordination Sequence:
#
# PCOD9253024 Si02
#       7
#     4   4   4   4   4   4   4
#     4   9  22  35  54  81 115 136 183 228 266 318
#     4   8  15  33  54  78 104 142 181 217 258 322
#     4   9  18  32  57  77 104 143 185 218 272 323
#     4   9  17  31  57  78 105 144 182 211 267 324
#     4  12  21  33  59  82 108 146 177 219 288 314
#     4   9  21  37  54  81 114 136 181 229 264 323
#     4   8  15  34  55  77 101 142 183 222 265 321
#
# _framework density 20.475304000000001
#
# number of rings (size 3 to 8) (size 9 to 14) (size 15 to 20)
#    0.000    3.429    1.429    0.429    4.000    2.286 
#    0.000    1.429    0.000    0.000    0.000    0.000 
#    0.000    0.000    0.000    0.000    0.000    0.000 
#
# Total GULP energy -155926.824573 kJ/mol
# GULP energy per Si atom -5568.815163 kJ/mol
# Density = 2.042870 g / cm^3
# Si number density = 20.475304 Si / 1000 Ang^3
#
#
#
# Elastic Constant Matrix: (Units=GPa)
#
#
# Indices 1 2 3 4 5 6 
#
# 1 71.4801 40.5282 14.0792 0.0000 18.4739 0.0000
# 2 40.5282 93.6764 11.4994 0.0000 14.3682 0.0000
# 3 14.0792 11.4994 50.6855 0.0000 17.2343 0.0000
# 4 0.0000 0.0000 0.0000 9.6353 0.0000 12.3977
# 5 18.4739 14.3682 17.2343 0.0000 26.0653 0.0000
# 6 0.0000 0.0000 0.0000 12.3977 0.0000 19.8280
#
#
#
# Elastic Compliance Matrix: (Units=1/GPa)
#
#
# Indices 1 2 3 4 5 6 
#
# 1 0.021002 -0.007417 -0.000619 0.000000 -0.010387 0.000000
# 2 -0.007417 0.014294 -0.000375 0.000000 -0.002374 0.000000
# 3 -0.000619 -0.000375 0.025500 0.000000 -0.016215 0.000000
# 4 0.000000 0.000000 0.000000 0.530937 0.000000 -0.331975
# 5 -0.010387 -0.002374 -0.016215 0.000000 0.057757 0.000000
# 6 0.000000 0.000000 0.000000 -0.331975 0.000000 0.258006
#
#
# Mechanical properties :
#
#
# Convention : Reuss Voigt Hill
#
# Bulk Modulus (GPa) = 22.74125 38.67285 30.70705
# Shear Modulus (GPa) = 5.32495 21.08808 13.20651
#
# Velocity S-wave (km/s) = 1.61441 3.21273 2.54243
# Velocity P-wave (km/s) = 3.82176 5.71758 4.86295
#
# Compressibility (1/GPa) = 0.04397296
#
# Stress axis : x y z
#
# Youngs Moduli (GPa) = 47.61511 69.95833 39.21560
#
# Poissons Ratio (x) = 0.51888 0.02428
# Poissons Ratio (y) = 0.35316 0.01472
# Poissons Ratio (z) = 0.02948 0.02626
#
# Static dielectric constant tensor:
#      x y z
#    x 1.757570 0.000000 -0.020390 
#    y 0.000000 1.752190 0.000000 
#    z -0.020390 0.000000 1.798960 
# 
# From -- ./inp_files/65396.got.cif
#   From: 2010.05.17/outbox.cif.g08.bks.cpg/sg14_33_cif.got.tgz:65396.got - 2010.06.03 17:49:19.
