data_PCOD9253444
_publ_section_title
;
Structure prediction by ZEFSAII (Michael W. Deem and Ramdas Pophale) SiO2 
 PCOD9253444
Probable space group: P 21/C
;
_chemical_formula_sum "Si O2"
_cell_formula_units_Z 20
_cell_length_a 6.849953
_cell_length_b 13.461560
_cell_length_c 10.363778
_cell_angle_alpha 90.000000
_cell_angle_beta 48.674417
_cell_angle_gamma 90.000000
_cell_volume 717.667541
_symmetry_space_group_name_H-M "P 21/C"
_symmetry_group_IT_number 14
_symmetry_cell_setting 'monoclinic'
loop_
_space_group_symop_operation_xyz
x,y,z
-x,1/2+y,1/2-z
-x,-y,-z
x,1/2-y,1/2+z
loop_
_atom_site_type_symbol
_atom_site_label
_atom_site_fract_x
_atom_site_fract_y
_atom_site_fract_z
Si Si1 0.436129 0.526072 0.822075
Si Si2 0.909099 0.626307 0.161807
Si Si3 0.797245 0.192111 0.043019
Si Si4 0.336744 0.675195 0.665517
Si Si5 0.011078 0.478118 0.316999
O O1 0.815680 0.420518 0.007133
O O2 0.681608 0.519762 0.806072
O O3 0.325455 0.422714 0.815130
O O4 0.508725 0.599148 0.671749
O O5 0.901738 0.581042 0.308539
O O6 0.956686 0.741110 0.111929
O O7 0.595549 0.206871 0.010219
O O8 0.878273 0.077377 0.997592
O O9 0.719905 0.234037 0.214893
O O10 0.083594 0.604587 0.748627
#
# Coordination Sequence:
#
# PCOD9253444 Si02
#       5
#     4   4   4   4   4
#     4   9  16  32  52  76  99 129 175 217 240 286
#     4   9  17  31  51  76 101 132 169 211 247 294
#     4   9  18  35  51  73 107 133 164 208 255 294
#     4   8  18  34  49  73 103 133 163 209 249 297
#     4   9  18  32  52  77 102 129 172 213 245 294
#
# _framework density 27.86806
#
# number of rings (size 3 to 8) (size 9 to 14) (size 15 to 20)
#    1.200    2.000    0.000    1.800    0.000    0.000 
#   10.800    1.000    0.000    1.200    0.000    0.000 
#    0.000    0.000    0.000    0.000    0.000    0.000 
#
# Total GULP energy -111858.439050 kJ/mol
# GULP energy per Si atom -5592.921953 kJ/mol
# Density = 2.780463 g / cm^3
# Si number density = 27.868060 Si / 1000 Ang^3
#
#
#
# Elastic Constant Matrix: (Units=GPa)
#
#
# Indices 1 2 3 4 5 6 
#
# 1 171.8379 35.1911 10.4867 0.0000 -1.1468 0.0000
# 2 35.1911 144.3298 26.8301 0.0000 11.7104 0.0000
# 3 10.4867 26.8301 134.8191 0.0000 -6.2995 0.0000
# 4 0.0000 0.0000 0.0000 48.7921 0.0000 15.5374
# 5 -1.1468 11.7104 -6.2995 0.0000 28.1206 0.0000
# 6 0.0000 0.0000 0.0000 15.5374 0.0000 52.1558
#
#
#
# Elastic Compliance Matrix: (Units=1/GPa)
#
#
# Indices 1 2 3 4 5 6 
#
# 1 0.006150 -0.001545 -0.000130 0.000000 0.000865 0.000000
# 2 -0.001545 0.007910 -0.001628 0.000000 -0.003722 0.000000
# 3 -0.000130 -0.001628 0.007865 0.000000 0.002435 0.000000
# 4 0.000000 0.000000 0.000000 0.022643 0.000000 -0.006745
# 5 0.000865 -0.003722 0.002435 0.000000 0.037692 0.000000
# 6 0.000000 0.000000 0.000000 -0.006745 0.000000 0.021183
#
#
# Mechanical properties :
#
#
# Convention : Reuss Voigt Hill
#
# Bulk Modulus (GPa) = 65.28442 66.22253 65.75347
# Shear Modulus (GPa) = 43.41957 51.04562 47.23260
#
# Velocity S-wave (km/s) = 3.95148 4.28447 4.12134
# Velocity P-wave (km/s) = 6.65553 6.94910 6.80390
#
# Compressibility (1/GPa) = 0.01531759
#
# Stress axis : x y z
#
# Youngs Moduli (GPa) = 162.61074 126.42306 127.14243
#
# Poissons Ratio (x) = 0.19537 0.01658
# Poissons Ratio (y) = 0.25130 0.20697
# Poissons Ratio (z) = 0.02120 0.20580
#
# Static dielectric constant tensor:
#      x y z
#    x 2.160610 0.000000 0.040030 
#    y 0.000000 2.159130 0.000000 
#    z 0.040030 0.000000 2.388280 
# 
# From -- ./inp_files/20621.got.cif
#   From: 2010.05.17/outbox.cif.g08.bks.cpg/sg14_11_cif.got.tgz:20621.got - 2010.06.03 17:49:19.
