data_PCOD9253528
_publ_section_title
;
Structure prediction by ZEFSAII (Michael W. Deem and Ramdas Pophale) SiO2 
 PCOD9253528
Probable space group: P 21/C
;
_chemical_formula_sum "Si O2"
_cell_formula_units_Z 32
_cell_length_a 12.000000
_cell_length_b 9.000000
_cell_length_c 24.000000
_cell_angle_alpha 90.000000
_cell_angle_beta 40.000000
_cell_angle_gamma 90.000000
_cell_volume 1666.105484
_symmetry_space_group_name_H-M "P 21/C"
_symmetry_group_IT_number 14
_symmetry_cell_setting 'monoclinic'
loop_
_space_group_symop_operation_xyz
x,y,z
-x,1/2+y,1/2-z
-x,-y,-z
x,1/2-y,1/2+z
loop_
_atom_site_type_symbol
_atom_site_label
_atom_site_fract_x
_atom_site_fract_y
_atom_site_fract_z
Si Si1 0.605680 0.651371 0.144049
Si Si2 0.100485 0.623576 0.263984
Si Si3 0.494454 0.840674 0.569139
Si Si4 0.128999 0.276666 0.244604
Si Si5 0.127766 0.107619 0.363536
Si Si6 0.481622 0.810677 0.448515
Si Si7 0.243082 0.664878 0.943092
Si Si8 0.226471 0.763779 0.325638
O O1 0.607188 0.714475 0.079452
O O2 0.748906 0.685477 0.136784
O O3 0.633110 0.473248 0.123618
O O4 0.419237 0.701301 0.238986
O O5 0.296839 0.650652 0.166547
O O6 0.068528 0.446967 0.275787
O O7 0.102625 0.686290 0.326656
O O8 0.976135 0.702127 0.266328
O O9 0.488936 0.761894 0.510734
O O10 0.554766 0.011022 0.535314
O O11 0.115992 0.190496 0.308574
O O12 0.330118 0.283216 0.149599
O O13 0.936475 0.100149 0.463933
O O14 0.201953 0.941231 0.325660
O O15 0.340709 0.754112 0.457201
O O16 0.201220 0.754554 0.902227
#
# Coordination Sequence:
#
# PCOD9253528 Si02
#       8
#     4   4   4   4   4   4   4   4
#     4   9  18  32  55  86 115 146 194 246 291 339
#     4  10  21  36  57  83 116 153 196 247 300 356
#     4   8  16  31  52  79 108 143 187 237 287 343
#     4  11  22  37  59  88 119 156 197 246 304 361
#     4  11  22  37  61  87 119 161 205 245 294 359
#     4   9  17  31  55  82 110 146 192 241 286 340
#     4  10  20  36  59  88 120 160 206 242 289 362
#     4  10  20  36  59  86 117 154 202 252 295 350
#
# _framework density 19.206467
#
# number of rings (size 3 to 8) (size 9 to 14) (size 15 to 20)
#    0.000    2.250    0.000    4.500    0.000    7.000 
#    0.000    0.625    0.000   25.500    0.000    0.000 
#    0.000    0.000    0.000    0.000    0.000    0.000 
#
# Total GULP energy -178303.152326 kJ/mol
# GULP energy per Si atom -5571.973510 kJ/mol
# Density = 1.916275 g / cm^3
# Si number density = 19.206467 Si / 1000 Ang^3
#
#
#
# Elastic Constant Matrix: (Units=GPa)
#
#
# Indices 1 2 3 4 5 6 
#
# 1 191.0967 31.2960 13.0885 0.0000 22.4970 0.0000
# 2 31.2960 44.3778 7.2154 0.0000 -3.5020 0.0000
# 3 13.0885 7.2154 49.8546 0.0000 7.5520 0.0000
# 4 0.0000 0.0000 0.0000 21.3761 0.0000 -2.2287
# 5 22.4970 -3.5020 7.5520 0.0000 44.3198 0.0000
# 6 0.0000 0.0000 0.0000 -2.2287 0.0000 29.6239
#
#
#
# Elastic Compliance Matrix: (Units=1/GPa)
#
#
# Indices 1 2 3 4 5 6 
#
# 1 0.006467 -0.004768 -0.000466 0.000000 -0.003580 0.000000
# 2 -0.004768 0.026855 -0.003411 0.000000 0.005123 0.000000
# 3 -0.000466 -0.003411 0.021227 0.000000 -0.003650 0.000000
# 4 0.000000 0.000000 0.000000 0.047151 0.000000 0.003547
# 5 -0.003580 0.005123 -0.003650 0.000000 0.025407 0.000000
# 6 0.000000 0.000000 0.000000 0.003547 0.000000 0.034023
#
#
# Mechanical properties :
#
#
# Convention : Reuss Voigt Hill
#
# Bulk Modulus (GPa) = 26.83785 43.16988 35.00387
# Shear Modulus (GPa) = 26.20002 34.64591 30.42296
#
# Velocity S-wave (km/s) = 3.69741 4.25180 3.98426
# Velocity P-wave (km/s) = 5.67728 6.82857 6.27936
#
# Compressibility (1/GPa) = 0.03726081
#
# Stress axis : x y z
#
# Youngs Moduli (GPa) = 154.62908 37.23719 47.10941
#
# Poissons Ratio (x) = 0.17753 0.02193
# Poissons Ratio (y) = 0.73720 0.16070
# Poissons Ratio (z) = 0.07198 0.12702
#
# Static dielectric constant tensor:
#      x y z
#    x 1.728580 0.000000 0.017290 
#    y 0.000000 1.663510 0.000000 
#    z 0.017290 0.000000 1.672110 
# 
# From -- ./inp_files/73090.got.cif
#   From: 2010.05.17/outbox.ucp.g08.bks.cvg/sg14_37_cif.got.tgz:73090.got - 2010.06.11 12:31:08.
