data_PCOD9253421
_publ_section_title
;
Structure prediction by ZEFSAII (Michael W. Deem and Ramdas Pophale) SiO2 
 PCOD9253421
Probable space group: P 21/C
;
_chemical_formula_sum "Si O2"
_cell_formula_units_Z 16
_cell_length_a 5.198071
_cell_length_b 23.531613
_cell_length_c 4.782911
_cell_angle_alpha 90.000000
_cell_angle_beta 82.475072
_cell_angle_gamma 90.000000
_cell_volume 580.002483
_symmetry_space_group_name_H-M "P 21/C"
_symmetry_group_IT_number 14
_symmetry_cell_setting 'monoclinic'
loop_
_space_group_symop_operation_xyz
x,y,z
-x,1/2+y,1/2-z
-x,-y,-z
x,1/2-y,1/2+z
loop_
_atom_site_type_symbol
_atom_site_label
_atom_site_fract_x
_atom_site_fract_y
_atom_site_fract_z
Si Si1 0.069791 0.446574 0.792553
Si Si2 0.577931 0.943589 0.315256
Si Si3 0.241738 0.210798 0.097774
Si Si4 0.246347 0.634970 0.499081
O O1 0.247201 0.457964 0.489000
O O2 0.820995 0.414047 0.714780
O O3 0.243541 0.410338 0.985044
O O4 0.000000 0.500000 0.000000
O O5 0.500000 0.000000 0.500000
O O6 0.345941 0.904880 0.236033
O O7 0.217700 0.232267 0.416733
O O8 0.519949 0.179953 0.046450
O O9 0.018190 0.170410 0.004983
#
# Coordination Sequence:
#
# PCOD9253421 Si02
#       4
#     4   4   4   4
#     4  12  31  52  84 128 187 242 293 353 443 551
#     4  12  31  52  84 128 187 242 293 353 443 551
#     4  12  30  58  91 126 166 229 308 382 448 516
#     4  12  30  58  91 128 182 229 296 372 456 522
#
# _framework density 27.586089000000001
#
# number of rings (size 3 to 8) (size 9 to 14) (size 15 to 20)
#    0.000    0.000    2.500    3.000   14.000    4.000 
#    0.000    0.000    0.000    0.000    0.000    0.000 
#    0.000    0.000    0.000    0.000    0.000    0.000 
#
# Total GULP energy -89538.072624 kJ/mol
# GULP energy per Si atom -5596.129539 kJ/mol
# Density = 2.752330 g / cm^3
# Si number density = 27.586089 Si / 1000 Ang^3
#
#
#
# Elastic Constant Matrix: (Units=GPa)
#
#
# Indices 1 2 3 4 5 6 
#
# 1 203.3924 39.0746 59.6112 0.0000 53.4865 0.0000
# 2 39.0746 120.2303 30.3773 0.0000 5.2561 0.0000
# 3 59.6112 30.3773 207.7942 0.0000 20.6627 0.0000
# 4 0.0000 0.0000 0.0000 44.3073 0.0000 8.2297
# 5 53.4865 5.2561 20.6627 0.0000 73.9779 0.0000
# 6 0.0000 0.0000 0.0000 8.2297 0.0000 57.7524
#
#
#
# Elastic Compliance Matrix: (Units=1/GPa)
#
#
# Indices 1 2 3 4 5 6 
#
# 1 0.006773 -0.001691 -0.001256 0.000000 -0.004426 0.000000
# 2 -0.001691 0.009063 -0.000923 0.000000 0.000836 0.000000
# 3 -0.001256 -0.000923 0.005360 0.000000 -0.000523 0.000000
# 4 0.000000 0.000000 0.000000 0.023183 0.000000 -0.003304
# 5 -0.004426 0.000836 -0.000523 0.000000 0.016805 0.000000
# 6 0.000000 0.000000 0.000000 -0.003304 0.000000 0.017786
#
#
# Mechanical properties :
#
#
# Convention : Reuss Voigt Hill
#
# Bulk Modulus (GPa) = 74.30759 87.72699 81.01729
# Shear Modulus (GPa) = 54.82720 62.03112 58.42916
#
# Velocity S-wave (km/s) = 4.46297 4.74712 4.60724
# Velocity P-wave (km/s) = 7.31796 7.86874 7.59834
#
# Compressibility (1/GPa) = 0.01345757
#
# Stress axis : x y z
#
# Youngs Moduli (GPa) = 147.63482 110.33290 186.57648
#
# Poissons Ratio (x) = 0.18652 0.23431
# Poissons Ratio (y) = 0.24958 0.17224
# Poissons Ratio (z) = 0.18541 0.10185
#
# Static dielectric constant tensor:
#      x y z
#    x 2.573610 0.000000 -0.080800 
#    y 0.000000 2.241280 0.000000 
#    z -0.080800 0.000000 2.195890 
# 
# From -- ./inp_files/292.got.cif
#   From: 2010.05.17/outbox.cif.g08.bks.cpg/sg14_1_cif.got.tgz:292.got - 2010.06.03 17:49:19.
