data_PCOD9253321
_publ_section_title
;
Structure prediction by ZEFSAII (Michael W. Deem and Ramdas Pophale) SiO2 
 PCOD9253321
Probable space group: P 21/C
;
_chemical_formula_sum "Si O2"
_cell_formula_units_Z 16
_cell_length_a 17.886267
_cell_length_b 8.702807
_cell_length_c 16.582676
_cell_angle_alpha 90.000000
_cell_angle_beta 15.178229
_cell_angle_gamma 90.000000
_cell_volume 675.834884
_symmetry_space_group_name_H-M "P 21/C"
_symmetry_group_IT_number 14
_symmetry_cell_setting 'monoclinic'
loop_
_space_group_symop_operation_xyz
x,y,z
-x,1/2+y,1/2-z
-x,-y,-z
x,1/2-y,1/2+z
loop_
_atom_site_type_symbol
_atom_site_label
_atom_site_fract_x
_atom_site_fract_y
_atom_site_fract_z
Si Si1 0.930561 0.782183 0.734555
Si Si2 0.541001 0.147784 0.902740
Si Si3 0.783896 0.107092 0.275151
Si Si4 0.196350 0.442848 0.472434
O O1 0.215659 0.876963 0.417395
O O2 0.037359 0.608270 0.641083
O O3 0.775883 0.860351 0.971006
O O4 0.734837 0.796977 0.859034
O O5 0.658818 0.273722 0.842133
O O6 0.500000 0.000000 0.000000
O O7 0.496840 0.962069 0.389392
O O8 0.990696 0.164162 0.131338
O O9 0.000000 0.000000 0.000000
#
# Coordination Sequence:
#
# PCOD9253321 Si02
#       4
#     4   4   4   4
#     4  12  28  49  76 115 153 202 251 317 392 462
#     4  12  28  48  79 111 157 197 263 322 381 455
#     4  12  26  49  80 109 147 208 259 314 378 464
#     4  12  28  47  80 111 156 200 257 316 392 464
#
# _framework density 23.674420999999999
#
# number of rings (size 3 to 8) (size 9 to 14) (size 15 to 20)
#    0.000    0.000    2.500    6.000    7.000    0.000 
#    0.000    0.000    0.000    0.000    0.000    0.000 
#    0.000    0.000    0.000    0.000    0.000    0.000 
#
# Total GULP energy -89623.023704 kJ/mol
# GULP energy per Si atom -5601.438981 kJ/mol
# Density = 2.362054 g / cm^3
# Si number density = 23.674421 Si / 1000 Ang^3
#
#
#
# Elastic Constant Matrix: (Units=GPa)
#
#
# Indices 1 2 3 4 5 6 
#
# 1 146.5829 71.5563 54.3829 0.0000 -8.2207 0.0000
# 2 71.5563 110.7746 66.5607 0.0000 13.9491 0.0000
# 3 54.3829 66.5607 172.7390 0.0000 1.0032 0.0000
# 4 0.0000 0.0000 0.0000 24.9467 0.0000 5.5405
# 5 -8.2207 13.9491 1.0032 0.0000 54.2965 0.0000
# 6 0.0000 0.0000 0.0000 5.5405 0.0000 34.6432
#
#
#
# Elastic Compliance Matrix: (Units=1/GPa)
#
#
# Indices 1 2 3 4 5 6 
#
# 1 0.010627 -0.006856 -0.000724 0.000000 0.003384 0.000000
# 2 -0.006856 0.016657 -0.004230 0.000000 -0.005239 0.000000
# 3 -0.000724 -0.004230 0.007642 0.000000 0.000836 0.000000
# 4 0.000000 0.000000 0.000000 0.041562 0.000000 -0.006647
# 5 0.003384 -0.005239 0.000836 0.000000 0.020260 0.000000
# 6 0.000000 0.000000 0.000000 -0.006647 0.000000 0.029929
#
#
# Mechanical properties :
#
#
# Convention : Reuss Voigt Hill
#
# Bulk Modulus (GPa) = 88.43439 90.56624 89.50031
# Shear Modulus (GPa) = 32.45394 38.61706 35.53550
#
# Velocity S-wave (km/s) = 3.70651 4.04316 3.87849
# Velocity P-wave (km/s) = 7.46680 7.75462 7.61207
#
# Compressibility (1/GPa) = 0.01130782
#
# Stress axis : x y z
#
# Youngs Moduli (GPa) = 94.09842 60.03395 130.85981
#
# Poissons Ratio (x) = 0.41160 0.09468
# Poissons Ratio (y) = 0.64515 0.55348
# Poissons Ratio (z) = 0.06808 0.25392
#
# Static dielectric constant tensor:
#      x y z
#    x 1.915270 0.000000 0.004170 
#    y 0.000000 1.937830 0.000000 
#    z 0.004170 0.000000 1.899990 
# 
# From -- ./inp_files/60087.got.cif
#   From: 2010.05.17/outbox.cif.g08.bks.cpg/sg14_31_cif.got.tgz:60087.got - 2010.06.03 17:49:19.
