data_PCOD9253128
_publ_section_title
;
Structure prediction by ZEFSAII (Michael W. Deem and Ramdas Pophale) SiO2 
 PCOD9253128
Probable space group: P 21/C
;
_chemical_formula_sum "Si O2"
_cell_formula_units_Z 20
_cell_length_a 18.046524
_cell_length_b 5.443237
_cell_length_c 9.378639
_cell_angle_alpha 90.000000
_cell_angle_beta 106.135796
_cell_angle_gamma 90.000000
_cell_volume 884.984759
_symmetry_space_group_name_H-M "P 21/C"
_symmetry_group_IT_number 14
_symmetry_cell_setting 'monoclinic'
loop_
_space_group_symop_operation_xyz
x,y,z
-x,1/2+y,1/2-z
-x,-y,-z
x,1/2-y,1/2+z
loop_
_atom_site_type_symbol
_atom_site_label
_atom_site_fract_x
_atom_site_fract_y
_atom_site_fract_z
Si Si1 0.172326 0.984874 0.632463
Si Si2 0.896966 0.207310 0.656149
Si Si3 0.407411 0.506451 0.954005
Si Si4 0.944336 0.675905 0.380802
Si Si5 0.353448 0.490726 0.259144
O O1 0.112496 0.186766 0.542320
O O2 0.127590 0.924570 0.753265
O O3 0.158924 0.777612 0.507799
O O4 0.260779 0.029557 0.703394
O O5 0.987037 0.186496 0.665420
O O6 0.886004 0.971781 0.750028
O O7 0.377821 0.757342 0.857422
O O8 0.381308 0.256715 0.856670
O O9 0.500000 0.500000 0.000000
O O10 0.381761 0.502356 0.108087
O O11 0.000000 0.500000 0.500000
#
# Coordination Sequence:
#
# PCOD9253128 Si02
#       5
#     4   4   4   4   4
#     4  12  28  41  69  98 144 180 240 308 358 430
#     4  12  24  44  63  96 132 188 242 294 356 416
#     4  12  26  53  82 116 154 199 248 303 379 479
#     4  12  24  41  66  93 133 185 246 295 356 418
#     4  12  28  47  80 118 155 199 248 314 388 444
#
# _framework density 22.599257000000001
#
# number of rings (size 3 to 8) (size 9 to 14) (size 15 to 20)
#    0.000    0.000    4.000    6.000    5.600    0.000 
#    0.000    0.000    0.000    0.000    0.000    0.000 
#    0.000    0.000    0.000    0.000    0.000    0.000 
#
# Total GULP energy -111558.744498 kJ/mol
# GULP energy per Si atom -5577.937225 kJ/mol
# Density = 2.254782 g / cm^3
# Si number density = 22.599257 Si / 1000 Ang^3
#
#
#
# Elastic Constant Matrix: (Units=GPa)
#
#
# Indices 1 2 3 4 5 6 
#
# 1 191.8026 43.9035 64.6895 0.0000 29.2870 0.0000
# 2 43.9035 132.1871 69.8761 0.0000 9.2524 0.0000
# 3 64.6895 69.8761 164.3705 0.0000 -4.7431 0.0000
# 4 0.0000 0.0000 0.0000 48.0718 0.0000 9.2916
# 5 29.2870 9.2524 -4.7431 0.0000 36.5476 0.0000
# 6 0.0000 0.0000 0.0000 9.2916 0.0000 24.7924
#
#
#
# Elastic Compliance Matrix: (Units=1/GPa)
#
#
# Indices 1 2 3 4 5 6 
#
# 1 0.007183 -0.000491 -0.002791 0.000000 -0.005994 0.000000
# 2 -0.000491 0.010135 -0.004194 0.000000 -0.002717 0.000000
# 3 -0.002791 -0.004194 0.009094 0.000000 0.004479 0.000000
# 4 0.000000 0.000000 0.000000 0.022427 0.000000 -0.008405
# 5 -0.005994 -0.002717 0.004479 0.000000 0.033434 0.000000
# 6 0.000000 0.000000 0.000000 -0.008405 0.000000 0.043485
#
#
# Mechanical properties :
#
#
# Convention : Reuss Voigt Hill
#
# Bulk Modulus (GPa) = 87.25390 93.92205 90.58797
# Shear Modulus (GPa) = 34.59514 42.54178 38.56846
#
# Velocity S-wave (km/s) = 3.91680 4.34342 4.13561
# Velocity P-wave (km/s) = 7.69078 8.17335 7.93574
#
# Compressibility (1/GPa) = 0.01146081
#
# Stress axis : x y z
#
# Youngs Moduli (GPa) = 139.22604 98.66703 109.95741
#
# Poissons Ratio (x) = 0.04840 0.30691
# Poissons Ratio (y) = 0.06830 0.46115
# Poissons Ratio (z) = 0.38860 0.41380
#
# Static dielectric constant tensor:
#      x y z
#    x 1.889700 0.000000 -0.153540 
#    y 0.000000 2.471540 0.000000 
#    z -0.153540 0.000000 2.217280 
# 
# From -- ./inp_files/17286.got.cif
#   From: 2010.05.17/outbox.cif.g08.bks.cpg/sg14_9_cif.got.tgz:17286.got - 2010.06.03 17:49:19.
