data_PCOD9253474
_publ_section_title
;
Structure prediction by ZEFSAII (Michael W. Deem and Ramdas Pophale) SiO2 
 PCOD9253474
Probable space group: P 21/C
;
_chemical_formula_sum "Si O2"
_cell_formula_units_Z 28
_cell_length_a 15.000000
_cell_length_b 9.000000
_cell_length_c 21.000000
_cell_angle_alpha 90.000000
_cell_angle_beta 30.000000
_cell_angle_gamma 90.000000
_cell_volume 1417.500000
_symmetry_space_group_name_H-M "P 21/C"
_symmetry_group_IT_number 14
_symmetry_cell_setting 'monoclinic'
loop_
_space_group_symop_operation_xyz
x,y,z
-x,1/2+y,1/2-z
-x,-y,-z
x,1/2-y,1/2+z
loop_
_atom_site_type_symbol
_atom_site_label
_atom_site_fract_x
_atom_site_fract_y
_atom_site_fract_z
Si Si1 0.829550 0.253861 0.423484
Si Si2 0.721518 0.321667 0.126274
Si Si3 0.076931 0.006245 0.228231
Si Si4 0.255711 0.541465 0.750477
Si Si5 0.397141 0.264172 0.503313
Si Si6 0.499140 0.051052 0.327688
Si Si7 0.422464 0.220799 0.636374
O O1 0.844393 0.239897 0.491460
O O2 0.930767 0.385320 0.323273
O O3 0.622033 0.269393 0.533728
O O4 0.901215 0.102137 0.348456
O O5 0.794848 0.394721 0.147546
O O6 0.607621 0.178687 0.221895
O O7 0.609321 0.450579 0.157248
O O8 0.128755 0.941510 0.266536
O O9 0.229828 0.124439 0.112857
O O10 0.433280 0.631599 0.619205
O O11 0.299756 0.364768 0.727200
O O12 0.391019 0.143723 0.449553
O O13 0.418365 0.197982 0.562056
O O14 0.609683 0.928251 0.301529
#
# Coordination Sequence:
#
# PCOD9253474 Si02
#       7
#     4   4   4   4   4   4   4
#     4  11  23  38  58  86 125 155 196 245 296 363
#     4  10  22  37  57  88 122 157 198 246 299 355
#     4  11  23  39  62  86 122 160 197 243 299 356
#     4  10  19  41  66  86 116 160 199 250 295 345
#     4  10  19  37  65  88 114 157 202 255 287 343
#     4  10  21  32  59  89 120 151 194 252 299 343
#     4  10  18  37  61  94 117 145 204 249 295 346
#
# _framework density 19.753086
#
# number of rings (size 3 to 8) (size 9 to 14) (size 15 to 20)
#    0.000    1.714    2.857    3.000    6.000    0.571 
#    0.000    0.000    0.000    4.286    0.000    0.000 
#    0.000    0.000    0.000    0.000    0.000    0.000 
#
# Total GULP energy -156185.746759 kJ/mol
# GULP energy per Si atom -5578.062384 kJ/mol
# Density = 1.970813 g / cm^3
# Si number density = 19.753086 Si / 1000 Ang^3
#
#
#
# Elastic Constant Matrix: (Units=GPa)
#
#
# Indices 1 2 3 4 5 6 
#
# 1 91.3233 41.7866 35.9874 0.0000 48.2804 0.0000
# 2 41.7866 120.6215 26.6474 0.0000 29.3231 0.0000
# 3 35.9874 26.6474 50.4868 0.0000 36.2405 0.0000
# 4 0.0000 0.0000 0.0000 39.1683 0.0000 18.6037
# 5 48.2804 29.3231 36.2405 0.0000 45.2170 0.0000
# 6 0.0000 0.0000 0.0000 18.6037 0.0000 48.7259
#
#
#
# Elastic Compliance Matrix: (Units=1/GPa)
#
#
# Indices 1 2 3 4 5 6 
#
# 1 0.026136 -0.002810 0.003714 0.000000 -0.029061 0.000000
# 2 -0.002810 0.010189 -0.001850 0.000000 -0.002125 0.000000
# 3 0.003714 -0.001850 0.047381 0.000000 -0.040741 0.000000
# 4 0.000000 0.000000 0.000000 0.031186 0.000000 -0.011907
# 5 -0.029061 -0.002125 -0.040741 0.000000 0.087176 0.000000
# 6 0.000000 0.000000 0.000000 -0.011907 0.000000 0.025069
#
#
# Mechanical properties :
#
#
# Convention : Reuss Voigt Hill
#
# Bulk Modulus (GPa) = 12.22282 52.36382 32.29332
# Shear Modulus (GPa) = 19.50829 37.15625 28.33227
#
# Velocity S-wave (km/s) = 3.14603 4.34180 3.79135
# Velocity P-wave (km/s) = 4.40431 7.19039 5.96236
#
# Compressibility (1/GPa) = 0.08181418
#
# Stress axis : x y z
#
# Youngs Moduli (GPa) = 38.26078 98.14516 21.10562
#
# Poissons Ratio (x) = 0.27579 -0.07838
# Poissons Ratio (y) = 0.10751 0.03904
# Poissons Ratio (z) = -0.14209 0.18155
#
# Static dielectric constant tensor:
#      x y z
#    x 1.697370 0.000000 -0.008760 
#    y 0.000000 1.714070 0.000000 
#    z -0.008760 0.000000 1.716890 
# 
# From -- ./inp_files/62629.got.cif
#   From: 2010.05.17/outbox.ucp.g08.bks.cvg/sg14_32_cif.got.tgz:62629.got - 2010.06.11 12:31:08.
