data_PCOD9253675
_publ_section_title
;
Structure prediction by ZEFSAII (Michael W. Deem and Ramdas Pophale) SiO2 
 PCOD9253675
Probable space group: P 21/C
;
_chemical_formula_sum "Si O2"
_cell_formula_units_Z 28
_cell_length_a 21.000000
_cell_length_b 9.000000
_cell_length_c 15.000000
_cell_angle_alpha 90.000000
_cell_angle_beta 30.000000
_cell_angle_gamma 90.000000
_cell_volume 1417.500000
_symmetry_space_group_name_H-M "P 21/C"
_symmetry_group_IT_number 14
_symmetry_cell_setting 'monoclinic'
loop_
_space_group_symop_operation_xyz
x,y,z
-x,1/2+y,1/2-z
-x,-y,-z
x,1/2-y,1/2+z
loop_
_atom_site_type_symbol
_atom_site_label
_atom_site_fract_x
_atom_site_fract_y
_atom_site_fract_z
Si Si1 0.250788 0.251993 0.566391
Si Si2 0.647541 0.959115 0.217352
Si Si3 0.855450 0.194867 0.968197
Si Si4 0.642761 0.543072 0.929200
Si Si5 0.105274 0.460058 0.104825
Si Si6 0.078374 0.364515 0.943300
Si Si7 0.896434 0.370475 0.624486
O O1 0.302202 0.365034 0.428371
O O2 0.358327 0.170760 0.494823
O O3 0.176285 0.131613 0.596082
O O4 0.163289 0.311913 0.755247
O O5 0.676900 0.907605 0.285096
O O6 0.495134 0.968972 0.402071
O O7 0.717414 0.119100 0.125112
O O8 0.871361 0.363838 0.917110
O O9 0.957420 0.083716 0.799099
O O10 0.885061 0.193652 0.038298
O O11 0.758012 0.432576 0.815685
O O12 0.143608 0.407150 0.958050
O O13 0.000000 0.500000 0.000000
O O14 0.966727 0.247282 0.100892
O O15 0.000000 0.500000 0.500000
#
# Coordination Sequence:
#
# PCOD9253675 Si02
#       7
#     4   4   4   4   4   4   4
#     4  12  24  43  64 100 130 171 219 276 329 391
#     4  10  24  46  69  91 134 179 223 270 322 400
#     4  11  23  40  61  95 130 171 217 271 330 392
#     4  10  23  45  70  92 130 178 226 263 330 397
#     4  12  24  38  65  98 136 166 219 279 335 393
#     4  12  23  40  61  99 134 164 208 277 336 387
#     4  11  21  40  66  92 123 167 217 263 331 393
#
# _framework density 19.753086
#
# number of rings (size 3 to 8) (size 9 to 14) (size 15 to 20)
#    0.000    0.857    4.286    2.571    6.000    1.143 
#    2.571    0.000    0.000    5.143    0.000    0.000 
#    0.000    0.000    0.000    0.000    0.000    0.000 
#
# Total GULP energy -156196.423454 kJ/mol
# GULP energy per Si atom -5578.443695 kJ/mol
# Density = 1.970813 g / cm^3
# Si number density = 19.753086 Si / 1000 Ang^3
#
#
#
# Elastic Constant Matrix: (Units=GPa)
#
#
# Indices 1 2 3 4 5 6 
#
# 1 100.8561 35.9534 39.3819 0.0000 23.8234 0.0000
# 2 35.9534 104.1772 39.7466 0.0000 -1.0986 0.0000
# 3 39.3819 39.7466 103.7175 0.0000 5.3321 0.0000
# 4 0.0000 0.0000 0.0000 22.6543 0.0000 8.2719
# 5 23.8234 -1.0986 5.3321 0.0000 46.3789 0.0000
# 6 0.0000 0.0000 0.0000 8.2719 0.0000 35.8887
#
#
#
# Elastic Compliance Matrix: (Units=1/GPa)
#
#
# Indices 1 2 3 4 5 6 
#
# 1 0.014292 -0.003600 -0.003687 0.000000 -0.007003 0.000000
# 2 -0.003600 0.012177 -0.003430 0.000000 0.002532 0.000000
# 3 -0.003687 -0.003430 0.012336 0.000000 0.000395 0.000000
# 4 0.000000 0.000000 0.000000 0.048198 0.000000 -0.011109
# 5 -0.007003 0.002532 0.000395 0.000000 0.025173 0.000000
# 6 0.000000 0.000000 0.000000 -0.011109 0.000000 0.030424
#
#
# Mechanical properties :
#
#
# Convention : Reuss Voigt Hill
#
# Bulk Modulus (GPa) = 57.56621 59.87939 58.72280
# Shear Modulus (GPa) = 29.44228 33.89565 31.66896
#
# Velocity S-wave (km/s) = 3.86491 4.14692 4.00839
# Velocity P-wave (km/s) = 7.00877 7.30130 7.15653
#
# Compressibility (1/GPa) = 0.01737130
#
# Stress axis : x y z
#
# Youngs Moduli (GPa) = 69.96785 82.12529 81.06539
#
# Poissons Ratio (x) = 0.29561 0.29892
# Poissons Ratio (y) = 0.25185 0.27803
# Poissons Ratio (z) = 0.25800 0.28166
#
# Static dielectric constant tensor:
#      x y z
#    x 1.702540 0.000000 0.007520 
#    y 0.000000 1.714090 0.000000 
#    z 0.007520 0.000000 1.692540 
# 
# From -- ./inp_files/50212.got.cif
#   From: 2010.05.17/outbox.ucp.g08.bks.cvg/sg14_26_cif.got.tgz:50212.got - 2010.06.11 12:31:08.
