data_PCOD9253448
_publ_section_title
;
Structure prediction by ZEFSAII (Michael W. Deem and Ramdas Pophale) SiO2 
 PCOD9253448
Probable space group: P 21/C
;
_chemical_formula_sum "Si O2"
_cell_formula_units_Z 24
_cell_length_a 12.436502
_cell_length_b 12.340727
_cell_length_c 13.582455
_cell_angle_alpha 90.000000
_cell_angle_beta 149.863310
_cell_angle_gamma 90.000000
_cell_volume 1046.590776
_symmetry_space_group_name_H-M "P 21/C"
_symmetry_group_IT_number 14
_symmetry_cell_setting 'monoclinic'
loop_
_space_group_symop_operation_xyz
x,y,z
-x,1/2+y,1/2-z
-x,-y,-z
x,1/2-y,1/2+z
loop_
_atom_site_type_symbol
_atom_site_label
_atom_site_fract_x
_atom_site_fract_y
_atom_site_fract_z
Si Si1 0.014241 0.390635 0.120269
Si Si2 0.698460 0.438492 0.401161
Si Si3 0.345937 0.180742 0.115416
Si Si4 0.777332 0.262332 0.082054
Si Si5 0.677547 0.245581 0.731545
Si Si6 0.228013 0.395836 0.105363
O O1 0.967821 0.336676 0.188521
O O2 0.853548 0.323898 0.920711
O O3 0.941457 0.514693 0.061848
O O4 0.227720 0.386252 0.223821
O O5 0.754716 0.563881 0.444740
O O6 0.817301 0.358410 0.570996
O O7 0.702671 0.372936 0.302043
O O8 0.454711 0.438086 0.246746
O O9 0.559420 0.194922 0.354313
O O10 0.450977 0.206272 0.091849
O O11 0.197551 0.279326 0.032145
O O12 0.717863 0.261744 0.148521
#
# Coordination Sequence:
#
# PCOD9253448 Si02
#       6
#     4   4   4   4   4   4
#     4   9  17  33  52  69  98 133 164 198 248 298
#     4   9  17  34  52  74  97 127 165 207 249 286
#     4   9  18  33  48  75  98 128 164 205 248 289
#     4   9  18  31  51  72  99 129 164 207 244 292
#     4   9  18  31  51  72  99 129 164 207 244 292
#     4   9  16  32  55  68  95 133 164 200 245 296
#
# _framework density 22.931597
#
# number of rings (size 3 to 8) (size 9 to 14) (size 15 to 20)
#    0.000    3.667    3.333    0.000    0.000    1.333 
#    0.000   10.000    7.333    0.000    0.000    0.000 
#    0.000    0.000    0.000    0.000    0.000    0.000 
#
# Total GULP energy -133963.935963 kJ/mol
# GULP energy per Si atom -5581.830665 kJ/mol
# Density = 2.287940 g / cm^3
# Si number density = 22.931597 Si / 1000 Ang^3
#
#
#
# Elastic Constant Matrix: (Units=GPa)
#
#
# Indices 1 2 3 4 5 6 
#
# 1 120.0822 29.3810 24.6352 0.0000 -36.9149 0.0000
# 2 29.3810 179.0430 13.4430 0.0000 -18.1417 0.0000
# 3 24.6352 13.4430 39.9996 0.0000 -21.0600 0.0000
# 4 0.0000 0.0000 0.0000 18.1641 0.0000 0.6491
# 5 -36.9149 -18.1417 -21.0600 0.0000 39.4569 0.0000
# 6 0.0000 0.0000 0.0000 0.6491 0.0000 26.9259
#
#
#
# Elastic Compliance Matrix: (Units=1/GPa)
#
#
# Indices 1 2 3 4 5 6 
#
# 1 0.011921 -0.000824 -0.001937 0.000000 0.009740 0.000000
# 2 -0.000824 0.005932 -0.000634 0.000000 0.001618 0.000000
# 3 -0.001937 -0.000634 0.035187 0.000000 0.016677 0.000000
# 4 0.000000 0.000000 0.000000 0.055101 0.000000 -0.001328
# 5 0.009740 0.001618 0.016677 0.000000 0.044102 0.000000
# 6 0.000000 0.000000 0.000000 -0.001328 0.000000 0.037171
#
#
# Mechanical properties :
#
#
# Convention : Reuss Voigt Hill
#
# Bulk Modulus (GPa) = 21.62156 52.67146 37.14651
# Shear Modulus (GPa) = 23.62719 35.02040 29.32380
#
# Velocity S-wave (km/s) = 3.21336 3.91214 3.57984
# Velocity P-wave (km/s) = 4.81838 6.58978 5.77244
#
# Compressibility (1/GPa) = 0.04625013
#
# Stress axis : x y z
#
# Youngs Moduli (GPa) = 83.88678 168.57638 28.41973
#
# Poissons Ratio (x) = 0.13888 0.05504
# Poissons Ratio (y) = 0.06911 0.01803
# Poissons Ratio (z) = 0.16246 0.10692
#
# Static dielectric constant tensor:
#      x y z
#    x 1.870280 0.000000 0.000160 
#    y 0.000000 1.855130 0.000000 
#    z 0.000160 0.000000 1.979340 
# 
# From -- ./inp_files/44120.got.cif
#   From: 2010.05.17/outbox.cif.g08.bks.cpg/sg14_23_cif.got.tgz:44120.got - 2010.06.03 17:49:19.
