data_PCOD9253259
_publ_section_title
;
Structure prediction by ZEFSAII (Michael W. Deem and Ramdas Pophale) SiO2 
 PCOD9253259
Probable space group: P 21/C
;
_chemical_formula_sum "Si O2"
_cell_formula_units_Z 16
_cell_length_a 9.538033
_cell_length_b 4.924796
_cell_length_c 21.468475
_cell_angle_alpha 90.000000
_cell_angle_beta 140.206670
_cell_angle_gamma 90.000000
_cell_volume 645.419350
_symmetry_space_group_name_H-M "P 21/C"
_symmetry_group_IT_number 14
_symmetry_cell_setting 'monoclinic'
loop_
_space_group_symop_operation_xyz
x,y,z
-x,1/2+y,1/2-z
-x,-y,-z
x,1/2-y,1/2+z
loop_
_atom_site_type_symbol
_atom_site_label
_atom_site_fract_x
_atom_site_fract_y
_atom_site_fract_z
Si Si1 0.430211 0.581481 0.565209
Si Si2 0.368827 0.756112 0.184655
Si Si3 0.265337 0.575265 0.850539
Si Si4 0.028622 0.206691 0.862781
O O1 0.365022 0.614860 0.614986
O O2 0.529691 0.869804 0.580297
O O3 0.225370 0.469497 0.457456
O O4 0.627990 0.370387 0.620746
O O5 0.491610 0.468802 0.226510
O O6 0.135263 0.720117 0.137336
O O7 0.122604 0.471653 0.859876
O O8 0.110152 0.546114 0.737012
#
# Coordination Sequence:
#
# PCOD9253259 Si02
#       4
#     4   4   4   4
#     4  12  26  50  75 113 148 202 250 316 367 466
#     4  12  25  49  76 108 154 197 256 311 371 449
#     4  12  27  47  74 114 154 189 257 309 377 451
#     4  12  27  48  79 109 155 201 247 309 396 426
#
# _framework density 24.790087
#
# number of rings (size 3 to 8) (size 9 to 14) (size 15 to 20)
#    0.000    0.000    5.000    3.750    0.000    8.000 
#    0.000    5.000    0.000    0.000    0.000    0.000 
#    0.000    0.000    0.000    0.000    0.000    0.000 
#
# Total GULP energy -89822.766144 kJ/mol
# GULP energy per Si atom -5613.922884 kJ/mol
# Density = 2.473366 g / cm^3
# Si number density = 24.790087 Si / 1000 Ang^3
#
#
#
# Elastic Constant Matrix: (Units=GPa)
#
#
# Indices 1 2 3 4 5 6 
#
# 1 236.2432 22.5357 37.8248 0.0000 -9.8295 0.0000
# 2 22.5357 75.6864 -3.4322 0.0000 -9.3495 0.0000
# 3 37.8248 -3.4322 104.5878 0.0000 13.5666 0.0000
# 4 0.0000 0.0000 0.0000 69.7583 0.0000 -72.7825
# 5 -9.8295 -9.3495 13.5666 0.0000 34.3564 0.0000
# 6 0.0000 0.0000 0.0000 -72.7825 0.0000 170.3051
#
#
#
# Elastic Compliance Matrix: (Units=1/GPa)
#
#
# Indices 1 2 3 4 5 6 
#
# 1 0.004749 -0.001282 -0.001993 0.000000 0.001797 0.000000
# 2 -0.001282 0.014018 0.000502 0.000000 0.003250 0.000000
# 3 -0.001993 0.000502 0.010914 0.000000 -0.004743 0.000000
# 4 0.000000 0.000000 0.000000 0.025871 0.000000 0.011056
# 5 0.001797 0.003250 -0.004743 0.000000 0.032378 0.000000
# 6 0.000000 0.000000 0.000000 0.011056 0.000000 0.010597
#
#
# Mechanical properties :
#
#
# Convention : Reuss Voigt Hill
#
# Bulk Modulus (GPa) = 41.43246 58.93044 50.18145
# Shear Modulus (GPa) = 44.59599 78.85657 61.72628
#
# Velocity S-wave (km/s) = 4.24600 5.64613 4.99536
# Velocity P-wave (km/s) = 6.38652 8.14423 7.31833
#
# Compressibility (1/GPa) = 0.02413567
#
# Stress axis : x y z
#
# Youngs Moduli (GPa) = 210.56803 71.33440 91.62778
#
# Poissons Ratio (x) = 0.09148 0.18258
# Poissons Ratio (y) = 0.27005 -0.04603
# Poissons Ratio (z) = 0.41959 -0.03583
#
# Static dielectric constant tensor:
#      x y z
#    x 1.944400 0.000000 -0.045220 
#    y 0.000000 1.929630 0.000000 
#    z -0.045220 0.000000 1.973730 
# 
# From -- ./inp_files/47779.got.cif
#   From: 2010.05.17/outbox.cif.g08.bks.cpg/sg14_24_cif.got.tgz:47779.got - 2010.06.03 17:49:19.
