data_PCOD9253803
_publ_section_title
;
Structure prediction by ZEFSAII (Michael W. Deem and Ramdas Pophale) SiO2 
 PCOD9253803
Probable space group: C 2/C
;
_chemical_formula_sum "Si O2"
_cell_formula_units_Z 56
_cell_length_a 12.739341
_cell_length_b 13.753616
_cell_length_c 18.791948
_cell_angle_alpha 90.000000
_cell_angle_beta 49.247543
_cell_angle_gamma 90.000000
_cell_volume 2494.247263
_symmetry_space_group_name_H-M "C 2/C"
_symmetry_group_IT_number 15
_symmetry_cell_setting 'monoclinic'
loop_
_space_group_symop_operation_xyz
x,y,z
-x,y,1/2-z
-x,-y,-z
x,-y,1/2+z
1/2+x,1/2+y,z
1/2-x,1/2+y,1/2-z
1/2-x,1/2-y,-z
1/2+x,1/2-y,1/2+z
loop_
_atom_site_type_symbol
_atom_site_label
_atom_site_fract_x
_atom_site_fract_y
_atom_site_fract_z
Si Si1 0.543150 0.396074 0.601316
Si Si2 0.811634 0.442056 0.393474
Si Si3 0.425086 0.870099 0.486995
Si Si4 0.257098 0.875069 0.762411
Si Si5 0.000000 0.610137 0.250000
Si Si6 0.702021 0.743159 0.143458
Si Si7 0.000000 0.955434 0.250000
Si Si8 0.797660 0.456233 0.139566
O O1 0.658060 0.438171 0.496053
O O2 0.392452 0.377425 0.632583
O O3 0.603944 0.310296 0.627694
O O4 0.513592 0.477993 0.673994
O O5 0.902179 0.397699 0.416675
O O6 0.884218 0.541057 0.338803
O O7 0.823264 0.355720 0.331176
O O8 0.352885 0.770731 0.540279
O O9 0.342965 0.955700 0.565875
O O10 0.586321 0.877293 0.426636
O O11 0.396854 0.838196 0.739326
O O12 0.215066 0.812733 0.711555
O O13 0.294721 0.983333 0.715011
O O14 0.850516 0.908747 0.308704
#
# Coordination Sequence:
#
# PCOD9253803 Si02
#       8
#     8   8   8   8   4   8   4   8
#     4  10  17  33  58  84 116 150 192 235 298 347
#     4  11  22  34  54  91 121 145 195 258 297 333
#     4   9  15  29  49  78 116 150 189 235 299 349
#     4  10  20  36  54  80 119 163 194 231 299 360
#     4  12  26  37  54  88 125 156 196 250 286 349
#     4  10  19  34  60  89 114 152 195 249 302 348
#     4  10  14  25  50  84 111 158 186 236 292 345
#     4   9  15  26  50  78 116 154 189 241 283 352
#
# _framework density 22.451664000000001
#
# number of rings (size 3 to 8) (size 9 to 14) (size 15 to 20)
#    0.000    2.000    7.143    1.714    2.000    0.571 
#    0.000    0.000    0.000    0.857    3.714    6.000 
#    0.000    0.000    0.000    0.000    0.000    0.000 
#
# Total GULP energy -155925.222424 kJ/mol
# GULP energy per Si atom -5568.757944 kJ/mol
# Density = 2.240056 g / cm^3
# Si number density = 22.451664 Si / 1000 Ang^3
#
#
#
# Elastic Constant Matrix: (Units=GPa)
#
#
# Indices 1 2 3 4 5 6 
#
# 1 113.6446 6.1829 48.1197 0.0000 -46.6719 0.0000
# 2 6.1829 29.0310 19.7984 0.0000 -6.5882 0.0000
# 3 48.1197 19.7984 98.5117 0.0000 -28.9771 0.0000
# 4 0.0000 0.0000 0.0000 11.4389 0.0000 1.8844
# 5 -46.6719 -6.5882 -28.9771 0.0000 43.8026 0.0000
# 6 0.0000 0.0000 0.0000 1.8844 0.0000 3.2859
#
#
#
# Elastic Compliance Matrix: (Units=1/GPa)
#
#
# Indices 1 2 3 4 5 6 
#
# 1 0.016817 0.002816 -0.004203 0.000000 0.015561 0.000000
# 2 0.002816 0.040415 -0.008477 0.000000 0.003472 0.000000
# 3 -0.004203 -0.008477 0.015167 0.000000 0.004280 0.000000
# 4 0.000000 0.000000 0.000000 0.096541 0.000000 -0.055366
# 5 0.015561 0.003472 0.004280 0.000000 0.042764 0.000000
# 6 0.000000 0.000000 0.000000 -0.055366 0.000000 0.336084
#
#
# Mechanical properties :
#
#
# Convention : Reuss Voigt Hill
#
# Bulk Modulus (GPa) = 18.98583 43.26549 31.12566
# Shear Modulus (GPa) = 8.54596 22.84458 15.69527
#
# Velocity S-wave (km/s) = 1.95311 3.19329 2.64686
# Velocity P-wave (km/s) = 3.68251 5.73659 4.82023
#
# Compressibility (1/GPa) = 0.05267086
#
# Stress axis : x y z
#
# Youngs Moduli (GPa) = 59.46534 24.74334 65.93389
#
# Poissons Ratio (x) = -0.06968 0.27712
# Poissons Ratio (y) = -0.16747 0.55891
# Poissons Ratio (z) = 0.24993 0.20975
#
# Static dielectric constant tensor:
#      x y z
#    x 1.948800 0.000000 -0.044360 
#    y 0.000000 1.909370 0.000000 
#    z -0.044360 0.000000 1.909830 
# 
# From -- ./inp_files/239522.got.cif
#   From: 2010.05.17/outbox.cif.g08.bks.cpg/sg15_120_cif.got.tgz:239522.got - 2010.06.03 18:47:42.
