data_PCOD9253091
_publ_section_title
;
Structure prediction by ZEFSAII (Michael W. Deem and Ramdas Pophale) SiO2 
 PCOD9253091
Probable space group: P 21/C
;
_chemical_formula_sum "Si O2"
_cell_formula_units_Z 32
_cell_length_a 19.127486
_cell_length_b 14.390047
_cell_length_c 12.382340
_cell_angle_alpha 90.000000
_cell_angle_beta 154.178234
_cell_angle_gamma 90.000000
_cell_volume 1484.512537
_symmetry_space_group_name_H-M "P 21/C"
_symmetry_group_IT_number 14
_symmetry_cell_setting 'monoclinic'
loop_
_space_group_symop_operation_xyz
x,y,z
-x,1/2+y,1/2-z
-x,-y,-z
x,1/2-y,1/2+z
loop_
_atom_site_type_symbol
_atom_site_label
_atom_site_fract_x
_atom_site_fract_y
_atom_site_fract_z
Si Si1 0.303069 0.595238 0.002363
Si Si2 0.867749 0.896867 0.120880
Si Si3 0.446714 0.281034 0.776729
Si Si4 0.375070 0.103645 0.533260
Si Si5 0.326289 0.776997 0.744024
Si Si6 0.107400 0.644474 0.129526
Si Si7 0.711858 0.416590 0.409962
Si Si8 0.035149 0.170348 0.968175
O O1 0.118516 0.609184 0.711096
O O2 0.418270 0.648316 0.078712
O O3 0.346148 0.487343 0.065635
O O4 0.326652 0.648608 0.148615
O O5 0.955514 0.840566 0.148188
O O6 0.987010 0.913154 0.386585
O O7 0.719909 0.834770 0.954334
O O8 0.795493 0.993392 0.976293
O O9 0.437496 0.192236 0.686448
O O10 0.496353 0.246335 0.964611
O O11 0.519276 0.076040 0.652639
O O12 0.205465 0.133991 0.247308
O O13 0.229767 0.811105 0.713723
O O14 0.254226 0.680337 0.601253
O O15 0.212146 0.592458 0.364666
O O16 0.007077 0.726535 0.048880
#
# Coordination Sequence:
#
# PCOD9253091 Si02
#       8
#     4   4   4   4   4   4   4   4
#     4  12  25  46  71 101 141 184 232 289 350 416
#     4  12  27  44  73 108 138 186 235 284 352 422
#     4  12  25  45  71 102 143 184 227 296 345 409
#     4  12  25  44  70 103 140 180 232 293 343 407
#     4  12  23  44  74  97 137 194 227 279 359 412
#     4  12  23  49  72  99 148 183 229 293 348 412
#     4  12  25  46  72 104 142 187 228 287 359 414
#     4  12  25  46  72 104 138 182 238 286 348 412
#
# _framework density 21.555897000000002
#
# number of rings (size 3 to 8) (size 9 to 14) (size 15 to 20)
#    0.000    0.000    8.750    1.500    1.750    2.500 
#    2.250    0.000    0.000    0.000    0.000    0.000 
#    0.000    0.000    0.000    0.000    0.000    0.000 
#
# Total GULP energy -179034.725628 kJ/mol
# GULP energy per Si atom -5594.835176 kJ/mol
# Density = 2.150684 g / cm^3
# Si number density = 21.555897 Si / 1000 Ang^3
#
#
#
# Elastic Constant Matrix: (Units=GPa)
#
#
# Indices 1 2 3 4 5 6 
#
# 1 52.4405 4.0682 -2.2768 0.0000 11.8738 0.0000
# 2 4.0682 54.7899 -3.5896 0.0000 8.5039 0.0000
# 3 -2.2768 -3.5896 101.4607 0.0000 9.5205 0.0000
# 4 0.0000 0.0000 0.0000 25.4860 0.0000 0.4050
# 5 11.8738 8.5039 9.5205 0.0000 39.3092 0.0000
# 6 0.0000 0.0000 0.0000 0.4050 0.0000 16.8969
#
#
#
# Elastic Compliance Matrix: (Units=1/GPa)
#
#
# Indices 1 2 3 4 5 6 
#
# 1 0.020594 -0.000472 0.001043 0.000000 -0.006371 0.000000
# 2 -0.000472 0.019012 0.001059 0.000000 -0.004227 0.000000
# 3 0.001043 0.001059 0.010200 0.000000 -0.003014 0.000000
# 4 0.000000 0.000000 0.000000 0.039252 0.000000 -0.000941
# 5 -0.006371 -0.004227 -0.003014 0.000000 0.029008 0.000000
# 6 0.000000 0.000000 0.000000 -0.000941 0.000000 0.059205
#
#
# Mechanical properties :
#
#
# Convention : Reuss Voigt Hill
#
# Bulk Modulus (GPa) = 18.84465 22.78831 20.81648
# Shear Modulus (GPa) = 26.08250 30.37104 28.22677
#
# Velocity S-wave (km/s) = 3.48227 3.75766 3.62258
# Velocity P-wave (km/s) = 4.99294 5.42415 5.21301
#
# Compressibility (1/GPa) = 0.05306547
#
# Stress axis : x y z
#
# Youngs Moduli (GPa) = 48.55854 52.59846 98.04148
#
# Poissons Ratio (x) = 0.02482 -0.10228
# Poissons Ratio (y) = 0.02292 -0.10379
# Poissons Ratio (z) = -0.05066 -0.05568
#
# Static dielectric constant tensor:
#      x y z
#    x 1.766910 0.000000 -0.011260 
#    y 0.000000 1.756330 0.000000 
#    z -0.011260 0.000000 1.820290 
# 
# From -- ./inp_files/34233.got.cif
#   From: 2010.05.17/outbox.cif.g08.bks.cpg/sg14_18_cif.got.tgz:34233.got - 2010.06.03 17:49:19.
