data_PCOD9253054
_publ_section_title
;
Structure prediction by ZEFSAII (Michael W. Deem and Ramdas Pophale) SiO2 
 PCOD9253054
Probable space group: P 21/C
;
_chemical_formula_sum "Si O2"
_cell_formula_units_Z 28
_cell_length_a 14.952126
_cell_length_b 11.035509
_cell_length_c 9.204411
_cell_angle_alpha 90.000000
_cell_angle_beta 124.570415
_cell_angle_gamma 90.000000
_cell_volume 1250.597987
_symmetry_space_group_name_H-M "P 21/C"
_symmetry_group_IT_number 14
_symmetry_cell_setting 'monoclinic'
loop_
_space_group_symop_operation_xyz
x,y,z
-x,1/2+y,1/2-z
-x,-y,-z
x,1/2-y,1/2+z
loop_
_atom_site_type_symbol
_atom_site_label
_atom_site_fract_x
_atom_site_fract_y
_atom_site_fract_z
Si Si1 0.194846 0.957093 0.888832
Si Si2 0.869718 0.010858 0.858813
Si Si3 0.921342 0.860711 0.385868
Si Si4 0.550481 0.460579 0.394599
Si Si5 0.935723 0.268245 0.246945
Si Si6 0.571449 0.794584 0.741776
Si Si7 0.724798 0.807427 0.619673
O O1 0.149211 0.827290 0.890387
O O2 0.121000 0.004103 0.686640
O O3 0.176922 0.024718 0.026095
O O4 0.320083 0.956137 0.969353
O O5 0.868199 0.143710 0.789247
O O6 0.800574 0.926630 0.685894
O O7 0.000000 0.000000 0.000000
O O8 0.809625 0.789483 0.258186
O O9 0.003775 0.833359 0.329344
O O10 0.973633 0.805771 0.578286
O O11 0.500000 0.500000 0.500000
O O12 0.507750 0.323549 0.323226
O O13 0.529169 0.576206 0.266784
O O14 0.620060 0.819979 0.627280
O O15 0.675048 0.746318 0.928076
#
# Coordination Sequence:
#
# PCOD9253054 Si02
#       7
#     4   4   4   4   4   4   4
#     4  12  24  45  68  98 141 184 231 292 352 414
#     4  12  22  42  68 101 143 179 228 281 345 435
#     4  12  22  42  69  99 140 185 228 273 347 439
#     4  12  27  51  75 106 147 188 254 315 363 429
#     4  12  25  40  67 104 144 182 227 286 349 429
#     4  12  26  49  80 104 141 192 249 309 368 428
#     4  12  23  46  77 101 135 195 236 282 367 434
#
# _framework density 22.389289000000002
#
# number of rings (size 3 to 8) (size 9 to 14) (size 15 to 20)
#    0.000    0.000    8.571    1.286    0.000    2.857 
#    5.143    0.000    0.000    0.000    0.000    0.000 
#    0.000    0.000    0.000    0.000    0.000    0.000 
#
# Total GULP energy -156282.625337 kJ/mol
# GULP energy per Si atom -5581.522333 kJ/mol
# Density = 2.233833 g / cm^3
# Si number density = 22.389289 Si / 1000 Ang^3
#
#
#
# Elastic Constant Matrix: (Units=GPa)
#
#
# Indices 1 2 3 4 5 6 
#
# 1 127.1309 22.4606 25.2476 0.0000 1.0658 0.0000
# 2 22.4606 109.6382 9.0571 0.0000 17.4982 0.0000
# 3 25.2476 9.0571 43.5870 0.0000 0.3705 0.0000
# 4 0.0000 0.0000 0.0000 35.1596 0.0000 5.9281
# 5 1.0658 17.4982 0.3705 0.0000 31.9511 0.0000
# 6 0.0000 0.0000 0.0000 5.9281 0.0000 33.9205
#
#
#
# Elastic Compliance Matrix: (Units=1/GPa)
#
#
# Indices 1 2 3 4 5 6 
#
# 1 0.009122 -0.001555 -0.004966 0.000000 0.000605 0.000000
# 2 -0.001555 0.010443 -0.001221 0.000000 -0.005653 0.000000
# 3 -0.004966 -0.001221 0.026068 0.000000 0.000532 0.000000
# 4 0.000000 0.000000 0.000000 0.029305 0.000000 -0.005121
# 5 0.000605 -0.005653 0.000532 0.000000 0.034367 0.000000
# 6 0.000000 0.000000 0.000000 -0.005121 0.000000 0.030376
#
#
# Mechanical properties :
#
#
# Convention : Reuss Voigt Hill
#
# Bulk Modulus (GPa) = 33.16885 43.76518 38.46702
# Shear Modulus (GPa) = 30.26375 35.11228 32.68802
#
# Velocity S-wave (km/s) = 3.68054 3.96443 3.82512
# Velocity P-wave (km/s) = 5.73661 6.36752 6.06028
#
# Compressibility (1/GPa) = 0.03014877
#
# Stress axis : x y z
#
# Youngs Moduli (GPa) = 109.62818 95.76213 38.36088
#
# Poissons Ratio (x) = 0.14891 0.19049
# Poissons Ratio (y) = 0.17047 0.04684
# Poissons Ratio (z) = 0.54439 0.11693
#
# Static dielectric constant tensor:
#      x y z
#    x 1.740710 0.000000 -0.018420 
#    y 0.000000 2.122960 0.000000 
#    z -0.018420 0.000000 1.937740 
# 
# From -- ./inp_files/15626.got.cif
#   From: 2010.05.17/outbox.cif.g08.bks.cpg/sg14_8_cif.got.tgz:15626.got - 2010.06.03 17:49:19.
