data_PCOD9253120
_publ_section_title
;
Structure prediction by ZEFSAII (Michael W. Deem and Ramdas Pophale) SiO2 
 PCOD9253120
Probable space group: P 21/C
;
_chemical_formula_sum "Si O2"
_cell_formula_units_Z 20
_cell_length_a 12.102329
_cell_length_b 7.185461
_cell_length_c 14.263566
_cell_angle_alpha 90.000000
_cell_angle_beta 38.527471
_cell_angle_gamma 90.000000
_cell_volume 772.614621
_symmetry_space_group_name_H-M "P 21/C"
_symmetry_group_IT_number 14
_symmetry_cell_setting 'monoclinic'
loop_
_space_group_symop_operation_xyz
x,y,z
-x,1/2+y,1/2-z
-x,-y,-z
x,1/2-y,1/2+z
loop_
_atom_site_type_symbol
_atom_site_label
_atom_site_fract_x
_atom_site_fract_y
_atom_site_fract_z
Si Si1 0.593834 0.924916 0.625996
Si Si2 0.928742 0.959698 0.152324
Si Si3 0.814439 0.598491 0.141798
Si Si4 0.302513 0.848557 0.970079
Si Si5 0.632004 0.272482 0.369244
O O1 0.735846 0.820901 0.597142
O O2 0.417853 0.930768 0.807981
O O3 0.533225 0.832194 0.569479
O O4 0.680323 0.126167 0.555641
O O5 0.793164 0.121730 0.269877
O O6 0.169906 0.237644 0.793926
O O7 0.102754 0.924887 0.099628
O O8 0.000000 0.000000 0.000000
O O9 0.694447 0.430039 0.256355
O O10 0.000000 0.500000 0.000000
O O11 0.385583 0.866162 0.017882
#
# Coordination Sequence:
#
# PCOD9253120 Si02
#       5
#     4   4   4   4   4
#     4  12  23  51  73 105 159 191 252 321 377 449
#     4  12  24  49  77 107 156 201 250 319 379 445
#     4  12  24  47  79 109 148 209 254 307 394 453
#     4  12  28  46  78 114 146 210 249 313 390 449
#     4  12  28  49  76 116 150 200 264 312 378 461
#
# _framework density 25.886129
#
# number of rings (size 3 to 8) (size 9 to 14) (size 15 to 20)
#    0.000    0.000    8.000    1.800    2.800    0.800 
#    3.600    0.000    0.000    0.000    0.000    0.000 
#    0.000    0.000    0.000    0.000    0.000    0.000 
#
# Total GULP energy -112172.398889 kJ/mol
# GULP energy per Si atom -5608.619944 kJ/mol
# Density = 2.582721 g / cm^3
# Si number density = 25.886129 Si / 1000 Ang^3
#
#
#
# Elastic Constant Matrix: (Units=GPa)
#
#
# Indices 1 2 3 4 5 6 
#
# 1 210.1069 39.8447 45.6746 0.0000 -6.9579 0.0000
# 2 39.8447 131.1217 27.6408 0.0000 -17.5421 0.0000
# 3 45.6746 27.6408 80.1672 0.0000 2.0605 0.0000
# 4 0.0000 0.0000 0.0000 31.2195 0.0000 -10.5084
# 5 -6.9579 -17.5421 2.0605 0.0000 49.1062 0.0000
# 6 0.0000 0.0000 0.0000 -10.5084 0.0000 39.7370
#
#
#
# Elastic Compliance Matrix: (Units=1/GPa)
#
#
# Indices 1 2 3 4 5 6 
#
# 1 0.005591 -0.001026 -0.002845 0.000000 0.000545 0.000000
# 2 -0.001026 0.008899 -0.002564 0.000000 0.003141 0.000000
# 3 -0.002845 -0.002564 0.015029 0.000000 -0.001950 0.000000
# 4 0.000000 0.000000 0.000000 0.035161 0.000000 0.009298
# 5 0.000545 0.003141 -0.001950 0.000000 0.021645 0.000000
# 6 0.000000 0.000000 0.000000 0.009298 0.000000 0.027624
#
#
# Mechanical properties :
#
#
# Convention : Reuss Voigt Hill
#
# Bulk Modulus (GPa) = 60.07020 71.96846 66.01933
# Shear Modulus (GPa) = 37.77259 44.56159 41.16709
#
# Velocity S-wave (km/s) = 3.82407 4.15353 3.99220
# Velocity P-wave (km/s) = 6.53865 7.13195 6.84174
#
# Compressibility (1/GPa) = 0.01664719
#
# Stress axis : x y z
#
# Youngs Moduli (GPa) = 178.86868 112.37020 66.53618
#
# Poissons Ratio (x) = 0.11531 0.18933
# Poissons Ratio (y) = 0.18354 0.17063
# Poissons Ratio (z) = 0.50896 0.28817
#
# Static dielectric constant tensor:
#      x y z
#    x 2.077950 0.000000 0.038740 
#    y 0.000000 2.054100 0.000000 
#    z 0.038740 0.000000 2.072660 
# 
# From -- ./inp_files/42735.got.cif
#   From: 2010.05.17/outbox.cif.g08.bks.cpg/sg14_22_cif.got.tgz:42735.got - 2010.06.03 17:49:19.
