data_PCOD9253164
_publ_section_title
;
Structure prediction by ZEFSAII (Michael W. Deem and Ramdas Pophale) SiO2 
 PCOD9253164
Probable space group: P 21/C
;
_chemical_formula_sum "Si O2"
_cell_formula_units_Z 24
_cell_length_a 6.742447
_cell_length_b 16.936686
_cell_length_c 8.237063
_cell_angle_alpha 90.000000
_cell_angle_beta 116.224844
_cell_angle_gamma 90.000000
_cell_volume 843.807090
_symmetry_space_group_name_H-M "P 21/C"
_symmetry_group_IT_number 14
_symmetry_cell_setting 'monoclinic'
loop_
_space_group_symop_operation_xyz
x,y,z
-x,1/2+y,1/2-z
-x,-y,-z
x,1/2-y,1/2+z
loop_
_atom_site_type_symbol
_atom_site_label
_atom_site_fract_x
_atom_site_fract_y
_atom_site_fract_z
Si Si1 0.530703 0.591761 0.962198
Si Si2 0.223739 0.822001 0.108457
Si Si3 0.179856 0.308995 0.677143
Si Si4 0.676132 0.165598 0.181989
Si Si5 0.270980 0.348750 0.395110
Si Si6 0.795757 0.509907 0.806626
O O1 0.318069 0.636082 0.812283
O O2 0.672757 0.578768 0.855009
O O3 0.500000 0.500000 0.000000
O O4 0.682950 0.637016 0.144572
O O5 0.250443 0.728584 0.152820
O O6 0.434695 0.845423 0.054365
O O7 0.952811 0.833521 0.047466
O O8 0.397370 0.314217 0.610785
O O9 0.197908 0.218407 0.741414
O O10 0.907432 0.326019 0.644516
O O11 0.691242 0.075357 0.251322
O O12 0.209517 0.443658 0.365215
O O13 0.000000 0.500000 0.000000
#
# Coordination Sequence:
#
# PCOD9253164 Si02
#       6
#     4   4   4   4   4   4
#     4  12  28  47  72 106 144 187 237 296 357 426
#     4  12  27  47  74 104 140 191 241 289 361 427
#     4  12  26  46  74 105 144 188 243 294 354 429
#     4  12  25  47  74 100 144 188 236 294 361 424
#     4  12  24  46  73 104 145 189 240 297 357 429
#     4  12  27  47  72 108 148 188 239 297 364 426
#
# _framework density 28.442519999999998
#
# number of rings (size 3 to 8) (size 9 to 14) (size 15 to 20)
#    0.000    0.000    3.333    6.500    7.000    0.667 
#    0.000    0.000    0.000    0.000    0.000    0.000 
#    0.000    0.000    0.000    0.000    0.000    0.000 
#
# Total GULP energy -133876.277156 kJ/mol
# GULP energy per Si atom -5578.178215 kJ/mol
# Density = 2.837778 g / cm^3
# Si number density = 28.442520 Si / 1000 Ang^3
#
#
#
# Elastic Constant Matrix: (Units=GPa)
#
#
# Indices 1 2 3 4 5 6 
#
# 1 146.1997 20.0758 82.1345 0.0000 36.3980 0.0000
# 2 20.0758 193.0765 98.3427 0.0000 4.7000 0.0000
# 3 82.1345 98.3427 224.9434 0.0000 49.5484 0.0000
# 4 0.0000 0.0000 0.0000 47.8629 0.0000 -2.3988
# 5 36.3980 4.7000 49.5484 0.0000 79.6184 0.0000
# 6 0.0000 0.0000 0.0000 -2.3988 0.0000 46.4965
#
#
#
# Elastic Compliance Matrix: (Units=1/GPa)
#
#
# Indices 1 2 3 4 5 6 
#
# 1 0.009053 0.000702 -0.003119 0.000000 -0.002239 0.000000
# 2 0.000702 0.006909 -0.003611 0.000000 0.001519 0.000000
# 3 -0.003119 -0.003611 0.007883 0.000000 -0.003266 0.000000
# 4 0.000000 0.000000 0.000000 0.020947 0.000000 0.001081
# 5 -0.002239 0.001519 -0.003266 0.000000 0.015527 0.000000
# 6 0.000000 0.000000 0.000000 0.001081 0.000000 0.021563
#
#
# Mechanical properties :
#
#
# Convention : Reuss Voigt Hill
#
# Bulk Modulus (GPa) = 84.83425 107.25840 96.04632
# Shear Modulus (GPa) = 51.08911 59.04000 55.06455
#
# Velocity S-wave (km/s) = 4.24279 4.56100 4.40477
# Velocity P-wave (km/s) = 7.34118 8.09502 7.72730
#
# Compressibility (1/GPa) = 0.01178769
#
# Stress axis : x y z
#
# Youngs Moduli (GPa) = 110.45470 144.74501 126.85717
#
# Poissons Ratio (x) = -0.10161 0.39573
# Poissons Ratio (y) = -0.07754 0.45811
# Poissons Ratio (z) = 0.34456 0.52271
#
# Static dielectric constant tensor:
#      x y z
#    x 2.475430 0.000000 0.100850 
#    y 0.000000 2.077560 0.000000 
#    z 0.100850 0.000000 2.213490 
# 
# From -- ./inp_files/21302.got.cif
#   From: 2010.05.17/outbox.cif.g08.bks.cpg/sg14_11_cif.got.tgz:21302.got - 2010.06.03 17:49:19.
