data_PCOD9253837
_publ_section_title
;
Structure prediction by ZEFSAII (Michael W. Deem and Ramdas Pophale) SiO2 
 PCOD9253837
Probable space group: C 2/C
;
_chemical_formula_sum "Si O2"
_cell_formula_units_Z 48
_cell_length_a 9.886733
_cell_length_b 17.274189
_cell_length_c 18.390684
_cell_angle_alpha 90.000000
_cell_angle_beta 130.801238
_cell_angle_gamma 90.000000
_cell_volume 2377.569921
_symmetry_space_group_name_H-M "C 2/C"
_symmetry_group_IT_number 15
_symmetry_cell_setting 'monoclinic'
loop_
_space_group_symop_operation_xyz
x,y,z
-x,y,1/2-z
-x,-y,-z
x,-y,1/2+z
1/2+x,1/2+y,z
1/2-x,1/2+y,1/2-z
1/2-x,1/2-y,-z
1/2+x,1/2-y,1/2+z
loop_
_atom_site_type_symbol
_atom_site_label
_atom_site_fract_x
_atom_site_fract_y
_atom_site_fract_z
Si Si1 0.500000 0.773064 0.750000
Si Si2 0.506710 0.084184 0.351165
Si Si3 0.715681 0.858631 0.134049
Si Si4 0.805779 0.013436 0.785015
Si Si5 0.162991 0.612847 0.053789
Si Si6 0.000000 0.887654 0.750000
Si Si7 0.668010 0.463456 0.462094
O O1 0.518970 0.830087 0.688163
O O2 0.673392 0.719617 0.818834
O O3 0.379484 0.026989 0.262323
O O4 0.434920 0.077498 0.409142
O O5 0.715121 0.065713 0.429900
O O6 0.796681 0.904964 0.093216
O O7 0.758615 0.913428 0.217830
O O8 0.502991 0.847677 0.046051
O O9 0.906649 0.946900 0.773302
O O10 0.955194 0.034119 0.896606
O O11 0.338612 0.654736 0.150305
O O12 0.244980 0.544926 0.032814
#
# Coordination Sequence:
#
# PCOD9253837 Si02
#       7
#     4   8   8   8   8   4   8
#     4  12  25  32  42  78 127 136 152 202 289 320
#     4  10  20  32  46  76 112 140 161 211 266 313
#     4  11  16  30  49  77 108 128 166 217 256 298
#     4  10  14  29  53  76  98 129 176 214 248 289
#     4   9  16  28  55  79 100 122 186 224 247 279
#     4   8  13  22  46  82  95 106 160 238 245 262
#     4  10  15  29  58  83  91 124 191 231 234 282
#
# _framework density 20.188682
#
# number of rings (size 3 to 8) (size 9 to 14) (size 15 to 20)
#    0.000    2.000    8.333    1.000    0.000    2.667 
#    0.000    0.833    0.000    9.000    0.000    1.167 
#    0.000    0.000    0.000    0.000    0.000    0.000 
#
# Total GULP energy -133661.614414 kJ/mol
# GULP energy per Si atom -5569.233934 kJ/mol
# Density = 2.014273 g / cm^3
# Si number density = 20.188682 Si / 1000 Ang^3
#
#
#
# Elastic Constant Matrix: (Units=GPa)
#
#
# Indices 1 2 3 4 5 6 
#
# 1 32.1936 2.8767 15.9596 0.0000 15.4991 0.0000
# 2 2.8767 66.6916 39.4015 0.0000 17.2164 0.0000
# 3 15.9596 39.4015 180.6827 0.0000 59.8183 0.0000
# 4 0.0000 0.0000 0.0000 33.1839 0.0000 2.5404
# 5 15.4991 17.2164 59.8183 0.0000 39.1886 0.0000
# 6 0.0000 0.0000 0.0000 2.5404 0.0000 6.0921
#
#
#
# Elastic Compliance Matrix: (Units=1/GPa)
#
#
# Indices 1 2 3 4 5 6 
#
# 1 0.039583 0.001939 0.003125 0.000000 -0.021277 0.000000
# 2 0.001939 0.017577 -0.002414 0.000000 -0.004805 0.000000
# 3 0.003125 -0.002414 0.011812 0.000000 -0.018206 0.000000
# 4 0.000000 0.000000 0.000000 0.031129 0.000000 -0.012981
# 5 -0.021277 -0.004805 -0.018206 0.000000 0.063834 0.000000
# 6 0.000000 0.000000 0.000000 -0.012981 0.000000 0.169559
#
#
# Mechanical properties :
#
#
# Convention : Reuss Voigt Hill
#
# Bulk Modulus (GPa) = 13.46382 44.00485 28.73433
# Shear Modulus (GPa) = 14.16626 30.44827 22.30727
#
# Velocity S-wave (km/s) = 2.65182 3.88775 3.32767
# Velocity P-wave (km/s) = 4.00745 6.48050 5.38779
#
# Compressibility (1/GPa) = 0.07427314
#
# Stress axis : x y z
#
# Youngs Moduli (GPa) = 25.26329 56.89241 84.65688
#
# Poissons Ratio (x) = -0.11032 -0.26455
# Poissons Ratio (y) = -0.04899 0.20433
# Poissons Ratio (z) = -0.07895 0.13732
#
# Static dielectric constant tensor:
#      x y z
#    x 1.740850 0.000000 0.037570 
#    y 0.000000 1.667470 0.000000 
#    z 0.037570 0.000000 1.816600 
# 
# From -- ./inp_files/197228.got.cif
#   From: 2010.05.17/outbox.cif.g08.bks.cpg/sg15_99_cif.got.tgz:197228.got - 2010.06.03 18:47:42.
