data_PCOD9253515
_publ_section_title
;
Structure prediction by ZEFSAII (Michael W. Deem and Ramdas Pophale) SiO2 
 PCOD9253515
Probable space group: P 21/C
;
_chemical_formula_sum "Si O2"
_cell_formula_units_Z 32
_cell_length_a 18.000000
_cell_length_b 9.000000
_cell_length_c 30.000000
_cell_angle_alpha 90.000000
_cell_angle_beta 20.000000
_cell_angle_gamma 90.000000
_cell_volume 1662.217897
_symmetry_space_group_name_H-M "P 21/C"
_symmetry_group_IT_number 14
_symmetry_cell_setting 'monoclinic'
loop_
_space_group_symop_operation_xyz
x,y,z
-x,1/2+y,1/2-z
-x,-y,-z
x,1/2-y,1/2+z
loop_
_atom_site_type_symbol
_atom_site_label
_atom_site_fract_x
_atom_site_fract_y
_atom_site_fract_z
Si Si1 0.053688 0.604220 0.814430
Si Si2 0.016620 0.160860 0.970019
Si Si3 0.143612 0.905820 0.039777
Si Si4 0.506336 0.341173 0.472270
Si Si5 0.384855 0.185429 0.218446
Si Si6 0.218597 0.648878 0.820836
Si Si7 0.212815 0.229441 0.215775
Si Si8 0.660899 0.797469 0.032111
O O1 0.241666 0.692774 0.681122
O O2 0.085052 0.637486 0.849679
O O3 0.094893 0.431803 0.779642
O O4 0.815605 0.658765 0.937502
O O5 0.900832 0.277363 0.069417
O O6 0.925724 0.138280 0.971137
O O7 0.263552 0.207659 0.821004
O O8 0.000000 0.000000 0.000000
O O9 0.962891 0.856883 0.177014
O O10 0.211495 0.075382 0.012005
O O11 0.359781 0.811298 0.923906
O O12 0.500000 0.500000 0.500000
O O13 0.368916 0.245231 0.585286
O O14 0.402796 0.355339 0.481321
O O15 0.330210 0.215443 0.197576
O O16 0.298424 0.021399 0.281489
O O17 0.439045 0.736724 0.683607
#
# Coordination Sequence:
#
# PCOD9253515 Si02
#       8
#     4   4   4   4   4   4   4   4
#     4   9  18  34  54  76 102 134 175 216 251 300
#     4  11  22  34  53  80 105 131 171 222 262 296
#     4  10  21  36  53  77 107 137 170 212 262 311
#     4   9  18  34  56  78 105 141 175 206 255 318
#     4   9  20  37  53  72 103 141 174 206 254 316
#     4   9  19  36  53  71 102 140 173 207 255 315
#     4   9  19  35  54  76 104 137 173 212 254 306
#     4  10  20  34  55  80 105 135 173 215 258 306
#
# _framework density 19.251387000000001
#
# number of rings (size 3 to 8) (size 9 to 14) (size 15 to 20)
#    0.000    2.500    0.000    3.375    0.000    7.000 
#    0.000    3.125    0.000    0.000    0.000    0.000 
#    0.000    0.000    0.000    0.000    0.000    0.000 
#
# Total GULP energy -178194.850470 kJ/mol
# GULP energy per Si atom -5568.589077 kJ/mol
# Density = 1.920757 g / cm^3
# Si number density = 19.251387 Si / 1000 Ang^3
#
#
#
# Elastic Constant Matrix: (Units=GPa)
#
#
# Indices 1 2 3 4 5 6 
#
# 1 30.0969 -7.5303 2.0121 0.0000 20.6368 0.0000
# 2 -7.5303 0.0681 -16.9323 0.0000 -0.1054 0.0000
# 3 2.0121 -16.9323 24.3924 0.0000 16.6352 0.0000
# 4 0.0000 0.0000 0.0000 29.7070 0.0000 0.2606
# 5 20.6368 -0.1054 16.6352 0.0000 36.9715 0.0000
# 6 0.0000 0.0000 0.0000 0.2606 0.0000 12.3922
#
#
#
# Elastic Compliance Matrix: (Units=1/GPa)
#
#
# Indices 1 2 3 4 5 6 
#
# 1 0.035240 -0.030918 -0.015717 0.000000 -0.012686 0.000000
# 2 -0.030918 -0.032416 -0.045674 0.000000 0.037716 0.000000
# 3 -0.015717 -0.045674 0.006772 0.000000 0.005596 0.000000
# 4 0.000000 0.000000 0.000000 0.033668 0.000000 -0.000708
# 5 -0.012686 0.037716 0.005596 0.000000 0.031719 0.000000
# 6 0.000000 0.000000 0.000000 -0.000708 0.000000 0.080711
#
#
# Mechanical properties :
#
#
# Convention : Reuss Voigt Hill
#
# Bulk Modulus (GPa) = -5.71351 1.07293 -2.32029
# Shear Modulus (GPa) = 17.73234 20.94799 19.34017
#
# Velocity S-wave (km/s) = 3.03825 3.30226 3.17300
# Velocity P-wave (km/s) = 3.05510 3.88567 3.49514
#
# Compressibility (1/GPa) = -0.17502389
#
# Stress axis : x y z
#
# Youngs Moduli (GPa) = 28.37703 -30.84870 147.67771
#
# Poissons Ratio (x) = -0.95379 2.32112
# Poissons Ratio (y) = 0.87737 6.74497
# Poissons Ratio (z) = 0.44602 -1.40897
#
# Static dielectric constant tensor:
#      x y z
#    x 1.270860 0.000000 -0.143540 
#    y 0.000000 1.699510 0.000000 
#    z -0.143540 0.000000 1.656780 
# 
# From -- ./inp_files/50074.got.cif
#   From: 2010.05.17/outbox.ucp.g08.bks.cvg/sg14_26_cif.got.tgz:50074.got - 2010.06.11 12:31:08.
