data_PCOD9253393
_publ_section_title
;
Structure prediction by ZEFSAII (Michael W. Deem and Ramdas Pophale) SiO2 
 PCOD9253393
Probable space group: P 21/C
;
_chemical_formula_sum "Si O2"
_cell_formula_units_Z 12
_cell_length_a 4.827617
_cell_length_b 5.157850
_cell_length_c 21.516728
_cell_angle_alpha 90.000000
_cell_angle_beta 64.458661
_cell_angle_gamma 90.000000
_cell_volume 483.410855
_symmetry_space_group_name_H-M "P 21/C"
_symmetry_group_IT_number 14
_symmetry_cell_setting 'monoclinic'
loop_
_space_group_symop_operation_xyz
x,y,z
-x,1/2+y,1/2-z
-x,-y,-z
x,1/2-y,1/2+z
loop_
_atom_site_type_symbol
_atom_site_label
_atom_site_fract_x
_atom_site_fract_y
_atom_site_fract_z
Si Si1 0.812660 0.829569 0.638346
Si Si2 0.482635 0.750699 0.045064
Si Si3 0.821560 0.319746 0.241452
O O1 0.735171 0.790892 0.573768
O O2 0.530126 0.699497 0.702233
O O3 0.158042 0.733237 0.612003
O O4 0.819901 0.118411 0.667625
O O5 0.500000 0.500000 0.000000
O O6 0.500000 0.000000 0.000000
O O7 0.991874 0.568061 0.255206
#
# Coordination Sequence:
#
# PCOD9253393 Si02
#       3
#     4   4   4
#     4  12  28  52  80 114 158 194 268 314 396 458
#     4  12  30  50  78 108 156 212 254 312 376 466
#     4  12  28  50  82 120 156 202 252 340 398 458
#
# _framework density 24.823606999999999
#
# number of rings (size 3 to 8) (size 9 to 14) (size 15 to 20)
#    0.000    0.000    3.333    4.000    4.667    5.333 
#    0.000    0.000    0.000    0.000    0.000    0.000 
#    0.000    0.000    0.000    0.000    0.000    0.000 
#
# Total GULP energy -67252.145199 kJ/mol
# GULP energy per Si atom -5604.345433 kJ/mol
# Density = 2.476711 g / cm^3
# Si number density = 24.823607 Si / 1000 Ang^3
#
#
#
# Elastic Constant Matrix: (Units=GPa)
#
#
# Indices 1 2 3 4 5 6 
#
# 1 125.9363 33.7082 6.1172 0.0000 -1.6478 0.0000
# 2 33.7082 173.5835 39.6273 0.0000 0.0601 0.0000
# 3 6.1172 39.6273 87.9279 0.0000 -10.5256 0.0000
# 4 0.0000 0.0000 0.0000 62.9223 0.0000 7.9413
# 5 -1.6478 0.0601 -10.5256 0.0000 78.1862 0.0000
# 6 0.0000 0.0000 0.0000 7.9413 0.0000 42.9796
#
#
#
# Elastic Compliance Matrix: (Units=1/GPa)
#
#
# Indices 1 2 3 4 5 6 
#
# 1 0.008381 -0.001672 0.000195 0.000000 0.000204 0.000000
# 2 -0.001672 0.006768 -0.002987 0.000000 -0.000443 0.000000
# 3 0.000195 -0.002987 0.012914 0.000000 0.001745 0.000000
# 4 0.000000 0.000000 0.000000 0.016272 0.000000 -0.003007
# 5 0.000204 -0.000443 0.001745 0.000000 0.013030 0.000000
# 6 0.000000 0.000000 0.000000 -0.003007 0.000000 0.023822
#
#
# Mechanical properties :
#
#
# Convention : Reuss Voigt Hill
#
# Bulk Modulus (GPa) = 52.25891 60.70590 56.48240
# Shear Modulus (GPa) = 51.81702 57.35061 54.58382
#
# Velocity S-wave (km/s) = 4.57377 4.81180 4.69430
# Velocity P-wave (km/s) = 6.99931 7.44172 7.22390
#
# Compressibility (1/GPa) = 0.01913549
#
# Stress axis : x y z
#
# Youngs Moduli (GPa) = 119.31335 147.76276 77.43353
#
# Poissons Ratio (x) = 0.24708 -0.01510
# Poissons Ratio (y) = 0.19951 0.23127
# Poissons Ratio (z) = -0.02326 0.44132
#
# Static dielectric constant tensor:
#      x y z
#    x 1.938410 0.000000 0.068180 
#    y 0.000000 1.977830 0.000000 
#    z 0.068180 0.000000 2.009940 
# 
# From -- ./inp_files/52373.got.cif
#   From: 2010.05.17/outbox.cif.g08.bks.cpg/sg14_27_cif.got.tgz:52373.got - 2010.06.03 17:49:19.
