data_PCOD9253982
_publ_section_title
;
Structure prediction by ZEFSAII (Michael W. Deem and Ramdas Pophale) SiO2 
 PCOD9253982
Probable space group: C 2/C
;
_chemical_formula_sum "Si O2"
_cell_formula_units_Z 40
_cell_length_a 12.087220
_cell_length_b 10.593722
_cell_length_c 21.451399
_cell_angle_alpha 90.000000
_cell_angle_beta 144.469809
_cell_angle_gamma 90.000000
_cell_volume 1596.266152
_symmetry_space_group_name_H-M "C 2/C"
_symmetry_group_IT_number 15
_symmetry_cell_setting 'monoclinic'
loop_
_space_group_symop_operation_xyz
x,y,z
-x,y,1/2-z
-x,-y,-z
x,-y,1/2+z
1/2+x,1/2+y,z
1/2-x,1/2+y,1/2-z
1/2-x,1/2-y,-z
1/2+x,1/2-y,1/2+z
loop_
_atom_site_type_symbol
_atom_site_label
_atom_site_fract_x
_atom_site_fract_y
_atom_site_fract_z
Si Si1 0.435126 0.585803 0.061641
Si Si2 0.172628 0.064576 0.871174
Si Si3 0.835468 0.435706 0.720371
Si Si4 0.972029 0.645205 0.635855
Si Si5 0.931716 0.579887 0.402056
O O1 0.419280 0.474537 0.104912
O O2 0.619546 0.584814 0.103731
O O3 0.458791 0.710433 0.115030
O O4 0.234055 0.598297 0.935974
O O5 0.256635 0.945213 0.868499
O O6 0.000000 0.117393 0.750000
O O7 0.371236 0.136005 0.980382
O O8 0.000000 0.394347 0.750000
O O9 0.867922 0.585579 0.747783
O O10 0.871352 0.373211 0.805714
O O11 0.005663 0.564666 0.588058
#
# Coordination Sequence:
#
# PCOD9253982 Si02
#       5
#     8   8   8   8   8
#     4  10  18  34  58  78 104 146 180 228 264 308
#     4  10  15  29  54  78  96 133 176 225 261 301
#     4  10  20  35  51  79 114 145 175 218 274 325
#     4   8  19  36  52  82 105 137 190 217 264 326
#     4   8  18  31  47  80 105 129 174 225 261 313
#
# _framework density 25.058478000000001
#
# number of rings (size 3 to 8) (size 9 to 14) (size 15 to 20)
#    1.200    1.600    2.000    0.000    0.000    1.600 
#    0.000    3.000    0.000    1.200    0.000    0.000 
#    0.000    0.000    0.000    0.000    0.000    0.000 
#
# Total GULP energy -111367.788010 kJ/mol
# GULP energy per Si atom -5568.389400 kJ/mol
# Density = 2.500144 g / cm^3
# Si number density = 25.058478 Si / 1000 Ang^3
#
#
#
# Elastic Constant Matrix: (Units=GPa)
#
#
# Indices 1 2 3 4 5 6 
#
# 1 112.4879 -8.9407 23.2052 0.0000 27.9223 0.0000
# 2 -8.9407 32.8437 1.6584 0.0000 3.5762 0.0000
# 3 23.2052 1.6584 110.2159 0.0000 18.1720 0.0000
# 4 0.0000 0.0000 0.0000 11.9755 0.0000 2.9638
# 5 27.9223 3.5762 18.1720 0.0000 54.1448 0.0000
# 6 0.0000 0.0000 0.0000 2.9638 0.0000 3.7525
#
#
#
# Elastic Compliance Matrix: (Units=1/GPa)
#
#
# Indices 1 2 3 4 5 6 
#
# 1 0.010794 0.003591 -0.001450 0.000000 -0.005317 0.000000
# 2 0.003591 0.031864 -0.000617 0.000000 -0.003749 0.000000
# 3 -0.001450 -0.000617 0.009800 0.000000 -0.002501 0.000000
# 4 0.000000 0.000000 0.000000 0.103791 0.000000 -0.081975
# 5 -0.005317 -0.003749 -0.002501 0.000000 0.022298 0.000000
# 6 0.000000 0.000000 0.000000 -0.081975 0.000000 0.331231
#
#
# Mechanical properties :
#
#
# Convention : Reuss Voigt Hill
#
# Bulk Modulus (GPa) = 18.01651 31.93259 24.97455
# Shear Modulus (GPa) = 9.51959 29.94954 19.73457
#
# Velocity S-wave (km/s) = 1.95120 3.46090 2.80936
# Velocity P-wave (km/s) = 3.50452 5.36109 4.52896
#
# Compressibility (1/GPa) = 0.05550466
#
# Stress axis : x y z
#
# Youngs Moduli (GPa) = 92.64267 31.38334 102.04125
#
# Poissons Ratio (x) = -0.11268 0.14796
# Poissons Ratio (y) = -0.33264 0.06299
# Poissons Ratio (z) = 0.13433 0.01937
#
# Static dielectric constant tensor:
#      x y z
#    x 2.040350 0.000000 -0.037250 
#    y 0.000000 1.964450 0.000000 
#    z -0.037250 0.000000 2.018290 
# 
# From -- ./inp_files/293282.got.cif
#   From: 2010.05.17/outbox.cif.g08.bks.cpg/sg15_147_cif.got.tgz:293282.got - 2010.06.03 18:47:42.
