data_PCOD9253401
_publ_section_title
;
Structure prediction by ZEFSAII (Michael W. Deem and Ramdas Pophale) SiO2 
 PCOD9253401
Probable space group: P 21/C
;
_chemical_formula_sum "Si O2"
_cell_formula_units_Z 22
_cell_length_a 4.752339
_cell_length_b 5.234835
_cell_length_c 32.602496
_cell_angle_alpha 90.000000
_cell_angle_beta 109.219986
_cell_angle_gamma 90.000000
_cell_volume 765.867407
_symmetry_space_group_name_H-M "P 21/C"
_symmetry_group_IT_number 14
_symmetry_cell_setting 'monoclinic'
loop_
_space_group_symop_operation_xyz
x,y,z
-x,1/2+y,1/2-z
-x,-y,-z
x,1/2-y,1/2+z
loop_
_atom_site_type_symbol
_atom_site_label
_atom_site_fract_x
_atom_site_fract_y
_atom_site_fract_z
Si Si1 0.665193 0.778104 0.635956
Si Si2 0.826933 0.491194 0.442159
Si Si3 0.325685 0.664088 0.936798
Si Si4 0.289632 0.641150 0.793053
Si Si5 0.000000 0.500000 0.000000
Si Si6 0.196658 0.469774 0.696919
O O1 0.408957 0.613154 0.602128
O O2 0.722743 0.016036 0.607821
O O3 0.580645 0.907225 0.675297
O O4 0.964897 0.623201 0.658742
O O5 0.677872 0.757907 0.453903
O O6 0.162524 0.720730 0.522421
O O7 0.504333 0.619939 0.310106
O O8 0.124838 0.917009 0.933573
O O9 0.203793 0.489476 0.966860
O O10 0.970338 0.709930 0.796414
O O11 0.260519 0.605516 0.743245
#
# Coordination Sequence:
#
# PCOD9253401 Si02
#       6
#     4   4   4   4   2   4
#     4  12  30  53  82 120 166 218 266 341 396 476
#     4  12  29  53  81 122 163 210 268 328 402 484
#     4  12  29  53  81 122 163 210 268 328 402 484
#     4  12  28  52  79 114 156 211 273 332 399 472
#     4  12  28  54  88 118 164 214 260 338 400 482
#     4  12  28  52  79 114 156 211 273 332 399 472
#
# _framework density 28.725598999999999
#
# number of rings (size 3 to 8) (size 9 to 14) (size 15 to 20)
#    0.000    0.000    1.818    5.455    0.000   19.636 
#    0.000    0.000    0.000    0.000    0.000    0.000 
#    0.000    0.000    0.000    0.000    0.000    0.000 
#
# Total GULP energy -123462.044653 kJ/mol
# GULP energy per Si atom -5611.911121 kJ/mol
# Density = 2.866022 g / cm^3
# Si number density = 28.725599 Si / 1000 Ang^3
#
#
#
# Elastic Constant Matrix: (Units=GPa)
#
#
# Indices 1 2 3 4 5 6 
#
# 1 136.3437 2.9008 36.4986 0.0000 -5.1653 0.0000
# 2 2.9008 118.2720 24.9981 0.0000 0.8793 0.0000
# 3 36.4986 24.9981 154.5208 0.0000 24.2732 0.0000
# 4 0.0000 0.0000 0.0000 67.2808 0.0000 -0.3268
# 5 -5.1653 0.8793 24.2732 0.0000 50.4187 0.0000
# 6 0.0000 0.0000 0.0000 -0.3268 0.0000 56.4271
#
#
#
# Elastic Compliance Matrix: (Units=1/GPa)
#
#
# Indices 1 2 3 4 5 6 
#
# 1 0.007997 0.000261 -0.002227 0.000000 0.001887 0.000000
# 2 0.000261 0.008778 -0.001581 0.000000 0.000635 0.000000
# 3 -0.002227 -0.001581 0.007881 0.000000 -0.003995 0.000000
# 4 0.000000 0.000000 0.000000 0.014864 0.000000 0.000086
# 5 0.001887 0.000635 -0.003995 0.000000 0.021939 0.000000
# 6 0.000000 0.000000 0.000000 0.000086 0.000000 0.017722
#
#
# Mechanical properties :
#
#
# Convention : Reuss Voigt Hill
#
# Bulk Modulus (GPa) = 56.94921 59.77017 58.35969
# Shear Modulus (GPa) = 54.27053 57.80791 56.03922
#
# Velocity S-wave (km/s) = 4.35129 4.49086 4.42163
# Velocity P-wave (km/s) = 6.71664 6.90963 6.81382
#
# Compressibility (1/GPa) = 0.01755951
#
# Stress axis : x y z
#
# Youngs Moduli (GPa) = 125.05273 113.91822 126.88530
#
# Poissons Ratio (x) = -0.02969 0.28263
# Poissons Ratio (y) = -0.03259 0.20066
# Poissons Ratio (z) = 0.27855 0.18015
#
# Static dielectric constant tensor:
#      x y z
#    x 2.055170 0.000000 -0.010690 
#    y 0.000000 1.961770 0.000000 
#    z -0.010690 0.000000 2.073940 
# 
# From -- ./inp_files/78510.got.cif
#   From: 2010.05.17/outbox.cif.g08.bks.cpg/sg14_40_cif.got.tgz:78510.got - 2010.06.03 17:49:19.
