data_PCOD9253392
_publ_section_title
;
Structure prediction by ZEFSAII (Michael W. Deem and Ramdas Pophale) SiO2 
 PCOD9253392
Probable space group: P 21/C
;
_chemical_formula_sum "Si O2"
_cell_formula_units_Z 20
_cell_length_a 4.711761
_cell_length_b 27.861963
_cell_length_c 6.889250
_cell_angle_alpha 90.000000
_cell_angle_beta 52.528855
_cell_angle_gamma 90.000000
_cell_volume 717.796446
_symmetry_space_group_name_H-M "P 21/C"
_symmetry_group_IT_number 14
_symmetry_cell_setting 'monoclinic'
loop_
_space_group_symop_operation_xyz
x,y,z
-x,1/2+y,1/2-z
-x,-y,-z
x,1/2-y,1/2+z
loop_
_atom_site_type_symbol
_atom_site_label
_atom_site_fract_x
_atom_site_fract_y
_atom_site_fract_z
Si Si1 0.162449 0.694145 0.007029
Si Si2 0.626070 0.455160 0.081987
Si Si3 0.338027 0.694143 0.492890
Si Si4 0.749850 0.119563 0.250022
Si Si5 0.873877 0.455165 0.418024
O O1 0.250241 0.682245 0.749960
O O2 0.250235 0.750001 0.999956
O O3 0.750243 0.686081 0.249966
O O4 0.402241 0.659589 0.039433
O O5 0.249962 0.427585 0.250026
O O6 0.749999 0.467365 0.249989
O O7 0.500000 0.500000 0.000000
O O8 0.880935 0.419874 0.855289
O O9 0.098209 0.659587 0.460515
O O10 0.618891 0.080108 0.144750
O O11 0.000000 0.500000 0.500000
#
# Coordination Sequence:
#
# PCOD9253392 Si02
#       5
#     4   4   4   4   4
#     4  12  28  50  80 116 164 218 281 345 420 499
#     4  12  28  50  80 116 165 217 281 345 420 499
#     4  12  28  50  80 116 164 218 281 345 420 499
#     4  12  30  44  82 110 166 218 278 344 422 498
#     4  12  28  50  80 116 165 217 281 345 420 499
#
# _framework density 27.863052
#
# number of rings (size 3 to 8) (size 9 to 14) (size 15 to 20)
#    0.000    0.000    4.000    3.600   11.200    0.000 
#    0.000    0.000    0.000    0.000    0.000    0.000 
#    0.000    0.000    0.000    0.000    0.000    0.000 
#
# Total GULP energy -111411.857328 kJ/mol
# GULP energy per Si atom -5570.592866 kJ/mol
# Density = 2.779963 g / cm^3
# Si number density = 27.863052 Si / 1000 Ang^3
#
#
#
# Elastic Constant Matrix: (Units=GPa)
#
#
# Indices 1 2 3 4 5 6 
#
# 1 170.9967 39.3639 87.9696 0.0000 3.1537 0.0000
# 2 39.3639 232.0463 102.0674 0.0000 39.7521 0.0000
# 3 87.9696 102.0674 301.5376 0.0000 54.6703 0.0000
# 4 0.0000 0.0000 0.0000 59.6959 0.0000 -5.9857
# 5 3.1537 39.7521 54.6703 0.0000 74.1917 0.0000
# 6 0.0000 0.0000 0.0000 -5.9857 0.0000 7.5583
#
#
#
# Elastic Compliance Matrix: (Units=1/GPa)
#
#
# Indices 1 2 3 4 5 6 
#
# 1 0.007053 -0.000512 -0.002170 0.000000 0.001573 0.000000
# 2 -0.000512 0.005287 -0.001305 0.000000 -0.001849 0.000000
# 3 -0.002170 -0.001305 0.004903 0.000000 -0.002821 0.000000
# 4 0.000000 0.000000 0.000000 0.018197 0.000000 0.014410
# 5 0.001573 -0.001849 -0.002821 0.000000 0.016481 0.000000
# 6 0.000000 0.000000 0.000000 0.014410 0.000000 0.143716
#
#
# Mechanical properties :
#
#
# Convention : Reuss Voigt Hill
#
# Bulk Modulus (GPa) = 107.87469 129.26470 118.56970
# Shear Modulus (GPa) = 24.18971 59.96783 42.07877
#
# Velocity S-wave (km/s) = 2.94966 4.64425 3.89034
# Velocity P-wave (km/s) = 7.09935 8.67481 7.92632
#
# Compressibility (1/GPa) = 0.00927001
#
# Stress axis : x y z
#
# Youngs Moduli (GPa) = 141.78333 189.13772 203.97592
#
# Poissons Ratio (x) = 0.09676 0.44256
# Poissons Ratio (y) = 0.07254 0.26620
# Poissons Ratio (z) = 0.30762 0.24684
#
# Static dielectric constant tensor:
#      x y z
#    x 2.157360 0.000000 -0.098680 
#    y 0.000000 2.107610 0.000000 
#    z -0.098680 0.000000 2.345720 
# 
# From -- ./inp_files/711.got.cif
#   From: 2010.05.17/outbox.cif.g08.bks.cpg/sg14_1_cif.got.tgz:711.got - 2010.06.03 17:49:19.
