data_PCOD9253117
_publ_section_title
;
Structure prediction by ZEFSAII (Michael W. Deem and Ramdas Pophale) SiO2 
 PCOD9253117
Probable space group: P 21/C
;
_chemical_formula_sum "Si O2"
_cell_formula_units_Z 16
_cell_length_a 10.593358
_cell_length_b 13.420703
_cell_length_c 10.120702
_cell_angle_alpha 90.000000
_cell_angle_beta 26.166500
_cell_angle_gamma 90.000000
_cell_volume 634.511637
_symmetry_space_group_name_H-M "P 21/C"
_symmetry_group_IT_number 14
_symmetry_cell_setting 'monoclinic'
loop_
_space_group_symop_operation_xyz
x,y,z
-x,1/2+y,1/2-z
-x,-y,-z
x,1/2-y,1/2+z
loop_
_atom_site_type_symbol
_atom_site_label
_atom_site_fract_x
_atom_site_fract_y
_atom_site_fract_z
Si Si1 0.488070 0.882001 0.024918
Si Si2 0.882716 0.010174 0.259224
Si Si3 0.039494 0.814632 0.630736
Si Si4 0.375827 0.616074 0.351536
O O1 0.532166 0.843999 0.835067
O O2 0.701356 0.826920 0.926159
O O3 0.172620 0.864769 0.376183
O O4 0.500000 0.000000 0.000000
O O5 0.605765 0.940310 0.543150
O O6 0.850510 0.122476 0.345059
O O7 0.141569 0.968275 0.105426
O O8 0.000000 0.000000 0.000000
O O9 0.168653 0.704603 0.500967
#
# Coordination Sequence:
#
# PCOD9253117 Si02
#       4
#     4   4   4   4
#     4  12  23  48  79 104 147 199 261 312 367 449
#     4  12  26  49  74 109 156 198 246 314 385 456
#     4  12  26  47  75 110 148 199 251 317 378 445
#     4  12  27  47  76 111 147 199 256 312 381 448
#
# _framework density 25.216244
#
# number of rings (size 3 to 8) (size 9 to 14) (size 15 to 20)
#    0.000    0.000    5.000    4.500    3.500    0.000 
#    9.000    0.000    0.000    0.000    0.000    0.000 
#    0.000    0.000    0.000    0.000    0.000    0.000 
#
# Total GULP energy -89433.881656 kJ/mol
# GULP energy per Si atom -5589.617604 kJ/mol
# Density = 2.515885 g / cm^3
# Si number density = 25.216244 Si / 1000 Ang^3
#
#
#
# Elastic Constant Matrix: (Units=GPa)
#
#
# Indices 1 2 3 4 5 6 
#
# 1 94.9033 14.1914 11.3121 0.0000 -1.0226 0.0000
# 2 14.1914 84.9815 32.6500 0.0000 -9.3479 0.0000
# 3 11.3121 32.6500 123.7292 0.0000 -5.2938 0.0000
# 4 0.0000 0.0000 0.0000 46.1576 0.0000 -8.7545
# 5 -1.0226 -9.3479 -5.2938 0.0000 43.8384 0.0000
# 6 0.0000 0.0000 0.0000 -8.7545 0.0000 22.8141
#
#
#
# Elastic Compliance Matrix: (Units=1/GPa)
#
#
# Indices 1 2 3 4 5 6 
#
# 1 0.010844 -0.001608 -0.000574 0.000000 -0.000159 0.000000
# 2 -0.001608 0.013587 -0.003333 0.000000 0.002457 0.000000
# 3 -0.000574 -0.003333 0.009030 0.000000 0.000366 0.000000
# 4 0.000000 0.000000 0.000000 0.023365 0.000000 0.008966
# 5 -0.000159 0.002457 0.000366 0.000000 0.023376 0.000000
# 6 0.000000 0.000000 0.000000 0.008966 0.000000 0.047273
#
#
# Mechanical properties :
#
#
# Convention : Reuss Voigt Hill
#
# Bulk Modulus (GPa) = 44.58181 46.65790 45.61986
# Shear Modulus (GPa) = 34.25086 38.92606 36.58846
#
# Velocity S-wave (km/s) = 3.68949 3.93324 3.81332
# Velocity P-wave (km/s) = 5.98899 6.25863 6.12529
#
# Compressibility (1/GPa) = 0.02243067
#
# Stress axis : x y z
#
# Youngs Moduli (GPa) = 92.21536 73.60158 110.74352
#
# Poissons Ratio (x) = 0.11835 0.06356
# Poissons Ratio (y) = 0.14827 0.36913
# Poissons Ratio (z) = 0.05293 0.24533
#
# Static dielectric constant tensor:
#      x y z
#    x 1.964690 0.000000 -0.044810 
#    y 0.000000 1.967060 0.000000 
#    z -0.044810 0.000000 1.901420 
# 
# From -- ./inp_files/29949.got.cif
#   From: 2010.05.17/outbox.cif.g08.bks.cpg/sg14_15_cif.got.tgz:29949.got - 2010.06.03 17:49:19.
