data_PCOD9253709
_publ_section_title
;
Structure prediction by ZEFSAII (Michael W. Deem and Ramdas Pophale) SiO2 
 PCOD9253709
Probable space group: P 21/C
;
_chemical_formula_sum "Si O2"
_cell_formula_units_Z 24
_cell_length_a 9.000000
_cell_length_b 15.000000
_cell_length_c 9.000000
_cell_angle_alpha 90.000000
_cell_angle_beta 100.000000
_cell_angle_gamma 90.000000
_cell_volume 1196.541420
_symmetry_space_group_name_H-M "P 21/C"
_symmetry_group_IT_number 14
_symmetry_cell_setting 'monoclinic'
loop_
_space_group_symop_operation_xyz
x,y,z
-x,1/2+y,1/2-z
-x,-y,-z
x,1/2-y,1/2+z
loop_
_atom_site_type_symbol
_atom_site_label
_atom_site_fract_x
_atom_site_fract_y
_atom_site_fract_z
Si Si1 0.784517 0.358421 0.849128
Si Si2 0.858173 0.854355 0.625791
Si Si3 0.390467 0.820493 0.186787
Si Si4 0.694651 0.769210 0.854792
Si Si5 0.455525 0.589841 0.410626
Si Si6 0.661419 0.033266 0.590923
O O1 0.726525 0.258830 0.803066
O O2 0.678100 0.422714 0.730528
O O3 0.731839 0.389127 0.001759
O O4 0.963606 0.366315 0.866578
O O5 0.827227 0.800894 0.771016
O O6 0.770635 0.792619 0.491399
O O7 0.773287 0.949425 0.614970
O O8 0.558627 0.787166 0.257160
O O9 0.362154 0.914778 0.259996
O O10 0.387702 0.839139 0.013197
O O11 0.605729 0.860369 0.880184
O O12 0.500000 0.500000 0.500000
O O13 0.500000 0.000000 0.500000
#
# Coordination Sequence:
#
# PCOD9253709 Si02
#       6
#     4   4   4   4   4   4
#     4  11  26  42  67  98 137 173 217 279 342 391
#     4  12  26  43  67 101 137 172 225 282 343 397
#     4  11  22  43  67  97 128 179 224 270 326 401
#     4  11  23  43  68  95 131 180 222 269 333 399
#     4  11  23  43  66  97 129 174 227 271 323 400
#     4  12  23  45  71  99 130 179 229 274 328 408
#
# _framework density 20.05781
#
# number of rings (size 3 to 8) (size 9 to 14) (size 15 to 20)
#    0.000    0.667    3.333    6.500    4.667    0.000 
#    3.000    1.667    0.000    0.000    0.000    0.000 
#    0.000    0.000    0.000    0.000    0.000    0.000 
#
# Total GULP energy -133960.280545 kJ/mol
# GULP energy per Si atom -5581.678356 kJ/mol
# Density = 2.001216 g / cm^3
# Si number density = 20.057810 Si / 1000 Ang^3
#
#
#
# Elastic Constant Matrix: (Units=GPa)
#
#
# Indices 1 2 3 4 5 6 
#
# 1 131.5519 29.6964 20.0825 0.0000 -1.8979 0.0000
# 2 29.6964 78.4374 12.6963 0.0000 4.7618 0.0000
# 3 20.0825 12.6963 53.6645 0.0000 -11.2388 0.0000
# 4 0.0000 0.0000 0.0000 37.0624 0.0000 -1.9584
# 5 -1.8979 4.7618 -11.2388 0.0000 21.0562 0.0000
# 6 0.0000 0.0000 0.0000 -1.9584 0.0000 21.4510
#
#
#
# Elastic Compliance Matrix: (Units=1/GPa)
#
#
# Indices 1 2 3 4 5 6 
#
# 1 0.008637 -0.002863 -0.002540 0.000000 0.000070 0.000000
# 2 -0.002863 0.014744 -0.003568 0.000000 -0.005497 0.000000
# 3 -0.002540 -0.003568 0.023136 0.000000 0.012927 0.000000
# 4 0.000000 0.000000 0.000000 0.027112 0.000000 0.002475
# 5 0.000070 -0.005497 0.012927 0.000000 0.055641 0.000000
# 6 0.000000 0.000000 0.000000 0.002475 0.000000 0.046844
#
#
# Mechanical properties :
#
#
# Convention : Reuss Voigt Hill
#
# Bulk Modulus (GPa) = 34.99565 43.17825 39.08695
# Shear Modulus (GPa) = 24.56019 29.32582 26.94300
#
# Velocity S-wave (km/s) = 3.50304 3.82784 3.66904
# Velocity P-wave (km/s) = 5.81782 6.41172 6.12197
#
# Compressibility (1/GPa) = 0.02857498
#
# Stress axis : x y z
#
# Youngs Moduli (GPa) = 115.78625 67.82327 43.22221
#
# Poissons Ratio (x) = 0.19417 0.10978
# Poissons Ratio (y) = 0.33149 0.15422
# Poissons Ratio (z) = 0.29410 0.24200
#
# Static dielectric constant tensor:
#      x y z
#    x 1.748460 0.000000 0.046890 
#    y 0.000000 1.700430 0.000000 
#    z 0.046890 0.000000 1.850820 
# 
# From -- ./inp_files/8406.got.cif
#   From: 2010.05.17/outbox.ucp.g08.bks.cvg/sg14_5_cif.got.tgz:8406.got - 2010.06.11 12:31:08.
