data_PCOD9253043
_publ_section_title
;
Structure prediction by ZEFSAII (Michael W. Deem and Ramdas Pophale) SiO2 
 PCOD9253043
Probable space group: P 21/C
;
_chemical_formula_sum "Si O2"
_cell_formula_units_Z 32
_cell_length_a 4.895978
_cell_length_b 9.384867
_cell_length_c 29.686392
_cell_angle_alpha 90.000000
_cell_angle_beta 98.765801
_cell_angle_gamma 90.000000
_cell_volume 1348.100814
_symmetry_space_group_name_H-M "P 21/C"
_symmetry_group_IT_number 14
_symmetry_cell_setting 'monoclinic'
loop_
_space_group_symop_operation_xyz
x,y,z
-x,1/2+y,1/2-z
-x,-y,-z
x,1/2-y,1/2+z
loop_
_atom_site_type_symbol
_atom_site_label
_atom_site_fract_x
_atom_site_fract_y
_atom_site_fract_z
Si Si1 0.911297 0.817342 0.853849
Si Si2 0.812648 0.116961 0.579132
Si Si3 0.382304 0.769672 0.793530
Si Si4 0.835009 0.633754 0.142993
Si Si5 0.408544 0.560219 0.202073
Si Si6 0.566405 0.711098 0.561195
Si Si7 0.250675 0.908279 0.937543
Si Si8 0.971373 0.212292 0.493576
O O1 0.926600 0.680668 0.887009
O O2 0.105450 0.774914 0.816443
O O3 0.612581 0.850696 0.828685
O O4 0.043823 0.933434 0.890357
O O5 0.905178 0.094637 0.530291
O O6 0.612770 0.255734 0.572883
O O7 0.715128 0.989019 0.606597
O O8 0.506219 0.608080 0.790492
O O9 0.348236 0.858089 0.747021
O O10 0.674710 0.629837 0.185631
O O11 0.739470 0.766794 0.111068
O O12 0.149849 0.596720 0.162903
O O13 0.264944 0.779967 0.550569
O O14 0.558982 0.542405 0.552052
O O15 0.740649 0.778560 0.524311
O O16 0.082404 0.854880 0.977078
#
# Coordination Sequence:
#
# PCOD9253043 Si02
#       8
#     4   4   4   4   4   4   4   4
#     4   9  21  38  64  89 111 164 193 231 297 363
#     4   8  20  41  63  85 122 165 195 241 289 371
#     4  12  22  42  66  86 121 146 201 244 293 364
#     4  12  25  42  61  87 128 155 194 247 305 346
#     4  12  25  43  62  93 115 158 193 249 302 354
#     4  12  22  39  59  89 125 154 202 258 283 340
#     4   8  20  38  62  87 121 161 199 244 293 351
#     4   9  23  37  61  90 117 163 205 240 296 337
#
# _framework density 23.737095
#
# number of rings (size 3 to 8) (size 9 to 14) (size 15 to 20)
#    1.500    0.000    2.500    2.250    0.000    9.000 
#    0.000    0.000    0.000    0.000    0.000    0.000 
#    0.000    0.000    0.000    0.000    0.000    0.000 
#
# Total GULP energy -178398.452159 kJ/mol
# GULP energy per Si atom -5574.951630 kJ/mol
# Density = 2.368307 g / cm^3
# Si number density = 23.737095 Si / 1000 Ang^3
#
#
#
# Elastic Constant Matrix: (Units=GPa)
#
#
# Indices 1 2 3 4 5 6 
#
# 1 71.5163 -6.6792 -4.4741 0.0000 -0.2548 0.0000
# 2 -6.6792 36.1924 2.8984 0.0000 9.9423 0.0000
# 3 -4.4741 2.8984 80.0550 0.0000 10.3306 0.0000
# 4 0.0000 0.0000 0.0000 31.0883 0.0000 -0.4486
# 5 -0.2548 9.9423 10.3306 0.0000 31.9260 0.0000
# 6 0.0000 0.0000 0.0000 -0.4486 0.0000 8.1172
#
#
#
# Elastic Compliance Matrix: (Units=1/GPa)
#
#
# Indices 1 2 3 4 5 6 
#
# 1 0.014298 0.002859 0.000830 0.000000 -0.001045 0.000000
# 2 0.002859 0.030788 0.000292 0.000000 -0.009659 0.000000
# 3 0.000830 0.000292 0.013084 0.000000 -0.004318 0.000000
# 4 0.000000 0.000000 0.000000 0.032192 0.000000 0.001779
# 5 -0.001045 -0.009659 -0.004318 0.000000 0.035719 0.000000
# 6 0.000000 0.000000 0.000000 0.001779 0.000000 0.123294
#
#
# Mechanical properties :
#
#
# Convention : Reuss Voigt Hill
#
# Bulk Modulus (GPa) = 15.12105 19.02821 17.07463
# Shear Modulus (GPa) = 18.97840 27.29420 23.13630
#
# Velocity S-wave (km/s) = 2.83066 3.39463 3.12539
# Velocity P-wave (km/s) = 4.13129 4.83718 4.49810
#
# Compressibility (1/GPa) = 0.06613297
#
# Stress axis : x y z
#
# Youngs Moduli (GPa) = 69.93938 32.48032 76.42646
#
# Poissons Ratio (x) = -0.09287 -0.06347
# Poissons Ratio (y) = -0.19997 -0.02229
# Poissons Ratio (z) = -0.05808 -0.00947
#
# Static dielectric constant tensor:
#      x y z
#    x 1.872430 0.000000 0.012860 
#    y 0.000000 2.006450 0.000000 
#    z 0.012860 0.000000 1.935150 
# 
# From -- ./inp_files/71317.got.cif
#   From: 2010.05.17/outbox.cif.g08.bks.cpg/sg14_36_cif.got.tgz:71317.got - 2010.06.03 17:49:19.
