data_PCOD9253512
_publ_section_title
;
Structure prediction by ZEFSAII (Michael W. Deem and Ramdas Pophale) SiO2 
 PCOD9253512
Probable space group: P 21/C
;
_chemical_formula_sum "Si O2"
_cell_formula_units_Z 28
_cell_length_a 30.000000
_cell_length_b 9.000000
_cell_length_c 30.000000
_cell_angle_alpha 90.000000
_cell_angle_beta 10.000000
_cell_angle_gamma 90.000000
_cell_volume 1406.550239
_symmetry_space_group_name_H-M "P 21/C"
_symmetry_group_IT_number 14
_symmetry_cell_setting 'monoclinic'
loop_
_space_group_symop_operation_xyz
x,y,z
-x,1/2+y,1/2-z
-x,-y,-z
x,1/2-y,1/2+z
loop_
_atom_site_type_symbol
_atom_site_label
_atom_site_fract_x
_atom_site_fract_y
_atom_site_fract_z
Si Si1 0.751964 0.246522 0.483886
Si Si2 0.716847 0.908202 0.728512
Si Si3 0.635107 0.098909 0.684640
Si Si4 0.373925 0.230154 0.277914
Si Si5 0.846064 0.759856 0.295602
Si Si6 0.087867 0.016199 0.110445
Si Si7 0.779979 0.882952 0.769038
O O1 0.595668 0.140165 0.671629
O O2 0.639379 0.267170 0.545074
O O3 0.793163 0.393761 0.472757
O O4 0.998834 0.147683 0.230941
O O5 0.654828 0.800933 0.747055
O O6 0.756904 0.838820 0.739055
O O7 0.974055 0.006946 0.467604
O O8 0.475383 0.020567 0.969485
O O9 0.876449 0.190835 0.465988
O O10 0.719628 0.928291 0.609240
O O11 0.380418 0.157506 0.960585
O O12 0.247199 0.387088 0.417190
O O13 0.807032 0.744779 0.280357
O O14 0.871577 0.920837 0.295384
#
# Coordination Sequence:
#
# PCOD9253512 Si02
#       7
#     4   4   4   4   4   4   4
#     4  11  27  42  62  91 134 178 226 273 332 404
#     4  10  22  36  70  96 133 162 228 267 349 395
#     4  11  25  40  68  91 129 172 223 271 335 387
#     4  12  24  41  64  99 127 180 214 289 320 417
#     4  11  23  44  65  97 129 173 220 280 326 405
#     4  11  28  41  66  94 137 182 230 274 345 398
#     4  10  19  42  64 102 124 173 213 288 327 415
#
# _framework density 19.906860999999999
#
# number of rings (size 3 to 8) (size 9 to 14) (size 15 to 20)
#    0.000    1.143    2.857    1.714   18.000    0.000 
#    0.000    0.714    0.000    0.857    0.000    0.000 
#    0.000    0.000    0.000    0.000    0.000    0.000 
#
# Total GULP energy -155996.350572 kJ/mol
# GULP energy per Si atom -5571.298235 kJ/mol
# Density = 1.986155 g / cm^3
# Si number density = 19.906861 Si / 1000 Ang^3
#
#
#
# Elastic Constant Matrix: (Units=GPa)
#
#
# Indices 1 2 3 4 5 6 
#
# 1 143.9151 32.6849 31.5644 0.0000 -14.3359 0.0000
# 2 32.6849 87.6800 18.1613 0.0000 -2.4574 0.0000
# 3 31.5644 18.1613 87.8531 0.0000 -12.0989 0.0000
# 4 0.0000 0.0000 0.0000 29.8076 0.0000 -1.4307
# 5 -14.3359 -2.4574 -12.0989 0.0000 26.4352 0.0000
# 6 0.0000 0.0000 0.0000 -1.4307 0.0000 46.3092
#
#
#
# Elastic Compliance Matrix: (Units=1/GPa)
#
#
# Indices 1 2 3 4 5 6 
#
# 1 0.008307 -0.002591 -0.001987 0.000000 0.003355 0.000000
# 2 -0.002591 0.012723 -0.001846 0.000000 -0.001067 0.000000
# 3 -0.001987 -0.001846 0.013134 0.000000 0.004762 0.000000
# 4 0.000000 0.000000 0.000000 0.033598 0.000000 0.001038
# 5 0.003355 -0.001067 0.004762 0.000000 0.041728 0.000000
# 6 0.000000 0.000000 0.000000 0.001038 0.000000 0.021626
#
#
# Mechanical properties :
#
#
# Convention : Reuss Voigt Hill
#
# Bulk Modulus (GPa) = 46.91347 53.80770 50.36059
# Shear Modulus (GPa) = 33.09713 36.31292 34.70502
#
# Velocity S-wave (km/s) = 4.08192 4.27563 4.17990
# Velocity P-wave (km/s) = 6.77006 7.17378 6.97484
#
# Compressibility (1/GPa) = 0.02131584
#
# Stress axis : x y z
#
# Youngs Moduli (GPa) = 120.38096 78.59477 76.13819
#
# Poissons Ratio (x) = 0.20364 0.15128
# Poissons Ratio (y) = 0.31191 0.14058
# Poissons Ratio (z) = 0.23919 0.14511
#
# Static dielectric constant tensor:
#      x y z
#    x 1.758220 0.000000 0.023650 
#    y 0.000000 1.741060 0.000000 
#    z 0.023650 0.000000 1.805930 
# 
# From -- ./inp_files/80889.got.cif
#   From: 2010.05.17/outbox.ucp.g08.bks.cvg/sg14_41_cif.got.tgz:80889.got - 2010.06.11 12:31:08.
