data_PCOD9253323
_publ_section_title
;
Structure prediction by ZEFSAII (Michael W. Deem and Ramdas Pophale) SiO2 
 PCOD9253323
Probable space group: P 21/C
;
_chemical_formula_sum "Si O2"
_cell_formula_units_Z 22
_cell_length_a 11.484499
_cell_length_b 11.965134
_cell_length_c 12.399501
_cell_angle_alpha 90.000000
_cell_angle_beta 30.952650
_cell_angle_gamma 90.000000
_cell_volume 876.345345
_symmetry_space_group_name_H-M "P 21/C"
_symmetry_group_IT_number 14
_symmetry_cell_setting 'monoclinic'
loop_
_space_group_symop_operation_xyz
x,y,z
-x,1/2+y,1/2-z
-x,-y,-z
x,1/2-y,1/2+z
loop_
_atom_site_type_symbol
_atom_site_label
_atom_site_fract_x
_atom_site_fract_y
_atom_site_fract_z
Si Si1 0.000000 0.000000 0.500000
Si Si2 0.390953 0.877431 0.093443
Si Si3 0.147065 0.717905 0.141460
Si Si4 0.716583 0.687264 0.875709
Si Si5 0.384826 0.003495 0.365653
Si Si6 0.154441 0.414223 0.445585
O O1 0.153585 0.896585 0.339797
O O2 0.221024 0.045181 0.400305
O O3 0.321382 0.812151 0.041034
O O4 0.558196 0.793921 0.020475
O O5 0.500000 0.000000 0.000000
O O6 0.967938 0.775211 0.205463
O O7 0.003640 0.662495 0.354053
O O8 0.267973 0.613586 0.990584
O O9 0.715739 0.652011 0.751999
O O10 0.638791 0.587482 0.014760
O O11 0.651268 0.977228 0.139215
O O12 0.000000 0.500000 0.500000
#
# Coordination Sequence:
#
# PCOD9253323 Si02
#       6
#     2   4   4   4   4   4
#     4  12  28  50  78 114 164 204 258 320 402 468
#     4  12  28  50  74 112 161 202 256 323 393 472
#     4  12  27  48  76 116 157 204 257 325 393 469
#     4  12  26  49  81 113 159 201 262 330 390 471
#     4  12  26  52  78 118 153 205 266 322 397 471
#     4  12  26  50  82 113 152 206 266 324 393 463
#
# _framework density 25.104261000000001
#
# number of rings (size 3 to 8) (size 9 to 14) (size 15 to 20)
#    0.000    0.000    5.455    3.818    5.091    1.455 
#    6.545    0.000    0.000    0.000    0.000    0.000 
#    0.000    0.000    0.000    0.000    0.000    0.000 
#
# Total GULP energy -122765.520860 kJ/mol
# GULP energy per Si atom -5580.250948 kJ/mol
# Density = 2.504712 g / cm^3
# Si number density = 25.104261 Si / 1000 Ang^3
#
#
#
# Elastic Constant Matrix: (Units=GPa)
#
#
# Indices 1 2 3 4 5 6 
#
# 1 113.3418 33.8209 50.9707 0.0000 -34.3133 0.0000
# 2 33.8209 144.9408 54.5070 0.0000 -20.3791 0.0000
# 3 50.9707 54.5070 90.1433 0.0000 -29.9194 0.0000
# 4 0.0000 0.0000 0.0000 65.9183 0.0000 -16.0236
# 5 -34.3133 -20.3791 -29.9194 0.0000 55.8025 0.0000
# 6 0.0000 0.0000 0.0000 -16.0236 0.0000 39.9164
#
#
#
# Elastic Compliance Matrix: (Units=1/GPa)
#
#
# Indices 1 2 3 4 5 6 
#
# 1 0.012840 -0.000245 -0.005500 0.000000 0.004857 0.000000
# 2 -0.000245 0.008944 -0.005152 0.000000 0.000353 0.000000
# 3 -0.005500 -0.005152 0.018943 0.000000 0.004893 0.000000
# 4 0.000000 0.000000 0.000000 0.016811 0.000000 0.006748
# 5 0.004857 0.000353 0.004893 0.000000 0.023659 0.000000
# 6 0.000000 0.000000 0.000000 0.006748 0.000000 0.027761
#
#
# Mechanical properties :
#
#
# Convention : Reuss Voigt Hill
#
# Bulk Modulus (GPa) = 52.82082 69.66925 61.24503
# Shear Modulus (GPa) = 36.47963 46.26924 41.37444
#
# Velocity S-wave (km/s) = 3.81612 4.29777 4.06409
# Velocity P-wave (km/s) = 6.36422 7.24155 6.81701
#
# Compressibility (1/GPa) = 0.01893193
#
# Stress axis : x y z
#
# Youngs Moduli (GPa) = 77.88334 111.80944 52.79024
#
# Poissons Ratio (x) = 0.02737 0.29035
# Poissons Ratio (y) = 0.01907 0.27200
# Poissons Ratio (z) = 0.42836 0.57609
#
# Static dielectric constant tensor:
#      x y z
#    x 2.055870 0.000000 0.086440 
#    y 0.000000 1.945470 0.000000 
#    z 0.086440 0.000000 2.012430 
# 
# From -- ./inp_files/44595.got.cif
#   From: 2010.05.17/outbox.cif.g08.bks.cpg/sg14_23_cif.got.tgz:44595.got - 2010.06.03 17:49:19.
