data_PCOD9253787
_publ_section_title
;
Structure prediction by ZEFSAII (Michael W. Deem and Ramdas Pophale) SiO2 
 PCOD9253787
Probable space group: C 2/C
;
_chemical_formula_sum "Si O2"
_cell_formula_units_Z 52
_cell_length_a 16.297209
_cell_length_b 18.589743
_cell_length_c 9.209606
_cell_angle_alpha 90.000000
_cell_angle_beta 82.075837
_cell_angle_gamma 90.000000
_cell_volume 2763.508769
_symmetry_space_group_name_H-M "C 2/C"
_symmetry_group_IT_number 15
_symmetry_cell_setting 'monoclinic'
loop_
_space_group_symop_operation_xyz
x,y,z
-x,y,1/2-z
-x,-y,-z
x,-y,1/2+z
1/2+x,1/2+y,z
1/2-x,1/2+y,1/2-z
1/2-x,1/2-y,-z
1/2+x,1/2-y,1/2+z
loop_
_atom_site_type_symbol
_atom_site_label
_atom_site_fract_x
_atom_site_fract_y
_atom_site_fract_z
Si Si1 0.867897 0.188461 0.481214
Si Si2 0.728948 0.226466 0.268066
Si Si3 0.742329 0.434869 0.454002
Si Si4 0.442111 0.973065 0.140546
Si Si5 0.844880 0.655459 0.697650
Si Si6 0.199315 0.568778 0.229220
Si Si7 0.000000 0.752190 0.750000
O O1 0.799694 0.207068 0.371988
O O2 0.847076 0.241673 0.619616
O O3 0.844147 0.107916 0.535808
O O4 0.956340 0.201341 0.387011
O O5 0.771762 0.290927 0.167621
O O6 0.706173 0.153026 0.193173
O O7 0.807908 0.383023 0.352552
O O8 0.749955 0.513192 0.382021
O O9 0.766559 0.439083 0.615152
O O10 0.500000 0.938923 0.250000
O O11 0.376339 0.913714 0.101295
O O12 0.393035 0.037312 0.231421
O O13 0.500000 0.000000 0.000000
O O14 0.925691 0.703600 0.705931
#
# Coordination Sequence:
#
# PCOD9253787 Si02
#       7
#     8   8   8   8   8   8   4
#     4   8  15  25  44  67  95 115 160 207 240 268
#     4   8  15  28  45  66  88 128 165 198 229 273
#     4   9  18  32  46  70  97 126 160 196 239 285
#     4  11  21  30  46  73 107 127 148 191 253 299
#     4   9  17  28  45  70  99 124 157 202 238 280
#     4  10  18  30  50  67  97 130 161 194 235 290
#     4  10  14  22  46  70  94 116 156 210 246 264
#
# _framework density 18.816658
#
# number of rings (size 3 to 8) (size 9 to 14) (size 15 to 20)
#    0.000    2.769    0.769    4.615    2.154    0.000 
#    0.000    0.000    0.000   23.077    0.000    0.000 
#    0.000    0.000    0.000    0.000    0.000    0.000 
#
# Total GULP energy -144782.771821 kJ/mol
# GULP energy per Si atom -5568.568147 kJ/mol
# Density = 1.877383 g / cm^3
# Si number density = 18.816658 Si / 1000 Ang^3
#
#
#
# Elastic Constant Matrix: (Units=GPa)
#
#
# Indices 1 2 3 4 5 6 
#
# 1 47.2315 40.6240 26.3082 0.0000 -28.2759 0.0000
# 2 40.6240 129.9549 48.6127 0.0000 -26.7389 0.0000
# 3 26.3082 48.6127 71.8505 0.0000 -28.3237 0.0000
# 4 0.0000 0.0000 0.0000 28.9771 0.0000 1.8755
# 5 -28.2759 -26.7389 -28.3237 0.0000 33.4947 0.0000
# 6 0.0000 0.0000 0.0000 1.8755 0.0000 4.6233
#
#
#
# Elastic Compliance Matrix: (Units=1/GPa)
#
#
# Indices 1 2 3 4 5 6 
#
# 1 0.049328 -0.008744 0.002277 0.000000 0.036588 0.000000
# 2 -0.008744 0.012133 -0.006148 0.000000 -0.002895 0.000000
# 3 0.002277 -0.006148 0.024101 0.000000 0.017394 0.000000
# 4 0.000000 0.000000 0.000000 0.035440 0.000000 -0.014377
# 5 0.036588 -0.002895 0.017394 0.000000 0.073140 0.000000
# 6 0.000000 0.000000 0.000000 -0.014377 0.000000 0.222125
#
#
# Mechanical properties :
#
#
# Convention : Reuss Voigt Hill
#
# Bulk Modulus (GPa) = 16.57502 53.34741 34.96122
# Shear Modulus (GPa) = 10.83171 22.31850 16.57510
#
# Velocity S-wave (km/s) = 2.40186 3.44772 2.97117
# Velocity P-wave (km/s) = 4.06445 6.65295 5.51278
#
# Compressibility (1/GPa) = 0.06033176
#
# Stress axis : x y z
#
# Youngs Moduli (GPa) = 20.27234 82.42298 41.49274
#
# Poissons Ratio (x) = 0.72069 -0.09449
# Poissons Ratio (y) = 0.17726 0.25511
# Poissons Ratio (z) = -0.04617 0.50677
#
# Static dielectric constant tensor:
#      x y z
#    x 1.669560 0.000000 0.000820 
#    y 0.000000 1.732610 0.000000 
#    z 0.000820 0.000000 1.690010 
# 
# From -- ./inp_files/106027.got.cif
#   From: 2010.05.17/outbox.cif.g08.bks.cpg/sg15_54_cif.got.tgz:106027.got - 2010.06.03 18:47:42.
