data_PCOD9253793
_publ_section_title
;
Structure prediction by ZEFSAII (Michael W. Deem and Ramdas Pophale) SiO2 
 PCOD9253793
Probable space group: C 2/C
;
_chemical_formula_sum "Si O2"
_cell_formula_units_Z 40
_cell_length_a 32.317993
_cell_length_b 7.446383
_cell_length_c 10.923435
_cell_angle_alpha 90.000000
_cell_angle_beta 32.358218
_cell_angle_gamma 90.000000
_cell_volume 1406.934774
_symmetry_space_group_name_H-M "C 2/C"
_symmetry_group_IT_number 15
_symmetry_cell_setting 'monoclinic'
loop_
_space_group_symop_operation_xyz
x,y,z
-x,y,1/2-z
-x,-y,-z
x,-y,1/2+z
1/2+x,1/2+y,z
1/2-x,1/2+y,1/2-z
1/2-x,1/2-y,-z
1/2+x,1/2-y,1/2+z
loop_
_atom_site_type_symbol
_atom_site_label
_atom_site_fract_x
_atom_site_fract_y
_atom_site_fract_z
Si Si1 0.453088 0.694786 0.242255
Si Si2 0.588867 0.166596 0.001020
Si Si3 0.095126 0.201706 0.732069
Si Si4 0.317985 0.138282 0.963550
Si Si5 0.180064 0.020193 0.189507
O O1 0.500000 0.698289 0.250000
O O2 0.427500 0.495949 0.264260
O O3 0.375580 0.813702 0.429520
O O4 0.514529 0.767714 0.989525
O O5 0.500000 0.123386 0.250000
O O6 0.625064 0.177751 0.046605
O O7 0.630073 0.071243 0.783867
O O8 0.601842 0.374533 0.924121
O O9 0.156856 0.161691 0.683253
O O10 0.289540 0.338740 0.989130
O O11 0.240337 0.022653 0.149722
#
# Coordination Sequence:
#
# PCOD9253793 Si02
#       5
#     8   8   8   8   8
#     4  10  17  23  38  63  92 114 147 173 216 258
#     4  10  14  24  41  63  86 112 146 181 208 257
#     4  10  15  23  39  66  85 111 147 180 211 255
#     4   8  16  28  37  57  92 129 137 166 225 269
#     4   8  16  26  38  58  93 125 138 167 225 270
#
# _framework density 28.430600999999999
#
# number of rings (size 3 to 8) (size 9 to 14) (size 15 to 20)
#    1.200    1.600    2.000    3.000    0.000    0.000 
#    0.000    0.000    0.000    1.200    0.000    0.000 
#    0.000    9.600    0.000    0.000    0.000    0.000 
#
# Total GULP energy -111708.913379 kJ/mol
# GULP energy per Si atom -5585.445669 kJ/mol
# Density = 2.836589 g / cm^3
# Si number density = 28.430601 Si / 1000 Ang^3
#
#
#
# Elastic Constant Matrix: (Units=GPa)
#
#
# Indices 1 2 3 4 5 6 
#
# 1 156.8786 15.6669 29.2035 0.0000 -51.1589 0.0000
# 2 15.6669 105.1538 18.6557 0.0000 -17.5699 0.0000
# 3 29.2035 18.6557 96.6688 0.0000 -16.3913 0.0000
# 4 0.0000 0.0000 0.0000 18.3503 0.0000 -16.2691
# 5 -51.1589 -17.5699 -16.3913 0.0000 68.6735 0.0000
# 6 0.0000 0.0000 0.0000 -16.2691 0.0000 -0.9687
#
#
#
# Elastic Compliance Matrix: (Units=1/GPa)
#
#
# Indices 1 2 3 4 5 6 
#
# 1 0.008646 0.000006 -0.001585 0.000000 0.006065 0.000000
# 2 0.000006 0.010162 -0.001586 0.000000 0.002226 0.000000
# 3 -0.001585 -0.001586 0.011318 0.000000 0.001115 0.000000
# 4 0.000000 0.000000 0.000000 0.003430 0.000000 -0.057598
# 5 0.006065 0.002226 0.001115 0.000000 0.019915 0.000000
# 6 0.000000 0.000000 0.000000 -0.057598 0.000000 -0.064966
#
#
# Mechanical properties :
#
#
# Convention : Reuss Voigt Hill
#
# Bulk Modulus (GPa) = 42.01929 53.97259 47.99594
# Shear Modulus (GPa) = 1806.53249 36.88937 921.71093
#
# Velocity S-wave (km/s) = 25.23485 3.60602 18.02500
# Velocity P-wave (km/s) = 29.39176 6.03018 21.21601
#
# Compressibility (1/GPa) = 0.02379859
#
# Stress axis : x y z
#
# Youngs Moduli (GPa) = 115.65431 98.40377 88.35100
#
# Poissons Ratio (x) = -0.00062 0.14003
# Poissons Ratio (y) = -0.00073 0.14009
# Poissons Ratio (z) = 0.18331 0.15603
#
# Static dielectric constant tensor:
#      x y z
#    x 2.318580 0.000000 0.044030 
#    y 0.000000 2.302970 0.000000 
#    z 0.044030 0.000000 2.221320 
# 
# From -- ./inp_files/126581.got.cif
#   From: 2010.05.17/outbox.cif.g08.bks.cpg/sg15_64_cif.got.tgz:126581.got - 2010.06.03 18:47:42.
