data_PCOD9253241
_publ_section_title
;
Structure prediction by ZEFSAII (Michael W. Deem and Ramdas Pophale) SiO2 
 PCOD9253241
Probable space group: P 21/C
;
_chemical_formula_sum "Si O2"
_cell_formula_units_Z 20
_cell_length_a 21.442031
_cell_length_b 5.369587
_cell_length_c 14.387989
_cell_angle_alpha 90.000000
_cell_angle_beta 156.194168
_cell_angle_gamma 90.000000
_cell_volume 668.650854
_symmetry_space_group_name_H-M "P 21/C"
_symmetry_group_IT_number 14
_symmetry_cell_setting 'monoclinic'
loop_
_space_group_symop_operation_xyz
x,y,z
-x,1/2+y,1/2-z
-x,-y,-z
x,1/2-y,1/2+z
loop_
_atom_site_type_symbol
_atom_site_label
_atom_site_fract_x
_atom_site_fract_y
_atom_site_fract_z
Si Si1 0.568722 0.985422 0.991864
Si Si2 0.133655 0.211042 0.426302
Si Si3 0.094213 0.817193 0.560281
Si Si4 0.854436 0.290867 0.185104
Si Si5 0.596436 0.977240 0.772224
O O1 0.495020 0.222392 0.836600
O O2 0.747825 0.049493 0.251219
O O3 0.520978 0.706770 0.896246
O O4 0.500000 0.000000 0.000000
O O5 0.274230 0.406651 0.632006
O O6 0.009486 0.240699 0.169250
O O7 0.213842 0.971259 0.487901
O O8 0.137837 0.609989 0.699053
O O9 0.015595 0.221477 0.351737
O O10 0.729938 0.065943 0.024874
O O11 0.000000 0.000000 0.500000
#
# Coordination Sequence:
#
# PCOD9253241 Si02
#       5
#     4   4   4   4   4
#     4  12  30  52  79 121 169 214 270 342 422 488
#     4  12  25  50  84 119 165 221 275 346 415 495
#     4  12  28  50  81 125 161 220 283 341 406 507
#     4  12  25  47  84 118 169 213 283 337 418 490
#     4  12  26  50  81 113 163 223 265 335 418 490
#
# _framework density 29.910978
#
# number of rings (size 3 to 8) (size 9 to 14) (size 15 to 20)
#    0.000    0.000    6.000    2.400    2.800    4.800 
#    0.000    0.000    0.000    0.000    0.000    0.000 
#    0.000    0.000    0.000    0.000    0.000    0.000 
#
# Total GULP energy -111640.439241 kJ/mol
# GULP energy per Si atom -5582.021962 kJ/mol
# Density = 2.984290 g / cm^3
# Si number density = 29.910978 Si / 1000 Ang^3
#
#
#
# Elastic Constant Matrix: (Units=GPa)
#
#
# Indices 1 2 3 4 5 6 
#
# 1 197.8566 18.6636 73.2719 0.0000 0.8582 0.0000
# 2 18.6636 177.5058 56.2566 0.0000 23.2062 0.0000
# 3 73.2719 56.2566 187.0130 0.0000 31.1134 0.0000
# 4 0.0000 0.0000 0.0000 70.3986 0.0000 5.7441
# 5 0.8582 23.2062 31.1134 0.0000 70.1420 0.0000
# 6 0.0000 0.0000 0.0000 5.7441 0.0000 18.9163
#
#
#
# Elastic Compliance Matrix: (Units=1/GPa)
#
#
# Indices 1 2 3 4 5 6 
#
# 1 0.005982 0.000037 -0.002527 0.000000 0.001036 0.000000
# 2 0.000037 0.006344 -0.001699 0.000000 -0.001346 0.000000
# 3 -0.002527 -0.001699 0.007288 0.000000 -0.002640 0.000000
# 4 0.000000 0.000000 0.000000 0.014566 0.000000 -0.004423
# 5 0.001036 -0.001346 -0.002640 0.000000 0.015860 0.000000
# 6 0.000000 0.000000 0.000000 -0.004423 0.000000 0.054207
#
#
# Mechanical properties :
#
#
# Convention : Reuss Voigt Hill
#
# Bulk Modulus (GPa) = 89.00780 95.41773 92.21277
# Shear Modulus (GPa) = 42.96606 59.50361 51.23484
#
# Velocity S-wave (km/s) = 3.79418 4.46506 4.14322
# Velocity P-wave (km/s) = 7.00119 7.65194 7.33378
#
# Compressibility (1/GPa) = 0.01123497
#
# Stress axis : x y z
#
# Youngs Moduli (GPa) = 167.16610 157.62604 137.22093
#
# Poissons Ratio (x) = -0.00576 0.34677
# Poissons Ratio (y) = -0.00611 0.23311
# Poissons Ratio (z) = 0.42244 0.26778
#
# Static dielectric constant tensor:
#      x y z
#    x 2.390950 0.000000 -0.191600 
#    y 0.000000 2.949260 0.000000 
#    z -0.191600 0.000000 2.625740 
# 
# From -- ./inp_files/62419.got.cif
#   From: 2010.05.17/outbox.cif.g08.bks.cpg/sg14_32_cif.got.tgz:62419.got - 2010.06.03 17:49:19.
