data_PCOD9253652
_publ_section_title
;
Structure prediction by ZEFSAII (Michael W. Deem and Ramdas Pophale) SiO2 
 PCOD9253652
Probable space group: P 21/C
;
_chemical_formula_sum "Si O2"
_cell_formula_units_Z 32
_cell_length_a 15.000000
_cell_length_b 12.000000
_cell_length_c 9.000000
_cell_angle_alpha 90.000000
_cell_angle_beta 110.000000
_cell_angle_gamma 90.000000
_cell_volume 1522.302046
_symmetry_space_group_name_H-M "P 21/C"
_symmetry_group_IT_number 14
_symmetry_cell_setting 'monoclinic'
loop_
_space_group_symop_operation_xyz
x,y,z
-x,1/2+y,1/2-z
-x,-y,-z
x,1/2-y,1/2+z
loop_
_atom_site_type_symbol
_atom_site_label
_atom_site_fract_x
_atom_site_fract_y
_atom_site_fract_z
Si Si1 0.674638 0.387851 0.289159
Si Si2 0.644489 0.708548 0.031802
Si Si3 0.052627 0.389383 0.703890
Si Si4 0.171948 0.326598 0.268448
Si Si5 0.796391 0.964068 0.490145
Si Si6 0.136659 0.509098 0.478269
Si Si7 0.656930 0.147987 0.423300
Si Si8 0.448170 0.391869 0.741807
O O1 0.782371 0.425167 0.387428
O O2 0.655789 0.276001 0.371284
O O3 0.606764 0.490651 0.298282
O O4 0.660315 0.365562 0.104777
O O5 0.704663 0.609816 0.987843
O O6 0.595427 0.799997 0.897253
O O7 0.727955 0.763331 0.178595
O O8 0.570423 0.655666 0.103055
O O9 0.090593 0.264389 0.754298
O O10 0.080157 0.424914 0.553450
O O11 0.940975 0.414184 0.649938
O O12 0.121339 0.468605 0.840291
O O13 0.154409 0.391361 0.108097
O O14 0.185098 0.423150 0.394977
O O15 0.750462 0.081617 0.421168
O O16 0.561420 0.096023 0.297419
#
# Coordination Sequence:
#
# PCOD9253652 Si02
#       8
#     4   4   4   4   4   4   4   4
#     4  12  26  48  64  99 142 180 222 280 342 403
#     4  11  21  40  70  98 130 176 224 291 321 395
#     4  10  22  43  70  98 132 175 226 274 342 406
#     4  11  22  40  68 104 127 172 229 278 335 402
#     4  11  23  42  66  98 135 172 229 278 332 397
#     4  11  23  44  70  95 138 176 215 288 341 397
#     4  12  28  43  68  97 141 185 221 279 346 398
#     4  12  24  44  71  99 135 179 233 277 338 403
#
# _framework density 21.020796000000001
#
# number of rings (size 3 to 8) (size 9 to 14) (size 15 to 20)
#    0.000    0.750    5.000    3.375    3.500    1.500 
#    2.250    1.875    0.000    0.000    0.000    0.000 
#    0.000    0.000    0.000    0.000    0.000    0.000 
#
# Total GULP energy -178717.684452 kJ/mol
# GULP energy per Si atom -5584.927639 kJ/mol
# Density = 2.097295 g / cm^3
# Si number density = 21.020796 Si / 1000 Ang^3
#
#
#
# Elastic Constant Matrix: (Units=GPa)
#
#
# Indices 1 2 3 4 5 6 
#
# 1 51.4274 29.4245 5.7897 0.0000 33.7718 0.0000
# 2 29.4245 118.1195 40.2575 0.0000 16.9367 0.0000
# 3 5.7897 40.2575 50.2835 0.0000 30.3793 0.0000
# 4 0.0000 0.0000 0.0000 42.2794 0.0000 19.5529
# 5 33.7718 16.9367 30.3793 0.0000 36.2267 0.0000
# 6 0.0000 0.0000 0.0000 19.5529 0.0000 115.5915
#
#
#
# Elastic Compliance Matrix: (Units=1/GPa)
#
#
# Indices 1 2 3 4 5 6 
#
# 1 -0.057760 0.026007 -0.079772 0.000000 0.108583 0.000000
# 2 0.026007 0.000362 0.023240 0.000000 -0.043903 0.000000
# 3 -0.079772 0.023240 -0.056549 0.000000 0.110923 0.000000
# 4 0.000000 0.000000 0.000000 0.025659 0.000000 -0.004340
# 5 0.108583 -0.043903 0.110923 0.000000 -0.146114 0.000000
# 6 0.000000 0.000000 0.000000 -0.004340 0.000000 0.009385
#
#
# Mechanical properties :
#
#
# Convention : Reuss Voigt Hill
#
# Bulk Modulus (GPa) = -5.71438 41.19709 17.74136
# Shear Modulus (GPa) = -22.49229 48.44343 12.97557
#
# Velocity S-wave (km/s) = -3.27464 4.80578 2.48719
# Velocity P-wave (km/s) = 4.12577 7.10175 4.08735
#
# Compressibility (1/GPa) = -0.17499725
#
# Stress axis : x y z
#
# Youngs Moduli (GPa) = -17.31312 2764.11920 -17.68378
#
# Poissons Ratio (x) = -71.88679 -1.41068
# Poissons Ratio (y) = 0.45026 0.41097
# Poissons Ratio (z) = -1.38111 -64.23858
#
# Static dielectric constant tensor:
#      x y z
#    x 1.776830 0.000000 -0.023500 
#    y 0.000000 1.760840 0.000000 
#    z -0.023500 0.000000 1.773720 
# 
# From -- ./inp_files/15834.got.cif
#   From: 2010.05.17/outbox.ucp.g08.bks.cvg/sg14_8_cif.got.tgz:15834.got - 2010.06.11 12:31:08.
