data_PCOD9253693
_publ_section_title
;
Structure prediction by ZEFSAII (Michael W. Deem and Ramdas Pophale) SiO2 
 PCOD9253693
Probable space group: P 21/C
;
_chemical_formula_sum "Si O2"
_cell_formula_units_Z 28
_cell_length_a 21.000000
_cell_length_b 9.000000
_cell_length_c 9.000000
_cell_angle_alpha 90.000000
_cell_angle_beta 50.000000
_cell_angle_gamma 90.000000
_cell_volume 1303.041598
_symmetry_space_group_name_H-M "P 21/C"
_symmetry_group_IT_number 14
_symmetry_cell_setting 'monoclinic'
loop_
_space_group_symop_operation_xyz
x,y,z
-x,1/2+y,1/2-z
-x,-y,-z
x,1/2-y,1/2+z
loop_
_atom_site_type_symbol
_atom_site_label
_atom_site_fract_x
_atom_site_fract_y
_atom_site_fract_z
Si Si1 0.401002 0.923129 0.290590
Si Si2 0.904648 0.949269 0.463994
Si Si3 0.414396 0.114606 0.958163
Si Si4 0.941767 0.661993 0.231345
Si Si5 0.181010 0.943607 0.926506
Si Si6 0.637684 0.584898 0.827760
Si Si7 0.789703 0.144090 0.451550
O O1 0.488174 0.836600 0.177194
O O2 0.310402 0.847792 0.416921
O O3 0.399833 0.006579 0.459327
O O4 0.407149 0.995427 0.110108
O O5 0.939283 0.830844 0.291861
O O6 0.903536 0.864576 0.624141
O O7 0.819891 0.018253 0.523861
O O8 0.967417 0.087135 0.396490
O O9 0.395140 0.084101 0.804306
O O10 0.360979 0.247774 0.110298
O O11 0.886092 0.564302 0.426170
O O12 0.174950 0.896021 0.763587
O O13 0.271570 0.014637 0.817483
O O14 0.176146 0.799459 0.038808
#
# Coordination Sequence:
#
# PCOD9253693 Si02
#       7
#     4   4   4   4   4   4   4
#     4  10  25  43  64  98 128 185 230 281 352 405
#     4  11  25  44  72 101 142 176 229 275 337 407
#     4  11  23  42  68  92 138 175 231 290 341 413
#     4  11  25  44  70 105 135 184 221 279 337 406
#     4  11  26  43  69 100 137 180 230 279 347 406
#     4  11  24  43  68  99 134 182 233 289 344 420
#     4  11  25  45  66  98 137 177 227 285 334 414
#
# _framework density 21.488185999999999
#
# number of rings (size 3 to 8) (size 9 to 14) (size 15 to 20)
#    0.000    1.143    1.429    3.000    6.000    8.000 
#    0.000    0.000    0.000    0.000    0.000    0.000 
#    0.000    0.000    0.000    0.000    0.000    0.000 
#
# Total GULP energy -155938.196196 kJ/mol
# GULP energy per Si atom -5569.221293 kJ/mol
# Density = 2.143928 g / cm^3
# Si number density = 21.488186 Si / 1000 Ang^3
#
#
#
# Elastic Constant Matrix: (Units=GPa)
#
#
# Indices 1 2 3 4 5 6 
#
# 1 121.6919 19.5693 28.1262 0.0000 30.4579 0.0000
# 2 19.5693 56.5402 -6.9119 0.0000 3.4907 0.0000
# 3 28.1262 -6.9119 76.0471 0.0000 26.3896 0.0000
# 4 0.0000 0.0000 0.0000 35.1689 0.0000 7.1936
# 5 30.4579 3.4907 26.3896 0.0000 44.6547 0.0000
# 6 0.0000 0.0000 0.0000 7.1936 0.0000 25.4752
#
#
#
# Elastic Compliance Matrix: (Units=1/GPa)
#
#
# Indices 1 2 3 4 5 6 
#
# 1 0.010769 -0.003664 -0.002348 0.000000 -0.005671 0.000000
# 2 -0.003664 0.019450 0.003501 0.000000 -0.001090 0.000000
# 3 -0.002348 0.003501 0.017455 0.000000 -0.008988 0.000000
# 4 0.000000 0.000000 0.000000 0.030177 0.000000 -0.008521
# 5 -0.005671 -0.001090 -0.008988 0.000000 0.031659 0.000000
# 6 0.000000 0.000000 0.000000 -0.008521 0.000000 0.041660
#
#
# Mechanical properties :
#
#
# Convention : Reuss Voigt Hill
#
# Bulk Modulus (GPa) = 23.44507 37.31626 30.38066
# Shear Modulus (GPa) = 29.34114 35.29281 32.31697
#
# Velocity S-wave (km/s) = 3.69921 4.05709 3.88228
# Velocity P-wave (km/s) = 5.40185 6.27298 5.85364
#
# Compressibility (1/GPa) = 0.04265289
#
# Stress axis : x y z
#
# Youngs Moduli (GPa) = 92.86103 51.41371 57.28933
#
# Poissons Ratio (x) = 0.18838 0.13451
# Poissons Ratio (y) = 0.34025 -0.20059
# Poissons Ratio (z) = 0.21803 -0.18002
#
# Static dielectric constant tensor:
#      x y z
#    x 1.785180 0.000000 0.015500 
#    y 0.000000 1.800460 0.000000 
#    z 0.015500 0.000000 1.817600 
# 
# From -- ./inp_files/18722.got.cif
#   From: 2010.05.17/outbox.ucp.g08.bks.cvg/sg14_10_cif.got.tgz:18722.got - 2010.06.11 12:31:08.
