data_PCOD9253337
_publ_section_title
;
Structure prediction by ZEFSAII (Michael W. Deem and Ramdas Pophale) SiO2 
 PCOD9253337
Probable space group: P 21/C
;
_chemical_formula_sum "Si O2"
_cell_formula_units_Z 28
_cell_length_a 7.478492
_cell_length_b 15.995355
_cell_length_c 13.284239
_cell_angle_alpha 90.000000
_cell_angle_beta 136.355274
_cell_angle_gamma 90.000000
_cell_volume 1096.755657
_symmetry_space_group_name_H-M "P 21/C"
_symmetry_group_IT_number 14
_symmetry_cell_setting 'monoclinic'
loop_
_space_group_symop_operation_xyz
x,y,z
-x,1/2+y,1/2-z
-x,-y,-z
x,1/2-y,1/2+z
loop_
_atom_site_type_symbol
_atom_site_label
_atom_site_fract_x
_atom_site_fract_y
_atom_site_fract_z
Si Si1 0.344091 0.628772 0.978093
Si Si2 0.500000 0.000000 0.000000
Si Si3 0.058491 0.933994 0.169699
Si Si4 0.520949 0.044380 0.273007
Si Si5 0.153369 0.155499 0.429514
Si Si6 0.789373 0.317301 0.599416
Si Si7 0.000000 0.500000 0.000000
Si Si8 0.176072 0.312664 0.572281
O O1 0.152300 0.598613 0.814713
O O2 0.337059 0.728718 0.984764
O O3 0.293202 0.570495 0.055351
O O4 0.632513 0.614577 0.056206
O O5 0.776194 0.973192 0.064154
O O6 0.595750 0.103401 0.021900
O O7 0.272328 0.995987 0.210639
O O8 0.032152 0.857911 0.083050
O O9 0.427295 0.129701 0.187844
O O10 0.731276 0.990687 0.301686
O O11 0.247761 0.229298 0.541659
O O12 0.921968 0.185480 0.263618
O O13 0.086323 0.082546 0.477083
O O14 0.035320 0.315435 0.622706
#
# Coordination Sequence:
#
# PCOD9253337 Si02
#       8
#     4   2   4   4   4   4   2   4
#     4  12  26  52  79 111 163 212 265 329 400 473
#     4  12  28  48  84 114 160 206 268 324 408 462
#     4  12  26  50  81 114 158 208 262 332 394 478
#     4  12  27  51  78 117 160 203 268 328 396 476
#     4  12  27  53  77 116 162 212 270 331 401 476
#     4  12  28  51  78 119 157 214 267 335 400 475
#     4  12  30  46  82 118 152 210 266 330 394 468
#     4  12  27  52  79 115 163 211 268 329 398 481
#
# _framework density 25.529843
#
# number of rings (size 3 to 8) (size 9 to 14) (size 15 to 20)
#    0.000    0.000    5.714    2.571    6.000    1.143 
#    2.571    0.000    0.000    0.000    0.000    0.000 
#    0.000    0.000    0.000    0.000    0.000    0.000 
#
# Total GULP energy -155964.247558 kJ/mol
# GULP energy per Si atom -5570.151698 kJ/mol
# Density = 2.547174 g / cm^3
# Si number density = 25.529843 Si / 1000 Ang^3
#
#
#
# Elastic Constant Matrix: (Units=GPa)
#
#
# Indices 1 2 3 4 5 6 
#
# 1 100.5294 20.1153 -10.3263 0.0000 26.5776 0.0000
# 2 20.1153 75.4084 19.8358 0.0000 -23.4753 0.0000
# 3 -10.3263 19.8358 49.6874 0.0000 -2.0252 0.0000
# 4 0.0000 0.0000 0.0000 42.0527 0.0000 2.5788
# 5 26.5776 -23.4753 -2.0252 0.0000 46.7844 0.0000
# 6 0.0000 0.0000 0.0000 2.5788 0.0000 31.8504
#
#
#
# Elastic Compliance Matrix: (Units=1/GPa)
#
#
# Indices 1 2 3 4 5 6 
#
# 1 0.016782 -0.010973 0.007268 0.000000 -0.014725 0.000000
# 2 -0.010973 0.024877 -0.011469 0.000000 0.018219 0.000000
# 3 0.007268 -0.011469 0.025858 0.000000 -0.008764 0.000000
# 4 0.000000 0.000000 0.000000 0.023898 0.000000 -0.001935
# 5 -0.014725 0.018219 -0.008764 0.000000 0.038502 0.000000
# 6 0.000000 0.000000 0.000000 -0.001935 0.000000 0.031553
#
#
# Mechanical properties :
#
#
# Convention : Reuss Voigt Hill
#
# Bulk Modulus (GPa) = 26.90351 31.65277 29.27814
# Shear Modulus (GPa) = 24.48488 37.20420 30.84454
#
# Velocity S-wave (km/s) = 3.10024 3.82158 3.47965
# Velocity P-wave (km/s) = 4.83490 5.64782 5.25710
#
# Compressibility (1/GPa) = 0.03716986
#
# Stress axis : x y z
#
# Youngs Moduli (GPa) = 59.58633 40.19816 38.67343
#
# Poissons Ratio (x) = 0.44108 -0.28108
# Poissons Ratio (y) = 0.65381 0.44354
# Poissons Ratio (z) = -0.43307 0.46103
#
# Static dielectric constant tensor:
#      x y z
#    x 2.370000 0.000000 -0.248290 
#    y 0.000000 2.168280 0.000000 
#    z -0.248290 0.000000 3.510910 
# 
# From -- ./inp_files/41464.got.cif
#   From: 2010.05.17/outbox.cif.g08.bks.cpg/sg14_21_cif.got.tgz:41464.got - 2010.06.03 17:49:19.
