data_PCOD9253471
_publ_section_title
;
Structure prediction by ZEFSAII (Michael W. Deem and Ramdas Pophale) SiO2 
 PCOD9253471
Probable space group: P 21/C
;
_chemical_formula_sum "Si O2"
_cell_formula_units_Z 32
_cell_length_a 15.000000
_cell_length_b 21.000000
_cell_length_c 15.000000
_cell_angle_alpha 90.000000
_cell_angle_beta 160.000000
_cell_angle_gamma 90.000000
_cell_volume 1616.045177
_symmetry_space_group_name_H-M "P 21/C"
_symmetry_group_IT_number 14
_symmetry_cell_setting 'monoclinic'
loop_
_space_group_symop_operation_xyz
x,y,z
-x,1/2+y,1/2-z
-x,-y,-z
x,1/2-y,1/2+z
loop_
_atom_site_type_symbol
_atom_site_label
_atom_site_fract_x
_atom_site_fract_y
_atom_site_fract_z
Si Si1 0.597890 0.336800 0.254493
Si Si2 0.549863 0.797238 0.861984
Si Si3 0.077209 0.292873 0.988667
Si Si4 0.071727 0.111682 0.313791
Si Si5 0.006587 0.148090 0.608368
Si Si6 0.014382 0.963087 0.269156
Si Si7 0.437914 0.794505 0.484877
Si Si8 0.430523 0.096418 0.261828
O O1 0.522001 0.272821 0.236977
O O2 0.864152 0.364476 0.544407
O O3 0.592140 0.308446 0.149137
O O4 0.362296 0.385908 0.046035
O O5 0.288598 0.829049 0.654590
O O6 0.621534 0.842066 0.848355
O O7 0.792325 0.802210 0.156779
O O8 0.075828 0.337478 0.899193
O O9 0.835062 0.242586 0.749900
O O10 0.044176 0.344232 0.038425
O O11 0.328328 0.251432 0.259165
O O12 0.006227 0.038819 0.279468
O O13 0.050184 0.081733 0.704160
O O14 0.306650 0.941159 0.517622
O O15 0.816940 0.946593 0.001101
O O16 0.500312 0.865486 0.582513
#
# Coordination Sequence:
#
# PCOD9253471 Si02
#       8
#     4   4   4   4   4   4   4   4
#     4  12  23  41  61  91 130 161 201 261 324 360
#     4  10  18  35  60  88 117 152 197 245 325 352
#     4  12  22  40  64  99 129 151 208 259 322 371
#     4  12  26  40  62  91 126 171 204 257 301 373
#     4  10  19  36  62  89 120 160 188 257 298 369
#     4  10  23  42  60  87 126 167 219 235 300 370
#     4  12  24  41  64  99 124 155 208 265 315 371
#     4  10  21  39  64  84 118 166 209 258 290 370
#
# _framework density 19.801427
#
# number of rings (size 3 to 8) (size 9 to 14) (size 15 to 20)
#    0.000    1.000    2.500    5.250    0.000    2.500 
#    0.000    3.750    0.000    7.500    0.000    0.000 
#    0.000    0.000    0.000    0.000    0.000    0.000 
#
# Total GULP energy -178355.811310 kJ/mol
# GULP energy per Si atom -5573.619103 kJ/mol
# Density = 1.975636 g / cm^3
# Si number density = 19.801427 Si / 1000 Ang^3
#
#
#
# Elastic Constant Matrix: (Units=GPa)
#
#
# Indices 1 2 3 4 5 6 
#
# 1 70.4827 30.5004 29.1975 0.0000 -17.8239 0.0000
# 2 30.5004 95.2847 10.5526 0.0000 -1.8904 0.0000
# 3 29.1975 10.5526 98.0216 0.0000 -9.0225 0.0000
# 4 0.0000 0.0000 0.0000 31.1662 0.0000 -1.4711
# 5 -17.8239 -1.8904 -9.0225 0.0000 22.1669 0.0000
# 6 0.0000 0.0000 0.0000 -1.4711 0.0000 26.3333
#
#
#
# Elastic Compliance Matrix: (Units=1/GPa)
#
#
# Indices 1 2 3 4 5 6 
#
# 1 0.023005 -0.006528 -0.004673 0.000000 0.016039 0.000000
# 2 -0.006528 0.012478 0.000224 0.000000 -0.004093 0.000000
# 3 -0.004673 0.000224 0.011663 0.000000 0.001008 0.000000
# 4 0.000000 0.000000 0.000000 0.032171 0.000000 0.001797
# 5 0.016039 -0.004093 0.001008 0.000000 0.058070 0.000000
# 6 0.000000 0.000000 0.000000 0.001797 0.000000 0.038075
#
#
# Mechanical properties :
#
#
# Convention : Reuss Voigt Hill
#
# Bulk Modulus (GPa) = 39.69569 44.92111 42.30840
# Shear Modulus (GPa) = 24.29399 28.83586 26.56492
#
# Velocity S-wave (km/s) = 3.50649 3.82023 3.66671
# Velocity P-wave (km/s) = 6.04023 6.49568 6.27209
#
# Compressibility (1/GPa) = 0.02519165
#
# Stress axis : x y z
#
# Youngs Moduli (GPa) = 43.46968 80.13857 85.74480
#
# Poissons Ratio (x) = 0.52314 0.40071
# Poissons Ratio (y) = 0.28377 -0.01923
# Poissons Ratio (z) = 0.20315 -0.01797
#
# Static dielectric constant tensor:
#      x y z
#    x 1.803870 0.000000 0.005910 
#    y 0.000000 1.708340 0.000000 
#    z 0.005910 0.000000 1.691330 
# 
# From -- ./inp_files/47667.got.cif
#   From: 2010.05.17/outbox.ucp.g08.bks.cvg/sg14_24_cif.got.tgz:47667.got - 2010.06.11 12:31:08.
