data_PCOD9253586
_publ_section_title
;
Structure prediction by ZEFSAII (Michael W. Deem and Ramdas Pophale) SiO2 
 PCOD9253586
Probable space group: P 21/C
;
_chemical_formula_sum "Si O2"
_cell_formula_units_Z 32
_cell_length_a 15.000000
_cell_length_b 21.000000
_cell_length_c 15.000000
_cell_angle_alpha 90.000000
_cell_angle_beta 160.000000
_cell_angle_gamma 90.000000
_cell_volume 1616.045177
_symmetry_space_group_name_H-M "P 21/C"
_symmetry_group_IT_number 14
_symmetry_cell_setting 'monoclinic'
loop_
_space_group_symop_operation_xyz
x,y,z
-x,1/2+y,1/2-z
-x,-y,-z
x,1/2-y,1/2+z
loop_
_atom_site_type_symbol
_atom_site_label
_atom_site_fract_x
_atom_site_fract_y
_atom_site_fract_z
Si Si1 0.742862 0.413086 0.746210
Si Si2 0.052709 0.638466 0.616022
Si Si3 0.386801 0.018779 0.590265
Si Si4 0.497494 0.626564 0.178721
Si Si5 0.933871 0.784453 0.837528
Si Si6 0.556436 0.296477 0.693092
Si Si7 0.054339 0.926392 0.937431
Si Si8 0.292087 0.447265 0.197072
O O1 0.631455 0.354679 0.698200
O O2 0.562484 0.420467 0.489438
O O3 0.720393 0.479625 0.779415
O O4 0.046903 0.409066 0.006793
O O5 0.790930 0.619519 0.420089
O O6 0.102200 0.584267 0.587869
O O7 0.972563 0.699491 0.479513
O O8 0.297008 0.647579 0.911514
O O9 0.402961 0.943175 0.619467
O O10 0.675136 0.046949 0.845674
O O11 0.277852 0.050544 0.577615
O O12 0.189767 0.031903 0.323670
O O13 0.513709 0.673598 0.277486
O O14 0.670292 0.748338 0.561577
O O15 0.181800 0.743093 0.045347
O O16 0.969294 0.854643 0.827982
#
# Coordination Sequence:
#
# PCOD9253586 Si02
#       8
#     4   4   4   4   4   4   4   4
#     4  10  21  38  61  89 126 177 198 259 337 375
#     4  10  24  45  61  94 131 173 209 267 325 387
#     4  12  22  40  65 102 134 164 219 271 323 406
#     4  12  24  39  69 104 128 160 226 276 326 377
#     4  10  24  45  64  84 130 178 220 260 325 386
#     4  12  22  43  69  96 124 177 220 272 324 382
#     4  10  24  42  66  87 134 180 203 258 340 374
#     4  10  21  38  58  92 137 157 208 260 321 398
#
# _framework density 19.801427
#
# number of rings (size 3 to 8) (size 9 to 14) (size 15 to 20)
#    0.750    0.500    1.250    5.250    0.000    3.000 
#    0.000   12.500    0.000    0.000    0.000    0.000 
#    0.000    0.000    0.000    0.000    0.000    0.000 
#
# Total GULP energy -178620.890658 kJ/mol
# GULP energy per Si atom -5581.902833 kJ/mol
# Density = 1.975636 g / cm^3
# Si number density = 19.801427 Si / 1000 Ang^3
#
#
#
# Elastic Constant Matrix: (Units=GPa)
#
#
# Indices 1 2 3 4 5 6 
#
# 1 57.5476 2.6395 3.6657 0.0000 -9.7982 0.0000
# 2 2.6395 32.5558 16.3059 0.0000 -14.6472 0.0000
# 3 3.6657 16.3059 92.0069 0.0000 14.0032 0.0000
# 4 0.0000 0.0000 0.0000 150.9429 0.0000 -45.0539
# 5 -9.7982 -14.6472 14.0032 0.0000 19.4564 0.0000
# 6 0.0000 0.0000 0.0000 -45.0539 0.0000 35.2957
#
#
#
# Elastic Compliance Matrix: (Units=1/GPa)
#
#
# Indices 1 2 3 4 5 6 
#
# 1 0.021802 0.014126 -0.007481 0.000000 0.026999 0.000000
# 2 0.014126 0.087699 -0.030587 0.000000 0.095150 0.000000
# 3 -0.007481 -0.030587 0.023208 0.000000 -0.043497 0.000000
# 4 0.000000 0.000000 0.000000 0.010703 0.000000 0.013662
# 5 0.026999 0.095150 -0.043497 0.000000 0.167929 0.000000
# 6 0.000000 0.000000 0.000000 0.013662 0.000000 0.045771
#
#
# Mechanical properties :
#
#
# Convention : Reuss Voigt Hill
#
# Bulk Modulus (GPa) = 11.78883 25.25916 18.52400
# Shear Modulus (GPa) = 11.54011 51.77231 31.65621
#
# Velocity S-wave (km/s) = 2.41673 5.11884 4.00269
# Velocity P-wave (km/s) = 3.70862 6.90801 5.54412
#
# Compressibility (1/GPa) = 0.08482604
#
# Stress axis : x y z
#
# Youngs Moduli (GPa) = 45.86649 11.40257 43.08924
#
# Poissons Ratio (x) = -0.16108 0.32236
# Poissons Ratio (y) = -0.64793 1.31796
# Poissons Ratio (z) = 0.34314 0.34877
#
# Static dielectric constant tensor:
#      x y z
#    x 1.749570 0.000000 -0.009320 
#    y 0.000000 1.729250 0.000000 
#    z -0.009320 0.000000 1.645670 
# 
# From -- ./inp_files/47681.got.cif
#   From: 2010.05.17/outbox.ucp.g08.bks.cvg/sg14_24_cif.got.tgz:47681.got - 2010.06.11 12:31:08.
