data_PCOD9253411
_publ_section_title
;
Structure prediction by ZEFSAII (Michael W. Deem and Ramdas Pophale) SiO2 
 PCOD9253411
Probable space group: P 21/C
;
_chemical_formula_sum "Si O2"
_cell_formula_units_Z 12
_cell_length_a 20.327004
_cell_length_b 5.121310
_cell_length_c 13.528985
_cell_angle_alpha 90.000000
_cell_angle_beta 160.831657
_cell_angle_gamma 90.000000
_cell_volume 462.434056
_symmetry_space_group_name_H-M "P 21/C"
_symmetry_group_IT_number 14
_symmetry_cell_setting 'monoclinic'
loop_
_space_group_symop_operation_xyz
x,y,z
-x,1/2+y,1/2-z
-x,-y,-z
x,1/2-y,1/2+z
loop_
_atom_site_type_symbol
_atom_site_label
_atom_site_fract_x
_atom_site_fract_y
_atom_site_fract_z
Si Si1 0.963889 0.836674 0.350213
Si Si2 0.308851 0.663542 0.695207
Si Si3 0.396419 0.499805 0.146458
O O1 0.162942 0.750183 0.575837
O O2 0.828742 0.592035 0.190668
O O3 0.000000 0.000000 0.500000
O O4 0.830138 0.000176 0.080143
O O5 0.395377 0.908070 0.757405
O O6 0.500000 0.500000 0.000000
O O7 0.530026 0.249729 0.310096
#
# Coordination Sequence:
#
# PCOD9253411 Si02
#       3
#     4   4   4
#     4  12  30  58  94 136 189 247 318 388 471 563
#     4  12  30  58  94 136 189 247 318 388 471 563
#     4  12  28  56  90 136 182 242 306 384 470 554
#
# _framework density 25.949646999999999
#
# number of rings (size 3 to 8) (size 9 to 14) (size 15 to 20)
#    0.000    0.000    6.667    0.000    9.333    5.333 
#    0.000    3.333    0.000    0.000    0.000    0.000 
#    0.000    0.000    0.000    0.000    0.000    0.000 
#
# Total GULP energy -67458.041999 kJ/mol
# GULP energy per Si atom -5621.503500 kJ/mol
# Density = 2.589058 g / cm^3
# Si number density = 25.949647 Si / 1000 Ang^3
#
#
#
# Elastic Constant Matrix: (Units=GPa)
#
#
# Indices 1 2 3 4 5 6 
#
# 1 256.5397 139.1093 173.6762 0.0000 51.7295 0.0000
# 2 139.1093 214.9677 113.5923 0.0000 22.1474 0.0000
# 3 173.6762 113.5923 204.3728 0.0000 -6.7687 0.0000
# 4 0.0000 0.0000 0.0000 69.4792 0.0000 5.4157
# 5 51.7295 22.1474 -6.7687 0.0000 63.2598 0.0000
# 6 0.0000 0.0000 0.0000 5.4157 0.0000 75.5356
#
#
#
# Elastic Compliance Matrix: (Units=1/GPa)
#
#
# Indices 1 2 3 4 5 6 
#
# 1 0.018522 -0.002486 -0.014884 0.000000 -0.015868 0.000000
# 2 -0.002486 0.007417 -0.002035 0.000000 -0.000781 0.000000
# 3 -0.014884 -0.002035 0.019167 0.000000 0.014934 0.000000
# 4 0.000000 0.000000 0.000000 0.014474 0.000000 -0.001038
# 5 -0.015868 -0.000781 0.014934 0.000000 0.030655 0.000000
# 6 0.000000 0.000000 0.000000 -0.001038 0.000000 0.013313
#
#
# Mechanical properties :
#
#
# Convention : Reuss Voigt Hill
#
# Bulk Modulus (GPa) = 158.84989 169.84840 164.34914
# Shear Modulus (GPa) = 34.61208 58.28843 46.45025
#
# Velocity S-wave (km/s) = 3.65611 4.74456 4.23545
# Velocity P-wave (km/s) = 8.89777 9.77802 9.34826
#
# Compressibility (1/GPa) = 0.00629525
#
# Stress axis : x y z
#
# Youngs Moduli (GPa) = 53.98871 134.82912 52.17233
#
# Poissons Ratio (x) = 0.33524 0.77653
# Poissons Ratio (y) = 0.13424 0.10618
# Poissons Ratio (z) = 0.80356 0.27441
#
# Static dielectric constant tensor:
#      x y z
#    x 2.005050 0.000000 -0.058060 
#    y 0.000000 2.018300 0.000000 
#    z -0.058060 0.000000 2.070760 
# 
# From -- ./inp_files/33304.got.cif
#   From: 2010.05.17/outbox.cif.g08.bks.cpg/sg14_17_cif.got.tgz:33304.got - 2010.06.03 17:49:19.
