data_PCOD9253354
_publ_section_title
;
Structure prediction by ZEFSAII (Michael W. Deem and Ramdas Pophale) SiO2 
 PCOD9253354
Probable space group: P 21/C
;
_chemical_formula_sum "Si O2"
_cell_formula_units_Z 16
_cell_length_a 19.194580
_cell_length_b 7.521257
_cell_length_c 8.907398
_cell_angle_alpha 90.000000
_cell_angle_beta 152.319428
_cell_angle_gamma 90.000000
_cell_volume 597.371771
_symmetry_space_group_name_H-M "P 21/C"
_symmetry_group_IT_number 14
_symmetry_cell_setting 'monoclinic'
loop_
_space_group_symop_operation_xyz
x,y,z
-x,1/2+y,1/2-z
-x,-y,-z
x,1/2-y,1/2+z
loop_
_atom_site_type_symbol
_atom_site_label
_atom_site_fract_x
_atom_site_fract_y
_atom_site_fract_z
Si Si1 0.525151 0.351843 0.678737
Si Si2 0.658232 0.612080 0.364877
Si Si3 0.823535 0.176158 0.320732
Si Si4 0.109510 0.388476 0.809707
O O1 0.500000 0.500000 0.500000
O O2 0.468245 0.164306 0.499019
O O3 0.425119 0.375151 0.635099
O O4 0.695173 0.326676 0.063285
O O5 0.773664 0.445297 0.582180
O O6 0.771009 0.777788 0.555621
O O7 0.990707 0.251069 0.655020
O O8 0.815116 0.033039 0.438283
O O9 0.000000 0.500000 0.500000
#
# Coordination Sequence:
#
# PCOD9253354 Si02
#       4
#     4   4   4   4
#     4  12  28  52  88 128 168 220 286 360 431 509
#     4  12  26  53  83 125 167 221 285 357 428 501
#     4  12  28  52  83 122 169 226 283 354 425 511
#     4  12  28  52  81 121 171 226 284 347 428 513
#
# _framework density 26.783992999999999
#
# number of rings (size 3 to 8) (size 9 to 14) (size 15 to 20)
#    0.000    0.000    2.500    6.000    3.500    0.000 
#    0.000    0.000    0.000    0.000    0.000    0.000 
#    0.000    0.000    0.000    0.000    0.000    0.000 
#
# Total GULP energy -89525.998304 kJ/mol
# GULP energy per Si atom -5595.374894 kJ/mol
# Density = 2.672303 g / cm^3
# Si number density = 26.783993 Si / 1000 Ang^3
#
#
#
# Elastic Constant Matrix: (Units=GPa)
#
#
# Indices 1 2 3 4 5 6 
#
# 1 156.2067 63.5546 57.4767 0.0000 14.9208 0.0000
# 2 63.5546 91.7159 5.7382 0.0000 0.6296 0.0000
# 3 57.4767 5.7382 150.3199 0.0000 -1.7491 0.0000
# 4 0.0000 0.0000 0.0000 72.7149 0.0000 -17.4382
# 5 14.9208 0.6296 -1.7491 0.0000 45.9581 0.0000
# 6 0.0000 0.0000 0.0000 -17.4382 0.0000 49.4924
#
#
#
# Elastic Compliance Matrix: (Units=1/GPa)
#
#
# Indices 1 2 3 4 5 6 
#
# 1 0.011351 -0.007584 -0.004094 0.000000 -0.003737 0.000000
# 2 -0.007584 0.015997 0.002316 0.000000 0.002331 0.000000
# 3 -0.004094 0.002316 0.008148 0.000000 0.001608 0.000000
# 4 0.000000 0.000000 0.000000 0.015022 0.000000 0.005293
# 5 -0.003737 0.002331 0.001608 0.000000 0.023001 0.000000
# 6 0.000000 0.000000 0.000000 0.005293 0.000000 0.022070
#
#
# Mechanical properties :
#
#
# Convention : Reuss Voigt Hill
#
# Bulk Modulus (GPa) = 59.61908 72.42017 66.01963
# Shear Modulus (GPa) = 41.70021 51.73128 46.71575
#
# Velocity S-wave (km/s) = 3.95005 4.39957 4.18085
# Velocity P-wave (km/s) = 6.56593 7.27362 6.92881
#
# Compressibility (1/GPa) = 0.01677315
#
# Stress axis : x y z
#
# Youngs Moduli (GPa) = 88.10064 62.51011 122.72674
#
# Poissons Ratio (x) = 0.47405 0.50245
# Poissons Ratio (y) = 0.66812 -0.28425
# Poissons Ratio (z) = 0.36069 -0.14478
#
# Static dielectric constant tensor:
#      x y z
#    x 2.134530 0.000000 0.062410 
#    y 0.000000 2.826240 0.000000 
#    z 0.062410 0.000000 2.411230 
# 
# From -- ./inp_files/17641.got.cif
#   From: 2010.05.17/outbox.cif.g08.bks.cpg/sg14_9_cif.got.tgz:17641.got - 2010.06.03 17:49:19.
