data_PCOD9253618
_publ_section_title
;
Structure prediction by ZEFSAII (Michael W. Deem and Ramdas Pophale) SiO2 
 PCOD9253618
Probable space group: P 21/C
;
_chemical_formula_sum "Si O2"
_cell_formula_units_Z 28
_cell_length_a 15.000000
_cell_length_b 9.000000
_cell_length_c 12.000000
_cell_angle_alpha 90.000000
_cell_angle_beta 60.000000
_cell_angle_gamma 90.000000
_cell_volume 1402.961154
_symmetry_space_group_name_H-M "P 21/C"
_symmetry_group_IT_number 14
_symmetry_cell_setting 'monoclinic'
loop_
_space_group_symop_operation_xyz
x,y,z
-x,1/2+y,1/2-z
-x,-y,-z
x,1/2-y,1/2+z
loop_
_atom_site_type_symbol
_atom_site_label
_atom_site_fract_x
_atom_site_fract_y
_atom_site_fract_z
Si Si1 0.236036 0.411434 0.291384
Si Si2 0.814770 0.251941 0.646292
Si Si3 0.018797 0.299324 0.378921
Si Si4 0.630030 0.045680 0.705477
Si Si5 0.299962 0.370995 0.615403
Si Si6 0.416306 0.287032 0.338663
Si Si7 0.907254 0.483492 0.264514
O O1 0.233487 0.590971 0.279690
O O2 0.262307 0.294287 0.175558
O O3 0.326979 0.365229 0.319802
O O4 0.116734 0.361523 0.387438
O O5 0.912179 0.295165 0.511061
O O6 0.730774 0.152747 0.630436
O O7 0.865301 0.145681 0.708812
O O8 0.991402 0.409376 0.293032
O O9 0.045297 0.129717 0.325252
O O10 0.531723 0.153075 0.744682
O O11 0.657954 0.972110 0.809329
O O12 0.604362 0.890994 0.656145
O O13 0.393266 0.344884 0.475719
O O14 0.201145 0.451116 0.620276
#
# Coordination Sequence:
#
# PCOD9253618 Si02
#       7
#     4   4   4   4   4   4   4
#     4  10  22  37  59  90 115 148 198 233 283 352
#     4  11  22  39  58  85 119 153 191 240 286 338
#     4  11  22  38  59  86 118 155 190 239 289 338
#     4  10  23  39  61  89 114 150 198 232 282 351
#     4   9  21  40  60  85 116 150 189 240 289 338
#     4  11  21  41  62  84 118 152 187 242 290 334
#     4  10  22  36  56  85 116 152 198 234 284 351
#
# _framework density 19.957787
#
# number of rings (size 3 to 8) (size 9 to 14) (size 15 to 20)
#    0.000    1.714    0.000    4.714    0.000    5.714 
#    0.000    9.286    0.000    0.000    0.000    0.000 
#    0.000    0.000    0.000    0.000    0.000    0.000 
#
# Total GULP energy -155926.543240 kJ/mol
# GULP energy per Si atom -5568.805116 kJ/mol
# Density = 1.991236 g / cm^3
# Si number density = 19.957787 Si / 1000 Ang^3
#
#
#
# Elastic Constant Matrix: (Units=GPa)
#
#
# Indices 1 2 3 4 5 6 
#
# 1 130.4819 31.8521 12.4361 0.0000 -22.2245 0.0000
# 2 31.8521 135.4345 1.7711 0.0000 -3.3105 0.0000
# 3 12.4361 1.7711 21.2156 0.0000 -13.0276 0.0000
# 4 0.0000 0.0000 0.0000 13.0696 0.0000 -2.7588
# 5 -22.2245 -3.3105 -13.0276 0.0000 15.5335 0.0000
# 6 0.0000 0.0000 0.0000 -2.7588 0.0000 54.4931
#
#
#
# Elastic Compliance Matrix: (Units=1/GPa)
#
#
# Indices 1 2 3 4 5 6 
#
# 1 0.011145 -0.002195 0.006504 0.000000 0.020933 0.000000
# 2 -0.002195 0.007860 -0.000555 0.000000 -0.001930 0.000000
# 3 0.006504 -0.000555 0.101052 0.000000 0.093938 0.000000
# 4 0.000000 0.000000 0.000000 0.077340 0.000000 0.003916
# 5 0.020933 -0.001930 0.093938 0.000000 0.172701 0.000000
# 6 0.000000 0.000000 0.000000 0.003916 0.000000 0.018549
#
#
# Mechanical properties :
#
#
# Convention : Reuss Voigt Hill
#
# Bulk Modulus (GPa) = 7.83901 42.13896 24.98899
# Shear Modulus (GPa) = 11.80193 32.69075 22.24634
#
# Velocity S-wave (km/s) = 2.43440 4.05161 3.34229
# Velocity P-wave (km/s) = 3.44064 6.56104 5.23857
#
# Compressibility (1/GPa) = 0.12756708
#
# Stress axis : x y z
#
# Youngs Moduli (GPa) = 89.72474 127.22904 9.89588
#
# Poissons Ratio (x) = 0.27921 -0.06437
# Poissons Ratio (y) = 0.19690 0.00549
# Poissons Ratio (z) = -0.58361 0.07061
#
# Static dielectric constant tensor:
#      x y z
#    x 1.695000 0.000000 0.007470 
#    y 0.000000 1.700310 0.000000 
#    z 0.007470 0.000000 1.782830 
# 
# From -- ./inp_files/31458.got.cif
#   From: 2010.05.17/outbox.ucp.g08.bks.cvg/sg14_16_cif.got.tgz:31458.got - 2010.06.11 12:31:08.
