data_PCOD9253516
_publ_section_title
;
Structure prediction by ZEFSAII (Michael W. Deem and Ramdas Pophale) SiO2 
 PCOD9253516
Probable space group: P 21/C
;
_chemical_formula_sum "Si O2"
_cell_formula_units_Z 24
_cell_length_a 18.000000
_cell_length_b 15.000000
_cell_length_c 9.000000
_cell_angle_alpha 90.000000
_cell_angle_beta 30.000000
_cell_angle_gamma 90.000000
_cell_volume 1215.000000
_symmetry_space_group_name_H-M "P 21/C"
_symmetry_group_IT_number 14
_symmetry_cell_setting 'monoclinic'
loop_
_space_group_symop_operation_xyz
x,y,z
-x,1/2+y,1/2-z
-x,-y,-z
x,1/2-y,1/2+z
loop_
_atom_site_type_symbol
_atom_site_label
_atom_site_fract_x
_atom_site_fract_y
_atom_site_fract_z
Si Si1 0.832925 0.973411 0.829431
Si Si2 0.301303 0.341774 0.673587
Si Si3 0.338169 0.661720 0.975565
Si Si4 0.657533 0.348990 0.688264
Si Si5 0.677122 0.864369 0.327321
Si Si6 0.343657 0.474934 0.845179
O O1 0.775982 0.891421 0.828010
O O2 0.799597 0.930786 0.047756
O O3 0.000000 0.000000 0.500000
O O4 0.731441 0.062299 0.991480
O O5 0.480956 0.343639 0.345775
O O6 0.266008 0.237014 0.752188
O O7 0.259668 0.407483 0.881178
O O8 0.301122 0.756984 0.966477
O O9 0.277734 0.571721 0.001774
O O10 0.295382 0.658842 0.222013
O O11 0.477797 0.358883 0.995860
O O12 0.627135 0.912907 0.564036
O O13 0.500000 0.500000 0.500000
#
# Coordination Sequence:
#
# PCOD9253516 Si02
#       6
#     4   4   4   4   4   4
#     4  12  25  44  61  91 129 175 208 248 312 379
#     4  10  22  37  63  92 123 159 207 258 313 372
#     4  10  21  35  63  97 122 154 205 266 319 354
#     4  11  22  38  65  92 127 159 211 262 315 365
#     4  11  21  41  66  91 122 162 210 264 315 363
#     4  10  20  34  59  94 123 152 199 262 318 364
#
# _framework density 19.753086
#
# number of rings (size 3 to 8) (size 9 to 14) (size 15 to 20)
#    0.000    1.333    3.333    3.500   14.000    0.000 
#    3.000    0.833    0.000    0.000    0.000    0.000 
#    0.000    0.000    0.000    0.000    0.000    0.000 
#
# Total GULP energy -133840.026999 kJ/mol
# GULP energy per Si atom -5576.667792 kJ/mol
# Density = 1.970813 g / cm^3
# Si number density = 19.753086 Si / 1000 Ang^3
#
#
#
# Elastic Constant Matrix: (Units=GPa)
#
#
# Indices 1 2 3 4 5 6 
#
# 1 28.8077 6.3138 21.5873 0.0000 16.6666 0.0000
# 2 6.3138 119.7355 33.7288 0.0000 -15.4090 0.0000
# 3 21.5873 33.7288 59.1794 0.0000 1.9104 0.0000
# 4 0.0000 0.0000 0.0000 19.5575 0.0000 10.0302
# 5 16.6666 -15.4090 1.9104 0.0000 17.5113 0.0000
# 6 0.0000 0.0000 0.0000 10.0302 0.0000 40.8662
#
#
#
# Elastic Compliance Matrix: (Units=1/GPa)
#
#
# Indices 1 2 3 4 5 6 
#
# 1 0.187244 -0.020086 -0.050709 0.000000 -0.190355 0.000000
# 2 -0.020086 0.013931 -0.001632 0.000000 0.031554 0.000000
# 3 -0.050709 -0.001632 0.034937 0.000000 0.043016 0.000000
# 4 0.000000 0.000000 0.000000 0.058494 0.000000 -0.014357
# 5 -0.190355 0.031554 0.043016 0.000000 0.261352 0.000000
# 6 0.000000 0.000000 0.000000 -0.014357 0.000000 0.027994
#
#
# Mechanical properties :
#
#
# Convention : Reuss Voigt Hill
#
# Bulk Modulus (GPa) = 10.95797 36.77582 23.86689
# Shear Modulus (GPa) = 6.58565 25.32651 15.95608
#
# Velocity S-wave (km/s) = 1.82790 3.58460 2.84522
# Velocity P-wave (km/s) = 3.16457 5.98253 4.78566
#
# Compressibility (1/GPa) = 0.09125782
#
# Stress axis : x y z
#
# Youngs Moduli (GPa) = 5.34061 71.78080 28.62320
#
# Poissons Ratio (x) = 1.44181 1.45147
# Poissons Ratio (y) = 0.10727 0.04670
# Poissons Ratio (z) = 0.27082 0.11712
#
# Static dielectric constant tensor:
#      x y z
#    x 1.860590 0.000000 0.099930 
#    y 0.000000 1.656010 0.000000 
#    z 0.099930 0.000000 1.709340 
# 
# From -- ./inp_files/8411.got.cif
#   From: 2010.05.17/outbox.ucp.g08.bks.cvg/sg14_5_cif.got.tgz:8411.got - 2010.06.11 12:31:08.
