data_PCOD9253157
_publ_section_title
;
Structure prediction by ZEFSAII (Michael W. Deem and Ramdas Pophale) SiO2 
 PCOD9253157
Probable space group: P 21/C
;
_chemical_formula_sum "Si O2"
_cell_formula_units_Z 32
_cell_length_a 23.221724
_cell_length_b 8.567642
_cell_length_c 14.171518
_cell_angle_alpha 90.000000
_cell_angle_beta 29.086359
_cell_angle_gamma 90.000000
_cell_volume 1370.636170
_symmetry_space_group_name_H-M "P 21/C"
_symmetry_group_IT_number 14
_symmetry_cell_setting 'monoclinic'
loop_
_space_group_symop_operation_xyz
x,y,z
-x,1/2+y,1/2-z
-x,-y,-z
x,1/2-y,1/2+z
loop_
_atom_site_type_symbol
_atom_site_label
_atom_site_fract_x
_atom_site_fract_y
_atom_site_fract_z
Si Si1 0.661909 0.661338 0.973234
Si Si2 0.319741 0.655164 0.630635
Si Si3 0.362556 0.981880 0.674578
Si Si4 0.509896 0.070405 0.819188
Si Si5 0.948152 0.125131 0.447951
Si Si6 0.293238 0.806175 0.944282
Si Si7 0.931373 0.839392 0.080559
Si Si8 0.966315 0.292790 0.234983
O O1 0.666987 0.620699 0.854626
O O2 0.797902 0.661744 0.809929
O O3 0.588110 0.819770 0.090571
O O4 0.586704 0.530058 0.135387
O O5 0.333493 0.825242 0.656599
O O6 0.431715 0.546875 0.493279
O O7 0.315868 0.664982 0.521998
O O8 0.191676 0.591040 0.844024
O O9 0.300969 0.955152 0.863931
O O10 0.500000 0.000000 0.500000
O O11 0.603488 0.186162 0.734248
O O12 0.968752 0.259848 0.341586
O O13 0.998264 0.196021 0.472439
O O14 0.013746 0.972104 0.318570
O O15 0.162701 0.738684 0.116784
O O16 0.937227 0.805294 0.960843
O O17 0.000000 0.000000 0.000000
#
# Coordination Sequence:
#
# PCOD9253157 Si02
#       8
#     4   4   4   4   4   4   4   4
#     4  12  25  44  73 108 146 192 243 300 366 438
#     4  12  25  49  76 107 147 191 244 303 366 437
#     4  12  24  48  71 106 148 194 238 298 369 433
#     4  12  24  45  71 109 146 188 242 297 364 441
#     4  12  27  50  74 107 150 194 249 307 361 440
#     4  12  25  44  76 102 148 193 236 299 372 426
#     4  12  26  47  77 108 146 193 246 307 374 432
#     4  12  27  48  73 108 146 197 250 301 367 442
#
# _framework density 23.346823000000001
#
# number of rings (size 3 to 8) (size 9 to 14) (size 15 to 20)
#    0.000    0.000    6.250    3.375    3.500    0.500 
#    0.000    0.000    0.000    0.000    0.000    0.000 
#    0.000    0.000    0.000    0.000    0.000    0.000 
#
# Total GULP energy -179150.973876 kJ/mol
# GULP energy per Si atom -5598.467934 kJ/mol
# Density = 2.329369 g / cm^3
# Si number density = 23.346823 Si / 1000 Ang^3
#
#
#
# Elastic Constant Matrix: (Units=GPa)
#
#
# Indices 1 2 3 4 5 6 
#
# 1 67.1304 0.3162 24.3157 0.0000 7.2691 0.0000
# 2 0.3162 56.7714 27.1768 0.0000 -3.2968 0.0000
# 3 24.3157 27.1768 153.9899 0.0000 -20.5437 0.0000
# 4 0.0000 0.0000 0.0000 37.4138 0.0000 1.4536
# 5 7.2691 -3.2968 -20.5437 0.0000 51.7391 0.0000
# 6 0.0000 0.0000 0.0000 1.4536 0.0000 27.4407
#
#
#
# Elastic Compliance Matrix: (Units=1/GPa)
#
#
# Indices 1 2 3 4 5 6 
#
# 1 0.016469 0.001282 -0.003299 0.000000 -0.003542 0.000000
# 2 0.001282 0.019341 -0.003670 0.000000 -0.000405 0.000000
# 3 -0.003299 -0.003670 0.008124 0.000000 0.003455 0.000000
# 4 0.000000 0.000000 0.000000 0.026783 0.000000 -0.001419
# 5 -0.003542 -0.000405 0.003455 0.000000 0.021172 0.000000
# 6 0.000000 0.000000 0.000000 -0.001419 0.000000 0.036517
#
#
# Mechanical properties :
#
#
# Convention : Reuss Voigt Hill
#
# Bulk Modulus (GPa) = 30.71359 42.38990 36.55175
# Shear Modulus (GPa) = 33.19340 38.39094 35.79217
#
# Velocity S-wave (km/s) = 3.77470 4.05949 3.91968
# Velocity P-wave (km/s) = 5.67290 6.33787 6.01458
#
# Compressibility (1/GPa) = 0.03255887
#
# Stress axis : x y z
#
# Youngs Moduli (GPa) = 60.72029 51.70476 123.09927
#
# Poissons Ratio (x) = -0.06628 0.40614
# Poissons Ratio (y) = -0.07784 0.45174
# Poissons Ratio (z) = 0.20034 0.18974
#
# Static dielectric constant tensor:
#      x y z
#    x 1.880620 0.000000 0.021890 
#    y 0.000000 1.890270 0.000000 
#    z 0.021890 0.000000 1.886090 
# 
# From -- ./inp_files/51257.got.cif
#   From: 2010.05.17/outbox.cif.g08.bks.cpg/sg14_26_cif.got.tgz:51257.got - 2010.06.03 17:49:19.
