data_PCOD9253427
_publ_section_title
;
Structure prediction by ZEFSAII (Michael W. Deem and Ramdas Pophale) SiO2 
 PCOD9253427
Probable space group: P 21/C
;
_chemical_formula_sum "Si O2"
_cell_formula_units_Z 32
_cell_length_a 12.969590
_cell_length_b 6.955284
_cell_length_c 15.367128
_cell_angle_alpha 90.000000
_cell_angle_beta 132.580357
_cell_angle_gamma 90.000000
_cell_volume 1020.718035
_symmetry_space_group_name_H-M "P 21/C"
_symmetry_group_IT_number 14
_symmetry_cell_setting 'monoclinic'
loop_
_space_group_symop_operation_xyz
x,y,z
-x,1/2+y,1/2-z
-x,-y,-z
x,1/2-y,1/2+z
loop_
_atom_site_type_symbol
_atom_site_label
_atom_site_fract_x
_atom_site_fract_y
_atom_site_fract_z
Si Si1 0.238188 0.752211 0.246729
Si Si2 0.651220 0.693421 0.428131
Si Si3 0.269795 0.288129 0.747362
Si Si4 0.518417 0.232953 0.498803
Si Si5 0.594802 0.379777 0.827519
Si Si6 0.840673 0.298376 0.075860
Si Si7 0.891521 0.777128 0.671246
Si Si8 0.986059 0.729762 0.498621
O O1 0.253135 0.981761 0.242536
O O2 0.321520 0.717391 0.384109
O O3 0.325869 0.656268 0.218760
O O4 0.075269 0.707852 0.133717
O O5 0.619733 0.915420 0.385776
O O6 0.813549 0.655691 0.549314
O O7 0.567179 0.668005 0.471030
O O8 0.567278 0.604066 0.298452
O O9 0.186528 0.213451 0.784788
O O10 0.175397 0.220450 0.612590
O O11 0.428898 0.231782 0.859899
O O12 0.500000 0.000000 0.500000
O O13 0.687121 0.248586 0.948177
O O14 0.840097 0.509881 0.118142
O O15 0.927880 0.308223 0.034766
O O16 0.949748 0.197844 0.204389
O O17 0.000000 0.500000 0.500000
#
# Coordination Sequence:
#
# PCOD9253427 Si02
#       8
#     4   4   4   4   4   4   4   4
#     4   8  13  22  37  57  77 102 133 168 203 239
#     4   9  17  28  42  63  87 111 141 174 211 251
#     4   8  13  22  37  57  77 102 133 168 203 239
#     4   8  13  22  37  57  79 101 129 168 205 236
#     4   9  17  28  42  63  87 112 141 173 210 250
#     4   9  17  28  42  63  87 111 141 174 211 251
#     4   9  17  28  42  63  87 112 141 173 210 250
#     4   8  13  22  37  57  79 101 129 168 205 236
#
# _framework density 31.350479
#
# number of rings (size 3 to 8) (size 9 to 14) (size 15 to 20)
#    0.000    3.500    0.000    0.000    0.000    1.000 
#    0.000    0.000    0.000    0.000    0.000   61.250 
#    0.000    0.000    0.000    0.000    0.000    0.000 
#
# Total GULP energy -179078.773480 kJ/mol
# GULP energy per Si atom -5596.211671 kJ/mol
# Density = 3.127912 g / cm^3
# Si number density = 31.350479 Si / 1000 Ang^3
#
#
#
# Elastic Constant Matrix: (Units=GPa)
#
#
# Indices 1 2 3 4 5 6 
#
# 1 78.4670 1.6129 121.7622 0.0000 34.1998 0.0000
# 2 1.6129 95.1374 59.5373 0.0000 9.9080 0.0000
# 3 121.7622 59.5373 494.6490 0.0000 36.3215 0.0000
# 4 0.0000 0.0000 0.0000 59.0761 0.0000 -2.8888
# 5 34.1998 9.9080 36.3215 0.0000 92.8600 0.0000
# 6 0.0000 0.0000 0.0000 -2.8888 0.0000 36.9557
#
#
#
# Elastic Compliance Matrix: (Units=1/GPa)
#
#
# Indices 1 2 3 4 5 6 
#
# 1 0.025648 0.004271 -0.006281 0.000000 -0.007445 0.000000
# 2 0.004271 0.012123 -0.002368 0.000000 -0.001940 0.000000
# 3 -0.006281 -0.002368 0.003773 0.000000 0.001090 0.000000
# 4 0.000000 0.000000 0.000000 0.016992 0.000000 0.001328
# 5 -0.007445 -0.001940 0.001090 0.000000 0.013291 0.000000
# 6 0.000000 0.000000 0.000000 0.001328 0.000000 0.027163
#
#
# Mechanical properties :
#
#
# Convention : Reuss Voigt Hill
#
# Bulk Modulus (GPa) = 30.49952 114.89759 72.69855
# Shear Modulus (GPa) = 42.13208 70.13440 56.13324
#
# Velocity S-wave (km/s) = 3.66991 4.73494 4.23603
# Velocity P-wave (km/s) = 5.26377 8.16222 6.86765
#
# Compressibility (1/GPa) = 0.03278741
#
# Stress axis : x y z
#
# Youngs Moduli (GPa) = 38.99013 82.49007 265.06428
#
# Poissons Ratio (x) = -0.35232 1.66481
# Poissons Ratio (y) = -0.16653 0.62767
# Poissons Ratio (z) = 0.24489 0.19534
#
# Static dielectric constant tensor:
#      x y z
#    x 2.788040 0.000000 0.214700 
#    y 0.000000 2.462500 0.000000 
#    z 0.214700 0.000000 2.452840 
# 
# From -- ./inp_files/34836.got.cif
#   From: 2010.05.17/outbox.cif.g08.bks.cpg/sg14_18_cif.got.tgz:34836.got - 2010.06.03 17:49:19.
