data_PCOD9253903
_publ_section_title
;
Structure prediction by ZEFSAII (Michael W. Deem and Ramdas Pophale) SiO2 
 PCOD9253903
Probable space group: C 2/C
;
_chemical_formula_sum "Si O2"
_cell_formula_units_Z 60
_cell_length_a 20.933481
_cell_length_b 8.247329
_cell_length_c 22.618054
_cell_angle_alpha 90.000000
_cell_angle_beta 64.966843
_cell_angle_gamma 90.000000
_cell_volume 3538.086420
_symmetry_space_group_name_H-M "C 2/C"
_symmetry_group_IT_number 15
_symmetry_cell_setting 'monoclinic'
loop_
_space_group_symop_operation_xyz
x,y,z
-x,y,1/2-z
-x,-y,-z
x,-y,1/2+z
1/2+x,1/2+y,z
1/2-x,1/2+y,1/2-z
1/2-x,1/2-y,-z
1/2+x,1/2-y,1/2+z
loop_
_atom_site_type_symbol
_atom_site_label
_atom_site_fract_x
_atom_site_fract_y
_atom_site_fract_z
Si Si1 0.314484 0.258857 0.135670
Si Si2 0.322462 0.821467 0.501142
Si Si3 0.735562 0.074432 0.152295
Si Si4 0.240506 0.343265 0.442417
Si Si5 0.000000 0.578087 0.250000
Si Si6 0.114444 0.364597 0.142228
Si Si7 0.121136 0.237760 0.771441
Si Si8 0.174416 0.949290 0.677523
O O1 0.335836 0.264089 0.058416
O O2 0.281031 0.433359 0.162674
O O3 0.374987 0.235517 0.160015
O O4 0.251006 0.126203 0.165090
O O5 0.250000 0.750000 0.500000
O O6 0.380960 0.813522 0.427749
O O7 0.310913 0.008554 0.523564
O O8 0.778678 0.208611 0.098943
O O9 0.687390 0.162295 0.219102
O O10 0.681547 0.983018 0.128657
O O11 0.250000 0.250000 0.500000
O O12 0.308277 0.432672 0.385429
O O13 0.047043 0.463149 0.189761
O O14 0.052044 0.689015 0.268235
O O15 0.128589 0.203857 0.175119
O O16 0.136653 0.056260 0.742001
#
# Coordination Sequence:
#
# PCOD9253903 Si02
#       8
#     8   8   8   8   4   8   8   8
#     4  10  18  31  52  82 112 134 165 225 282 318
#     4  11  17  30  53  81 111 134 169 219 283 327
#     4   9  17  28  49  76 109 136 167 218 270 319
#     4  10  15  24  46  81 112 131 161 205 273 322
#     4  10  24  38  54  70 104 152 190 220 246 312
#     4  10  18  35  51  77 103 141 183 213 261 322
#     4  10  20  35  50  76 106 143 185 215 259 315
#     4   9  19  30  54  80 106 136 169 225 273 317
#
# _framework density 16.958318999999999
#
# number of rings (size 3 to 8) (size 9 to 14) (size 15 to 20)
#    0.000    2.133    5.333    0.800    0.000    0.533 
#    0.000    2.000    0.000    0.000    0.000    2.800 
#    0.000    0.000    0.000    0.000    0.000    0.000 
#
# Total GULP energy -167038.824848 kJ/mol
# GULP energy per Si atom -5567.960828 kJ/mol
# Density = 1.691972 g / cm^3
# Si number density = 16.958319 Si / 1000 Ang^3
#
#
#
# Elastic Constant Matrix: (Units=GPa)
#
#
# Indices 1 2 3 4 5 6 
#
# 1 65.2286 26.1549 48.6994 0.0001 10.1031 0.0001
# 2 26.1549 92.6856 23.5930 0.0002 3.5276 0.0003
# 3 48.6994 23.5930 95.0826 0.0000 18.1663 0.0001
# 4 0.0001 0.0002 0.0000 27.3760 0.0000 -6.4132
# 5 10.1031 3.5276 18.1663 0.0000 21.6010 0.0001
# 6 0.0001 0.0003 0.0001 -6.4132 0.0001 9.0120
#
#
#
# Elastic Compliance Matrix: (Units=1/GPa)
#
#
# Indices 1 2 3 4 5 6 
#
# 1 0.026347 -0.004285 -0.012165 0.000000 -0.001392 0.000000
# 2 -0.004285 0.012221 -0.001000 0.000000 0.000849 0.000000
# 3 -0.012165 -0.001000 0.018917 0.000000 -0.010056 0.000000
# 4 0.000000 0.000000 0.000000 0.043836 0.000000 0.031195
# 5 -0.001392 0.000849 -0.010056 0.000000 0.055264 0.000000
# 6 0.000000 0.000000 0.000000 0.031195 0.000000 0.133162
#
#
# Mechanical properties :
#
#
# Convention : Reuss Voigt Hill
#
# Bulk Modulus (GPa) = 44.27786 49.98794 47.13290
# Shear Modulus (GPa) = 15.05228 21.90110 18.47669
#
# Velocity S-wave (km/s) = 2.98250 3.59760 3.30439
# Velocity P-wave (km/s) = 6.16660 6.84090 6.51248
#
# Compressibility (1/GPa) = 0.02258465
#
# Stress axis : x y z
#
# Youngs Moduli (GPa) = 37.95493 81.82920 52.86168
#
# Poissons Ratio (x) = 0.35066 0.64307
# Poissons Ratio (y) = 0.16265 0.05285
# Poissons Ratio (z) = 0.46173 0.08181
#
# Static dielectric constant tensor:
#      x y z
#    x 1.552550 0.000000 0.015620 
#    y 0.000000 1.598290 0.000000 
#    z 0.015620 0.000000 1.620340 
# 
# From -- ./inp_files/254670.got.cif
#   From: 2010.05.17/outbox.cif.g08.bks.cpg/sg15_128_cif.got.tgz:254670.got - 2010.06.03 18:47:42.
