data_PCOD9253132
_publ_section_title
;
Structure prediction by ZEFSAII (Michael W. Deem and Ramdas Pophale) SiO2 
 PCOD9253132
Probable space group: P 21/C
;
_chemical_formula_sum "Si O2"
_cell_formula_units_Z 20
_cell_length_a 23.380459
_cell_length_b 4.785447
_cell_length_c 8.326826
_cell_angle_alpha 90.000000
_cell_angle_beta 126.819414
_cell_angle_gamma 90.000000
_cell_volume 745.816095
_symmetry_space_group_name_H-M "P 21/C"
_symmetry_group_IT_number 14
_symmetry_cell_setting 'monoclinic'
loop_
_space_group_symop_operation_xyz
x,y,z
-x,1/2+y,1/2-z
-x,-y,-z
x,1/2-y,1/2+z
loop_
_atom_site_type_symbol
_atom_site_label
_atom_site_fract_x
_atom_site_fract_y
_atom_site_fract_z
Si Si1 0.163009 0.033839 0.206929
Si Si2 0.217995 0.525741 0.461168
Si Si3 0.367312 0.088128 0.041791
Si Si4 0.577038 0.413383 0.694019
Si Si5 0.023783 0.676594 0.884866
O O1 0.199288 0.847195 0.404592
O O2 0.157436 0.341428 0.269279
O O3 0.093686 0.865975 0.030924
O O4 0.215299 0.044036 0.142461
O O5 0.291149 0.455210 0.496332
O O6 0.420439 0.899782 0.238884
O O7 0.395525 0.400443 0.110994
O O8 0.370145 0.980800 0.865079
O O9 0.500000 0.500000 0.500000
O O10 0.030172 0.426220 0.763854
O O11 0.000000 0.500000 0.000000
#
# Coordination Sequence:
#
# PCOD9253132 Si02
#       5
#     4   4   4   4   4
#     4  12  26  46  71 101 137 177 227 283 341 413
#     4  12  25  46  70 102 136 181 230 284 344 406
#     4  12  24  43  68  98 137 182 230 286 342 406
#     4  12  24  42  66 100 138 183 231 284 342 406
#     4  12  27  49  74 105 140 181 226 281 345 419
#
# _framework density 26.816267
#
# number of rings (size 3 to 8) (size 9 to 14) (size 15 to 20)
#    0.000    0.000    0.000   10.800    0.000    3.200 
#    0.000    0.000    0.000    0.000    0.000    0.000 
#    0.000    0.000    0.000    0.000    0.000    0.000 
#
# Total GULP energy -112304.153012 kJ/mol
# GULP energy per Si atom -5615.207651 kJ/mol
# Density = 2.675523 g / cm^3
# Si number density = 26.816267 Si / 1000 Ang^3
#
#
#
# Elastic Constant Matrix: (Units=GPa)
#
#
# Indices 1 2 3 4 5 6 
#
# 1 75.4993 12.0346 0.6502 0.0000 -4.3680 0.0000
# 2 12.0346 117.9484 15.5838 0.0000 0.6130 0.0000
# 3 0.6502 15.5838 57.9606 0.0000 -4.4732 0.0000
# 4 0.0000 0.0000 0.0000 36.1102 0.0000 -2.1845
# 5 -4.3680 0.6130 -4.4732 0.0000 60.3007 0.0000
# 6 0.0000 0.0000 0.0000 -2.1845 0.0000 31.2259
#
#
#
# Elastic Compliance Matrix: (Units=1/GPa)
#
#
# Indices 1 2 3 4 5 6 
#
# 1 0.013529 -0.001427 0.000310 0.000000 0.001018 0.000000
# 2 -0.001427 0.008945 -0.002418 0.000000 -0.000374 0.000000
# 3 0.000310 -0.002418 0.018006 0.000000 0.001383 0.000000
# 4 0.000000 0.000000 0.000000 0.027811 0.000000 0.001946
# 5 0.001018 -0.000374 0.001383 0.000000 0.016764 0.000000
# 6 0.000000 0.000000 0.000000 0.001946 0.000000 0.032161
#
#
# Mechanical properties :
#
#
# Convention : Reuss Voigt Hill
#
# Bulk Modulus (GPa) = 29.92941 34.21617 32.07279
# Shear Modulus (GPa) = 36.92179 40.40335 38.66257
#
# Velocity S-wave (km/s) = 3.71461 3.88580 3.80117
# Velocity P-wave (km/s) = 5.43902 5.73758 5.59029
#
# Compressibility (1/GPa) = 0.03341195
#
# Stress axis : x y z
#
# Youngs Moduli (GPa) = 73.91659 111.79105 55.53569
#
# Poissons Ratio (x) = 0.15949 -0.01724
# Poissons Ratio (y) = 0.10545 0.13428
# Poissons Ratio (z) = -0.02294 0.27030
#
# Static dielectric constant tensor:
#      x y z
#    x 2.121960 0.000000 0.039620 
#    y 0.000000 1.971290 0.000000 
#    z 0.039620 0.000000 2.092870 
# 
# From -- ./inp_files/19582.got.cif
#   From: 2010.05.17/outbox.cif.g08.bks.cpg/sg14_10_cif.got.tgz:19582.got - 2010.06.03 17:49:19.
