data_PCOD9253390
_publ_section_title
;
Structure prediction by ZEFSAII (Michael W. Deem and Ramdas Pophale) SiO2 
 PCOD9253390
Probable space group: P 21/C
;
_chemical_formula_sum "Si O2"
_cell_formula_units_Z 20
_cell_length_a 5.089860
_cell_length_b 7.562029
_cell_length_c 19.470843
_cell_angle_alpha 90.000000
_cell_angle_beta 74.846370
_cell_angle_gamma 90.000000
_cell_volume 723.367527
_symmetry_space_group_name_H-M "P 21/C"
_symmetry_group_IT_number 14
_symmetry_cell_setting 'monoclinic'
loop_
_space_group_symop_operation_xyz
x,y,z
-x,1/2+y,1/2-z
-x,-y,-z
x,1/2-y,1/2+z
loop_
_atom_site_type_symbol
_atom_site_label
_atom_site_fract_x
_atom_site_fract_y
_atom_site_fract_z
Si Si1 0.618064 0.614508 0.593493
Si Si2 0.805052 0.114509 0.406507
Si Si3 0.750951 0.044926 0.703647
Si Si4 0.543572 0.750000 0.956429
Si Si5 0.841754 0.044928 0.203647
O O1 0.371790 0.750000 0.628209
O O2 0.491527 0.420457 0.587567
O O3 0.709698 0.685105 0.512580
O O4 0.844802 0.571278 0.634198
O O5 0.734859 0.185106 0.487420
O O6 0.666664 0.920458 0.412433
O O7 0.113199 0.071280 0.365802
O O8 0.812866 0.249999 0.687133
O O9 0.436617 0.016627 0.740507
O O10 0.917631 0.983371 0.759492
#
# Coordination Sequence:
#
# PCOD9253390 Si02
#       5
#     4   4   4   4   4
#     4   9  19  43  77 110 159 196 256 313 385 456
#     4   9  19  43  77 110 159 196 256 313 385 456
#     4  12  28  50  77 112 155 207 263 321 392 460
#     4   8  18  40  80 114 158 200 256 310 390 462
#     4  12  28  50  77 112 155 207 263 321 392 460
#
# _framework density 27.648461999999999
#
# number of rings (size 3 to 8) (size 9 to 14) (size 15 to 20)
#    1.200    0.800    0.000    2.400    5.600    0.000 
#    0.000    2.000    0.000    0.000    0.000    0.000 
#    0.000    0.000    0.000    0.000    0.000    0.000 
#
# Total GULP energy -112159.501219 kJ/mol
# GULP energy per Si atom -5607.975061 kJ/mol
# Density = 2.758553 g / cm^3
# Si number density = 27.648462 Si / 1000 Ang^3
#
#
#
# Elastic Constant Matrix: (Units=GPa)
#
#
# Indices 1 2 3 4 5 6 
#
# 1 88.9938 3.2813 42.1435 0.0000 -0.4312 0.0000
# 2 3.2813 213.3330 15.7034 0.0000 0.3511 0.0000
# 3 42.1435 15.7034 87.3765 0.0000 0.3861 0.0000
# 4 0.0000 0.0000 0.0000 24.7001 0.0000 -0.2262
# 5 -0.4312 0.3511 0.3861 0.0000 15.8138 0.0000
# 6 0.0000 0.0000 0.0000 -0.2262 0.0000 32.7113
#
#
#
# Elastic Compliance Matrix: (Units=1/GPa)
#
#
# Indices 1 2 3 4 5 6 
#
# 1 0.014587 0.000297 -0.007091 0.000000 0.000564 0.000000
# 2 0.000297 0.004756 -0.000998 0.000000 -0.000073 0.000000
# 3 -0.007091 -0.000998 0.015047 0.000000 -0.000539 0.000000
# 4 0.000000 0.000000 0.000000 0.040488 0.000000 0.000280
# 5 0.000564 -0.000073 -0.000539 0.000000 0.063266 0.000000
# 6 0.000000 0.000000 0.000000 0.000280 0.000000 0.030572
#
#
# Mechanical properties :
#
#
# Convention : Reuss Voigt Hill
#
# Bulk Modulus (GPa) = 53.17611 56.88441 55.03026
# Shear Modulus (GPa) = 26.23719 36.55005 31.39362
#
# Velocity S-wave (km/s) = 3.08386 3.63982 3.37331
# Velocity P-wave (km/s) = 5.65287 6.18734 5.92613
#
# Compressibility (1/GPa) = 0.01880544
#
# Stress axis : x y z
#
# Youngs Moduli (GPa) = 68.55592 210.23865 66.45992
#
# Poissons Ratio (x) = -0.06238 0.47128
# Poissons Ratio (y) = -0.02034 0.06630
# Poissons Ratio (z) = 0.48615 0.20974
#
# Static dielectric constant tensor:
#      x y z
#    x 2.172760 0.000000 -0.001000 
#    y 0.000000 2.095850 0.000000 
#    z -0.001000 0.000000 2.137240 
# 
# From -- ./inp_files/62896.got.cif
#   From: 2010.05.17/outbox.cif.g08.bks.cpg/sg14_32_cif.got.tgz:62896.got - 2010.06.03 17:49:19.
