data_PCOD9253356
_publ_section_title
;
Structure prediction by ZEFSAII (Michael W. Deem and Ramdas Pophale) SiO2 
 PCOD9253356
Probable space group: P 21/C
;
_chemical_formula_sum "Si O2"
_cell_formula_units_Z 28
_cell_length_a 12.334082
_cell_length_b 9.584156
_cell_length_c 11.482114
_cell_angle_alpha 90.000000
_cell_angle_beta 55.638959
_cell_angle_gamma 90.000000
_cell_volume 1120.465021
_symmetry_space_group_name_H-M "P 21/C"
_symmetry_group_IT_number 14
_symmetry_cell_setting 'monoclinic'
loop_
_space_group_symop_operation_xyz
x,y,z
-x,1/2+y,1/2-z
-x,-y,-z
x,1/2-y,1/2+z
loop_
_atom_site_type_symbol
_atom_site_label
_atom_site_fract_x
_atom_site_fract_y
_atom_site_fract_z
Si Si1 0.749393 0.918373 0.237790
Si Si2 0.822283 0.573674 0.334368
Si Si3 0.256840 0.772571 0.822827
Si Si4 0.034872 0.192162 0.449606
Si Si5 0.764028 0.867170 0.486784
Si Si6 0.684715 0.181187 0.969620
Si Si7 0.596215 0.644073 0.295306
O O1 0.880050 0.833737 0.121330
O O2 0.764432 0.947624 0.366060
O O3 0.630417 0.808402 0.294195
O O4 0.732663 0.060233 0.180781
O O5 0.950898 0.617820 0.184726
O O6 0.783991 0.703556 0.438983
O O7 0.811491 0.421910 0.395964
O O8 0.706548 0.571134 0.307381
O O9 0.319835 0.736186 0.659809
O O10 0.307805 0.721832 0.918853
O O11 0.106228 0.724331 0.914873
O O12 0.118666 0.106102 0.493868
O O13 0.630651 0.883439 0.640444
O O14 0.547116 0.104808 0.077796
#
# Coordination Sequence:
#
# PCOD9253356 Si02
#       7
#     4   4   4   4   4   4   4
#     4   9  20  41  70  93 121 180 220 280 330 395
#     4   9  20  41  69  91 120 179 220 275 330 399
#     4  12  28  43  60 103 139 174 217 279 337 401
#     4   9  20  41  67  93 126 170 229 269 332 404
#     4   8  17  38  70  93 117 168 233 268 331 387
#     4  12  27  42  61  99 140 173 220 273 339 398
#     4   9  20  40  67  94 127 171 226 271 328 406
#
# _framework density 24.989623000000002
#
# number of rings (size 3 to 8) (size 9 to 14) (size 15 to 20)
#    0.000    2.857    0.000    2.571    8.000    3.429 
#    5.143    0.000    0.000    0.000    0.000    0.000 
#    0.000    0.000    0.000    0.000    0.000    0.000 
#
# Total GULP energy -156416.083441 kJ/mol
# GULP energy per Si atom -5586.288694 kJ/mol
# Density = 2.493275 g / cm^3
# Si number density = 24.989623 Si / 1000 Ang^3
#
#
#
# Elastic Constant Matrix: (Units=GPa)
#
#
# Indices 1 2 3 4 5 6 
#
# 1 48.3093 -9.3352 51.9458 0.0000 9.5625 0.0000
# 2 -9.3352 77.1731 11.7109 0.0000 5.9267 0.0000
# 3 51.9458 11.7109 175.4399 0.0000 34.3642 0.0000
# 4 0.0000 0.0000 0.0000 24.1690 0.0000 4.2793
# 5 9.5625 5.9267 34.3642 0.0000 43.4590 0.0000
# 6 0.0000 0.0000 0.0000 4.2793 0.0000 12.6336
#
#
#
# Elastic Compliance Matrix: (Units=1/GPa)
#
#
# Indices 1 2 3 4 5 6 
#
# 1 0.032485 0.005444 -0.009983 0.000000 0.000003 0.000000
# 2 0.005444 0.014065 -0.002296 0.000000 -0.001300 0.000000
# 3 -0.009983 -0.002296 0.009842 0.000000 -0.005272 0.000000
# 4 0.000000 0.000000 0.000000 0.044015 0.000000 -0.014909
# 5 0.000003 -0.001300 -0.005272 0.000000 0.027356 0.000000
# 6 0.000000 0.000000 0.000000 -0.014909 0.000000 0.084204
#
#
# Mechanical properties :
#
#
# Convention : Reuss Voigt Hill
#
# Bulk Modulus (GPa) = 23.40669 45.50725 34.45697
# Shear Modulus (GPa) = 20.84404 32.49238 26.66821
#
# Velocity S-wave (km/s) = 2.89123 3.60979 3.27030
# Velocity P-wave (km/s) = 4.53128 5.96859 5.29889
#
# Compressibility (1/GPa) = 0.04272283
#
# Stress axis : x y z
#
# Youngs Moduli (GPa) = 30.78308 71.09980 101.60849
#
# Poissons Ratio (x) = -0.38708 1.01432
# Poissons Ratio (y) = -0.16759 0.23330
# Poissons Ratio (z) = 0.30729 0.16325
#
# Static dielectric constant tensor:
#      x y z
#    x 1.977990 0.000000 0.064770 
#    y 0.000000 2.071520 0.000000 
#    z 0.064770 0.000000 2.000860 
# 
# From -- ./inp_files/32170.got.cif
#   From: 2010.05.17/outbox.cif.g08.bks.cpg/sg14_17_cif.got.tgz:32170.got - 2010.06.03 17:49:19.
