data_PCOD9253400
_publ_section_title
;
Structure prediction by ZEFSAII (Michael W. Deem and Ramdas Pophale) SiO2 
 PCOD9253400
Probable space group: P 21/C
;
_chemical_formula_sum "Si O2"
_cell_formula_units_Z 20
_cell_length_a 20.966991
_cell_length_b 7.174956
_cell_length_c 16.099965
_cell_angle_alpha 90.000000
_cell_angle_beta 17.183571
_cell_angle_gamma 90.000000
_cell_volume 715.551565
_symmetry_space_group_name_H-M "P 21/C"
_symmetry_group_IT_number 14
_symmetry_cell_setting 'monoclinic'
loop_
_space_group_symop_operation_xyz
x,y,z
-x,1/2+y,1/2-z
-x,-y,-z
x,1/2-y,1/2+z
loop_
_atom_site_type_symbol
_atom_site_label
_atom_site_fract_x
_atom_site_fract_y
_atom_site_fract_z
Si Si1 0.895885 0.189728 0.324140
Si Si2 0.056968 0.352122 0.357928
Si Si3 0.625376 0.308374 0.326017
Si Si4 0.613466 0.798596 0.234711
Si Si5 0.674720 0.495209 0.500504
O O1 0.861419 0.354275 0.300090
O O2 0.105493 0.493331 0.221606
O O3 0.439236 0.051968 0.770879
O O4 0.128490 0.206984 0.078130
O O5 0.236383 0.190255 0.146895
O O6 0.000000 0.500000 0.500000
O O7 0.845927 0.228601 0.601745
O O8 0.713154 0.293608 0.122872
O O9 0.462119 0.171552 0.577283
O O10 0.481961 0.876991 0.862091
O O11 0.500000 0.500000 0.500000
#
# Coordination Sequence:
#
# PCOD9253400 Si02
#       5
#     4   4   4   4   4
#     4  12  29  61  88 128 190 240 307 387 458 561
#     4  12  29  57  90 129 186 245 306 384 461 548
#     4  12  28  51  90 131 175 240 307 373 468 549
#     4  12  30  53  89 129 176 241 298 379 457 544
#     4  12  30  54  86 131 184 238 307 377 461 547
#
# _framework density 27.950465999999999
#
# number of rings (size 3 to 8) (size 9 to 14) (size 15 to 20)
#    0.000    0.000    2.000    4.800    8.400    8.000 
#    0.000    0.000    0.000    0.000    0.000    0.000 
#    0.000    0.000    0.000    0.000    0.000    0.000 
#
# Total GULP energy -112051.578855 kJ/mol
# GULP energy per Si atom -5602.578943 kJ/mol
# Density = 2.788685 g / cm^3
# Si number density = 27.950466 Si / 1000 Ang^3
#
#
#
# Elastic Constant Matrix: (Units=GPa)
#
#
# Indices 1 2 3 4 5 6 
#
# 1 134.5338 104.2373 59.3341 0.0000 -1.8588 0.0000
# 2 104.2373 250.2988 85.8929 0.0000 -4.5453 0.0000
# 3 59.3341 85.8929 176.4897 0.0000 27.6888 0.0000
# 4 0.0000 0.0000 0.0000 60.2392 0.0000 -2.2344
# 5 -1.8588 -4.5453 27.6888 0.0000 61.3031 0.0000
# 6 0.0000 0.0000 0.0000 -2.2344 0.0000 49.9687
#
#
#
# Elastic Compliance Matrix: (Units=1/GPa)
#
#
# Indices 1 2 3 4 5 6 
#
# 1 0.011500 -0.004073 -0.002035 0.000000 0.000966 0.000000
# 2 -0.004073 0.006374 -0.001924 0.000000 0.001218 0.000000
# 3 -0.002035 -0.001924 0.007877 0.000000 -0.003762 0.000000
# 4 0.000000 0.000000 0.000000 0.016628 0.000000 0.000744
# 5 0.000966 0.001218 -0.003762 0.000000 0.018131 0.000000
# 6 0.000000 0.000000 0.000000 0.000744 0.000000 0.020046
#
#
# Mechanical properties :
#
#
# Convention : Reuss Voigt Hill
#
# Bulk Modulus (GPa) = 103.24196 117.80565 110.52381
# Shear Modulus (GPa) = 50.07574 55.09276 52.58425
#
# Velocity S-wave (km/s) = 4.23731 4.44451 4.34214
# Velocity P-wave (km/s) = 7.80752 8.28117 8.04783
#
# Compressibility (1/GPa) = 0.00968598
#
# Stress axis : x y z
#
# Youngs Moduli (GPa) = 86.95625 156.89368 126.95574
#
# Poissons Ratio (x) = 0.63905 0.25841
# Poissons Ratio (y) = 0.35419 0.24422
# Poissons Ratio (z) = 0.17700 0.30181
#
# Static dielectric constant tensor:
#      x y z
#    x 2.234040 0.000000 0.029220 
#    y 0.000000 2.566350 0.000000 
#    z 0.029220 0.000000 2.280920 
# 
# From -- ./inp_files/49999.got.cif
#   From: 2010.05.17/outbox.cif.g08.bks.cpg/sg14_25_cif.got.tgz:49999.got - 2010.06.03 17:49:19.
