data_PCOD9253410
_publ_section_title
;
Structure prediction by ZEFSAII (Michael W. Deem and Ramdas Pophale) SiO2 
 PCOD9253410
Probable space group: P 21/C
;
_chemical_formula_sum "Si O2"
_cell_formula_units_Z 18
_cell_length_a 8.161952
_cell_length_b 10.500684
_cell_length_c 9.740261
_cell_angle_alpha 90.000000
_cell_angle_beta 47.777165
_cell_angle_gamma 90.000000
_cell_volume 618.199829
_symmetry_space_group_name_H-M "P 21/C"
_symmetry_group_IT_number 14
_symmetry_cell_setting 'monoclinic'
loop_
_space_group_symop_operation_xyz
x,y,z
-x,1/2+y,1/2-z
-x,-y,-z
x,1/2-y,1/2+z
loop_
_atom_site_type_symbol
_atom_site_label
_atom_site_fract_x
_atom_site_fract_y
_atom_site_fract_z
Si Si1 0.245257 0.514201 0.434161
Si Si2 0.351640 0.706684 0.965107
Si Si3 0.957392 0.143580 0.554468
Si Si4 0.500000 0.000000 0.500000
Si Si5 0.213011 0.227507 0.145230
O O1 0.305523 0.642639 0.486742
O O2 0.424846 0.509128 0.210093
O O3 0.265074 0.399081 0.532120
O O4 0.000000 0.500000 0.500000
O O5 0.292978 0.682994 0.837854
O O6 0.256807 0.579635 0.090289
O O7 0.574651 0.686673 0.934767
O O8 0.100491 0.211052 0.354961
O O9 0.050696 0.193538 0.641915
O O10 0.000000 0.000000 0.500000
#
# Coordination Sequence:
#
# PCOD9253410 Si02
#       5
#     4   4   4   2   4
#     4  12  28  56  87 126 172 227 290 357 431 518
#     4  12  29  51  85 120 174 220 283 356 429 509
#     4  12  30  52  87 121 171 229 284 356 433 513
#     4  12  30  50  88 130 170 226 292 354 436 518
#     4  12  29  54  83 126 168 222 293 352 432 517
#
# _framework density 29.116799
#
# number of rings (size 3 to 8) (size 9 to 14) (size 15 to 20)
#    0.000    0.000    2.222    4.667   12.444    0.000 
#    0.000    0.000    0.000    0.000    0.000    0.000 
#    0.000    0.000    0.000    0.000    0.000    0.000 
#
# Total GULP energy -100316.171012 kJ/mol
# GULP energy per Si atom -5573.120612 kJ/mol
# Density = 2.905053 g / cm^3
# Si number density = 29.116799 Si / 1000 Ang^3
#
#
#
# Elastic Constant Matrix: (Units=GPa)
#
#
# Indices 1 2 3 4 5 6 
#
# 1 193.3393 43.0644 34.2682 0.0000 28.4216 0.0000
# 2 43.0644 166.3164 34.4805 0.0000 16.9050 0.0000
# 3 34.2682 34.4805 209.3805 0.0000 2.6481 0.0000
# 4 0.0000 0.0000 0.0000 59.7163 0.0000 26.3518
# 5 28.4216 16.9050 2.6481 0.0000 43.5833 0.0000
# 6 0.0000 0.0000 0.0000 26.3518 0.0000 75.3138
#
#
#
# Elastic Compliance Matrix: (Units=1/GPa)
#
#
# Indices 1 2 3 4 5 6 
#
# 1 0.006058 -0.001053 -0.000774 0.000000 -0.003495 0.000000
# 2 -0.001053 0.006659 -0.000901 0.000000 -0.001842 0.000000
# 3 -0.000774 -0.000901 0.005044 0.000000 0.000548 0.000000
# 4 0.000000 0.000000 0.000000 0.019804 0.000000 -0.006929
# 5 -0.003495 -0.001842 0.000548 0.000000 0.025905 0.000000
# 6 0.000000 0.000000 0.000000 -0.006929 0.000000 0.015702
#
#
# Mechanical properties :
#
#
# Convention : Reuss Voigt Hill
#
# Bulk Modulus (GPa) = 81.26388 88.07359 84.66874
# Shear Modulus (GPa) = 56.35141 66.20421 61.27781
#
# Velocity S-wave (km/s) = 4.40404 4.77355 4.59252
# Velocity P-wave (km/s) = 7.33696 7.79079 7.56728
#
# Compressibility (1/GPa) = 0.01230559
#
# Stress axis : x y z
#
# Youngs Moduli (GPa) = 165.07922 150.16720 198.25139
#
# Poissons Ratio (x) = 0.15810 0.15342
# Poissons Ratio (y) = 0.17380 0.17863
# Poissons Ratio (z) = 0.12775 0.13531
#
# Static dielectric constant tensor:
#      x y z
#    x 3.086450 0.000000 -0.656770 
#    y 0.000000 43.070800 0.000000 
#    z -0.656770 0.000000 2.661250 
# 
# From -- ./inp_files/7829.got.cif
#   From: 2010.05.17/outbox.cif.g08.bks.cpg/sg14_4_cif.got.tgz:7829.got - 2010.06.03 17:49:19.
