data_PCOD9253646
_publ_section_title
;
Structure prediction by ZEFSAII (Michael W. Deem and Ramdas Pophale) SiO2 
 PCOD9253646
Probable space group: P 21/C
;
_chemical_formula_sum "Si O2"
_cell_formula_units_Z 32
_cell_length_a 15.000000
_cell_length_b 24.000000
_cell_length_c 9.000000
_cell_angle_alpha 90.000000
_cell_angle_beta 150.000000
_cell_angle_gamma 90.000000
_cell_volume 1620.000000
_symmetry_space_group_name_H-M "P 21/C"
_symmetry_group_IT_number 14
_symmetry_cell_setting 'monoclinic'
loop_
_space_group_symop_operation_xyz
x,y,z
-x,1/2+y,1/2-z
-x,-y,-z
x,1/2-y,1/2+z
loop_
_atom_site_type_symbol
_atom_site_label
_atom_site_fract_x
_atom_site_fract_y
_atom_site_fract_z
Si Si1 0.780759 0.330247 0.766327
Si Si2 0.251092 0.296051 0.798564
Si Si3 0.058476 0.563495 0.124739
Si Si4 0.829883 0.274532 0.157961
Si Si5 0.449502 0.302449 0.763337
Si Si6 0.584182 0.886217 0.289646
Si Si7 0.668292 0.910637 0.082794
Si Si8 0.582816 0.480063 0.271216
O O1 0.878735 0.390913 0.908721
O O2 0.845132 0.290507 0.726000
O O3 0.580821 0.344553 0.434554
O O4 0.781488 0.296804 0.923009
O O5 0.374582 0.301047 0.826241
O O6 0.039359 0.290903 0.467288
O O7 0.335415 0.244159 0.010082
O O8 0.259842 0.349947 0.917783
O O9 0.231645 0.554086 0.476707
O O10 0.000000 0.500000 0.000000
O O11 0.878169 0.590277 0.923458
O O12 0.661964 0.294423 0.024452
O O13 0.390421 0.361372 0.609917
O O14 0.579041 0.904019 0.112412
O O15 0.554068 0.939711 0.345733
O O16 0.622211 0.968002 0.934972
O O17 0.500000 0.500000 0.000000
#
# Coordination Sequence:
#
# PCOD9253646 Si02
#       8
#     4   4   4   4   4   4   4   4
#     4  11  23  43  64  96 137 179 225 284 348 417
#     4  12  25  41  65  96 134 176 226 276 337 409
#     4   9  21  41  70  96 130 181 235 283 349 416
#     4  12  24  42  66 100 138 182 230 278 347 418
#     4  12  24  42  66  98 139 176 223 286 338 404
#     4  11  23  43  64  92 131 173 222 275 339 413
#     4  11  21  42  66  93 129 174 222 274 342 410
#     4  10  22  42  67  94 129 170 219 284 346 400
#
# _framework density 19.753086
#
# number of rings (size 3 to 8) (size 9 to 14) (size 15 to 20)
#    0.000    1.000    2.500    4.875    0.000    2.000 
#    4.500    0.625    0.000    0.000    0.000    0.000 
#    0.000    0.000    0.000    0.000    0.000    0.000 
#
# Total GULP energy -178179.651672 kJ/mol
# GULP energy per Si atom -5568.114115 kJ/mol
# Density = 1.970813 g / cm^3
# Si number density = 19.753086 Si / 1000 Ang^3
#
#
#
# Elastic Constant Matrix: (Units=GPa)
#
#
# Indices 1 2 3 4 5 6 
#
# 1 46.9010 36.6458 29.1796 0.0000 -19.9664 0.0000
# 2 36.6458 75.2609 40.8443 0.0000 2.5315 0.0000
# 3 29.1796 40.8443 54.5320 0.0000 -1.8417 0.0000
# 4 0.0000 0.0000 0.0000 28.8413 0.0000 0.0863
# 5 -19.9664 2.5315 -1.8417 0.0000 32.4642 0.0000
# 6 0.0000 0.0000 0.0000 0.0863 0.0000 32.4205
#
#
#
# Elastic Compliance Matrix: (Units=1/GPa)
#
#
# Indices 1 2 3 4 5 6 
#
# 1 0.073710 -0.028488 -0.016530 0.000000 0.046618 0.000000
# 2 -0.028488 0.033636 -0.010651 0.000000 -0.020748 0.000000
# 3 -0.016530 -0.010651 0.034912 0.000000 -0.007355 0.000000
# 4 0.000000 0.000000 0.000000 0.034673 0.000000 -0.000092
# 5 0.046618 -0.020748 -0.007355 0.000000 0.060675 0.000000
# 6 0.000000 0.000000 0.000000 -0.000092 0.000000 0.030845
#
#
# Mechanical properties :
#
#
# Convention : Reuss Voigt Hill
#
# Bulk Modulus (GPa) = 32.34006 43.33703 37.83854
# Shear Modulus (GPa) = 12.81737 23.41350 18.11543
#
# Velocity S-wave (km/s) = 2.55007 3.44657 3.03164
# Velocity P-wave (km/s) = 5.00781 6.15024 5.60819
#
# Compressibility (1/GPa) = 0.03092140
#
# Stress axis : x y z
#
# Youngs Moduli (GPa) = 13.56659 29.72964 28.64366
#
# Poissons Ratio (x) = 0.84694 0.47348
# Poissons Ratio (y) = 0.38649 0.30507
# Poissons Ratio (z) = 0.22426 0.31664
#
# Static dielectric constant tensor:
#      x y z
#    x 1.719440 0.000000 0.078230 
#    y 0.000000 1.794540 0.000000 
#    z 0.078230 0.000000 1.819640 
# 
# From -- ./inp_files/17047.got.cif
#   From: 2010.05.17/outbox.ucp.g08.bks.cvg/sg14_9_cif.got.tgz:17047.got - 2010.06.11 12:31:08.
