data_PCOD9253360
_publ_section_title
;
Structure prediction by ZEFSAII (Michael W. Deem and Ramdas Pophale) SiO2 
 PCOD9253360
Probable space group: P 21/C
;
_chemical_formula_sum "Si O2"
_cell_formula_units_Z 16
_cell_length_a 24.861926
_cell_length_b 5.112421
_cell_length_c 24.729751
_cell_angle_alpha 90.000000
_cell_angle_beta 12.024577
_cell_angle_gamma 90.000000
_cell_volume 654.840510
_symmetry_space_group_name_H-M "P 21/C"
_symmetry_group_IT_number 14
_symmetry_cell_setting 'monoclinic'
loop_
_space_group_symop_operation_xyz
x,y,z
-x,1/2+y,1/2-z
-x,-y,-z
x,1/2-y,1/2+z
loop_
_atom_site_type_symbol
_atom_site_label
_atom_site_fract_x
_atom_site_fract_y
_atom_site_fract_z
Si Si1 0.736396 0.005850 0.725841
Si Si2 0.637466 0.512956 0.750235
Si Si3 0.226995 0.856292 0.469339
Si Si4 0.260877 0.803333 0.058154
O O1 0.685195 0.261431 0.740127
O O2 0.739031 0.756472 0.684048
O O3 0.000000 0.000000 0.500000
O O4 0.500000 0.000000 0.000000
O O5 0.758152 0.426381 0.573910
O O6 0.346579 0.597736 0.019630
O O7 0.212135 0.832641 0.548460
O O8 0.979578 0.014091 0.692329
O O9 0.488960 0.010017 0.196900
#
# Coordination Sequence:
#
# PCOD9253360 Si02
#       4
#     4   4   4   4
#     4  12  30  53  80 112 152 201 274 340 388 460
#     4  12  28  53  84 112 158 211 260 322 412 460
#     4  12  27  47  77 119 164 208 258 319 393 492
#     4  12  27  47  77 119 164 208 258 319 393 492
#
# _framework density 24.433429
#
# number of rings (size 3 to 8) (size 9 to 14) (size 15 to 20)
#    0.000    0.000    5.000    3.000    3.500    4.000 
#    0.000    0.000    0.000    0.000    0.000    0.000 
#    0.000    0.000    0.000    0.000    0.000    0.000 
#
# Total GULP energy -89770.617418 kJ/mol
# GULP energy per Si atom -5610.663589 kJ/mol
# Density = 2.437782 g / cm^3
# Si number density = 24.433429 Si / 1000 Ang^3
#
#
#
# Elastic Constant Matrix: (Units=GPa)
#
#
# Indices 1 2 3 4 5 6 
#
# 1 168.4322 82.2251 47.5411 0.0000 -31.8417 0.0000
# 2 82.2251 195.4941 54.9470 0.0000 -26.8292 0.0000
# 3 47.5411 54.9470 173.8411 0.0000 -25.0587 0.0000
# 4 0.0000 0.0000 0.0000 46.8002 0.0000 -1.4765
# 5 -31.8417 -26.8292 -25.0587 0.0000 44.9356 0.0000
# 6 0.0000 0.0000 0.0000 -1.4765 0.0000 65.2792
#
#
#
# Elastic Compliance Matrix: (Units=1/GPa)
#
#
# Indices 1 2 3 4 5 6 
#
# 1 0.008199 -0.002698 -0.000853 0.000000 0.003723 0.000000
# 2 -0.002698 0.006788 -0.001195 0.000000 0.001475 0.000000
# 3 -0.000853 -0.001195 0.006713 0.000000 0.002426 0.000000
# 4 0.000000 0.000000 0.000000 0.021383 0.000000 0.000484
# 5 0.003723 0.001475 0.002426 0.000000 0.027126 0.000000
# 6 0.000000 0.000000 0.000000 0.000484 0.000000 0.015330
#
#
# Mechanical properties :
#
#
# Convention : Reuss Voigt Hill
#
# Bulk Modulus (GPa) = 81.90964 100.79930 91.35447
# Shear Modulus (GPa) = 50.45455 54.93993 52.69724
#
# Velocity S-wave (km/s) = 4.54914 4.74704 4.64914
# Velocity P-wave (km/s) = 7.82235 8.44926 8.14184
#
# Compressibility (1/GPa) = 0.01220858
#
# Stress axis : x y z
#
# Youngs Moduli (GPa) = 121.97111 147.31330 148.96406
#
# Poissons Ratio (x) = 0.39741 0.12703
# Poissons Ratio (y) = 0.32904 0.17805
# Poissons Ratio (z) = 0.10401 0.17608
#
# Static dielectric constant tensor:
#      x y z
#    x 1.922480 0.000000 0.012160 
#    y 0.000000 1.957770 0.000000 
#    z 0.012160 0.000000 1.937500 
# 
# From -- ./inp_files/75403.got.cif
#   From: 2010.05.17/outbox.cif.g08.bks.cpg/sg14_38_cif.got.tgz:75403.got - 2010.06.03 17:49:19.
