data_PCOD9253480
_publ_section_title
;
Structure prediction by ZEFSAII (Michael W. Deem and Ramdas Pophale) SiO2 
 PCOD9253480
Probable space group: P 21/C
;
_chemical_formula_sum "Si O2"
_cell_formula_units_Z 32
_cell_length_a 27.000000
_cell_length_b 9.000000
_cell_length_c 21.000000
_cell_angle_alpha 90.000000
_cell_angle_beta 160.000000
_cell_angle_gamma 90.000000
_cell_volume 1745.328791
_symmetry_space_group_name_H-M "P 21/C"
_symmetry_group_IT_number 14
_symmetry_cell_setting 'monoclinic'
loop_
_space_group_symop_operation_xyz
x,y,z
-x,1/2+y,1/2-z
-x,-y,-z
x,1/2-y,1/2+z
loop_
_atom_site_type_symbol
_atom_site_label
_atom_site_fract_x
_atom_site_fract_y
_atom_site_fract_z
Si Si1 0.778604 0.874776 0.179205
Si Si2 0.468050 0.927676 0.865778
Si Si3 0.140821 0.696215 0.259996
Si Si4 0.159049 0.331487 0.624932
Si Si5 0.440546 0.231982 0.894147
Si Si6 0.651501 0.307820 0.894009
Si Si7 0.366762 0.378070 0.058176
Si Si8 0.685638 0.416061 0.122157
O O1 0.833314 0.784939 0.306713
O O2 0.867142 0.022531 0.268439
O O3 0.616875 0.927479 0.004589
O O4 0.756736 0.748654 0.098443
O O5 0.357665 0.829541 0.692092
O O6 0.421720 0.096379 0.822080
O O7 0.496492 0.846322 0.966513
O O8 0.218280 0.713952 0.421074
O O9 0.242473 0.783577 0.331795
O O10 0.996090 0.792584 0.089766
O O11 0.288359 0.299015 0.732035
O O12 0.190641 0.496543 0.689180
O O13 0.555915 0.349262 0.006900
O O14 0.654751 0.478004 0.923889
O O15 0.510212 0.215986 0.746391
O O16 0.376412 0.456903 0.000247
#
# Coordination Sequence:
#
# PCOD9253480 Si02
#       8
#     4   4   4   4   4   4   4   4
#     4   9  17  34  52  81 106 139 188 225 267 320
#     4   9  18  33  56  80 102 140 187 227 267 321
#     4  11  20  34  55  80 113 149 168 224 284 325
#     4  10  21  33  53  83 115 137 181 226 270 330
#     4  10  19  35  59  78 104 142 185 231 266 313
#     4  10  19  32  52  78 114 139 177 222 277 325
#     4   9  19  30  54  84 107 135 184 238 265 319
#     4  10  20  35  57  85 105 138 186 229 274 310
#
# _framework density 18.334654
#
# number of rings (size 3 to 8) (size 9 to 14) (size 15 to 20)
#    0.000    2.250    1.250    3.375    1.750    0.000 
#    0.000    0.000    5.500    0.000    0.000    0.000 
#    0.000    0.000    0.000    0.000    0.000    0.000 
#
# Total GULP energy -178265.959390 kJ/mol
# GULP energy per Si atom -5570.811231 kJ/mol
# Density = 1.829292 g / cm^3
# Si number density = 18.334654 Si / 1000 Ang^3
#
#
#
# Elastic Constant Matrix: (Units=GPa)
#
#
# Indices 1 2 3 4 5 6 
#
# 1 30.2065 8.8494 4.6059 0.0000 6.0295 0.0000
# 2 8.8494 72.1147 -12.1613 0.0000 13.6688 0.0000
# 3 4.6059 -12.1613 42.2888 0.0000 9.6089 0.0000
# 4 0.0000 0.0000 0.0000 14.7982 0.0000 4.1470
# 5 6.0295 13.6688 9.6089 0.0000 8.5732 0.0000
# 6 0.0000 0.0000 0.0000 4.1470 0.0000 22.8655
#
#
#
# Elastic Compliance Matrix: (Units=1/GPa)
#
#
# Indices 1 2 3 4 5 6 
#
# 1 0.039132 0.003919 0.006089 0.000000 -0.040593 0.000000
# 2 0.003919 0.038327 0.033685 0.000000 -0.101617 0.000000
# 3 0.006089 0.033685 0.061511 0.000000 -0.126929 0.000000
# 4 0.000000 0.000000 0.000000 0.071194 0.000000 -0.012912
# 5 -0.040593 -0.101617 -0.126929 0.000000 0.449467 0.000000
# 6 0.000000 0.000000 0.000000 -0.012912 0.000000 0.046076
#
#
# Mechanical properties :
#
#
# Convention : Reuss Voigt Hill
#
# Bulk Modulus (GPa) = 4.41785 16.35533 10.38659
# Shear Modulus (GPa) = 7.20695 18.80180 13.00438
#
# Velocity S-wave (km/s) = 1.98477 3.20578 2.66612
# Velocity P-wave (km/s) = 2.76897 4.75842 3.89293
#
# Compressibility (1/GPa) = 0.22635451
#
# Stress axis : x y z
#
# Youngs Moduli (GPa) = 25.55473 26.09118 16.25712
#
# Poissons Ratio (x) = -0.10225 -0.09898
# Poissons Ratio (y) = -0.10015 -0.54761
# Poissons Ratio (z) = -0.15559 -0.87887
#
# Static dielectric constant tensor:
#      x y z
#    x 1.642910 0.000000 -0.051820 
#    y 0.000000 1.630570 0.000000 
#    z -0.051820 0.000000 1.691170 
# 
# From -- ./inp_files/70472.got.cif
#   From: 2010.05.17/outbox.ucp.g08.bks.cvg/sg14_36_cif.got.tgz:70472.got - 2010.06.11 12:31:08.
