data_PCOD9253975
_publ_section_title
;
Structure prediction by ZEFSAII (Michael W. Deem and Ramdas Pophale) SiO2 
 PCOD9253975
Probable space group: C 2/C
;
_chemical_formula_sum "Si O2"
_cell_formula_units_Z 24
_cell_length_a 17.410065
_cell_length_b 7.059454
_cell_length_c 9.701085
_cell_angle_alpha 90.000000
_cell_angle_beta 51.311210
_cell_angle_gamma 90.000000
_cell_volume 930.666449
_symmetry_space_group_name_H-M "C 2/C"
_symmetry_group_IT_number 15
_symmetry_cell_setting 'monoclinic'
loop_
_space_group_symop_operation_xyz
x,y,z
-x,y,1/2-z
-x,-y,-z
x,-y,1/2+z
1/2+x,1/2+y,z
1/2-x,1/2+y,1/2-z
1/2-x,1/2-y,-z
1/2+x,1/2-y,1/2+z
loop_
_atom_site_type_symbol
_atom_site_label
_atom_site_fract_x
_atom_site_fract_y
_atom_site_fract_z
Si Si1 0.689104 0.504940 0.077967
Si Si2 0.907253 0.125201 0.061220
Si Si3 0.101840 0.591565 0.705808
O O1 0.678692 0.517989 0.254169
O O2 0.644885 0.713813 0.085846
O O3 0.617046 0.374470 0.070788
O O4 0.800226 0.467463 0.908400
O O5 0.917243 0.330460 0.118711
O O6 0.000000 0.000000 0.000000
O O7 0.000000 0.535936 0.750000
#
# Coordination Sequence:
#
# PCOD9253975 Si02
#       3
#     8   8   8
#     4   9  18  29  50  72  96 121 164 196 233 276
#     4  10  15  29  50  74  90 126 163 196 225 285
#     4   9  17  31  50  69  97 129 155 188 247 286
#
# _framework density 25.787970999999999
#
# number of rings (size 3 to 8) (size 9 to 14) (size 15 to 20)
#    2.000    0.667    3.333    1.000    0.000    0.000 
#    0.000    3.333    0.000    0.000    0.000    0.000 
#    0.000    0.000    0.000    0.000    0.000    0.000 
#
# Total GULP energy -66909.953739 kJ/mol
# GULP energy per Si atom -5575.829478 kJ/mol
# Density = 2.572928 g / cm^3
# Si number density = 25.787971 Si / 1000 Ang^3
#
#
#
# Elastic Constant Matrix: (Units=GPa)
#
#
# Indices 1 2 3 4 5 6 
#
# 1 149.7391 34.0548 22.2353 0.0000 -21.7173 0.0000
# 2 34.0548 42.3310 18.0543 0.0000 1.3662 0.0000
# 3 22.2353 18.0543 51.4034 0.0000 -5.2667 0.0000
# 4 0.0000 0.0000 0.0000 26.5066 0.0000 -3.2235
# 5 -21.7173 1.3662 -5.2667 0.0000 45.6503 0.0000
# 6 0.0000 0.0000 0.0000 -3.2235 0.0000 27.9429
#
#
#
# Elastic Compliance Matrix: (Units=1/GPa)
#
#
# Indices 1 2 3 4 5 6 
#
# 1 0.009058 -0.006999 -0.001009 0.000000 0.004402 0.000000
# 2 -0.006999 0.033372 -0.009246 0.000000 -0.005395 0.000000
# 3 -0.001009 -0.009246 0.023394 0.000000 0.002496 0.000000
# 4 0.000000 0.000000 0.000000 0.038263 0.000000 0.004414
# 5 0.004402 -0.005395 0.002496 0.000000 0.024449 0.000000
# 6 0.000000 0.000000 0.000000 0.004414 0.000000 0.036296
#
#
# Mechanical properties :
#
#
# Convention : Reuss Voigt Hill
#
# Bulk Modulus (GPa) = 31.93356 43.57357 37.75357
# Shear Modulus (GPa) = 23.83448 31.29525 27.56486
#
# Velocity S-wave (km/s) = 3.04344 3.48740 3.27296
# Velocity P-wave (km/s) = 4.97595 5.75756 5.38096
#
# Compressibility (1/GPa) = 0.03131502
#
# Stress axis : x y z
#
# Youngs Moduli (GPa) = 110.39460 29.96542 42.74660
#
# Poissons Ratio (x) = 0.20973 0.04313
# Poissons Ratio (y) = 0.77267 0.39525
# Poissons Ratio (z) = 0.11139 0.27707
#
# Static dielectric constant tensor:
#      x y z
#    x 1.949740 0.000000 -0.049400 
#    y 0.000000 2.112920 0.000000 
#    z -0.049400 0.000000 2.083520 
# 
# From -- ./inp_files/26942.got.cif
#   From: 2010.05.17/outbox.cif.g08.bks.cpg/sg15_14_cif.got.tgz:26942.got - 2010.06.03 18:47:42.
