data_PCOD9253557
_publ_section_title
;
Structure prediction by ZEFSAII (Michael W. Deem and Ramdas Pophale) SiO2 
 PCOD9253557
Probable space group: P 21/C
;
_chemical_formula_sum "Si O2"
_cell_formula_units_Z 24
_cell_length_a 9.000000
_cell_length_b 9.000000
_cell_length_c 21.000000
_cell_angle_alpha 90.000000
_cell_angle_beta 130.000000
_cell_angle_gamma 90.000000
_cell_volume 1303.041598
_symmetry_space_group_name_H-M "P 21/C"
_symmetry_group_IT_number 14
_symmetry_cell_setting 'monoclinic'
loop_
_space_group_symop_operation_xyz
x,y,z
-x,1/2+y,1/2-z
-x,-y,-z
x,1/2-y,1/2+z
loop_
_atom_site_type_symbol
_atom_site_label
_atom_site_fract_x
_atom_site_fract_y
_atom_site_fract_z
Si Si1 0.650728 0.414372 0.749720
Si Si2 0.188402 0.077170 0.580600
Si Si3 0.870991 0.118622 0.769169
Si Si4 0.276192 0.319481 0.316060
Si Si5 0.784105 0.847143 0.829608
Si Si6 0.544111 0.520440 0.088081
O O1 0.748582 0.494852 0.836958
O O2 0.779610 0.277116 0.762003
O O3 0.625136 0.532547 0.685279
O O4 0.444013 0.358732 0.717809
O O5 0.141962 0.246439 0.591075
O O6 0.366174 0.050778 0.579928
O O7 0.000000 0.000000 0.500000
O O8 0.093905 0.137352 0.809766
O O9 0.853861 0.010111 0.826269
O O10 0.738638 0.053781 0.673861
O O11 0.188135 0.242444 0.228482
O O12 0.418274 0.196271 0.386465
O O13 0.500000 0.500000 0.000000
#
# Coordination Sequence:
#
# PCOD9253557 Si02
#       6
#     4   4   4   4   4   4
#     4  11  19  40  68  89 125 165 217 267 309 381
#     4  11  24  40  65  92 123 168 214 268 323 376
#     4  11  21  39  68  94 126 167 212 267 317 391
#     4  10  22  37  64  96 123 168 217 256 320 391
#     4  10  20  40  64  92 121 168 221 258 311 387
#     4  11  24  42  61  93 132 166 212 267 330 377
#
# _framework density 18.418444999999998
#
# number of rings (size 3 to 8) (size 9 to 14) (size 15 to 20)
#    0.000    1.333    5.000    3.000    7.000    0.000 
#    0.000    1.667    0.000    0.000    0.000    0.000 
#    0.000    0.000    0.000    0.000    0.000    0.000 
#
# Total GULP energy -133805.077464 kJ/mol
# GULP energy per Si atom -5575.211561 kJ/mol
# Density = 1.837652 g / cm^3
# Si number density = 18.418445 Si / 1000 Ang^3
#
#
#
# Elastic Constant Matrix: (Units=GPa)
#
#
# Indices 1 2 3 4 5 6 
#
# 1 97.8842 19.0569 27.2366 0.0000 -14.3092 0.0000
# 2 19.0569 96.0848 28.6142 0.0000 -22.5803 0.0000
# 3 27.2366 28.6142 76.2108 0.0000 -19.1431 0.0000
# 4 0.0000 0.0000 0.0000 35.3711 0.0000 -9.3006
# 5 -14.3092 -22.5803 -19.1431 0.0000 29.1045 0.0000
# 6 0.0000 0.0000 0.0000 -9.3006 0.0000 41.4060
#
#
#
# Elastic Compliance Matrix: (Units=1/GPa)
#
#
# Indices 1 2 3 4 5 6 
#
# 1 0.011678 -0.000633 -0.003135 0.000000 0.003188 0.000000
# 2 -0.000633 0.013264 -0.002692 0.000000 0.008209 0.000000
# 3 -0.003135 -0.002692 0.017179 0.000000 0.007670 0.000000
# 4 0.000000 0.000000 0.000000 0.030046 0.000000 0.006749
# 5 0.003188 0.008209 0.007670 0.000000 0.047339 0.000000
# 6 0.000000 0.000000 0.000000 0.006749 0.000000 0.025667
#
#
# Mechanical properties :
#
#
# Convention : Reuss Voigt Hill
#
# Bulk Modulus (GPa) = 34.24589 46.66614 40.45602
# Shear Modulus (GPa) = 29.79259 34.19444 31.99351
#
# Velocity S-wave (km/s) = 4.02623 4.31342 4.17230
# Velocity P-wave (km/s) = 6.34410 7.08514 6.72483
#
# Compressibility (1/GPa) = 0.02920058
#
# Stress axis : x y z
#
# Youngs Moduli (GPa) = 85.63255 75.39332 58.21050
#
# Poissons Ratio (x) = 0.04775 0.18248
# Poissons Ratio (y) = 0.05423 0.15669
# Poissons Ratio (z) = 0.26845 0.20294
#
# Static dielectric constant tensor:
#      x y z
#    x 1.623320 0.000000 -0.011120 
#    y 0.000000 1.709540 0.000000 
#    z -0.011120 0.000000 1.616620 
# 
# From -- ./inp_files/54496.got.cif
#   From: 2010.05.17/outbox.ucp.g08.bks.cvg/sg14_28_cif.got.tgz:54496.got - 2010.06.11 12:31:08.
