data_PCOD9253624
_publ_section_title
;
Structure prediction by ZEFSAII (Michael W. Deem and Ramdas Pophale) SiO2 
 PCOD9253624
Probable space group: P 21/C
;
_chemical_formula_sum "Si O2"
_cell_formula_units_Z 30
_cell_length_a 15.000000
_cell_length_b 9.000000
_cell_length_c 18.000000
_cell_angle_alpha 90.000000
_cell_angle_beta 40.000000
_cell_angle_gamma 90.000000
_cell_volume 1561.973892
_symmetry_space_group_name_H-M "P 21/C"
_symmetry_group_IT_number 14
_symmetry_cell_setting 'monoclinic'
loop_
_space_group_symop_operation_xyz
x,y,z
-x,1/2+y,1/2-z
-x,-y,-z
x,1/2-y,1/2+z
loop_
_atom_site_type_symbol
_atom_site_label
_atom_site_fract_x
_atom_site_fract_y
_atom_site_fract_z
Si Si1 0.171265 0.756271 0.981153
Si Si2 0.301199 0.476333 0.299714
Si Si3 0.118355 0.887490 0.300925
Si Si4 0.370399 0.526914 0.935303
Si Si5 0.929902 0.007290 0.834112
Si Si6 0.812672 0.755588 0.508237
Si Si7 0.000000 0.000000 0.500000
Si Si8 0.761470 0.074472 0.322656
O O1 0.232827 0.878421 0.883708
O O2 0.293383 0.659905 0.940906
O O3 0.064719 0.642220 0.010638
O O4 0.103685 0.852213 0.091691
O O5 0.468636 0.480888 0.190757
O O6 0.244662 0.336556 0.384497
O O7 0.261381 0.479773 0.237788
O O8 0.105622 0.963091 0.228914
O O9 0.212516 0.743091 0.225001
O O10 0.959685 0.840998 0.432725
O O11 0.145767 0.992075 0.353322
O O12 0.292199 0.376285 0.958406
O O13 0.346120 0.554298 0.040080
O O14 0.092090 0.972148 0.735473
O O15 0.852364 0.866071 0.920242
#
# Coordination Sequence:
#
# PCOD9253624 Si02
#       8
#     4   4   4   4   4   4   2   4
#     4  11  23  39  63  92 121 164 200 259 310 357
#     4  11  25  41  59  89 128 164 209 249 292 373
#     4  11  21  39  61  94 120 151 198 258 312 367
#     4  12  22  42  63  85 124 172 208 240 301 376
#     4  10  22  39  64  88 125 152 198 261 315 365
#     4  10  23  39  60  90 117 161 203 245 312 357
#     4  12  22  34  64  92 128 148 202 264 312 348
#     4  11  22  38  65  91 120 158 206 254 310 358
#
# _framework density 19.206467
#
# number of rings (size 3 to 8) (size 9 to 14) (size 15 to 20)
#    0.000    1.067    5.333    1.200    3.733    1.600 
#    0.000    0.000    0.000    0.800    0.000    0.000 
#    0.000    0.000    0.000    0.000    0.000    0.000 
#
# Total GULP energy -167172.627490 kJ/mol
# GULP energy per Si atom -5572.420916 kJ/mol
# Density = 1.916275 g / cm^3
# Si number density = 19.206467 Si / 1000 Ang^3
#
#
#
# Elastic Constant Matrix: (Units=GPa)
#
#
# Indices 1 2 3 4 5 6 
#
# 1 20.0952 -15.1431 -4.5028 0.0000 12.2501 0.0000
# 2 -15.1431 67.0606 11.4402 0.0000 -9.1558 0.0000
# 3 -4.5028 11.4402 103.6117 0.0000 8.6368 0.0000
# 4 0.0000 0.0000 0.0000 24.1692 0.0000 -0.1535
# 5 12.2501 -9.1558 8.6368 0.0000 38.6692 0.0000
# 6 0.0000 0.0000 0.0000 -0.1535 0.0000 16.0879
#
#
#
# Elastic Compliance Matrix: (Units=1/GPa)
#
#
# Indices 1 2 3 4 5 6 
#
# 1 0.073089 0.013068 0.003470 0.000000 -0.020835 0.000000
# 2 0.013068 0.018183 -0.001481 0.000000 0.000496 0.000000
# 3 0.003470 -0.001481 0.010278 0.000000 -0.003746 0.000000
# 4 0.000000 0.000000 0.000000 0.041377 0.000000 0.000395
# 5 -0.020835 0.000496 -0.003746 0.000000 0.033415 0.000000
# 6 0.000000 0.000000 0.000000 0.000395 0.000000 0.062162
#
#
# Mechanical properties :
#
#
# Convention : Reuss Voigt Hill
#
# Bulk Modulus (GPa) = 7.59510 19.37290 13.48400
# Shear Modulus (GPa) = 19.81934 29.05016 24.43475
#
# Velocity S-wave (km/s) = 3.21582 3.89333 3.57068
# Velocity P-wave (km/s) = 4.21328 5.50629 4.90260
#
# Compressibility (1/GPa) = 0.13166378
#
# Stress axis : x y z
#
# Youngs Moduli (GPa) = 13.68195 54.99593 97.29523
#
# Poissons Ratio (x) = -0.71867 -0.33764
# Poissons Ratio (y) = -0.17879 0.14411
# Poissons Ratio (z) = -0.04748 0.08146
#
# Static dielectric constant tensor:
#      x y z
#    x 1.523750 0.000000 -0.047020 
#    y 0.000000 1.546880 0.000000 
#    z -0.047020 0.000000 1.643820 
# 
# From -- ./inp_files/59065.got.cif
#   From: 2010.05.17/outbox.ucp.g08.bks.cvg/sg14_30_cif.got.tgz:59065.got - 2010.06.11 12:31:08.
