data_PCOD9253514
_publ_section_title
;
Structure prediction by ZEFSAII (Michael W. Deem and Ramdas Pophale) SiO2 
 PCOD9253514
Probable space group: P 21/C
;
_chemical_formula_sum "Si O2"
_cell_formula_units_Z 24
_cell_length_a 18.000000
_cell_length_b 9.000000
_cell_length_c 24.000000
_cell_angle_alpha 90.000000
_cell_angle_beta 20.000000
_cell_angle_gamma 90.000000
_cell_volume 1329.774317
_symmetry_space_group_name_H-M "P 21/C"
_symmetry_group_IT_number 14
_symmetry_cell_setting 'monoclinic'
loop_
_space_group_symop_operation_xyz
x,y,z
-x,1/2+y,1/2-z
-x,-y,-z
x,1/2-y,1/2+z
loop_
_atom_site_type_symbol
_atom_site_label
_atom_site_fract_x
_atom_site_fract_y
_atom_site_fract_z
Si Si1 0.979099 0.929592 0.102871
Si Si2 0.375565 0.656024 0.638582
Si Si3 0.826400 0.950230 0.407590
Si Si4 0.674582 0.392700 0.734290
Si Si5 0.084483 0.841640 0.759478
Si Si6 0.828605 0.627391 0.265463
O O1 0.888508 0.784692 0.197369
O O2 0.187307 0.889127 0.919229
O O3 0.794849 0.990797 0.190573
O O4 0.028689 0.060994 0.112114
O O5 0.322183 0.739371 0.733212
O O6 0.277100 0.754216 0.656608
O O7 0.633117 0.645440 0.447608
O O8 0.268995 0.493699 0.708890
O O9 0.574530 0.934535 0.599730
O O10 0.941003 0.787817 0.331711
O O11 0.841575 0.036293 0.337848
O O12 0.962060 0.053060 0.354193
#
# Coordination Sequence:
#
# PCOD9253514 Si02
#       6
#     4   4   4   4   4   4
#     4  10  21  37  54  75 107 144 176 210 260 316
#     4   9  19  36  56  79 105 136 175 216 260 313
#     4  11  21  34  55  81 106 135 175 221 263 306
#     4  10  21  36  54  76 106 143 178 213 257 311
#     4  10  20  34  54  78 106 138 174 217 262 309
#     4  10  20  35  57  82 106 135 174 219 264 308
#
# _framework density 18.048175000000001
#
# number of rings (size 3 to 8) (size 9 to 14) (size 15 to 20)
#    0.000    2.000    0.000    4.000    0.000    4.667 
#    0.000    1.667    0.000    0.000    0.000    0.000 
#    0.000    0.000    0.000    0.000    0.000    0.000 
#
# Total GULP energy -133939.304459 kJ/mol
# GULP energy per Si atom -5580.804352 kJ/mol
# Density = 1.800710 g / cm^3
# Si number density = 18.048175 Si / 1000 Ang^3
#
#
#
# Elastic Constant Matrix: (Units=GPa)
#
#
# Indices 1 2 3 4 5 6 
#
# 1 6.8512 7.8284 -3.6586 0.0000 -8.4249 0.0000
# 2 7.8284 103.4558 17.9258 0.0000 6.7903 0.0000
# 3 -3.6586 17.9258 72.3332 0.0000 -13.3614 0.0000
# 4 0.0000 0.0000 0.0000 21.6715 0.0000 1.6598
# 5 -8.4249 6.7903 -13.3614 0.0000 21.7514 0.0000
# 6 0.0000 0.0000 0.0000 1.6598 0.0000 16.6062
#
#
#
# Elastic Compliance Matrix: (Units=1/GPa)
#
#
# Indices 1 2 3 4 5 6 
#
# 1 2.348896 -0.338408 0.440193 0.000000 1.285839 0.000000
# 2 -0.338408 0.059425 -0.067096 0.000000 -0.190841 0.000000
# 3 0.440193 -0.067096 0.099355 0.000000 0.252477 0.000000
# 4 0.000000 0.000000 0.000000 0.046500 0.000000 -0.004648
# 5 1.285839 -0.190841 0.252477 0.000000 0.758684 0.000000
# 6 0.000000 0.000000 0.000000 -0.004648 0.000000 0.060683
#
#
# Mechanical properties :
#
#
# Convention : Reuss Voigt Hill
#
# Bulk Modulus (GPa) = 0.38804 25.20348 12.79576
# Shear Modulus (GPa) = 1.20100 22.70878 11.95489
#
# Velocity S-wave (km/s) = 0.81663 3.55100 2.57648
# Velocity P-wave (km/s) = 1.05102 5.55047 3.99452
#
# Compressibility (1/GPa) = 2.57705510
#
# Stress axis : x y z
#
# Youngs Moduli (GPa) = 0.42573 16.82806 10.06489
#
# Poissons Ratio (x) = 5.69474 -4.43049
# Poissons Ratio (y) = 0.14407 0.67531
# Poissons Ratio (z) = -0.18740 1.12909
#
# Static dielectric constant tensor:
#      x y z
#    x 1.629490 0.000000 -0.004320 
#    y 0.000000 1.616180 0.000000 
#    z -0.004320 0.000000 1.587200 
# 
# From -- ./inp_files/38891.got.cif
#   From: 2010.05.17/outbox.ucp.g08.bks.cvg/sg14_20_cif.got.tgz:38891.got - 2010.06.11 12:31:08.
