data_PCOD9253997
_publ_section_title
;
Structure prediction by ZEFSAII (Michael W. Deem and Ramdas Pophale) SiO2 
 PCOD9253997
Probable space group: C 2/C
;
_chemical_formula_sum "Si O2"
_cell_formula_units_Z 56
_cell_length_a 25.840878
_cell_length_b 7.367979
_cell_length_c 15.814159
_cell_angle_alpha 90.000000
_cell_angle_beta 42.222667
_cell_angle_gamma 90.000000
_cell_volume 2023.391002
_symmetry_space_group_name_H-M "C 2/C"
_symmetry_group_IT_number 15
_symmetry_cell_setting 'monoclinic'
loop_
_space_group_symop_operation_xyz
x,y,z
-x,y,1/2-z
-x,-y,-z
x,-y,1/2+z
1/2+x,1/2+y,z
1/2-x,1/2+y,1/2-z
1/2-x,1/2-y,-z
1/2+x,1/2-y,1/2+z
loop_
_atom_site_type_symbol
_atom_site_label
_atom_site_fract_x
_atom_site_fract_y
_atom_site_fract_z
Si Si1 0.367090 0.322603 0.587550
Si Si2 0.541730 0.643260 0.359200
Si Si3 0.760166 0.529609 0.486182
Si Si4 0.422538 0.238420 0.113059
Si Si5 0.733928 0.407695 0.197461
Si Si6 0.432495 0.920495 0.769025
Si Si7 0.601877 0.484599 0.118594
O O1 0.405891 0.265745 0.628805
O O2 0.299970 0.463559 0.691361
O O3 0.320949 0.156528 0.602927
O O4 0.417132 0.427248 0.455426
O O5 0.554684 0.438598 0.379256
O O6 0.461851 0.750481 0.473962
O O7 0.563070 0.620927 0.234164
O O8 0.750000 0.750000 0.500000
O O9 0.731518 0.479209 0.614018
O O10 0.849194 0.482377 0.369085
O O11 0.692417 0.464515 0.507466
O O12 0.329785 0.245573 0.228803
O O13 0.454999 0.102003 0.143609
O O14 0.500000 0.983404 0.750000
O O15 0.412639 0.714118 0.822415
#
# Coordination Sequence:
#
# PCOD9253997 Si02
#       7
#     8   8   8   8   8   8   8
#     4  11  20  33  56  81 105 144 185 218 266 326
#     4   9  18  30  48  77 112 134 171 231 269 313
#     4  10  15  31  49  71 104 138 177 225 268 308
#     4   9  16  29  45  75 112 135 163 224 286 304
#     4  11  20  34  52  78 108 143 181 226 269 319
#     4  10  16  23  45  78 101 131 175 224 268 313
#     4  10  17  32  51  75 108 140 176 225 275 311
#
# _framework density 27.676311999999999
#
# number of rings (size 3 to 8) (size 9 to 14) (size 15 to 20)
#    0.000    2.000    8.571    0.857    0.000    1.143 
#    0.000    0.714    0.000    0.857    0.000    0.000 
#    0.000    0.000    0.000    0.000    0.000    0.000 
#
# Total GULP energy -156187.341214 kJ/mol
# GULP energy per Si atom -5578.119329 kJ/mol
# Density = 2.761332 g / cm^3
# Si number density = 27.676312 Si / 1000 Ang^3
#
#
#
# Elastic Constant Matrix: (Units=GPa)
#
#
# Indices 1 2 3 4 5 6 
#
# 1 153.5562 16.3772 38.3156 0.0048 -15.4422 -0.0012
# 2 16.3772 50.8636 24.4845 0.0192 6.8222 -0.0159
# 3 38.3156 24.4845 150.1821 0.0194 3.8869 -0.0184
# 4 0.0048 0.0192 0.0194 16.0218 -0.0051 -3.9863
# 5 -15.4422 6.8222 3.8869 -0.0051 53.8613 0.0044
# 6 -0.0012 -0.0159 -0.0184 -3.9863 0.0044 15.5103
#
#
#
# Elastic Compliance Matrix: (Units=1/GPa)
#
#
# Indices 1 2 3 4 5 6 
#
# 1 0.007373 -0.001920 -0.001632 0.000002 0.002475 -0.000004
# 2 -0.001920 0.022164 -0.003042 -0.000020 -0.003138 0.000015
# 3 -0.001632 -0.003042 0.007587 -0.000004 -0.000630 0.000005
# 4 0.000002 -0.000020 -0.000004 0.066679 0.000008 0.017137
# 5 0.002475 -0.003138 -0.000630 0.000008 0.019719 -0.000007
# 6 -0.000004 0.000015 0.000005 0.017137 -0.000007 0.068878
#
#
# Mechanical properties :
#
#
# Convention : Reuss Voigt Hill
#
# Bulk Modulus (GPa) = 41.77950 56.99515 49.38733
# Shear Modulus (GPa) = 23.41172 35.44029 29.42601
#
# Velocity S-wave (km/s) = 2.91161 3.58233 3.26424
# Velocity P-wave (km/s) = 5.14119 6.14402 5.66484
#
# Compressibility (1/GPa) = 0.02393518
#
# Stress axis : x y z
#
# Youngs Moduli (GPa) = 135.62602 45.11784 131.79961
#
# Poissons Ratio (x) = 0.08664 0.21511
# Poissons Ratio (y) = 0.26045 0.40097
# Poissons Ratio (z) = 0.22135 0.13726
#
# Static dielectric constant tensor:
#      x y z
#    x 2.294400 -0.000010 -0.014810 
#    y -0.000010 2.211420 0.000000 
#    z -0.014810 0.000000 2.215970 
# 
# From -- ./inp_files/181559.got.cif
#   From: 2010.05.17/outbox.cif.g08.bks.cpg/sg15_91_cif.got.tgz:181559.got - 2010.06.03 18:47:42.
