data_PCOD9253898
_publ_section_title
;
Structure prediction by ZEFSAII (Michael W. Deem and Ramdas Pophale) SiO2 
 PCOD9253898
Probable space group: C 2/C
;
_chemical_formula_sum "Si O2"
_cell_formula_units_Z 52
_cell_length_a 12.528322
_cell_length_b 28.991690
_cell_length_c 10.997789
_cell_angle_alpha 90.000000
_cell_angle_beta 36.803936
_cell_angle_gamma 90.000000
_cell_volume 2393.071264
_symmetry_space_group_name_H-M "C 2/C"
_symmetry_group_IT_number 15
_symmetry_cell_setting 'monoclinic'
loop_
_space_group_symop_operation_xyz
x,y,z
-x,y,1/2-z
-x,-y,-z
x,-y,1/2+z
1/2+x,1/2+y,z
1/2-x,1/2+y,1/2-z
1/2-x,1/2-y,-z
1/2+x,1/2-y,1/2+z
loop_
_atom_site_type_symbol
_atom_site_label
_atom_site_fract_x
_atom_site_fract_y
_atom_site_fract_z
Si Si1 0.484971 0.678998 0.906635
Si Si2 0.309616 0.922942 0.987693
Si Si3 0.500000 0.915397 0.250000
Si Si4 0.904393 0.276773 0.704489
Si Si5 0.813658 0.484582 0.600021
Si Si6 0.968728 0.360551 0.044773
Si Si7 0.654238 0.404557 0.876435
O O1 0.500000 0.668560 0.750000
O O2 0.392067 0.723200 0.681160
O O3 0.287715 0.700469 0.103589
O O4 0.496220 0.635007 0.986604
O O5 0.351417 0.882678 0.044209
O O6 0.239477 0.967379 0.120722
O O7 0.500000 0.935222 0.750000
O O8 0.187091 0.909434 0.989292
O O9 0.368890 0.950849 0.439011
O O10 0.417550 0.881762 0.221888
O O11 0.000000 0.279919 0.750000
O O12 0.005846 0.307137 0.510486
O O13 0.668541 0.455620 0.808481
O O14 0.000000 0.500000 0.500000
O O15 0.166434 0.381960 0.842612
#
# Coordination Sequence:
#
# PCOD9253898 Si02
#       7
#     8   8   4   8   8   8   8
#     4  10  19  32  51  75 101 128 157 206 256 303
#     4  10  15  24  40  66  98 127 158 200 243 277
#     4  10  16  24  36  62  98 132 160 194 254 280
#     4  10  18  31  51  75  98 125 161 202 254 300
#     4  11  15  25  43  66 100 136 160 204 242 288
#     4   9  17  25  40  64  98 127 156 202 240 290
#     4   9  18  27  42  69  99 125 158 202 251 288
#
# _framework density 21.729398
#
# number of rings (size 3 to 8) (size 9 to 14) (size 15 to 20)
#    0.000    2.154    5.385    4.154    0.000    0.000 
#    0.000    0.000    0.000    9.231    0.000    0.000 
#    0.000    0.000    0.000    0.000    0.000    0.000 
#
# Total GULP energy -144954.278269 kJ/mol
# GULP energy per Si atom -5575.164549 kJ/mol
# Density = 2.167994 g / cm^3
# Si number density = 21.729398 Si / 1000 Ang^3
#
#
#
# Elastic Constant Matrix: (Units=GPa)
#
#
# Indices 1 2 3 4 5 6 
#
# 1 22.9294 3.1734 17.9856 0.0000 4.6816 0.0000
# 2 3.1734 121.8825 54.8743 0.0000 2.4434 0.0000
# 3 17.9856 54.8743 85.7186 0.0000 6.8418 0.0000
# 4 0.0000 0.0000 0.0000 51.1144 0.0000 5.3314
# 5 4.6816 2.4434 6.8418 0.0000 31.8486 0.0000
# 6 0.0000 0.0000 0.0000 5.3314 0.0000 5.1403
#
#
#
# Elastic Compliance Matrix: (Units=1/GPa)
#
#
# Indices 1 2 3 4 5 6 
#
# 1 0.055388 0.005204 -0.014520 0.000000 -0.005422 0.000000
# 2 0.005204 0.012032 -0.008811 0.000000 0.000205 0.000000
# 3 -0.014520 -0.008811 0.020480 0.000000 -0.001589 0.000000
# 4 0.000000 0.000000 0.000000 0.021937 0.000000 -0.022753
# 5 -0.005422 0.000205 -0.001589 0.000000 0.032521 0.000000
# 6 0.000000 0.000000 0.000000 -0.022753 0.000000 0.218140
#
#
# Mechanical properties :
#
#
# Convention : Reuss Voigt Hill
#
# Bulk Modulus (GPa) = 19.36255 42.51080 30.93668
# Shear Modulus (GPa) = 12.07825 27.92047 19.99936
#
# Velocity S-wave (km/s) = 2.36020 3.58846 3.03707
# Velocity P-wave (km/s) = 4.04444 6.06429 5.15428
#
# Compressibility (1/GPa) = 0.05164610
#
# Stress axis : x y z
#
# Youngs Moduli (GPa) = 18.05431 83.11344 48.82850
#
# Poissons Ratio (x) = -0.43252 0.70901
# Poissons Ratio (y) = -0.09395 0.43021
# Poissons Ratio (z) = 0.26215 0.73228
#
# Static dielectric constant tensor:
#      x y z
#    x 1.814260 0.000000 -0.054640 
#    y 0.000000 1.939870 0.000000 
#    z -0.054640 0.000000 1.841700 
# 
# From -- ./inp_files/115098.got.cif
#   From: 2010.05.17/outbox.cif.g08.bks.cpg/sg15_58_cif.got.tgz:115098.got - 2010.06.03 18:47:42.
