data_PCOD9253205
_publ_section_title
;
Structure prediction by ZEFSAII (Michael W. Deem and Ramdas Pophale) SiO2 
 PCOD9253205
Probable space group: P 21/C
;
_chemical_formula_sum "Si O2"
_cell_formula_units_Z 20
_cell_length_a 20.848395
_cell_length_b 4.896217
_cell_length_c 12.531162
_cell_angle_alpha 90.000000
_cell_angle_beta 38.893597
_cell_angle_gamma 90.000000
_cell_volume 803.153523
_symmetry_space_group_name_H-M "P 21/C"
_symmetry_group_IT_number 14
_symmetry_cell_setting 'monoclinic'
loop_
_space_group_symop_operation_xyz
x,y,z
-x,1/2+y,1/2-z
-x,-y,-z
x,1/2-y,1/2+z
loop_
_atom_site_type_symbol
_atom_site_label
_atom_site_fract_x
_atom_site_fract_y
_atom_site_fract_z
Si Si1 0.445119 0.204043 0.489695
Si Si2 0.382805 0.951576 0.348352
Si Si3 0.888540 0.867655 0.143227
Si Si4 0.237528 0.207982 0.886391
Si Si5 0.788206 0.372637 0.392837
O O1 0.530590 0.431912 0.353759
O O2 0.330762 0.229545 0.682134
O O3 0.500000 0.000000 0.500000
O O4 0.428462 0.086705 0.392897
O O5 0.335458 0.662535 0.450488
O O6 0.286580 0.108593 0.417768
O O7 0.859418 0.749378 0.064138
O O8 0.859138 0.616678 0.257857
O O9 0.821377 0.120333 0.274924
O O10 0.000000 0.000000 0.000000
O O11 0.207430 0.924098 0.984320
#
# Coordination Sequence:
#
# PCOD9253205 Si02
#       5
#     4   4   4   4   4
#     4  12  25  43  74 113 168 216 259 323 390 479
#     4  12  27  47  74 122 164 218 272 316 396 493
#     4  12  30  52  83 114 154 205 269 345 420 474
#     4  12  26  49  80 110 163 212 263 334 398 479
#     4  12  26  52  76 118 155 203 271 329 396 495
#
# _framework density 24.901835999999999
#
# number of rings (size 3 to 8) (size 9 to 14) (size 15 to 20)
#    0.000    0.000    6.000    2.400    8.400    1.600 
#    0.000    0.000    0.000    0.000    0.000    0.000 
#    0.000    0.000    0.000    0.000    0.000    0.000 
#
# Total GULP energy -111378.974080 kJ/mol
# GULP energy per Si atom -5568.948704 kJ/mol
# Density = 2.484516 g / cm^3
# Si number density = 24.901836 Si / 1000 Ang^3
#
#
#
# Elastic Constant Matrix: (Units=GPa)
#
#
# Indices 1 2 3 4 5 6 
#
# 1 136.2766 18.5441 47.6654 0.0000 -8.5604 0.0000
# 2 18.5441 79.8882 26.9442 0.0000 -1.8518 0.0000
# 3 47.6654 26.9442 95.2975 0.0000 4.1388 0.0000
# 4 0.0000 0.0000 0.0000 29.1071 0.0000 -1.0792
# 5 -8.5604 -1.8518 4.1388 0.0000 36.0360 0.0000
# 6 0.0000 0.0000 0.0000 -1.0792 0.0000 33.7228
#
#
#
# Elastic Compliance Matrix: (Units=1/GPa)
#
#
# Indices 1 2 3 4 5 6 
#
# 1 0.009171 -0.000531 -0.004553 0.000000 0.002674 0.000000
# 2 -0.000531 0.013917 -0.003713 0.000000 0.001015 0.000000
# 3 -0.004553 -0.003713 0.013945 0.000000 -0.002874 0.000000
# 4 0.000000 0.000000 0.000000 0.034397 0.000000 0.001101
# 5 0.002674 0.001015 -0.002874 0.000000 0.028767 0.000000
# 6 0.000000 0.000000 0.000000 0.001101 0.000000 0.029689
#
#
# Mechanical properties :
#
#
# Convention : Reuss Voigt Hill
#
# Bulk Modulus (GPa) = 51.44506 55.30776 53.37641
# Shear Modulus (GPa) = 32.47602 34.32710 33.40156
#
# Velocity S-wave (km/s) = 3.61524 3.71684 3.66639
# Velocity P-wave (km/s) = 6.17499 6.37796 6.27730
#
# Compressibility (1/GPa) = 0.01943821
#
# Stress axis : x y z
#
# Youngs Moduli (GPa) = 109.04226 71.85616 71.70829
#
# Poissons Ratio (x) = 0.03817 0.32648
# Poissons Ratio (y) = 0.05792 0.26627
# Poissons Ratio (z) = 0.49646 0.26682
#
# Static dielectric constant tensor:
#      x y z
#    x 2.053610 0.000000 0.001640 
#    y 0.000000 1.324570 0.000000 
#    z 0.001640 0.000000 1.971160 
# 
# From -- ./inp_files/35504.got.cif
#   From: 2010.05.17/outbox.cif.g08.bks.cpg/sg14_18_cif.got.tgz:35504.got - 2010.06.03 17:49:19.
