data_PCOD9253547
_publ_section_title
;
Structure prediction by ZEFSAII (Michael W. Deem and Ramdas Pophale) SiO2 
 PCOD9253547
Probable space group: P 21/C
;
_chemical_formula_sum "Si O2"
_cell_formula_units_Z 28
_cell_length_a 9.000000
_cell_length_b 12.000000
_cell_length_c 21.000000
_cell_angle_alpha 90.000000
_cell_angle_beta 40.000000
_cell_angle_gamma 90.000000
_cell_volume 1457.842299
_symmetry_space_group_name_H-M "P 21/C"
_symmetry_group_IT_number 14
_symmetry_cell_setting 'monoclinic'
loop_
_space_group_symop_operation_xyz
x,y,z
-x,1/2+y,1/2-z
-x,-y,-z
x,1/2-y,1/2+z
loop_
_atom_site_type_symbol
_atom_site_label
_atom_site_fract_x
_atom_site_fract_y
_atom_site_fract_z
Si Si1 0.757792 0.191004 0.662974
Si Si2 0.248185 0.368816 0.275074
Si Si3 0.502080 0.111198 0.456818
Si Si4 0.127937 0.620460 0.269066
Si Si5 0.851179 0.253854 0.488394
Si Si6 0.657105 0.776285 0.882633
Si Si7 0.086780 0.003143 0.542482
O O1 0.498306 0.153173 0.726957
O O2 0.788883 0.285438 0.707038
O O3 0.864442 0.238596 0.560910
O O4 0.896994 0.079695 0.640185
O O5 0.191544 0.497730 0.275965
O O6 0.254640 0.300760 0.205558
O O7 0.053931 0.320537 0.386680
O O8 0.733501 0.135835 0.342823
O O9 0.400591 0.205598 0.535167
O O10 0.500000 0.000000 0.500000
O O11 0.316411 0.076413 0.465141
O O12 0.858332 0.638822 0.338205
O O13 0.601851 0.309904 0.555198
O O14 0.861937 0.125723 0.456957
O O15 0.000000 0.000000 0.500000
#
# Coordination Sequence:
#
# PCOD9253547 Si02
#       7
#     4   4   4   4   4   4   4
#     4  10  24  40  63 102 128 171 224 269 326 386
#     4  11  25  42  66  95 133 177 214 272 336 389
#     4  12  21  41  66  92 128 168 219 276 313 380
#     4  12  25  41  67  99 133 168 222 274 327 403
#     4  10  22  42  65  89 133 176 215 273 323 391
#     4  11  23  42  63  98 126 170 226 267 330 386
#     4  10  20  38  66  92 124 168 224 267 312 376
#
# _framework density 19.206467
#
# number of rings (size 3 to 8) (size 9 to 14) (size 15 to 20)
#    0.000    1.143    4.286    2.571    6.000    1.143 
#    0.000    0.000    0.000    0.000    0.000    0.000 
#    0.000    0.000    0.000    0.000    0.000    0.000 
#
# Total GULP energy -156111.364217 kJ/mol
# GULP energy per Si atom -5575.405865 kJ/mol
# Density = 1.916275 g / cm^3
# Si number density = 19.206467 Si / 1000 Ang^3
#
#
#
# Elastic Constant Matrix: (Units=GPa)
#
#
# Indices 1 2 3 4 5 6 
#
# 1 63.1891 14.1150 29.0221 0.0000 -10.5923 0.0000
# 2 14.1150 70.1587 41.1932 0.0000 -5.8905 0.0000
# 3 29.0221 41.1932 147.5511 0.0000 -4.1386 0.0000
# 4 0.0000 0.0000 0.0000 33.0127 0.0000 -0.7126
# 5 -10.5923 -5.8905 -4.1386 0.0000 39.6300 0.0000
# 6 0.0000 0.0000 0.0000 -0.7126 0.0000 31.3651
#
#
#
# Elastic Compliance Matrix: (Units=1/GPa)
#
#
# Indices 1 2 3 4 5 6 
#
# 1 0.018296 -0.001525 -0.003051 0.000000 0.004345 0.000000
# 2 -0.001525 0.017341 -0.004494 0.000000 0.001701 0.000000
# 3 -0.003051 -0.004494 0.008616 0.000000 -0.000584 0.000000
# 4 0.000000 0.000000 0.000000 0.030306 0.000000 0.000689
# 5 0.004345 0.001701 -0.000584 0.000000 0.026587 0.000000
# 6 0.000000 0.000000 0.000000 0.000689 0.000000 0.031898
#
#
# Mechanical properties :
#
#
# Convention : Reuss Voigt Hill
#
# Bulk Modulus (GPa) = 38.29394 49.95102 44.12248
# Shear Modulus (GPa) = 31.27198 33.90612 32.58905
#
# Velocity S-wave (km/s) = 4.03947 4.20616 4.12366
# Velocity P-wave (km/s) = 6.46048 7.04648 6.75984
#
# Compressibility (1/GPa) = 0.02611379
#
# Stress axis : x y z
#
# Youngs Moduli (GPa) = 54.65750 57.66536 116.06798
#
# Poissons Ratio (x) = 0.08792 0.35414
# Poissons Ratio (y) = 0.08333 0.52158
# Poissons Ratio (z) = 0.16677 0.25914
#
# Static dielectric constant tensor:
#      x y z
#    x 1.772710 0.000000 -0.067980 
#    y 0.000000 1.707890 0.000000 
#    z -0.067980 0.000000 1.710590 
# 
# From -- ./inp_files/65539.got.cif
#   From: 2010.05.17/outbox.ucp.g08.bks.cvg/sg14_33_cif.got.tgz:65539.got - 2010.06.11 12:31:08.
