data_PCOD9253561
_publ_section_title
;
Structure prediction by ZEFSAII (Michael W. Deem and Ramdas Pophale) SiO2 
 PCOD9253561
Probable space group: P 21/C
;
_chemical_formula_sum "Si O2"
_cell_formula_units_Z 28
_cell_length_a 12.000000
_cell_length_b 18.000000
_cell_length_c 15.000000
_cell_angle_alpha 90.000000
_cell_angle_beta 150.000000
_cell_angle_gamma 90.000000
_cell_volume 1620.000000
_symmetry_space_group_name_H-M "P 21/C"
_symmetry_group_IT_number 14
_symmetry_cell_setting 'monoclinic'
loop_
_space_group_symop_operation_xyz
x,y,z
-x,1/2+y,1/2-z
-x,-y,-z
x,1/2-y,1/2+z
loop_
_atom_site_type_symbol
_atom_site_label
_atom_site_fract_x
_atom_site_fract_y
_atom_site_fract_z
Si Si1 0.501085 0.941488 0.202315
Si Si2 0.387772 0.144246 0.541035
Si Si3 0.226347 0.881883 0.341700
Si Si4 0.359747 0.893593 0.640075
Si Si5 0.018763 0.531248 0.277516
Si Si6 0.259922 0.317408 0.469306
Si Si7 0.152987 0.083672 0.721988
O O1 0.529665 0.882956 0.303428
O O2 0.673896 0.926181 0.239668
O O3 0.567890 0.021109 0.291809
O O4 0.246803 0.946086 0.987406
O O5 0.587504 0.130659 0.606295
O O6 0.317751 0.230969 0.494393
O O7 0.164701 0.095739 0.363925
O O8 0.343535 0.874949 0.521879
O O9 0.999477 0.830851 0.177742
O O10 0.116273 0.964655 0.265991
O O11 0.093593 0.887735 0.481078
O O12 0.546515 0.848788 0.828335
O O13 0.098195 0.492839 0.238757
O O14 0.254431 0.362874 0.370662
#
# Coordination Sequence:
#
# PCOD9253561 Si02
#       7
#     4   4   4   4   4   4   4
#     4  12  22  37  68  98 117 163 219 247 305 375
#     4  12  26  39  63  97 123 162 215 258 300 380
#     4  10  23  45  63  86 129 167 200 256 316 369
#     4  10  20  40  67  87 124 166 204 252 317 362
#     4  10  22  39  63  91 125 162 209 252 310 363
#     4  10  24  43  61  90 128 166 201 260 326 355
#     4  10  22  39  65  92 127 162 205 263 308 362
#
# _framework density 17.283950999999998
#
# number of rings (size 3 to 8) (size 9 to 14) (size 15 to 20)
#    0.000    1.714    5.714    1.286    0.000    7.429 
#    0.000    0.000    0.000    0.000    0.000    0.000 
#    0.000    0.000    0.000    0.000    0.000    0.000 
#
# Total GULP energy -156073.753313 kJ/mol
# GULP energy per Si atom -5574.062618 kJ/mol
# Density = 1.724461 g / cm^3
# Si number density = 17.283951 Si / 1000 Ang^3
#
#
#
# Elastic Constant Matrix: (Units=GPa)
#
#
# Indices 1 2 3 4 5 6 
#
# 1 162.3245 55.9476 72.7049 0.0000 10.4989 0.0000
# 2 55.9476 123.9191 60.6177 0.0000 5.0032 0.0000
# 3 72.7049 60.6177 199.9174 0.0000 5.6825 0.0000
# 4 0.0000 0.0000 0.0000 41.0614 0.0000 2.2234
# 5 10.4989 5.0032 5.6825 0.0000 30.1983 0.0000
# 6 0.0000 0.0000 0.0000 2.2234 0.0000 18.1458
#
#
#
# Elastic Compliance Matrix: (Units=1/GPa)
#
#
# Indices 1 2 3 4 5 6 
#
# 1 0.008119 -0.002546 -0.002124 0.000000 -0.002001 0.000000
# 2 -0.002546 0.010306 -0.002187 0.000000 -0.000411 0.000000
# 3 -0.002124 -0.002187 0.006441 0.000000 -0.000111 0.000000
# 4 0.000000 0.000000 0.000000 0.024516 0.000000 -0.003004
# 5 -0.002001 -0.000411 -0.000111 0.000000 0.033899 0.000000
# 6 0.000000 0.000000 0.000000 -0.003004 0.000000 0.055477
#
#
# Mechanical properties :
#
#
# Convention : Reuss Voigt Hill
#
# Bulk Modulus (GPa) = 89.67432 96.07794 92.87613
# Shear Modulus (GPa) = 32.01252 37.67381 34.84316
#
# Velocity S-wave (km/s) = 4.30833 4.67379 4.49478
# Velocity P-wave (km/s) = 8.76040 9.21056 8.98830
#
# Compressibility (1/GPa) = 0.01115147
#
# Stress axis : x y z
#
# Youngs Moduli (GPa) = 123.17422 97.03352 155.26007
#
# Poissons Ratio (x) = 0.24702 0.32973
# Poissons Ratio (y) = 0.31357 0.33961
# Poissons Ratio (z) = 0.26159 0.21224
#
# Static dielectric constant tensor:
#      x y z
#    x 1.595170 0.000000 -0.005100 
#    y 0.000000 1.602750 0.000000 
#    z -0.005100 0.000000 1.598590 
# 
# From -- ./inp_files/45307.got.cif
#   From: 2010.05.17/outbox.ucp.g08.bks.cvg/sg14_23_cif.got.tgz:45307.got - 2010.06.11 12:31:08.
