data_PCOD9253546
_publ_section_title
;
Structure prediction by ZEFSAII (Michael W. Deem and Ramdas Pophale) SiO2 
 PCOD9253546
Probable space group: P 21/C
;
_chemical_formula_sum "Si O2"
_cell_formula_units_Z 26
_cell_length_a 24.000000
_cell_length_b 9.000000
_cell_length_c 12.000000
_cell_angle_alpha 90.000000
_cell_angle_beta 30.000000
_cell_angle_gamma 90.000000
_cell_volume 1296.000000
_symmetry_space_group_name_H-M "P 21/C"
_symmetry_group_IT_number 14
_symmetry_cell_setting 'monoclinic'
loop_
_space_group_symop_operation_xyz
x,y,z
-x,1/2+y,1/2-z
-x,-y,-z
x,1/2-y,1/2+z
loop_
_atom_site_type_symbol
_atom_site_label
_atom_site_fract_x
_atom_site_fract_y
_atom_site_fract_z
Si Si1 0.137896 0.515795 0.561677
Si Si2 0.269411 0.121508 0.466098
Si Si3 0.769051 0.942225 0.866262
Si Si4 0.652502 0.041787 0.454167
Si Si5 0.500000 0.500000 0.500000
Si Si6 0.441715 0.631229 0.355896
Si Si7 0.093419 0.168351 0.587326
O O1 0.158490 0.516530 0.659637
O O2 0.256045 0.559698 0.300586
O O3 0.108831 0.346818 0.572691
O O4 0.035282 0.619283 0.700990
O O5 0.273940 0.288681 0.504841
O O6 0.158792 0.105229 0.582622
O O7 0.279417 0.012994 0.555089
O O8 0.378226 0.084131 0.206248
O O9 0.843481 0.895496 0.631071
O O10 0.664900 0.042740 0.007905
O O11 0.588193 0.194217 0.596630
O O12 0.555575 0.920600 0.596098
O O13 0.469524 0.587408 0.434837
#
# Coordination Sequence:
#
# PCOD9253546 Si02
#       7
#     4   4   4   4   2   4   4
#     4  11  27  43  70  99 141 176 236 270 349 402
#     4  10  22  42  71  96 138 179 225 283 338 394
#     4  11  23  46  70 100 131 186 221 291 333 409
#     4  11  25  44  67 110 130 183 224 282 342 413
#     4  10  20  38  66 100 128 176 212 274 340 394
#     4  11  24  41  73  98 144 169 231 281 345 403
#     4  11  24  46  67  99 139 183 225 286 330 410
#
# _framework density 20.061727999999999
#
# number of rings (size 3 to 8) (size 9 to 14) (size 15 to 20)
#    0.000    1.231    3.077    2.308    2.154    6.154 
#    0.000    0.000    0.000    0.000    0.000    0.000 
#    0.000    0.000    0.000    0.000    0.000    0.000 
#
# Total GULP energy -144816.294568 kJ/mol
# GULP energy per Si atom -5569.857483 kJ/mol
# Density = 2.001607 g / cm^3
# Si number density = 20.061728 Si / 1000 Ang^3
#
#
#
# Elastic Constant Matrix: (Units=GPa)
#
#
# Indices 1 2 3 4 5 6 
#
# 1 118.2614 25.2357 3.6130 0.0000 -25.0676 0.0000
# 2 25.2357 35.2883 11.1020 0.0000 -2.6506 0.0000
# 3 3.6130 11.1020 82.3820 0.0000 -21.2705 0.0000
# 4 0.0000 0.0000 0.0000 33.2836 0.0000 -5.9536
# 5 -25.0676 -2.6506 -21.2705 0.0000 31.4330 0.0000
# 6 0.0000 0.0000 0.0000 -5.9536 0.0000 27.6276
#
#
#
# Elastic Compliance Matrix: (Units=1/GPa)
#
#
# Indices 1 2 3 4 5 6 
#
# 1 0.012949 -0.009561 0.003852 0.000000 0.012127 0.000000
# 2 -0.009561 0.036654 -0.006896 0.000000 -0.009200 0.000000
# 3 0.003852 -0.006896 0.016409 0.000000 0.013594 0.000000
# 4 0.000000 0.000000 0.000000 0.031249 0.000000 0.006734
# 5 0.012127 -0.009200 0.013594 0.000000 0.049908 0.000000
# 6 0.000000 0.000000 0.000000 0.006734 0.000000 0.037647
#
#
# Mechanical properties :
#
#
# Convention : Reuss Voigt Hill
#
# Bulk Modulus (GPa) = 24.50904 35.09259 29.80081
# Shear Modulus (GPa) = 22.35874 31.53424 26.94649
#
# Velocity S-wave (km/s) = 3.34203 3.96897 3.66892
# Velocity P-wave (km/s) = 5.20918 6.20757 5.73016
#
# Compressibility (1/GPa) = 0.04080127
#
# Stress axis : x y z
#
# Youngs Moduli (GPa) = 77.22667 27.28230 60.94287
#
# Poissons Ratio (x) = 0.26085 -0.23473
# Poissons Ratio (y) = 0.73837 0.42025
# Poissons Ratio (z) = -0.29745 0.18813
#
# Static dielectric constant tensor:
#      x y z
#    x 1.696200 0.000000 0.023370 
#    y 0.000000 1.717230 0.000000 
#    z 0.023370 0.000000 1.731310 
# 
# From -- ./inp_files/35697.got.cif
#   From: 2010.05.17/outbox.ucp.g08.bks.cvg/sg14_18_cif.got.tgz:35697.got - 2010.06.11 12:31:08.
