data_PCOD9253365
_publ_section_title
;
Structure prediction by ZEFSAII (Michael W. Deem and Ramdas Pophale) SiO2 
 PCOD9253365
Probable space group: P 21/C
;
_chemical_formula_sum "Si O2"
_cell_formula_units_Z 12
_cell_length_a 6.919589
_cell_length_b 9.553027
_cell_length_c 9.840599
_cell_angle_alpha 90.000000
_cell_angle_beta 131.631465
_cell_angle_gamma 90.000000
_cell_volume 486.200413
_symmetry_space_group_name_H-M "P 21/C"
_symmetry_group_IT_number 14
_symmetry_cell_setting 'monoclinic'
loop_
_space_group_symop_operation_xyz
x,y,z
-x,1/2+y,1/2-z
-x,-y,-z
x,1/2-y,1/2+z
loop_
_atom_site_type_symbol
_atom_site_label
_atom_site_fract_x
_atom_site_fract_y
_atom_site_fract_z
Si Si1 0.705372 0.492139 0.716133
Si Si2 0.239004 0.087342 0.348976
Si Si3 0.361726 0.268992 0.643296
O O1 0.500000 0.500000 0.500000
O O2 0.785156 0.871882 0.820762
O O3 0.640316 0.343324 0.757805
O O4 0.645457 0.618860 0.788218
O O5 0.259210 0.230929 0.446044
O O6 0.500000 0.000000 0.500000
O O7 0.992301 0.008189 0.292329
#
# Coordination Sequence:
#
# PCOD9253365 Si02
#       3
#     4   4   4
#     4  12  29  49  80 114 152 200 255 315 381 450
#     4  12  29  49  78 114 157 198 254 313 382 451
#     4  12  27  48  79 111 154 195 255 311 380 445
#
# _framework density 24.681180999999999
#
# number of rings (size 3 to 8) (size 9 to 14) (size 15 to 20)
#    0.000    0.000    6.667    1.000    9.333    1.333 
#    0.000    0.000    0.000    0.000    0.000    0.000 
#    0.000    0.000    0.000    0.000    0.000    0.000 
#
# Total GULP energy -67166.489111 kJ/mol
# GULP energy per Si atom -5597.207426 kJ/mol
# Density = 2.462501 g / cm^3
# Si number density = 24.681181 Si / 1000 Ang^3
#
#
#
# Elastic Constant Matrix: (Units=GPa)
#
#
# Indices 1 2 3 4 5 6 
#
# 1 176.0162 62.6821 53.9719 0.0000 25.1727 0.0000
# 2 62.6821 115.5055 30.2532 0.0000 29.4796 0.0000
# 3 53.9719 30.2532 76.0317 0.0000 14.5887 0.0000
# 4 0.0000 0.0000 0.0000 44.7225 0.0000 -8.2252
# 5 25.1727 29.4796 14.5887 0.0000 51.8037 0.0000
# 6 0.0000 0.0000 0.0000 -8.2252 0.0000 35.4680
#
#
#
# Elastic Compliance Matrix: (Units=1/GPa)
#
#
# Indices 1 2 3 4 5 6 
#
# 1 0.008290 -0.003067 -0.004468 0.000000 -0.001025 0.000000
# 2 -0.003067 0.012001 -0.001663 0.000000 -0.004870 0.000000
# 3 -0.004468 -0.001663 0.017324 0.000000 -0.001761 0.000000
# 4 0.000000 0.000000 0.000000 0.023356 0.000000 0.005416
# 5 -0.001025 -0.004870 -0.001761 0.000000 0.023069 0.000000
# 6 0.000000 0.000000 0.000000 0.005416 0.000000 0.029450
#
#
# Mechanical properties :
#
#
# Convention : Reuss Voigt Hill
#
# Bulk Modulus (GPa) = 52.03461 73.48531 62.75996
# Shear Modulus (GPa) = 36.15518 41.10859 38.63188
#
# Velocity S-wave (km/s) = 3.83154 4.08558 3.96060
# Velocity P-wave (km/s) = 6.37987 7.21765 6.81165
#
# Compressibility (1/GPa) = 0.01921798
#
# Stress axis : x y z
#
# Youngs Moduli (GPa) = 120.62685 83.32825 57.72448
#
# Poissons Ratio (x) = 0.25557 0.25790
# Poissons Ratio (y) = 0.36997 0.09602
# Poissons Ratio (z) = 0.53893 0.13861
#
# Static dielectric constant tensor:
#      x y z
#    x 1.984990 0.000000 -0.094840 
#    y 0.000000 2.000860 0.000000 
#    z -0.094840 0.000000 1.978310 
# 
# From -- ./inp_files/36665.got.cif
#   From: 2010.05.17/outbox.cif.g08.bks.cpg/sg14_19_cif.got.tgz:36665.got - 2010.06.03 17:49:19.
