data_PCOD9253926
_publ_section_title
;
Structure prediction by ZEFSAII (Michael W. Deem and Ramdas Pophale) SiO2 
 PCOD9253926
Probable space group: C 2/C
;
_chemical_formula_sum "Si O2"
_cell_formula_units_Z 56
_cell_length_a 19.732354
_cell_length_b 20.470116
_cell_length_c 14.474292
_cell_angle_alpha 90.000000
_cell_angle_beta 154.201902
_cell_angle_gamma 90.000000
_cell_volume 2544.407270
_symmetry_space_group_name_H-M "C 2/C"
_symmetry_group_IT_number 15
_symmetry_cell_setting 'monoclinic'
loop_
_space_group_symop_operation_xyz
x,y,z
-x,y,1/2-z
-x,-y,-z
x,-y,1/2+z
1/2+x,1/2+y,z
1/2-x,1/2+y,1/2-z
1/2-x,1/2-y,-z
1/2+x,1/2-y,1/2+z
loop_
_atom_site_type_symbol
_atom_site_label
_atom_site_fract_x
_atom_site_fract_y
_atom_site_fract_z
Si Si1 0.689939 0.687447 0.565161
Si Si2 0.631522 0.249355 0.238325
Si Si3 0.777798 0.627716 0.256494
Si Si4 0.128833 0.340115 0.017837
Si Si5 0.567902 0.965225 0.675462
Si Si6 0.110229 0.189099 0.200973
Si Si7 0.074587 0.604937 0.745919
O O1 0.778140 0.667032 0.770041
O O2 0.506916 0.679540 0.358383
O O3 0.767671 0.641339 0.584659
O O4 0.745244 0.761334 0.610153
O O5 0.738528 0.196082 0.316960
O O6 0.741034 0.311710 0.393818
O O7 0.520967 0.207815 0.169631
O O8 0.506777 0.273052 0.010753
O O9 0.783567 0.573262 0.184112
O O10 0.665633 0.627409 0.207532
O O11 0.949309 0.624332 0.513230
O O12 0.051947 0.412552 0.926774
O O13 0.500000 0.000000 0.500000
O O14 0.600838 0.027088 0.779665
O O15 0.000000 0.625806 0.750000
#
# Coordination Sequence:
#
# PCOD9253926 Si02
#       7
#     8   8   8   8   8   8   8
#     4  10  16  28  46  72 100 124 150 191 239 280
#     4   9  13  22  44  71  98 111 136 183 242 278
#     4  10  16  30  48  74  94 121 151 197 238 281
#     4   9  14  24  46  68  96 112 141 192 239 273
#     4   9  17  30  48  66  92 123 166 196 229 270
#     4  10  15  26  49  72 102 121 145 197 236 291
#     4  11  21  35  49  63  92 137 173 196 220 271
#
# _framework density 22.009055
#
# number of rings (size 3 to 8) (size 9 to 14) (size 15 to 20)
#    0.000    2.286   10.000    0.000    0.000    0.000 
#    0.000    4.286    0.000    0.000    0.000    4.000 
#    0.000    0.000    0.000    0.000    0.000    1.429 
#
# Total GULP energy -155907.837427 kJ/mol
# GULP energy per Si atom -5568.137051 kJ/mol
# Density = 2.195896 g / cm^3
# Si number density = 22.009055 Si / 1000 Ang^3
#
#
#
# Elastic Constant Matrix: (Units=GPa)
#
#
# Indices 1 2 3 4 5 6 
#
# 1 61.5211 23.2238 37.8212 0.0000 32.2473 0.0000
# 2 23.2238 117.0462 32.1935 0.0000 23.6928 0.0000
# 3 37.8212 32.1935 57.4570 0.0000 17.7044 0.0000
# 4 0.0000 0.0000 0.0000 14.7844 0.0000 14.1950
# 5 32.2473 23.6928 17.7044 0.0000 46.1631 0.0000
# 6 0.0000 0.0000 0.0000 14.1950 0.0000 8.4266
#
#
#
# Elastic Compliance Matrix: (Units=1/GPa)
#
#
# Indices 1 2 3 4 5 6 
#
# 1 0.038537 0.002016 -0.020279 0.000000 -0.020177 0.000000
# 2 0.002016 0.010704 -0.005894 0.000000 -0.004641 0.000000
# 3 -0.020279 -0.005894 0.032613 0.000000 0.004684 0.000000
# 4 0.000000 0.000000 0.000000 -0.109557 0.000000 0.184554
# 5 -0.020177 -0.004641 0.004684 0.000000 0.036343 0.000000
# 6 0.000000 0.000000 0.000000 0.184554 0.000000 -0.192217
#
#
# Mechanical properties :
#
#
# Convention : Reuss Voigt Hill
#
# Bulk Modulus (GPa) = 29.81689 46.94461 38.38075
# Shear Modulus (GPa) = -40.29560 23.39388 -8.45086
#
# Velocity S-wave (km/s) = -4.28350 3.26378 -1.96165
# Velocity P-wave (km/s) = 3.29963 5.96482 3.51365
#
# Compressibility (1/GPa) = 0.03353804
#
# Stress axis : x y z
#
# Youngs Moduli (GPa) = 25.94933 93.41876 30.66301
#
# Poissons Ratio (x) = -0.18831 0.62182
# Poissons Ratio (y) = -0.05231 0.18074
# Poissons Ratio (z) = 0.52623 0.55066
#
# Static dielectric constant tensor:
#      x y z
#    x 1.958870 0.000000 -0.015610 
#    y 0.000000 1.851600 0.000000 
#    z -0.015610 0.000000 1.838340 
# 
# From -- ./inp_files/216420.got.cif
#   From: 2010.05.17/outbox.cif.g08.bks.cpg/sg15_109_cif.got.tgz:216420.got - 2010.06.03 18:47:42.
