data_PCOD9253082
_publ_section_title
;
Structure prediction by ZEFSAII (Michael W. Deem and Ramdas Pophale) SiO2 
 PCOD9253082
Probable space group: P 21/C
;
_chemical_formula_sum "Si O2"
_cell_formula_units_Z 32
_cell_length_a 11.626215
_cell_length_b 18.442633
_cell_length_c 14.303219
_cell_angle_alpha 90.000000
_cell_angle_beta 30.415651
_cell_angle_gamma 90.000000
_cell_volume 1552.661193
_symmetry_space_group_name_H-M "P 21/C"
_symmetry_group_IT_number 14
_symmetry_cell_setting 'monoclinic'
loop_
_space_group_symop_operation_xyz
x,y,z
-x,1/2+y,1/2-z
-x,-y,-z
x,1/2-y,1/2+z
loop_
_atom_site_type_symbol
_atom_site_label
_atom_site_fract_x
_atom_site_fract_y
_atom_site_fract_z
Si Si1 0.428014 0.030436 0.281371
Si Si2 0.288253 0.324916 0.791476
Si Si3 0.438637 0.221095 0.853017
Si Si4 0.167102 0.612802 0.964543
Si Si5 0.025328 0.650977 0.265888
Si Si6 0.946382 0.511539 0.429643
Si Si7 0.533179 0.281496 0.978033
Si Si8 0.652588 0.562198 0.942795
O O1 0.411325 0.098645 0.224211
O O2 0.383714 0.056274 0.419995
O O3 0.247560 0.967763 0.381894
O O4 0.679279 0.996935 0.101236
O O5 0.343077 0.275501 0.842633
O O6 0.383892 0.277598 0.638148
O O7 0.025411 0.347812 0.962162
O O8 0.606443 0.161830 0.692153
O O9 0.571344 0.259355 0.844119
O O10 0.219605 0.185958 0.054622
O O11 0.064739 0.611396 0.140325
O O12 0.226690 0.707981 0.139328
O O13 0.033600 0.590867 0.340542
O O14 0.000000 0.500000 0.500000
O O15 0.089842 0.455774 0.266440
O O16 0.414529 0.360261 0.053514
O O17 0.500000 0.500000 0.000000
#
# Coordination Sequence:
#
# PCOD9253082 Si02
#       8
#     4   4   4   4   4   4   4   4
#     4  12  25  48  70 107 146 191 242 292 362 438
#     4  12  28  47  73 109 147 194 242 296 367 443
#     4  12  26  47  73 103 144 192 238 300 360 428
#     4  12  25  49  74 101 149 193 238 298 364 433
#     4  12  24  44  72 105 140 186 239 291 363 425
#     4  12  25  40  74 107 137 183 243 295 351 421
#     4  12  25  47  73 105 149 184 241 303 363 423
#     4  12  23  43  71 106 142 185 236 301 356 422
#
# _framework density 20.609774999999999
#
# number of rings (size 3 to 8) (size 9 to 14) (size 15 to 20)
#    0.000    0.000    8.750    1.125    1.750    2.000 
#    2.250    1.250    0.000    0.000    0.000    0.000 
#    0.000    0.000    0.000    0.000    0.000    0.000 
#
# Total GULP energy -178934.742104 kJ/mol
# GULP energy per Si atom -5591.710691 kJ/mol
# Density = 2.056287 g / cm^3
# Si number density = 20.609775 Si / 1000 Ang^3
#
#
#
# Elastic Constant Matrix: (Units=GPa)
#
#
# Indices 1 2 3 4 5 6 
#
# 1 62.4556 35.9029 18.1587 0.0000 1.6839 0.0000
# 2 35.9029 127.8067 34.3129 0.0000 1.2721 0.0000
# 3 18.1587 34.3129 96.5862 0.0000 -10.6591 0.0000
# 4 0.0000 0.0000 0.0000 31.2851 0.0000 1.1533
# 5 1.6839 1.2721 -10.6591 0.0000 38.0425 0.0000
# 6 0.0000 0.0000 0.0000 1.1533 0.0000 35.6960
#
#
#
# Elastic Compliance Matrix: (Units=1/GPa)
#
#
# Indices 1 2 3 4 5 6 
#
# 1 0.019462 -0.004902 -0.002058 0.000000 -0.001274 0.000000
# 2 -0.004902 0.009936 -0.002705 0.000000 -0.000873 0.000000
# 3 -0.002058 -0.002705 0.012095 0.000000 0.003570 0.000000
# 4 0.000000 0.000000 0.000000 0.032002 0.000000 -0.001034
# 5 -0.001274 -0.000873 0.003570 0.000000 0.027372 0.000000
# 6 0.000000 0.000000 0.000000 -0.001034 0.000000 0.028048
#
#
# Mechanical properties :
#
#
# Convention : Reuss Voigt Hill
#
# Bulk Modulus (GPa) = 45.11820 51.51082 48.31451
# Shear Modulus (GPa) = 32.12679 34.23630 33.18155
#
# Velocity S-wave (km/s) = 3.95246 4.08016 4.01682
# Velocity P-wave (km/s) = 6.53976 6.87347 6.70869
#
# Compressibility (1/GPa) = 0.02216401
#
# Stress axis : x y z
#
# Youngs Moduli (GPa) = 51.38212 100.64239 82.67705
#
# Poissons Ratio (x) = 0.49334 0.17016
# Poissons Ratio (y) = 0.25187 0.22361
# Poissons Ratio (z) = 0.10575 0.27220
#
# Static dielectric constant tensor:
#      x y z
#    x 1.744300 0.000000 -0.013850 
#    y 0.000000 1.743480 0.000000 
#    z -0.013850 0.000000 1.723880 
# 
# From -- ./inp_files/45420.got.cif
#   From: 2010.05.17/outbox.cif.g08.bks.cpg/sg14_23_cif.got.tgz:45420.got - 2010.06.03 17:49:19.
