data_PCOD9253287
_publ_section_title
;
Structure prediction by ZEFSAII (Michael W. Deem and Ramdas Pophale) SiO2 
 PCOD9253287
Probable space group: P 21/C
;
_chemical_formula_sum "Si O2"
_cell_formula_units_Z 16
_cell_length_a 11.714169
_cell_length_b 4.757958
_cell_length_c 15.459204
_cell_angle_alpha 90.000000
_cell_angle_beta 139.266049
_cell_angle_gamma 90.000000
_cell_volume 562.252462
_symmetry_space_group_name_H-M "P 21/C"
_symmetry_group_IT_number 14
_symmetry_cell_setting 'monoclinic'
loop_
_space_group_symop_operation_xyz
x,y,z
-x,1/2+y,1/2-z
-x,-y,-z
x,1/2-y,1/2+z
loop_
_atom_site_type_symbol
_atom_site_label
_atom_site_fract_x
_atom_site_fract_y
_atom_site_fract_z
Si Si1 0.744141 0.858766 0.915926
Si Si2 0.741648 0.515305 0.164495
Si Si3 0.412658 0.015305 0.835505
Si Si4 0.912290 0.141234 0.584075
O O1 0.590196 0.887053 0.898346
O O2 0.664285 0.708252 0.787023
O O3 0.903531 0.670255 0.042112
O O4 0.819308 0.170255 0.957888
O O5 0.701875 0.250000 0.201875
O O6 0.793502 0.387052 0.101652
O O7 0.909761 0.708252 0.287022
O O8 0.588244 0.750000 0.088243
#
# Coordination Sequence:
#
# PCOD9253287 Si02
#       4
#     4   4   4   4
#     4  12  26  46  72 104 142 184 234 290 348 416
#     4  12  26  46  72 104 144 186 234 290 348 416
#     4  12  26  46  72 104 144 186 234 290 348 416
#     4  12  26  46  72 104 142 184 234 290 348 416
#
# _framework density 28.456966000000001
#
# number of rings (size 3 to 8) (size 9 to 14) (size 15 to 20)
#    0.000    0.000    0.000   12.000    0.000   12.000 
#    0.000    0.000    0.000    0.000    0.000    0.000 
#    0.000    0.000    0.000    0.000    0.000    0.000 
#
# Total GULP energy -89801.296227 kJ/mol
# GULP energy per Si atom -5612.581014 kJ/mol
# Density = 2.839220 g / cm^3
# Si number density = 28.456966 Si / 1000 Ang^3
#
#
#
# Elastic Constant Matrix: (Units=GPa)
#
#
# Indices 1 2 3 4 5 6 
#
# 1 178.8533 87.8184 50.3698 0.0000 3.1142 0.0000
# 2 87.8184 233.4243 41.8269 0.0000 3.7810 0.0000
# 3 50.3698 41.8269 108.1968 0.0000 2.6950 0.0000
# 4 0.0000 0.0000 0.0000 33.9190 0.0000 3.0800
# 5 3.1142 3.7810 2.6950 0.0000 45.3371 0.0000
# 6 0.0000 0.0000 0.0000 3.0800 0.0000 71.3827
#
#
#
# Elastic Compliance Matrix: (Units=1/GPa)
#
#
# Indices 1 2 3 4 5 6 
#
# 1 0.007469 -0.002348 -0.002566 0.000000 -0.000165 0.000000
# 2 -0.002348 0.005344 -0.000967 0.000000 -0.000227 0.000000
# 3 -0.002566 -0.000967 0.010820 0.000000 -0.000386 0.000000
# 4 0.000000 0.000000 0.000000 0.029598 0.000000 -0.001277
# 5 -0.000165 -0.000227 -0.000386 0.000000 0.022110 0.000000
# 6 0.000000 0.000000 0.000000 -0.001277 0.000000 0.014064
#
#
# Mechanical properties :
#
#
# Convention : Reuss Voigt Hill
#
# Bulk Modulus (GPa) = 84.22718 97.83383 91.03050
# Shear Modulus (GPa) = 47.56232 52.82504 50.19368
#
# Velocity S-wave (km/s) = 4.09268 4.31317 4.20437
# Velocity P-wave (km/s) = 7.21081 7.69797 7.45837
#
# Compressibility (1/GPa) = 0.01187265
#
# Stress axis : x y z
#
# Youngs Moduli (GPa) = 133.88107 187.11472 92.41802
#
# Poissons Ratio (x) = 0.43929 0.23711
# Poissons Ratio (y) = 0.31431 0.08941
# Poissons Ratio (z) = 0.34348 0.18102
#
# Static dielectric constant tensor:
#      x y z
#    x 2.217090 0.000000 -0.005840 
#    y 0.000000 2.069670 0.000000 
#    z -0.005840 0.000000 2.288080 
# 
# From -- ./inp_files/56484.got.cif
#   From: 2010.05.17/outbox.cif.g08.bks.cpg/sg14_29_cif.got.tgz:56484.got - 2010.06.03 17:49:19.
