data_PCOD9253236
_publ_section_title
;
Structure prediction by ZEFSAII (Michael W. Deem and Ramdas Pophale) SiO2 
 PCOD9253236
Probable space group: P 21/C
;
_chemical_formula_sum "Si O2"
_cell_formula_units_Z 20
_cell_length_a 8.381986
_cell_length_b 10.598024
_cell_length_c 9.105160
_cell_angle_alpha 90.000000
_cell_angle_beta 90.000017
_cell_angle_gamma 90.000000
_cell_volume 808.834024
_symmetry_space_group_name_H-M "P 21/C"
_symmetry_group_IT_number 14
_symmetry_cell_setting 'monoclinic'
loop_
_space_group_symop_operation_xyz
x,y,z
-x,1/2+y,1/2-z
-x,-y,-z
x,1/2-y,1/2+z
loop_
_atom_site_type_symbol
_atom_site_label
_atom_site_fract_x
_atom_site_fract_y
_atom_site_fract_z
Si Si1 0.706393 0.260562 0.460983
Si Si2 0.206393 0.239438 0.039017
Si Si3 0.008706 0.357734 0.813314
Si Si4 0.250000 0.000000 0.828795
Si Si5 0.508706 0.357734 0.186686
O O1 0.870858 0.229670 0.381305
O O2 0.729198 0.378149 0.569949
O O3 0.583940 0.300728 0.334173
O O4 0.643753 0.145516 0.561979
O O5 0.370858 0.270330 0.118695
O O6 0.083940 0.199272 0.165827
O O7 0.143753 0.354484 0.938021
O O8 0.229198 0.121851 0.930051
O O9 0.910033 0.481485 0.767007
O O10 0.410032 0.018515 0.732993
#
# Coordination Sequence:
#
# PCOD9253236 Si02
#       5
#     4   4   4   4   4
#     4  12  25  48  74 109 149 189 250 302 359 444
#     4  12  25  48  74 109 149 189 250 302 359 444
#     4  12  25  47  75 109 145 193 247 302 361 443
#     4  12  26  46  80 102 152 196 240 304 384 404
#     4  12  25  47  75 109 145 193 247 302 361 443
#
# _framework density 24.726949999999999
#
# number of rings (size 3 to 8) (size 9 to 14) (size 15 to 20)
#    0.000    0.000    8.000    1.200    0.000    1.600 
#    0.000    4.000    0.000    0.000    0.000    0.000 
#    0.000    0.000    0.000    0.000    0.000    0.000 
#
# Total GULP energy -112086.758579 kJ/mol
# GULP energy per Si atom -5604.337929 kJ/mol
# Density = 2.467067 g / cm^3
# Si number density = 24.726950 Si / 1000 Ang^3
#
#
#
# Elastic Constant Matrix: (Units=GPa)
#
#
# Indices 1 2 3 4 5 6 
#
# 1 78.9237 15.3406 25.1863 0.0000 -0.0004 0.0000
# 2 15.3406 64.1217 28.7706 0.0000 -0.0002 0.0000
# 3 25.1863 28.7706 124.4262 0.0000 -0.0002 0.0000
# 4 0.0000 0.0000 0.0000 109.0766 0.0000 -0.0001
# 5 -0.0004 -0.0002 -0.0002 0.0000 36.6808 0.0000
# 6 0.0000 0.0000 0.0000 -0.0001 0.0000 41.3911
#
#
#
# Elastic Compliance Matrix: (Units=1/GPa)
#
#
# Indices 1 2 3 4 5 6 
#
# 1 0.013841 -0.002292 -0.002272 0.000000 0.000000 0.000000
# 2 -0.002292 0.017780 -0.003647 0.000000 0.000000 0.000000
# 3 -0.002272 -0.003647 0.009340 0.000000 0.000000 0.000000
# 4 0.000000 0.000000 0.000000 0.009168 0.000000 0.000000
# 5 0.000000 0.000000 0.000000 0.000000 0.027262 0.000000
# 6 0.000000 0.000000 0.000000 0.000000 0.000000 0.024160
#
#
# Mechanical properties :
#
#
# Convention : Reuss Voigt Hill
#
# Bulk Modulus (GPa) = 40.75125 45.11852 42.93488
# Shear Modulus (GPa) = 39.63446 50.64131 45.13788
#
# Velocity S-wave (km/s) = 4.00795 4.53042 4.27717
# Velocity P-wave (km/s) = 6.15910 6.75667 6.46479
#
# Compressibility (1/GPa) = 0.02453913
#
# Stress axis : x y z
#
# Youngs Moduli (GPa) = 72.24952 56.24231 107.06548
#
# Poissons Ratio (x) = 0.12891 0.24322
# Poissons Ratio (y) = 0.16560 0.39050
# Poissons Ratio (z) = 0.16413 0.20513
#
# Static dielectric constant tensor:
#      x y z
#    x 1.963760 0.000000 0.000000 
#    y 0.000000 1.960870 0.000000 
#    z 0.000000 0.000000 1.936610 
# 
# From -- ./inp_files/7863.got.cif
#   From: 2010.05.17/outbox.cif.g08.bks.cpg/sg14_4_cif.got.tgz:7863.got - 2010.06.03 17:49:19.
