data_PCOD9253112
_publ_section_title
;
Structure prediction by ZEFSAII (Michael W. Deem and Ramdas Pophale) SiO2 
 PCOD9253112
Probable space group: P 21/C
;
_chemical_formula_sum "Si O2"
_cell_formula_units_Z 26
_cell_length_a 10.492753
_cell_length_b 14.834131
_cell_length_c 8.449214
_cell_angle_alpha 90.000000
_cell_angle_beta 53.115452
_cell_angle_gamma 90.000000
_cell_volume 1051.900226
_symmetry_space_group_name_H-M "P 21/C"
_symmetry_group_IT_number 14
_symmetry_cell_setting 'monoclinic'
loop_
_space_group_symop_operation_xyz
x,y,z
-x,1/2+y,1/2-z
-x,-y,-z
x,1/2-y,1/2+z
loop_
_atom_site_type_symbol
_atom_site_label
_atom_site_fract_x
_atom_site_fract_y
_atom_site_fract_z
Si Si1 0.605952 0.980779 0.073071
Si Si2 0.163818 0.638557 0.665389
Si Si3 0.500000 0.000000 0.500000
Si Si4 0.253881 0.177101 0.222094
Si Si5 0.371684 0.140719 0.485785
Si Si6 0.900585 0.988466 0.236312
Si Si7 0.115839 0.830646 0.547594
O O1 0.505039 0.967311 0.304118
O O2 0.709608 0.894372 0.943363
O O3 0.500000 0.000000 0.000000
O O4 0.722297 0.065757 0.997745
O O5 0.168883 0.738038 0.589170
O O6 0.991205 0.590447 0.766290
O O7 0.205767 0.645075 0.819278
O O8 0.457098 0.893494 0.593587
O O9 0.330247 0.149208 0.333163
O O10 0.321331 0.271768 0.114708
O O11 0.065178 0.186995 0.377081
O O12 0.282404 0.050651 0.633118
O O13 0.894347 0.082697 0.331471
O O14 0.000000 0.000000 0.000000
#
# Coordination Sequence:
#
# PCOD9253112 Si02
#       7
#     4   4   2   4   4   4   4
#     4  12  27  53  75 106 150 204 255 308 365 446
#     4  12  25  46  72 111 150 192 242 309 384 440
#     4  12  28  50  72 104 150 198 260 302 364 444
#     4  12  23  47  79 107 144 195 248 308 381 452
#     4  12  26  45  72 107 145 197 249 306 376 447
#     4  12  24  40  71 105 146 189 239 309 374 439
#     4  12  24  44  74 113 151 183 239 311 387 448
#
# _framework density 24.717171
#
# number of rings (size 3 to 8) (size 9 to 14) (size 15 to 20)
#    0.000    0.000    6.154    4.154    2.154    0.000 
#    5.538    0.000    0.000    0.000    0.000    0.000 
#    0.000    0.000    0.000    0.000    0.000    0.000 
#
# Total GULP energy -145309.059072 kJ/mol
# GULP energy per Si atom -5588.809964 kJ/mol
# Density = 2.466091 g / cm^3
# Si number density = 24.717171 Si / 1000 Ang^3
#
#
#
# Elastic Constant Matrix: (Units=GPa)
#
#
# Indices 1 2 3 4 5 6 
#
# 1 79.7167 34.6667 44.1809 0.0000 27.0092 0.0000
# 2 34.6667 214.9636 83.2697 0.0000 22.1156 0.0000
# 3 44.1809 83.2697 195.0669 0.0000 33.8144 0.0000
# 4 0.0000 0.0000 0.0000 27.4195 0.0000 3.0666
# 5 27.0092 22.1156 33.8144 0.0000 41.6003 0.0000
# 6 0.0000 0.0000 0.0000 3.0666 0.0000 49.7329
#
#
#
# Elastic Compliance Matrix: (Units=1/GPa)
#
#
# Indices 1 2 3 4 5 6 
#
# 1 0.017103 -0.001121 -0.001832 0.000000 -0.009019 0.000000
# 2 -0.001121 0.005699 -0.002072 0.000000 -0.000618 0.000000
# 3 -0.001832 -0.002072 0.007017 0.000000 -0.003413 0.000000
# 4 0.000000 0.000000 0.000000 0.036724 0.000000 -0.002264
# 5 -0.009019 -0.000618 -0.003413 0.000000 0.032997 0.000000
# 6 0.000000 0.000000 0.000000 -0.002264 0.000000 0.020247
#
#
# Mechanical properties :
#
#
# Convention : Reuss Voigt Hill
#
# Bulk Modulus (GPa) = 50.57978 90.44242 70.51110
# Shear Modulus (GPa) = 36.65002 45.59253 41.12127
#
# Velocity S-wave (km/s) = 3.85486 4.29950 4.08324
# Velocity P-wave (km/s) = 6.34989 7.83058 7.12878
#
# Compressibility (1/GPa) = 0.01977075
#
# Stress axis : x y z
#
# Youngs Moduli (GPa) = 58.46967 175.47620 142.50287
#
# Poissons Ratio (x) = 0.19665 0.26103
# Poissons Ratio (y) = 0.06552 0.29523
# Poissons Ratio (z) = 0.10710 0.36354
#
# Static dielectric constant tensor:
#      x y z
#    x 3.788560 0.000000 -0.773190 
#    y 0.000000 2.278230 0.000000 
#    z -0.773190 0.000000 2.254790 
# 
# From -- ./inp_files/13014.got.cif
#   From: 2010.05.17/outbox.cif.g08.bks.cpg/sg14_7_cif.got.tgz:13014.got - 2010.06.03 17:49:19.
