data_PCOD9253297
_publ_section_title
;
Structure prediction by ZEFSAII (Michael W. Deem and Ramdas Pophale) SiO2 
 PCOD9253297
Probable space group: P 21/C
;
_chemical_formula_sum "Si O2"
_cell_formula_units_Z 20
_cell_length_a 23.433153
_cell_length_b 7.959395
_cell_length_c 10.239376
_cell_angle_alpha 90.000000
_cell_angle_beta 27.932816
_cell_angle_gamma 90.000000
_cell_volume 894.611464
_symmetry_space_group_name_H-M "P 21/C"
_symmetry_group_IT_number 14
_symmetry_cell_setting 'monoclinic'
loop_
_space_group_symop_operation_xyz
x,y,z
-x,1/2+y,1/2-z
-x,-y,-z
x,1/2-y,1/2+z
loop_
_atom_site_type_symbol
_atom_site_label
_atom_site_fract_x
_atom_site_fract_y
_atom_site_fract_z
Si Si1 0.853056 0.569076 0.111650
Si Si2 0.484572 0.189124 0.081293
Si Si3 0.024864 0.860901 0.841495
Si Si4 0.744610 0.130665 0.068602
Si Si5 0.325874 0.193454 0.662775
O O1 0.776756 0.458166 0.366539
O O2 0.766681 0.654504 0.178002
O O3 0.954651 0.454929 0.837249
O O4 0.918459 0.723493 0.051870
O O5 0.417584 0.189278 0.355666
O O6 0.400407 0.280070 0.144717
O O7 0.614008 0.280564 0.829076
O O8 0.500000 0.000000 0.000000
O O9 0.150097 0.763652 0.616249
O O10 0.000000 0.000000 0.000000
O O11 0.741412 0.984250 0.184016
#
# Coordination Sequence:
#
# PCOD9253297 Si02
#       5
#     4   4   4   4   4
#     4  12  26  47  76 108 148 193 249 306 367 436
#     4  12  28  45  77 110 150 193 246 305 372 444
#     4  12  27  48  74 108 148 194 249 306 371 436
#     4  12  27  47  77 107 149 196 245 305 368 440
#     4  12  26  49  74 113 149 192 246 303 373 443
#
# _framework density 22.356074
#
# number of rings (size 3 to 8) (size 9 to 14) (size 15 to 20)
#    0.000    0.000    2.000    7.200   11.200    0.000 
#    0.000    0.000    0.000    0.000    0.000    0.000 
#    0.000    0.000    0.000    0.000    0.000    0.000 
#
# Total GULP energy -112177.663056 kJ/mol
# GULP energy per Si atom -5608.883153 kJ/mol
# Density = 2.230519 g / cm^3
# Si number density = 22.356074 Si / 1000 Ang^3
#
#
#
# Elastic Constant Matrix: (Units=GPa)
#
#
# Indices 1 2 3 4 5 6 
#
# 1 115.2207 66.8972 56.2750 0.0000 -20.0392 0.0000
# 2 66.8972 167.5266 69.4539 0.0000 -20.7230 0.0000
# 3 56.2750 69.4539 123.7618 0.0000 2.3848 0.0000
# 4 0.0000 0.0000 0.0000 66.3062 0.0000 2.9465
# 5 -20.0392 -20.7230 2.3848 0.0000 71.3500 0.0000
# 6 0.0000 0.0000 0.0000 2.9465 0.0000 46.7707
#
#
#
# Elastic Compliance Matrix: (Units=1/GPa)
#
#
# Indices 1 2 3 4 5 6 
#
# 1 0.013060 -0.003088 -0.004262 0.000000 0.002914 0.000000
# 2 -0.003088 0.008945 -0.003652 0.000000 0.001853 0.000000
# 3 -0.004262 -0.003652 0.012118 0.000000 -0.002663 0.000000
# 4 0.000000 0.000000 0.000000 0.015124 0.000000 -0.000953
# 5 0.002914 0.001853 -0.002663 0.000000 0.015461 0.000000
# 6 0.000000 0.000000 0.000000 -0.000953 0.000000 0.021441
#
#
# Mechanical properties :
#
#
# Convention : Reuss Voigt Hill
#
# Bulk Modulus (GPa) = 82.49947 87.97348 85.23647
# Shear Modulus (GPa) = 44.56621 51.14425 47.85523
#
# Velocity S-wave (km/s) = 4.46968 4.78819 4.63167
# Velocity P-wave (km/s) = 7.97621 8.36693 8.17390
#
# Compressibility (1/GPa) = 0.01212129
#
# Stress axis : x y z
#
# Youngs Moduli (GPa) = 76.56951 111.78893 82.51886
#
# Poissons Ratio (x) = 0.34520 0.35167
# Poissons Ratio (y) = 0.23644 0.30133
# Poissons Ratio (z) = 0.32631 0.40822
#
# Static dielectric constant tensor:
#      x y z
#    x 1.796880 0.000000 0.013110 
#    y 0.000000 1.836000 0.000000 
#    z 0.013110 0.000000 1.746600 
# 
# From -- ./inp_files/36126.got.cif
#   From: 2010.05.17/outbox.cif.g08.bks.cpg/sg14_19_cif.got.tgz:36126.got - 2010.06.03 17:49:19.
