data_PCOD9253378
_publ_section_title
;
Structure prediction by ZEFSAII (Michael W. Deem and Ramdas Pophale) SiO2 
 PCOD9253378
Probable space group: P 21/C
;
_chemical_formula_sum "Si O2"
_cell_formula_units_Z 20
_cell_length_a 22.266151
_cell_length_b 5.098260
_cell_length_c 14.452731
_cell_angle_alpha 90.000000
_cell_angle_beta 26.635774
_cell_angle_gamma 90.000000
_cell_volume 735.533631
_symmetry_space_group_name_H-M "P 21/C"
_symmetry_group_IT_number 14
_symmetry_cell_setting 'monoclinic'
loop_
_space_group_symop_operation_xyz
x,y,z
-x,1/2+y,1/2-z
-x,-y,-z
x,1/2-y,1/2+z
loop_
_atom_site_type_symbol
_atom_site_label
_atom_site_fract_x
_atom_site_fract_y
_atom_site_fract_z
Si Si1 0.628932 0.116214 0.374371
Si Si2 0.595484 0.871552 0.044108
Si Si3 0.841209 0.855564 0.984021
Si Si4 0.291764 0.475635 0.970495
Si Si5 0.953776 0.141325 0.658167
O O1 0.618947 0.382731 0.445067
O O2 0.749226 0.617069 0.075897
O O3 0.500000 0.000000 0.500000
O O4 0.748013 0.097974 0.138072
O O5 0.434883 0.876112 0.279945
O O6 0.648350 0.613597 0.920983
O O7 0.827787 0.343754 0.823970
O O8 0.926488 0.926233 0.776090
O O9 0.927886 0.800396 0.954961
O O10 0.326361 0.187647 0.968555
O O11 0.000000 0.000000 0.500000
#
# Coordination Sequence:
#
# PCOD9253378 Si02
#       5
#     4   4   4   4   4
#     4  12  27  51  84 132 179 237 305 383 473 556
#     4  12  29  50  88 131 184 241 298 395 476 558
#     4  12  29  54  90 127 185 242 324 386 473 578
#     4  12  29  55  85 139 184 242 322 387 477 577
#     4  12  31  59  92 131 186 256 319 397 473 574
#
# _framework density 27.191141999999999
#
# number of rings (size 3 to 8) (size 9 to 14) (size 15 to 20)
#    0.000    0.000    4.000    3.000   11.200    2.400 
#    0.000    1.000    0.000    0.000    0.000    0.000 
#    0.000    0.000    0.000    0.000    0.000    0.000 
#
# Total GULP energy -112077.990604 kJ/mol
# GULP energy per Si atom -5603.899530 kJ/mol
# Density = 2.712925 g / cm^3
# Si number density = 27.191142 Si / 1000 Ang^3
#
#
#
# Elastic Constant Matrix: (Units=GPa)
#
#
# Indices 1 2 3 4 5 6 
#
# 1 158.8258 85.2732 109.2910 0.0000 -6.8124 0.0000
# 2 85.2732 198.5526 71.9501 0.0000 9.1944 0.0000
# 3 109.2910 71.9501 162.2095 0.0000 5.4666 0.0000
# 4 0.0000 0.0000 0.0000 57.4378 0.0000 13.4367
# 5 -6.8124 9.1944 5.4666 0.0000 61.5349 0.0000
# 6 0.0000 0.0000 0.0000 13.4367 0.0000 49.7907
#
#
#
# Elastic Compliance Matrix: (Units=1/GPa)
#
#
# Indices 1 2 3 4 5 6 
#
# 1 0.013385 -0.003062 -0.007749 0.000000 0.002628 0.000000
# 2 -0.003062 0.006729 -0.000879 0.000000 -0.001266 0.000000
# 3 -0.007749 -0.000879 0.011835 0.000000 -0.001778 0.000000
# 4 0.000000 0.000000 0.000000 0.018583 0.000000 -0.005015
# 5 0.002628 -0.001266 -0.001778 0.000000 0.016889 0.000000
# 6 0.000000 0.000000 0.000000 -0.005015 0.000000 0.021437
#
#
# Mechanical properties :
#
#
# Convention : Reuss Voigt Hill
#
# Bulk Modulus (GPa) = 116.68797 116.95739 116.82268
# Shear Modulus (GPa) = 43.44263 50.62425 47.03344
#
# Velocity S-wave (km/s) = 4.00143 4.31953 4.16352
# Velocity P-wave (km/s) = 8.02220 8.24525 8.13449
#
# Compressibility (1/GPa) = 0.00856986
#
# Stress axis : x y z
#
# Youngs Moduli (GPa) = 74.71045 148.61773 84.49359
#
# Poissons Ratio (x) = 0.45512 0.65470
# Poissons Ratio (y) = 0.22879 0.07424
# Poissons Ratio (z) = 0.57890 0.13058
#
# Static dielectric constant tensor:
#      x y z
#    x 3.431660 0.000000 -0.194680 
#    y 0.000000 2.244780 0.000000 
#    z -0.194680 0.000000 2.278090 
# 
# From -- ./inp_files/62073.got.cif
#   From: 2010.05.17/outbox.cif.g08.bks.cpg/sg14_32_cif.got.tgz:62073.got - 2010.06.03 17:49:19.
