data_PCOD9253182
_publ_section_title
;
Structure prediction by ZEFSAII (Michael W. Deem and Ramdas Pophale) SiO2 
 PCOD9253182
Probable space group: P 21/C
;
_chemical_formula_sum "Si O2"
_cell_formula_units_Z 20
_cell_length_a 9.400221
_cell_length_b 6.960125
_cell_length_c 27.256018
_cell_angle_alpha 90.000000
_cell_angle_beta 156.541065
_cell_angle_gamma 90.000000
_cell_volume 709.905637
_symmetry_space_group_name_H-M "P 21/C"
_symmetry_group_IT_number 14
_symmetry_cell_setting 'monoclinic'
loop_
_space_group_symop_operation_xyz
x,y,z
-x,1/2+y,1/2-z
-x,-y,-z
x,1/2-y,1/2+z
loop_
_atom_site_type_symbol
_atom_site_label
_atom_site_fract_x
_atom_site_fract_y
_atom_site_fract_z
Si Si1 0.278581 0.491636 0.344870
Si Si2 0.648677 0.575849 0.364185
Si Si3 0.686296 0.678162 0.027418
Si Si4 0.478223 0.912287 0.602144
Si Si5 0.394745 0.946432 0.260148
O O1 0.355366 0.546903 0.313007
O O2 0.483952 0.289046 0.414664
O O3 0.412225 0.652458 0.425015
O O4 0.857476 0.476486 0.215135
O O5 0.703824 0.800430 0.373222
O O6 0.589556 0.497728 0.291389
O O7 0.000000 0.500000 0.500000
O O8 0.031478 0.812657 0.150976
O O9 0.781821 0.560176 0.007722
O O10 0.524050 0.883583 0.675440
O O11 0.500000 0.000000 0.500000
#
# Coordination Sequence:
#
# PCOD9253182 Si02
#       5
#     4   4   4   4   4
#     4  12  24  48  76 110 156 197 264 333 388 474
#     4  12  25  50  72 111 157 206 264 319 395 479
#     4  12  26  48  77 117 154 204 270 331 400 468
#     4  12  25  47  76 117 153 203 270 331 398 469
#     4  12  26  48  77 113 162 213 262 329 400 473
#
# _framework density 28.172758000000002
#
# number of rings (size 3 to 8) (size 9 to 14) (size 15 to 20)
#    0.000    0.000    6.000    3.600    0.000    4.800 
#    0.000    4.000    0.000    0.000    0.000    0.000 
#    0.000    0.000    0.000    0.000    0.000    0.000 
#
# Total GULP energy -111851.913563 kJ/mol
# GULP energy per Si atom -5592.595678 kJ/mol
# Density = 2.810864 g / cm^3
# Si number density = 28.172758 Si / 1000 Ang^3
#
#
#
# Elastic Constant Matrix: (Units=GPa)
#
#
# Indices 1 2 3 4 5 6 
#
# 1 131.2953 15.9618 25.9301 0.0000 -37.5101 0.0000
# 2 15.9618 166.4549 44.6405 0.0000 -27.5789 0.0000
# 3 25.9301 44.6405 110.1969 0.0000 -29.9362 0.0000
# 4 0.0000 0.0000 0.0000 69.8831 0.0000 -25.1360
# 5 -37.5101 -27.5789 -29.9362 0.0000 47.5267 0.0000
# 6 0.0000 0.0000 0.0000 -25.1360 0.0000 64.6496
#
#
#
# Elastic Compliance Matrix: (Units=1/GPa)
#
#
# Indices 1 2 3 4 5 6 
#
# 1 0.009868 0.000450 -0.000383 0.000000 0.007808 0.000000
# 2 0.000450 0.007047 -0.002115 0.000000 0.003112 0.000000
# 3 -0.000383 -0.002115 0.011589 0.000000 0.005770 0.000000
# 4 0.000000 0.000000 0.000000 0.016636 0.000000 0.006468
# 5 0.007808 0.003112 0.005770 0.000000 0.032644 0.000000
# 6 0.000000 0.000000 0.000000 0.006468 0.000000 0.017983
#
#
# Mechanical properties :
#
#
# Convention : Reuss Voigt Hill
#
# Bulk Modulus (GPa) = 40.97011 64.55690 52.76351
# Shear Modulus (GPa) = 46.29619 57.83951 52.06785
#
# Velocity S-wave (km/s) = 4.05816 4.53595 4.30369
# Velocity P-wave (km/s) = 6.04419 7.09912 6.59279
#
# Compressibility (1/GPa) = 0.02440804
#
# Stress axis : x y z
#
# Youngs Moduli (GPa) = 101.33641 141.89568 86.28723
#
# Poissons Ratio (x) = -0.06388 0.03307
# Poissons Ratio (y) = -0.04562 0.18252
# Poissons Ratio (z) = 0.03884 0.30015
#
# Static dielectric constant tensor:
#      x y z
#    x 2.479790 0.000000 0.105010 
#    y 0.000000 2.237040 0.000000 
#    z 0.105010 0.000000 2.306780 
# 
# From -- ./inp_files/72107.got.cif
#   From: 2010.05.17/outbox.cif.g08.bks.cpg/sg14_37_cif.got.tgz:72107.got - 2010.06.03 17:49:19.
