data_PCOD9253755
_publ_section_title
;
Structure prediction by ZEFSAII (Michael W. Deem and Ramdas Pophale) SiO2 
 PCOD9253755
Probable space group: P 21/C
;
_chemical_formula_sum "Si O2"
_cell_formula_units_Z 20
_cell_length_a 21.000000
_cell_length_b 9.000000
_cell_length_c 15.000000
_cell_angle_alpha 90.000000
_cell_angle_beta 20.000000
_cell_angle_gamma 90.000000
_cell_volume 969.627106
_symmetry_space_group_name_H-M "P 21/C"
_symmetry_group_IT_number 14
_symmetry_cell_setting 'monoclinic'
loop_
_space_group_symop_operation_xyz
x,y,z
-x,1/2+y,1/2-z
-x,-y,-z
x,1/2-y,1/2+z
loop_
_atom_site_type_symbol
_atom_site_label
_atom_site_fract_x
_atom_site_fract_y
_atom_site_fract_z
Si Si1 0.882163 0.849402 0.642457
Si Si2 0.560943 0.457685 0.026584
Si Si3 0.087362 0.689514 0.210493
Si Si4 0.482388 0.270823 0.303042
Si Si5 0.946784 0.141164 0.933503
O O1 0.949215 0.776741 0.460889
O O2 0.927590 0.735204 0.663460
O O3 0.660968 0.871110 0.949526
O O4 0.000000 0.000000 0.500000
O O5 0.765450 0.397256 0.732292
O O6 0.500000 0.500000 0.000000
O O7 0.465555 0.329343 0.219083
O O8 0.552905 0.604652 0.103047
O O9 0.082292 0.760225 0.117726
O O10 0.029321 0.516584 0.292477
O O11 0.299525 0.703534 0.964964
#
# Coordination Sequence:
#
# PCOD9253755 Si02
#       5
#     4   4   4   4   4
#     4  12  26  46  72 107 147 195 251 313 377 448
#     4  12  26  50  75 113 150 194 252 316 376 454
#     4  12  25  48  72 110 146 198 249 310 381 448
#     4  12  26  46  79 106 150 198 253 313 379 451
#     4  12  26  48  74 105 152 196 249 311 379 450
#
# _framework density 20.626486
#
# number of rings (size 3 to 8) (size 9 to 14) (size 15 to 20)
#    0.000    0.000    6.000    4.200    2.800    0.000 
#    0.000    3.000    0.000    0.000    0.000    0.000 
#    0.000    0.000    0.000    0.000    0.000    0.000 
#
# Total GULP energy -111508.849644 kJ/mol
# GULP energy per Si atom -5575.442482 kJ/mol
# Density = 2.057954 g / cm^3
# Si number density = 20.626486 Si / 1000 Ang^3
#
#
#
# Elastic Constant Matrix: (Units=GPa)
#
#
# Indices 1 2 3 4 5 6 
#
# 1 122.4575 34.7265 26.2515 0.0000 33.8654 0.0000
# 2 34.7265 131.7585 17.9662 0.0000 25.8836 0.0000
# 3 26.2515 17.9662 148.9773 0.0000 34.5655 0.0000
# 4 0.0000 0.0000 0.0000 44.5761 0.0000 14.9242
# 5 33.8654 25.8836 34.5655 0.0000 41.6982 0.0000
# 6 0.0000 0.0000 0.0000 14.9242 0.0000 52.1347
#
#
#
# Elastic Compliance Matrix: (Units=1/GPa)
#
#
# Indices 1 2 3 4 5 6 
#
# 1 0.010717 -0.001266 0.000125 0.000000 -0.008022 0.000000
# 2 -0.001266 0.008801 0.000236 0.000000 -0.004631 0.000000
# 3 0.000125 0.000236 0.008320 0.000000 -0.007145 0.000000
# 4 0.000000 0.000000 0.000000 0.024812 0.000000 -0.007103
# 5 -0.008022 -0.004631 -0.007145 0.000000 0.039294 0.000000
# 6 0.000000 0.000000 0.000000 -0.007103 0.000000 0.021214
#
#
# Mechanical properties :
#
#
# Convention : Reuss Voigt Hill
#
# Bulk Modulus (GPa) = 38.41921 62.34242 50.38081
# Shear Modulus (GPa) = 40.43956 49.29839 44.86897
#
# Velocity S-wave (km/s) = 4.43263 4.89412 4.66908
# Velocity P-wave (km/s) = 6.69807 7.88838 7.31747
#
# Compressibility (1/GPa) = 0.02602864
#
# Stress axis : x y z
#
# Youngs Moduli (GPa) = 93.31357 113.62690 120.19783
#
# Poissons Ratio (x) = 0.14382 -0.01508
# Poissons Ratio (y) = 0.11811 -0.02838
# Poissons Ratio (z) = -0.01171 -0.02683
#
# Static dielectric constant tensor:
#      x y z
#    x 1.786650 0.000000 -0.058370 
#    y 0.000000 1.784480 0.000000 
#    z -0.058370 0.000000 1.776280 
# 
# From -- ./inp_files/49976.got.cif
#   From: 2010.05.17/outbox.ucp.g08.bks.cvg/sg14_25_cif.got.tgz:49976.got - 2010.06.11 12:31:08.
