data_PCOD9253511
_publ_section_title
;
Structure prediction by ZEFSAII (Michael W. Deem and Ramdas Pophale) SiO2 
 PCOD9253511
Probable space group: P 21/C
;
_chemical_formula_sum "Si O2"
_cell_formula_units_Z 32
_cell_length_a 12.000000
_cell_length_b 15.000000
_cell_length_c 18.000000
_cell_angle_alpha 90.000000
_cell_angle_beta 150.000000
_cell_angle_gamma 90.000000
_cell_volume 1620.000000
_symmetry_space_group_name_H-M "P 21/C"
_symmetry_group_IT_number 14
_symmetry_cell_setting 'monoclinic'
loop_
_space_group_symop_operation_xyz
x,y,z
-x,1/2+y,1/2-z
-x,-y,-z
x,1/2-y,1/2+z
loop_
_atom_site_type_symbol
_atom_site_label
_atom_site_fract_x
_atom_site_fract_y
_atom_site_fract_z
Si Si1 0.664664 0.701381 0.415035
Si Si2 0.173494 0.522127 0.317043
Si Si3 0.746388 0.730849 0.129476
Si Si4 0.426375 0.847872 0.182580
Si Si5 0.754612 0.521992 0.159266
Si Si6 0.740055 0.282783 0.572284
Si Si7 0.468037 0.522825 0.349957
Si Si8 0.923105 0.080482 0.902295
O O1 0.695456 0.749480 0.513030
O O2 0.598066 0.776367 0.316293
O O3 0.483872 0.620994 0.322953
O O4 0.882409 0.647445 0.512078
O O5 0.205465 0.627580 0.349707
O O6 0.261316 0.502986 0.285477
O O7 0.327286 0.479687 0.471351
O O8 0.921416 0.495488 0.188955
O O9 0.774715 0.628955 0.173406
O O10 0.011128 0.766382 0.287308
O O11 0.508282 0.756414 0.035337
O O12 0.258556 0.867642 0.153559
O O13 0.509710 0.943819 0.197756
O O14 0.311813 0.805413 0.043504
O O15 0.830725 0.469164 0.276097
O O16 0.500000 0.500000 0.000000
O O17 0.000000 0.000000 0.000000
#
# Coordination Sequence:
#
# PCOD9253511 Si02
#       8
#     4   4   4   4   4   4   4   4
#     4  12  25  42  74 103 144 197 236 300 368 438
#     4   9  18  39  68  98 129 181 235 282 358 423
#     4  11  25  43  70 106 139 182 250 300 361 429
#     4  11  26  41  68 109 139 189 249 289 361 445
#     4  11  24  41  68 102 135 176 237 307 354 427
#     4  10  23  42  67 101 141 181 241 303 345 432
#     4  10  19  41  70  97 137 188 235 285 354 432
#     4  12  24  46  72  96 146 199 233 289 380 442
#
# _framework density 19.753086
#
# number of rings (size 3 to 8) (size 9 to 14) (size 15 to 20)
#    0.000    1.250    3.750    2.250    7.000    0.000 
#    0.000    0.000    0.000    4.500    0.000    0.000 
#    0.000    0.000    0.000    0.000    0.000    0.000 
#
# Total GULP energy -178268.630705 kJ/mol
# GULP energy per Si atom -5570.894710 kJ/mol
# Density = 1.970813 g / cm^3
# Si number density = 19.753086 Si / 1000 Ang^3
#
#
#
# Elastic Constant Matrix: (Units=GPa)
#
#
# Indices 1 2 3 4 5 6 
#
# 1 182.5012 43.2038 61.3861 0.0000 20.6883 0.0000
# 2 43.2038 77.3198 38.8154 0.0000 -8.2591 0.0000
# 3 61.3861 38.8154 99.3450 0.0000 11.6728 0.0000
# 4 0.0000 0.0000 0.0000 36.0362 0.0000 3.7433
# 5 20.6883 -8.2591 11.6728 0.0000 43.6458 0.0000
# 6 0.0000 0.0000 0.0000 3.7433 0.0000 34.2663
#
#
#
# Elastic Compliance Matrix: (Units=1/GPa)
#
#
# Indices 1 2 3 4 5 6 
#
# 1 0.007636 -0.003054 -0.003130 0.000000 -0.003360 0.000000
# 2 -0.003054 0.018384 -0.006065 0.000000 0.006549 0.000000
# 3 -0.003130 -0.006065 0.014795 0.000000 -0.003621 0.000000
# 4 0.000000 0.000000 0.000000 0.028068 0.000000 -0.003066
# 5 -0.003360 0.006549 -0.003621 0.000000 0.026712 0.000000
# 6 0.000000 0.000000 0.000000 -0.003066 0.000000 0.029518
#
#
# Mechanical properties :
#
#
# Convention : Reuss Voigt Hill
#
# Bulk Modulus (GPa) = 61.28843 71.77518 66.53181
# Shear Modulus (GPa) = 32.24700 37.17370 34.71035
#
# Velocity S-wave (km/s) = 4.04481 4.34281 4.19646
# Velocity P-wave (km/s) = 7.27383 7.84613 7.56539
#
# Compressibility (1/GPa) = 0.01631629
#
# Stress axis : x y z
#
# Youngs Moduli (GPa) = 130.95259 54.39422 67.58894
#
# Poissons Ratio (x) = 0.16614 0.21157
# Poissons Ratio (y) = 0.39999 0.40993
# Poissons Ratio (z) = 0.40992 0.32991
#
# Static dielectric constant tensor:
#      x y z
#    x 1.661040 0.000000 0.083110 
#    y 0.000000 1.784690 0.000000 
#    z 0.083110 0.000000 1.718320 
# 
# From -- ./inp_files/58031.got.cif
#   From: 2010.05.17/outbox.ucp.g08.bks.cvg/sg14_30_cif.got.tgz:58031.got - 2010.06.11 12:31:08.
