data_PCOD9253220
_publ_section_title
;
Structure prediction by ZEFSAII (Michael W. Deem and Ramdas Pophale) SiO2 
 PCOD9253220
Probable space group: P 21/C
;
_chemical_formula_sum "Si O2"
_cell_formula_units_Z 24
_cell_length_a 4.989973
_cell_length_b 10.830666
_cell_length_c 18.113517
_cell_angle_alpha 90.000000
_cell_angle_beta 120.481562
_cell_angle_gamma 90.000000
_cell_volume 843.643226
_symmetry_space_group_name_H-M "P 21/C"
_symmetry_group_IT_number 14
_symmetry_cell_setting 'monoclinic'
loop_
_space_group_symop_operation_xyz
x,y,z
-x,1/2+y,1/2-z
-x,-y,-z
x,1/2-y,1/2+z
loop_
_atom_site_type_symbol
_atom_site_label
_atom_site_fract_x
_atom_site_fract_y
_atom_site_fract_z
Si Si1 0.702355 0.363183 0.907438
Si Si2 0.178914 0.774604 0.743411
Si Si3 0.215526 0.509300 0.769084
Si Si4 0.752357 0.740709 0.923633
Si Si5 0.409575 0.348312 0.453375
Si Si6 0.788810 0.496513 0.392595
O O1 0.798595 0.318095 0.838951
O O2 0.492124 0.485823 0.867153
O O3 0.459211 0.263171 0.903529
O O4 0.992569 0.352428 0.005229
O O5 0.038130 0.640096 0.747271
O O6 0.525194 0.737462 0.821659
O O7 0.013386 0.891177 0.758865
O O8 0.368822 0.504336 0.709122
O O9 0.928320 0.868887 0.928088
O O10 0.527046 0.778728 0.960110
O O11 0.066128 0.400705 0.420140
O O12 0.570924 0.459031 0.429989
#
# Coordination Sequence:
#
# PCOD9253220 Si02
#       6
#     4   4   4   4   4   4
#     4  12  27  50  76 124 168 220 280 356 420 516
#     4  12  29  55  82 125 169 229 281 352 430 512
#     4  12  27  52  84 120 172 223 288 347 426 513
#     4  12  27  47  81 121 170 222 283 348 436 504
#     4  12  25  46  78 124 164 218 279 357 411 498
#     4  12  25  45  85 119 167 218 287 354 418 495
#
# _framework density 28.448045
#
# number of rings (size 3 to 8) (size 9 to 14) (size 15 to 20)
#    0.000    0.000    5.000    4.000    4.667    3.333 
#    0.000    3.333    0.000    0.000    0.000    0.000 
#    0.000    0.000    0.000    0.000    0.000    0.000 
#
# Total GULP energy -134055.587896 kJ/mol
# GULP energy per Si atom -5585.649496 kJ/mol
# Density = 2.838330 g / cm^3
# Si number density = 28.448045 Si / 1000 Ang^3
#
#
#
# Elastic Constant Matrix: (Units=GPa)
#
#
# Indices 1 2 3 4 5 6 
#
# 1 115.9046 13.6162 7.4733 0.0000 -8.0730 0.0000
# 2 13.6162 101.7549 -12.7120 0.0000 14.6283 0.0000
# 3 7.4733 -12.7120 117.8366 0.0000 29.6188 0.0000
# 4 0.0000 0.0000 0.0000 56.4087 0.0000 14.2143
# 5 -8.0730 14.6283 29.6188 0.0000 48.0956 0.0000
# 6 0.0000 0.0000 0.0000 14.2143 0.0000 50.5609
#
#
#
# Elastic Compliance Matrix: (Units=1/GPa)
#
#
# Indices 1 2 3 4 5 6 
#
# 1 0.009159 -0.001859 -0.001550 0.000000 0.003057 0.000000
# 2 -0.001859 0.011180 0.002670 0.000000 -0.005357 0.000000
# 3 -0.001550 0.002670 0.010817 0.000000 -0.007734 0.000000
# 4 0.000000 0.000000 0.000000 0.019079 0.000000 -0.005364
# 5 0.003057 -0.005357 -0.007734 0.000000 0.027697 0.000000
# 6 0.000000 0.000000 0.000000 -0.005364 0.000000 0.021286
#
#
# Mechanical properties :
#
#
# Convention : Reuss Voigt Hill
#
# Bulk Modulus (GPa) = 33.69339 39.13902 36.41620
# Shear Modulus (GPa) = 45.21317 52.82094 49.01706
#
# Velocity S-wave (km/s) = 3.99096 4.31368 4.15545
# Velocity P-wave (km/s) = 5.75383 6.21276 5.98769
#
# Compressibility (1/GPa) = 0.02967941
#
# Stress axis : x y z
#
# Youngs Moduli (GPa) = 109.18212 89.44554 92.45077
#
# Poissons Ratio (x) = 0.16625 0.14328
# Poissons Ratio (y) = 0.20294 -0.24688
# Poissons Ratio (z) = 0.16921 -0.23886
#
# Static dielectric constant tensor:
#      x y z
#    x 2.215040 0.000000 0.205060 
#    y 0.000000 2.361080 0.000000 
#    z 0.205060 0.000000 2.502570 
# 
# From -- ./inp_files/63389.got.cif
#   From: 2010.05.17/outbox.cif.g08.bks.cpg/sg14_32_cif.got.tgz:63389.got - 2010.06.03 17:49:19.
