data_PCOD9253960
_publ_section_title
;
Structure prediction by ZEFSAII (Michael W. Deem and Ramdas Pophale) SiO2 
 PCOD9253960
Probable space group: C 2/C
;
_chemical_formula_sum "Si O2"
_cell_formula_units_Z 56
_cell_length_a 12.203775
_cell_length_b 15.789255
_cell_length_c 14.037094
_cell_angle_alpha 90.000000
_cell_angle_beta 121.845602
_cell_angle_gamma 90.000000
_cell_volume 2297.643407
_symmetry_space_group_name_H-M "C 2/C"
_symmetry_group_IT_number 15
_symmetry_cell_setting 'monoclinic'
loop_
_space_group_symop_operation_xyz
x,y,z
-x,y,1/2-z
-x,-y,-z
x,-y,1/2+z
1/2+x,1/2+y,z
1/2-x,1/2+y,1/2-z
1/2-x,1/2-y,-z
1/2+x,1/2-y,1/2+z
loop_
_atom_site_type_symbol
_atom_site_label
_atom_site_fract_x
_atom_site_fract_y
_atom_site_fract_z
Si Si1 0.253785 0.667808 0.566373
Si Si2 0.604551 0.840040 0.169313
Si Si3 0.718329 0.461548 0.581714
Si Si4 0.000000 0.022827 0.250000
Si Si5 0.108217 0.101052 0.635349
Si Si6 0.924494 0.262526 0.799711
Si Si7 0.000000 0.530055 0.750000
Si Si8 0.171667 0.152584 0.239806
O O1 0.250000 0.750000 0.500000
O O2 0.121545 0.656703 0.563671
O O3 0.280374 0.584770 0.518582
O O4 0.355092 0.697730 0.692182
O O5 0.740827 0.876829 0.273079
O O6 0.501316 0.904722 0.161512
O O7 0.597499 0.742582 0.199021
O O8 0.630850 0.545577 0.550812
O O9 0.866251 0.480179 0.679222
O O10 0.662470 0.396791 0.635009
O O11 0.119428 0.090580 0.297916
O O12 0.042974 0.960285 0.183896
O O13 0.032457 0.190501 0.604598
O O14 0.822210 0.320115 0.807809
O O15 0.000000 0.311812 0.750000
#
# Coordination Sequence:
#
# PCOD9253960 Si02
#       8
#     8   8   8   4   8   8   4   8
#     4  10  18  33  53  76 110 135 178 223 261 316
#     4   9  18  34  49  75 105 143 172 215 265 317
#     4  10  18  32  50  80 106 134 175 223 259 314
#     4  10  15  28  49  76  98 132 172 220 253 308
#     4   8  17  30  50  72 103 134 174 216 261 314
#     4  10  19  34  54  76 102 140 176 221 262 317
#     4  10  21  32  53  80 112 136 178 218 269 316
#     4   9  18  28  52  74 100 134 179 213 256 310
#
# _framework density 24.372799000000001
#
# number of rings (size 3 to 8) (size 9 to 14) (size 15 to 20)
#    0.000    2.857    3.571    0.429    1.000    0.571 
#    0.000    0.714    0.000    0.000    0.000    4.000 
#    0.000    1.571    0.000    0.000    0.000    0.000 
#
# Total GULP energy -155890.900989 kJ/mol
# GULP energy per Si atom -5567.532178 kJ/mol
# Density = 2.431733 g / cm^3
# Si number density = 24.372799 Si / 1000 Ang^3
#
#
#
# Elastic Constant Matrix: (Units=GPa)
#
#
# Indices 1 2 3 4 5 6 
#
# 1 110.3084 71.9266 12.8215 0.0000 -12.1075 0.0000
# 2 71.9266 138.0200 23.1736 0.0000 -5.7173 0.0000
# 3 12.8215 23.1736 30.5696 0.0000 -0.5043 0.0000
# 4 0.0000 0.0000 0.0000 17.0132 0.0000 -3.3263
# 5 -12.1075 -5.7173 -0.5043 0.0000 39.5090 0.0000
# 6 0.0000 0.0000 0.0000 -3.3263 0.0000 47.6895
#
#
#
# Elastic Compliance Matrix: (Units=1/GPa)
#
#
# Indices 1 2 3 4 5 6 
#
# 1 0.014149 -0.007161 -0.000451 0.000000 0.003294 0.000000
# 2 -0.007161 0.011977 -0.006084 0.000000 -0.000539 0.000000
# 3 -0.000451 -0.006084 0.037505 0.000000 -0.000540 0.000000
# 4 0.000000 0.000000 0.000000 0.059590 0.000000 0.004156
# 5 0.003294 -0.000539 -0.000540 0.000000 0.026235 0.000000
# 6 0.000000 0.000000 0.000000 0.004156 0.000000 0.021259
#
#
# Mechanical properties :
#
#
# Convention : Reuss Voigt Hill
#
# Bulk Modulus (GPa) = 27.59636 54.97126 41.28381
# Shear Modulus (GPa) = 23.78829 32.24076 28.01452
#
# Velocity S-wave (km/s) = 3.12752 3.64100 3.39398
# Velocity P-wave (km/s) = 4.93852 6.34659 5.68631
#
# Compressibility (1/GPa) = 0.03623666
#
# Stress axis : x y z
#
# Youngs Moduli (GPa) = 70.67639 83.49684 26.66320
#
# Poissons Ratio (x) = 0.59794 0.01203
# Poissons Ratio (y) = 0.50613 0.16222
# Poissons Ratio (z) = 0.03190 0.50801
#
# Static dielectric constant tensor:
#      x y z
#    x 2.196600 0.000000 -0.012250 
#    y 0.000000 2.044590 0.000000 
#    z -0.012250 0.000000 2.094610 
# 
# From -- ./inp_files/198000.got.cif
#   From: 2010.05.17/outbox.cif.g08.bks.cpg/sg15_99_cif.got.tgz:198000.got - 2010.06.03 18:47:42.
