data_PCOD9253660
_publ_section_title
;
Structure prediction by ZEFSAII (Michael W. Deem and Ramdas Pophale) SiO2 
 PCOD9253660
Probable space group: P 21/C
;
_chemical_formula_sum "Si O2"
_cell_formula_units_Z 28
_cell_length_a 15.000000
_cell_length_b 12.000000
_cell_length_c 9.000000
_cell_angle_alpha 90.000000
_cell_angle_beta 120.000000
_cell_angle_gamma 90.000000
_cell_volume 1402.961154
_symmetry_space_group_name_H-M "P 21/C"
_symmetry_group_IT_number 14
_symmetry_cell_setting 'monoclinic'
loop_
_space_group_symop_operation_xyz
x,y,z
-x,1/2+y,1/2-z
-x,-y,-z
x,1/2-y,1/2+z
loop_
_atom_site_type_symbol
_atom_site_label
_atom_site_fract_x
_atom_site_fract_y
_atom_site_fract_z
Si Si1 0.954306 0.243029 0.868004
Si Si2 0.392930 0.813081 0.877140
Si Si3 0.888335 0.814874 0.251154
Si Si4 0.693097 0.852922 0.626296
Si Si5 0.797052 0.061063 0.156238
Si Si6 0.754085 0.403113 0.275146
Si Si7 0.547044 0.748849 0.256829
O O1 0.888269 0.347150 0.748420
O O2 0.865640 0.150140 0.824410
O O3 0.049596 0.196306 0.851186
O O4 0.016640 0.289978 0.059953
O O5 0.300237 0.901410 0.822597
O O6 0.332189 0.693430 0.821484
O O7 0.467518 0.820547 0.795592
O O8 0.471028 0.814340 0.081676
O O9 0.795079 0.725479 0.193862
O O10 0.839444 0.937926 0.227010
O O11 0.616679 0.824101 0.425135
O O12 0.626679 0.819872 0.718662
O O13 0.726664 0.982335 0.666778
O O14 0.759866 0.067779 0.954668
#
# Coordination Sequence:
#
# PCOD9253660 Si02
#       7
#     4   4   4   4   4   4   4
#     4  11  25  44  71  99 136 179 225 272 348 398
#     4  10  22  45  70  98 136 173 233 272 337 403
#     4  12  25  45  67 100 141 175 220 287 331 408
#     4  11  25  45  66 102 137 173 230 276 336 398
#     4  11  23  43  69 105 132 175 232 277 334 398
#     4  11  23  44  72 100 132 182 225 280 329 418
#     4  10  22  45  68  98 135 178 219 281 336 397
#
# _framework density 19.957787
#
# number of rings (size 3 to 8) (size 9 to 14) (size 15 to 20)
#    0.000    1.143    2.857    3.000    2.000    3.429 
#   12.857    2.143    0.000    0.000    0.000    0.000 
#    0.000    0.000    0.000    0.000    0.000    0.000 
#
# Total GULP energy -156460.931803 kJ/mol
# GULP energy per Si atom -5587.890422 kJ/mol
# Density = 1.991236 g / cm^3
# Si number density = 19.957787 Si / 1000 Ang^3
#
#
#
# Elastic Constant Matrix: (Units=GPa)
#
#
# Indices 1 2 3 4 5 6 
#
# 1 152.2738 50.3372 15.3323 0.0000 6.5217 0.0000
# 2 50.3372 138.1864 26.7367 0.0000 12.6920 0.0000
# 3 15.3323 26.7367 98.3527 0.0000 12.4059 0.0000
# 4 0.0000 0.0000 0.0000 23.4575 0.0000 9.8503
# 5 6.5217 12.6920 12.4059 0.0000 41.4416 0.0000
# 6 0.0000 0.0000 0.0000 9.8503 0.0000 30.4510
#
#
#
# Elastic Compliance Matrix: (Units=1/GPa)
#
#
# Indices 1 2 3 4 5 6 
#
# 1 0.007487 -0.002623 -0.000423 0.000000 -0.000248 0.000000
# 2 -0.002623 0.008686 -0.001734 0.000000 -0.001728 0.000000
# 3 -0.000423 -0.001734 0.011047 0.000000 -0.002709 0.000000
# 4 0.000000 0.000000 0.000000 0.049331 0.000000 -0.015958
# 5 -0.000248 -0.001728 -0.002709 0.000000 0.025510 0.000000
# 6 0.000000 0.000000 0.000000 -0.015958 0.000000 0.038002
#
#
# Mechanical properties :
#
#
# Convention : Reuss Voigt Hill
#
# Bulk Modulus (GPa) = 56.62490 63.73613 60.18052
# Shear Modulus (GPa) = 32.15234 38.83049 35.49142
#
# Velocity S-wave (km/s) = 4.01810 4.41572 4.22159
# Velocity P-wave (km/s) = 7.06829 7.61596 7.34723
#
# Compressibility (1/GPa) = 0.01766007
#
# Stress axis : x y z
#
# Youngs Moduli (GPa) = 133.55857 115.12342 90.52526
#
# Poissons Ratio (x) = 0.30194 0.03828
# Poissons Ratio (y) = 0.35029 0.15701
# Poissons Ratio (z) = 0.05648 0.19968
#
# Static dielectric constant tensor:
#      x y z
#    x 1.695980 0.000000 -0.052060 
#    y 0.000000 1.683800 0.000000 
#    z -0.052060 0.000000 1.754460 
# 
# From -- ./inp_files/15670.got.cif
#   From: 2010.05.17/outbox.ucp.g08.bks.cvg/sg14_8_cif.got.tgz:15670.got - 2010.06.11 12:31:08.
