data_PCOD9253948
_publ_section_title
;
Structure prediction by ZEFSAII (Michael W. Deem and Ramdas Pophale) SiO2 
 PCOD9253948
Probable space group: C 2/C
;
_chemical_formula_sum "Si O2"
_cell_formula_units_Z 48
_cell_length_a 10.788666
_cell_length_b 28.654680
_cell_length_c 17.144628
_cell_angle_alpha 90.000000
_cell_angle_beta 155.103232
_cell_angle_gamma 90.000000
_cell_volume 2231.298304
_symmetry_space_group_name_H-M "C 2/C"
_symmetry_group_IT_number 15
_symmetry_cell_setting 'monoclinic'
loop_
_space_group_symop_operation_xyz
x,y,z
-x,y,1/2-z
-x,-y,-z
x,-y,1/2+z
1/2+x,1/2+y,z
1/2-x,1/2+y,1/2-z
1/2-x,1/2-y,-z
1/2+x,1/2-y,1/2+z
loop_
_atom_site_type_symbol
_atom_site_label
_atom_site_fract_x
_atom_site_fract_y
_atom_site_fract_z
Si Si1 0.146793 0.345185 0.751256
Si Si2 0.581517 0.579932 0.179839
Si Si3 0.200280 0.979632 0.291593
Si Si4 0.685035 0.724949 0.545028
Si Si5 0.668471 0.805127 0.076350
Si Si6 0.520058 0.107801 0.940528
O O1 0.253183 0.398135 0.798915
O O2 0.000000 0.337363 0.750000
O O3 0.924670 0.330596 0.556145
O O4 0.432198 0.313328 0.899544
O O5 0.556112 0.524035 0.166660
O O6 0.786480 0.594342 0.371435
O O7 0.267184 0.604438 0.015193
O O8 0.286081 0.933429 0.294139
O O9 0.000000 0.965347 0.250000
O O10 0.500000 0.000000 0.500000
O O11 0.750000 0.750000 0.500000
O O12 0.558831 0.764282 0.532080
O O13 0.000000 0.705562 0.750000
O O14 0.633172 0.843412 0.125631
O O15 0.000000 0.787989 0.250000
#
# Coordination Sequence:
#
# PCOD9253948 Si02
#       6
#     8   8   8   8   8   8
#     4  11  25  43  63  90 132 176 211 261 323 382
#     4   9  17  33  55  84 124 160 201 251 318 376
#     4  10  15  27  52  89 119 152 195 260 318 364
#     4  12  25  43  69  94 126 168 213 266 325 387
#     4  11  24  40  63  96 128 164 216 267 311 381
#     4   9  17  31  57  91 122 154 202 264 315 367
#
# _framework density 21.512139000000001
#
# number of rings (size 3 to 8) (size 9 to 14) (size 15 to 20)
#    0.000    1.667    5.000    2.000    4.667    1.333 
#    0.000    0.000    0.000    1.000    0.000    0.000 
#    0.000    0.000    0.000    0.000    0.000    0.000 
#
# Total GULP energy -134000.447246 kJ/mol
# GULP energy per Si atom -5583.351969 kJ/mol
# Density = 2.146318 g / cm^3
# Si number density = 21.512139 Si / 1000 Ang^3
#
#
#
# Elastic Constant Matrix: (Units=GPa)
#
#
# Indices 1 2 3 4 5 6 
#
# 1 88.4645 18.0861 30.5849 0.0008 28.0128 0.0002
# 2 18.0861 61.7457 -4.4058 -0.0007 13.5592 -0.0008
# 3 30.5849 -4.4058 70.2998 0.0069 31.4638 0.0025
# 4 0.0008 -0.0007 0.0069 13.0019 0.0002 10.3098
# 5 28.0128 13.5592 31.4638 0.0002 29.8249 0.0008
# 6 0.0002 -0.0008 0.0025 10.3098 0.0008 19.9382
#
#
#
# Elastic Compliance Matrix: (Units=1/GPa)
#
#
# Indices 1 2 3 4 5 6 
#
# 1 0.016293 -0.002073 -0.001499 -0.000001 -0.012779 0.000001
# 2 -0.002073 0.021934 0.011117 -0.000008 -0.019753 0.000004
# 3 -0.001499 0.011117 0.032596 -0.000025 -0.038034 0.000011
# 4 -0.000001 -0.000008 -0.000025 0.130364 0.000031 -0.067409
# 5 -0.012779 -0.019753 -0.038034 0.000031 0.094636 -0.000016
# 6 0.000001 0.000004 0.000011 -0.067409 -0.000016 0.085011
#
#
# Mechanical properties :
#
#
# Convention : Reuss Voigt Hill
#
# Bulk Modulus (GPa) = 11.63964 34.33783 22.98873
# Shear Modulus (GPa) = 12.67812 24.30265 18.49038
#
# Velocity S-wave (km/s) = 2.43028 3.36477 2.93496
# Velocity P-wave (km/s) = 3.64657 5.57605 4.71115
#
# Compressibility (1/GPa) = 0.08591333
#
# Stress axis : x y z
#
# Youngs Moduli (GPa) = 61.37783 45.59236 30.67832
#
# Poissons Ratio (x) = 0.09451 0.04598
# Poissons Ratio (y) = 0.12723 -0.34105
# Poissons Ratio (z) = 0.09198 -0.50685
#
# Static dielectric constant tensor:
#      x y z
#    x 1.780800 0.000000 -0.026520 
#    y 0.000000 1.820600 0.000000 
#    z -0.026520 0.000000 1.776510 
# 
# From -- ./inp_files/241124.got.cif
#   From: 2010.05.17/outbox.cif.g08.bks.cpg/sg15_121_cif.got.tgz:241124.got - 2010.06.03 18:47:42.
