data_PCOD9253426
_publ_section_title
;
Structure prediction by ZEFSAII (Michael W. Deem and Ramdas Pophale) SiO2 
 PCOD9253426
Probable space group: P 21/C
;
_chemical_formula_sum "Si O2"
_cell_formula_units_Z 32
_cell_length_a 9.974279
_cell_length_b 11.067217
_cell_length_c 14.155572
_cell_angle_alpha 90.000000
_cell_angle_beta 134.442578
_cell_angle_gamma 90.000000
_cell_volume 1115.621066
_symmetry_space_group_name_H-M "P 21/C"
_symmetry_group_IT_number 14
_symmetry_cell_setting 'monoclinic'
loop_
_space_group_symop_operation_xyz
x,y,z
-x,1/2+y,1/2-z
-x,-y,-z
x,1/2-y,1/2+z
loop_
_atom_site_type_symbol
_atom_site_label
_atom_site_fract_x
_atom_site_fract_y
_atom_site_fract_z
Si Si1 0.225679 0.066420 0.185403
Si Si2 0.392884 0.807064 0.448570
Si Si3 0.710349 0.057120 0.148572
Si Si4 0.916120 0.040438 0.690642
Si Si5 0.688597 0.325229 0.319890
Si Si6 0.764624 0.797930 0.104124
Si Si7 0.253232 0.307863 0.112276
Si Si8 0.338699 0.567956 0.161367
O O1 0.125719 0.024700 0.231529
O O2 0.195683 0.946780 0.103100
O O3 0.455880 0.065732 0.287381
O O4 0.169899 0.204544 0.137543
O O5 0.318035 0.673010 0.430541
O O6 0.284108 0.915479 0.445764
O O7 0.344511 0.823054 0.311927
O O8 0.615689 0.797347 0.572735
O O9 0.612774 0.065861 0.201640
O O10 0.932727 0.043969 0.284046
O O11 0.673342 0.930327 0.078247
O O12 0.027957 0.167559 0.760111
O O13 0.473942 0.321544 0.249691
O O14 0.765550 0.197750 0.394649
O O15 0.769744 0.756305 0.999516
O O16 0.210768 0.449432 0.084002
#
# Coordination Sequence:
#
# PCOD9253426 Si02
#       8
#     4   4   4   4   4   4   4   4
#     4   9  16  29  47  75 106 136 174 224 270 312
#     4   9  15  32  54  71 107 147 174 218 270 330
#     4   9  19  32  52  81 105 138 191 221 270 328
#     4   9  20  31  50  82 104 141 176 223 277 325
#     4   7  14  27  46  72  97 139 181 206 258 329
#     4   9  19  33  52  84 105 141 182 223 281 330
#     4   9  16  27  50  79 105 134 180 228 268 312
#     4   9  16  30  53  77 102 146 186 218 268 335
#
# _framework density 28.683575999999999
#
# number of rings (size 3 to 8) (size 9 to 14) (size 15 to 20)
#    0.750    2.500    0.000    1.875    0.000    1.500 
#    0.000    0.000    2.750    7.500    9.750    0.000 
#    0.000    0.000    0.000    0.000    0.000    0.000 
#
# Total GULP energy -178673.400878 kJ/mol
# GULP energy per Si atom -5583.543777 kJ/mol
# Density = 2.861829 g / cm^3
# Si number density = 28.683576 Si / 1000 Ang^3
#
#
#
# Elastic Constant Matrix: (Units=GPa)
#
#
# Indices 1 2 3 4 5 6 
#
# 1 120.2595 38.5956 33.1298 0.0000 8.3320 0.0000
# 2 38.5956 199.1268 22.0472 0.0000 9.5620 0.0000
# 3 33.1298 22.0472 77.6101 0.0000 9.2947 0.0000
# 4 0.0000 0.0000 0.0000 34.2150 0.0000 -0.3183
# 5 8.3320 9.5620 9.2947 0.0000 29.8233 0.0000
# 6 0.0000 0.0000 0.0000 -0.3183 0.0000 42.3217
#
#
#
# Elastic Compliance Matrix: (Units=1/GPa)
#
#
# Indices 1 2 3 4 5 6 
#
# 1 0.009870 -0.001452 -0.003663 0.000000 -0.001150 0.000000
# 2 -0.001452 0.005444 -0.000796 0.000000 -0.001092 0.000000
# 3 -0.003663 -0.000796 0.015085 0.000000 -0.003423 0.000000
# 4 0.000000 0.000000 0.000000 0.029229 0.000000 0.000220
# 5 -0.001150 -0.001092 -0.003423 0.000000 0.035269 0.000000
# 6 0.000000 0.000000 0.000000 0.000220 0.000000 0.023630
#
#
# Mechanical properties :
#
#
# Convention : Reuss Voigt Hill
#
# Bulk Modulus (GPa) = 53.83150 64.94907 59.39028
# Shear Modulus (GPa) = 36.61895 41.48692 39.05293
#
# Velocity S-wave (km/s) = 3.57690 3.80724 3.69387
# Velocity P-wave (km/s) = 5.98891 6.48222 6.24044
#
# Compressibility (1/GPa) = 0.01857649
#
# Stress axis : x y z
#
# Youngs Moduli (GPa) = 101.31451 183.69017 66.29295
#
# Poissons Ratio (x) = 0.26677 0.24283
# Poissons Ratio (y) = 0.14714 0.05276
# Poissons Ratio (z) = 0.37112 0.14618
#
# Static dielectric constant tensor:
#      x y z
#    x 2.247910 0.000000 0.010860 
#    y 0.000000 2.329180 0.000000 
#    z 0.010860 0.000000 2.316970 
# 
# From -- ./inp_files/67181.got.cif
#   From: 2010.05.17/outbox.cif.g08.bks.cpg/sg14_34_cif.got.tgz:67181.got - 2010.06.03 17:49:19.
