data_PCOD9253734
_publ_section_title
;
Structure prediction by ZEFSAII (Michael W. Deem and Ramdas Pophale) SiO2 
 PCOD9253734
Probable space group: P 21/C
;
_chemical_formula_sum "Si O2"
_cell_formula_units_Z 24
_cell_length_a 9.000000
_cell_length_b 9.000000
_cell_length_c 15.000000
_cell_angle_alpha 90.000000
_cell_angle_beta 80.000000
_cell_angle_gamma 90.000000
_cell_volume 1196.541420
_symmetry_space_group_name_H-M "P 21/C"
_symmetry_group_IT_number 14
_symmetry_cell_setting 'monoclinic'
loop_
_space_group_symop_operation_xyz
x,y,z
-x,1/2+y,1/2-z
-x,-y,-z
x,1/2-y,1/2+z
loop_
_atom_site_type_symbol
_atom_site_label
_atom_site_fract_x
_atom_site_fract_y
_atom_site_fract_z
Si Si1 0.477760 0.817070 0.635336
Si Si2 0.145631 0.103073 0.204869
Si Si3 0.958267 0.850086 0.137204
Si Si4 0.264857 0.761759 0.004572
Si Si5 0.285626 0.393639 0.493394
Si Si6 0.354642 0.605913 0.808161
O O1 0.347753 0.830635 0.574208
O O2 0.597999 0.721406 0.564174
O O3 0.430423 0.722280 0.729473
O O4 0.536178 0.977410 0.662767
O O5 0.099103 0.236704 0.278145
O O6 0.008269 0.003038 0.180749
O O7 0.240460 0.988283 0.256957
O O8 0.234444 0.145077 0.101923
O O9 0.099651 0.784206 0.065942
O O10 0.844057 0.887248 0.068953
O O11 0.282560 0.687787 0.903857
O O12 0.331168 0.931231 0.992445
#
# Coordination Sequence:
#
# PCOD9253734 Si02
#       6
#     4   4   4   4   4   4
#     4  12  25  45  68 101 134 179 222 281 333 397
#     4  11  25  44  68 103 132 177 227 274 336 397
#     4  11  25  44  71 100 136 179 221 277 333 398
#     4  11  25  43  69  96 137 179 224 275 332 396
#     4  11  24  44  70  97 138 178 219 278 336 393
#     4  12  26  44  69 103 134 174 231 275 336 396
#
# _framework density 20.05781
#
# number of rings (size 3 to 8) (size 9 to 14) (size 15 to 20)
#    0.000    0.667    5.000    4.000    7.000    3.333 
#    0.000    0.000    0.000    0.000    0.000    0.000 
#    0.000    0.000    0.000    0.000    0.000    0.000 
#
# Total GULP energy -133926.251133 kJ/mol
# GULP energy per Si atom -5580.260464 kJ/mol
# Density = 2.001216 g / cm^3
# Si number density = 20.057810 Si / 1000 Ang^3
#
#
#
# Elastic Constant Matrix: (Units=GPa)
#
#
# Indices 1 2 3 4 5 6 
#
# 1 38.0496 -15.4968 6.1236 0.0000 22.3383 0.0000
# 2 -15.4968 62.4162 39.9169 0.0000 -11.4323 0.0000
# 3 6.1236 39.9169 203.9776 0.0000 -2.6378 0.0000
# 4 0.0000 0.0000 0.0000 62.1217 0.0000 5.6784
# 5 22.3383 -11.4323 -2.6378 0.0000 44.4690 0.0000
# 6 0.0000 0.0000 0.0000 5.6784 0.0000 25.3031
#
#
#
# Elastic Compliance Matrix: (Units=1/GPa)
#
#
# Indices 1 2 3 4 5 6 
#
# 1 0.041416 0.008924 -0.003232 0.000000 -0.018702 0.000000
# 2 0.008924 0.021182 -0.004404 0.000000 0.000702 0.000000
# 3 -0.003232 -0.004404 0.005872 0.000000 0.000839 0.000000
# 4 0.000000 0.000000 0.000000 0.016435 0.000000 -0.003688
# 5 -0.018702 0.000702 0.000839 0.000000 0.032112 0.000000
# 6 0.000000 0.000000 0.000000 -0.003688 0.000000 0.040348
#
#
# Mechanical properties :
#
#
# Convention : Reuss Voigt Hill
#
# Bulk Modulus (GPa) = 14.07523 40.61452 27.34487
# Shear Modulus (GPa) = 28.01577 44.63875 36.32726
#
# Velocity S-wave (km/s) = 3.74137 4.72264 4.26035
# Velocity P-wave (km/s) = 5.06916 7.07322 6.15333
#
# Compressibility (1/GPa) = 0.07104682
#
# Stress axis : x y z
#
# Youngs Moduli (GPa) = 24.14543 47.20965 170.29386
#
# Poissons Ratio (x) = -0.42130 0.55031
# Poissons Ratio (y) = -0.21547 0.74998
# Poissons Ratio (z) = 0.07803 0.20791
#
# Static dielectric constant tensor:
#      x y z
#    x 1.831040 0.000000 -0.007710 
#    y 0.000000 1.707950 0.000000 
#    z -0.007710 0.000000 1.663310 
# 
# From -- ./inp_files/38899.got.cif
#   From: 2010.05.17/outbox.ucp.g08.bks.cvg/sg14_20_cif.got.tgz:38899.got - 2010.06.11 12:31:08.
