data_PCOD9253482
_publ_section_title
;
Structure prediction by ZEFSAII (Michael W. Deem and Ramdas Pophale) SiO2 
 PCOD9253482
Probable space group: P 21/C
;
_chemical_formula_sum "Si O2"
_cell_formula_units_Z 32
_cell_length_a 27.000000
_cell_length_b 12.000000
_cell_length_c 27.000000
_cell_angle_alpha 90.000000
_cell_angle_beta 10.000000
_cell_angle_gamma 90.000000
_cell_volume 1519.074258
_symmetry_space_group_name_H-M "P 21/C"
_symmetry_group_IT_number 14
_symmetry_cell_setting 'monoclinic'
loop_
_space_group_symop_operation_xyz
x,y,z
-x,1/2+y,1/2-z
-x,-y,-z
x,1/2-y,1/2+z
loop_
_atom_site_type_symbol
_atom_site_label
_atom_site_fract_x
_atom_site_fract_y
_atom_site_fract_z
Si Si1 0.874558 0.214926 0.750884
Si Si2 0.566746 0.557865 0.090984
Si Si3 0.584978 0.682238 0.739930
Si Si4 0.881465 0.166642 0.910930
Si Si5 0.565738 0.113637 0.718295
Si Si6 0.777741 0.465816 0.662041
Si Si7 0.726339 0.380518 0.817890
Si Si8 0.066283 0.954906 0.237242
O O1 0.793938 0.263670 0.776953
O O2 0.992968 0.094216 0.649820
O O3 0.101132 0.303494 0.548970
O O4 0.586708 0.217045 0.066796
O O5 0.579350 0.424920 0.076391
O O6 0.355321 0.574312 0.345246
O O7 0.384859 0.592304 0.222428
O O8 0.841576 0.629950 0.831638
O O9 0.574747 0.670000 0.691519
O O10 0.927298 0.150445 0.807321
O O11 0.742692 0.281674 0.065665
O O12 0.811538 0.025993 0.464495
O O13 0.328217 0.041712 0.980050
O O14 0.794854 0.386564 0.692395
O O15 0.081268 0.517809 0.349450
O O16 0.593761 0.574919 0.859393
#
# Coordination Sequence:
#
# PCOD9253482 Si02
#       8
#     4   4   4   4   4   4   4   4
#     4  12  22  35  56  83 110 153 182 218 278 340
#     4  12  21  36  54  84 108 153 181 220 278 337
#     4  12  21  33  57  79 114 144 186 224 265 329
#     4  12  24  36  56  78 108 149 191 225 273 330
#     4  12  25  39  51  79 115 146 192 237 265 317
#     4  10  20  32  55  80 116 140 176 223 279 339
#     4  10  19  34  52  84 112 144 173 224 280 337
#     4  12  24  37  55  79 108 151 189 228 274 330
#
# _framework density 21.065460999999999
#
# number of rings (size 3 to 8) (size 9 to 14) (size 15 to 20)
#    0.000    0.500    6.250    3.750    1.750    0.000 
#    0.000    0.000    0.000    0.000    0.000    5.250 
#    0.000    0.000    0.000    0.000    0.000    0.000 
#
# Total GULP energy -178310.290462 kJ/mol
# GULP energy per Si atom -5572.196577 kJ/mol
# Density = 2.101752 g / cm^3
# Si number density = 21.065461 Si / 1000 Ang^3
#
#
#
# Elastic Constant Matrix: (Units=GPa)
#
#
# Indices 1 2 3 4 5 6 
#
# 1 41.8932 25.9443 21.6279 0.0000 -20.3073 0.0000
# 2 25.9443 4.3907 6.7545 0.0000 -11.2554 0.0000
# 3 21.6279 6.7545 94.3674 0.0000 -20.3399 0.0000
# 4 0.0000 0.0000 0.0000 29.7625 0.0000 -7.1262
# 5 -20.3073 -11.2554 -20.3399 0.0000 23.1991 0.0000
# 6 0.0000 0.0000 0.0000 -7.1262 0.0000 8.7213
#
#
#
# Elastic Compliance Matrix: (Units=1/GPa)
#
#
# Indices 1 2 3 4 5 6 
#
# 1 0.004090 0.055526 0.002055 0.000000 0.032321 0.000000
# 2 0.055526 -0.081768 -0.006100 0.000000 0.003585 0.000000
# 3 0.002055 -0.006100 0.012715 0.000000 0.009987 0.000000
# 4 0.000000 0.000000 0.000000 0.041772 0.000000 0.034132
# 5 0.032321 0.003585 0.009987 0.000000 0.081892 0.000000
# 6 0.000000 0.000000 0.000000 0.034132 0.000000 0.142551
#
#
# Mechanical properties :
#
#
# Convention : Reuss Voigt Hill
#
# Bulk Modulus (GPa) = 26.31788 27.70054 27.00921
# Shear Modulus (GPa) = 45.06215 18.09155 31.57685
#
# Velocity S-wave (km/s) = 4.63011 2.93375 3.87588
# Velocity P-wave (km/s) = 6.41127 4.96529 5.73405
#
# Compressibility (1/GPa) = 0.03799698
#
# Stress axis : x y z
#
# Youngs Moduli (GPa) = 244.52017 -12.22976 78.64599
#
# Poissons Ratio (x) = 0.67907 -0.16159
# Poissons Ratio (y) = -13.57715 0.47977
# Poissons Ratio (z) = -0.50241 -0.07461
#
# Static dielectric constant tensor:
#      x y z
#    x 1.840670 0.000000 0.010190 
#    y 0.000000 1.819340 0.000000 
#    z 0.010190 0.000000 1.826920 
# 
# From -- ./inp_files/78326.got.cif
#   From: 2010.05.17/outbox.ucp.g08.bks.cvg/sg14_40_cif.got.tgz:78326.got - 2010.06.11 12:31:08.
