data_PCOD9253970
_publ_section_title
;
Structure prediction by ZEFSAII (Michael W. Deem and Ramdas Pophale) SiO2 
 PCOD9253970
Probable space group: C 2/C
;
_chemical_formula_sum "Si O2"
_cell_formula_units_Z 48
_cell_length_a 16.628879
_cell_length_b 14.059548
_cell_length_c 10.725966
_cell_angle_alpha 90.000000
_cell_angle_beta 129.563996
_cell_angle_gamma 90.000000
_cell_volume 1933.198627
_symmetry_space_group_name_H-M "C 2/C"
_symmetry_group_IT_number 15
_symmetry_cell_setting 'monoclinic'
loop_
_space_group_symop_operation_xyz
x,y,z
-x,y,1/2-z
-x,-y,-z
x,-y,1/2+z
1/2+x,1/2+y,z
1/2-x,1/2+y,1/2-z
1/2-x,1/2-y,-z
1/2+x,1/2-y,1/2+z
loop_
_atom_site_type_symbol
_atom_site_label
_atom_site_fract_x
_atom_site_fract_y
_atom_site_fract_z
Si Si1 0.633379 0.839867 0.009541
Si Si2 0.641432 0.361226 0.913222
Si Si3 0.711090 0.951371 0.610990
Si Si4 0.996331 0.794285 0.954299
Si Si5 0.797811 0.315650 0.682270
Si Si6 0.885503 0.050290 0.479080
O O1 0.546330 0.795356 0.012736
O O2 0.740286 0.783512 0.153405
O O3 0.646582 0.953067 0.030120
O O4 0.623615 0.812325 0.854390
O O5 0.756159 0.393224 0.981257
O O6 0.606933 0.295075 0.993990
O O7 0.586596 0.315345 0.738824
O O8 0.594759 0.461032 0.915980
O O9 0.664222 0.878473 0.664826
O O10 0.820065 0.979085 0.789793
O O11 0.981349 0.884513 0.031892
O O12 0.698551 0.380380 0.538030
#
# Coordination Sequence:
#
# PCOD9253970 Si02
#       6
#     8   8   8   8   8   8
#     4  10  15  30  45  66 102 122 162 196 241 289
#     4  10  15  29  41  65 100 118 157 200 232 291
#     4   9  16  27  46  67  95 126 154 202 244 273
#     4   9  19  25  44  68  93 131 159 188 237 295
#     4   8  17  26  44  69  89 128 158 194 236 286
#     4   8  15  27  40  64  89 125 149 192 238 275
#
# _framework density 24.829315000000001
#
# number of rings (size 3 to 8) (size 9 to 14) (size 15 to 20)
#    1.000    2.000    3.333    0.500    0.000    0.000 
#    0.000    0.833    0.000    0.000    0.000    4.667 
#    0.000    0.000    0.000    0.000    0.000    0.000 
#
# Total GULP energy -133784.670146 kJ/mol
# GULP energy per Si atom -5574.361256 kJ/mol
# Density = 2.477280 g / cm^3
# Si number density = 24.829315 Si / 1000 Ang^3
#
#
#
# Elastic Constant Matrix: (Units=GPa)
#
#
# Indices 1 2 3 4 5 6 
#
# 1 151.8289 81.0742 59.1455 0.0000 -57.3341 0.0000
# 2 81.0742 131.5544 39.7622 0.0000 -20.3144 0.0000
# 3 59.1455 39.7622 53.9858 0.0000 -9.2436 0.0000
# 4 0.0000 0.0000 0.0000 24.0524 0.0000 -9.8338
# 5 -57.3341 -20.3144 -9.2436 0.0000 36.9887 0.0000
# 6 0.0000 0.0000 0.0000 -9.8338 0.0000 33.2013
#
#
#
# Elastic Compliance Matrix: (Units=1/GPa)
#
#
# Indices 1 2 3 4 5 6 
#
# 1 0.049573 -0.009956 -0.036311 0.000000 0.062298 0.000000
# 2 -0.009956 0.012296 0.000381 0.000000 -0.008583 0.000000
# 3 -0.036311 0.000381 0.050588 0.000000 -0.043433 0.000000
# 4 0.000000 0.000000 0.000000 0.047304 0.000000 0.014011
# 5 0.062298 -0.008583 -0.043433 0.000000 0.108032 0.000000
# 6 0.000000 0.000000 0.000000 0.014011 0.000000 0.034269
#
#
# Mechanical properties :
#
#
# Convention : Reuss Voigt Hill
#
# Bulk Modulus (GPa) = 48.34422 77.48142 62.91282
# Shear Modulus (GPa) = 12.47725 29.34096 20.90910
#
# Velocity S-wave (km/s) = 2.24413 3.44133 2.90507
# Velocity P-wave (km/s) = 5.12130 6.86030 6.05357
#
# Compressibility (1/GPa) = 0.02068500
#
# Stress axis : x y z
#
# Youngs Moduli (GPa) = 20.17232 81.32498 19.76758
#
# Poissons Ratio (x) = 0.80965 0.71779
# Poissons Ratio (y) = 0.20083 -0.00753
# Poissons Ratio (z) = 0.73248 -0.03098
#
# Static dielectric constant tensor:
#      x y z
#    x 2.000280 0.000000 -0.020420 
#    y 0.000000 1.965370 0.000000 
#    z -0.020420 0.000000 2.000670 
# 
# From -- ./inp_files/161532.got.cif
#   From: 2010.05.17/outbox.cif.g08.bks.cpg/sg15_81_cif.got.tgz:161532.got - 2010.06.03 18:47:42.
