data_PCOD9253614
_publ_section_title
;
Structure prediction by ZEFSAII (Michael W. Deem and Ramdas Pophale) SiO2 
 PCOD9253614
Probable space group: P 21/C
;
_chemical_formula_sum "Si O2"
_cell_formula_units_Z 28
_cell_length_a 15.000000
_cell_length_b 9.000000
_cell_length_c 12.000000
_cell_angle_alpha 90.000000
_cell_angle_beta 120.000000
_cell_angle_gamma 90.000000
_cell_volume 1402.961154
_symmetry_space_group_name_H-M "P 21/C"
_symmetry_group_IT_number 14
_symmetry_cell_setting 'monoclinic'
loop_
_space_group_symop_operation_xyz
x,y,z
-x,1/2+y,1/2-z
-x,-y,-z
x,1/2-y,1/2+z
loop_
_atom_site_type_symbol
_atom_site_label
_atom_site_fract_x
_atom_site_fract_y
_atom_site_fract_z
Si Si1 0.444979 0.142551 0.010994
Si Si2 0.708537 0.563717 0.384758
Si Si3 0.104409 0.595578 0.578861
Si Si4 0.405945 0.910254 0.391402
Si Si5 0.200835 0.015281 0.366474
Si Si6 0.882471 0.049420 0.438006
Si Si7 0.753903 0.802021 0.241362
O O1 0.366366 0.190259 0.864713
O O2 0.366064 0.104966 0.061461
O O3 0.538748 0.253656 0.096457
O O4 0.500000 0.000000 0.000000
O O5 0.810530 0.462932 0.457813
O O6 0.639265 0.478386 0.249931
O O7 0.755188 0.710551 0.356859
O O8 0.137570 0.559518 0.726534
O O9 0.110139 0.773058 0.572127
O O10 0.000000 0.500000 0.500000
O O11 0.500000 0.000000 0.500000
O O12 0.312980 0.937038 0.421019
O O13 0.203633 0.189510 0.328319
O O14 0.159117 0.989377 0.463845
O O15 0.812766 0.955990 0.304442
O O16 0.000000 0.000000 0.500000
#
# Coordination Sequence:
#
# PCOD9253614 Si02
#       7
#     4   4   4   4   4   4   4
#     4  12  26  37  65  99 130 177 229 277 331 407
#     4  10  24  42  65  94 135 178 224 287 336 412
#     4  10  24  47  69  99 139 180 229 289 355 412
#     4  10  21  44  63  91 132 185 215 272 349 385
#     4  10  24  46  68  95 145 176 227 290 338 420
#     4  12  26  42  75 104 131 187 228 282 363 418
#     4  10  23  45  63  99 132 177 229 279 336 406
#
# _framework density 19.957787
#
# number of rings (size 3 to 8) (size 9 to 14) (size 15 to 20)
#    0.000    1.714    2.857    2.571    8.000    3.429 
#    0.000    0.000    0.000    0.000    0.000    0.000 
#    0.000    0.000    0.000    0.000    0.000    0.000 
#
# Total GULP energy -155977.206840 kJ/mol
# GULP energy per Si atom -5570.614530 kJ/mol
# Density = 1.991236 g / cm^3
# Si number density = 19.957787 Si / 1000 Ang^3
#
#
#
# Elastic Constant Matrix: (Units=GPa)
#
#
# Indices 1 2 3 4 5 6 
#
# 1 145.4752 59.8388 45.4638 0.0000 5.1231 0.0000
# 2 59.8388 160.8320 36.9551 0.0000 9.2920 0.0000
# 3 45.4638 36.9551 61.0941 0.0000 13.4443 0.0000
# 4 0.0000 0.0000 0.0000 30.0248 0.0000 16.0714
# 5 5.1231 9.2920 13.4443 0.0000 38.5176 0.0000
# 6 0.0000 0.0000 0.0000 16.0714 0.0000 36.0981
#
#
#
# Elastic Compliance Matrix: (Units=1/GPa)
#
#
# Indices 1 2 3 4 5 6 
#
# 1 0.009676 -0.002271 -0.006135 0.000000 0.001402 0.000000
# 2 -0.002271 0.007757 -0.002877 0.000000 -0.000565 0.000000
# 3 -0.006135 -0.002877 0.024201 0.000000 -0.006937 0.000000
# 4 0.000000 0.000000 0.000000 0.043726 0.000000 -0.019467
# 5 0.001402 -0.000565 -0.006937 0.000000 0.028333 0.000000
# 6 0.000000 0.000000 0.000000 -0.019467 0.000000 0.036369
#
#
# Mechanical properties :
#
#
# Convention : Reuss Voigt Hill
#
# Bulk Modulus (GPa) = 52.45054 72.43518 62.44286
# Shear Modulus (GPa) = 27.93517 35.93769 31.93643
#
# Velocity S-wave (km/s) = 3.74533 4.24805 4.00459
# Velocity P-wave (km/s) = 6.71127 7.77395 7.26207
#
# Compressibility (1/GPa) = 0.01906558
#
# Stress axis : x y z
#
# Youngs Moduli (GPa) = 103.34435 128.92388 41.32083
#
# Poissons Ratio (x) = 0.29284 0.25352
# Poissons Ratio (y) = 0.23474 0.11889
# Poissons Ratio (z) = 0.63406 0.37094
#
# Static dielectric constant tensor:
#      x y z
#    x 1.708420 0.000000 0.005620 
#    y 0.000000 1.930610 0.000000 
#    z 0.005620 0.000000 1.699330 
# 
# From -- ./inp_files/31888.got.cif
#   From: 2010.05.17/outbox.ucp.g08.bks.cvg/sg14_16_cif.got.tgz:31888.got - 2010.06.11 12:31:08.
