data_PCOD9253135
_publ_section_title
;
Structure prediction by ZEFSAII (Michael W. Deem and Ramdas Pophale) SiO2 
 PCOD9253135
Probable space group: P 21/C
;
_chemical_formula_sum "Si O2"
_cell_formula_units_Z 22
_cell_length_a 14.405036
_cell_length_b 4.899381
_cell_length_c 12.492498
_cell_angle_alpha 90.000000
_cell_angle_beta 89.506475
_cell_angle_gamma 90.000000
_cell_volume 881.634829
_symmetry_space_group_name_H-M "P 21/C"
_symmetry_group_IT_number 14
_symmetry_cell_setting 'monoclinic'
loop_
_space_group_symop_operation_xyz
x,y,z
-x,1/2+y,1/2-z
-x,-y,-z
x,1/2-y,1/2+z
loop_
_atom_site_type_symbol
_atom_site_label
_atom_site_fract_x
_atom_site_fract_y
_atom_site_fract_z
Si Si1 0.993316 0.026391 0.681878
Si Si2 0.621226 0.213407 0.200051
Si Si3 0.808876 0.269496 0.580025
Si Si4 0.822061 0.708646 0.936510
Si Si5 0.639493 0.719982 0.335662
Si Si6 0.500000 0.000000 0.000000
O O1 0.897724 0.129835 0.633151
O O2 0.007090 0.208893 0.788636
O O3 0.080637 0.098954 0.607581
O O4 0.727176 0.168926 0.162943
O O5 0.609662 0.521782 0.239438
O O6 0.606969 0.021169 0.303573
O O7 0.554909 0.131394 0.103957
O O8 0.835910 0.538913 0.515248
O O9 0.772501 0.041601 0.497511
O O10 0.750946 0.795651 0.844839
O O11 0.597772 0.615050 0.447207
#
# Coordination Sequence:
#
# PCOD9253135 Si02
#       6
#     4   4   4   4   4   2
#     4  12  24  42  68 104 146 190 244 295 355 438
#     4  12  27  48  74 108 144 190 243 301 367 436
#     4  12  24  45  71 105 144 194 241 298 364 436
#     4  12  24  45  71 105 144 194 241 298 364 436
#     4  12  27  48  74 108 144 190 243 301 367 436
#     4  12  28  50  76 106 146 192 246 304 374 432
#
# _framework density 24.953641999999999
#
# number of rings (size 3 to 8) (size 9 to 14) (size 15 to 20)
#    0.000    0.000    1.818    8.727    0.000    1.455 
#    0.000    0.000    0.000    0.000    0.000    0.000 
#    0.000    0.000    0.000    0.000    0.000    0.000 
#
# Total GULP energy -122967.840061 kJ/mol
# GULP energy per Si atom -5589.447275 kJ/mol
# Density = 2.489685 g / cm^3
# Si number density = 24.953642 Si / 1000 Ang^3
#
#
#
# Elastic Constant Matrix: (Units=GPa)
#
#
# Indices 1 2 3 4 5 6 
#
# 1 110.1669 -21.1653 21.2168 0.0000 10.2800 0.0000
# 2 -21.1653 76.6111 16.9878 0.0000 6.7514 0.0000
# 3 21.2168 16.9878 56.4181 0.0000 -0.7934 0.0000
# 4 0.0000 0.0000 0.0000 45.5030 0.0000 1.6202
# 5 10.2800 6.7514 -0.7934 0.0000 38.6103 0.0000
# 6 0.0000 0.0000 0.0000 1.6202 0.0000 24.4160
#
#
#
# Elastic Compliance Matrix: (Units=1/GPa)
#
#
# Indices 1 2 3 4 5 6 
#
# 1 0.011504 0.004827 -0.005837 0.000000 -0.004027 0.000000
# 2 0.004827 0.016265 -0.006773 0.000000 -0.004269 0.000000
# 3 -0.005837 -0.006773 0.022004 0.000000 0.003190 0.000000
# 4 0.000000 0.000000 0.000000 0.022029 0.000000 -0.001462
# 5 -0.004027 -0.004269 0.003190 0.000000 0.027784 0.000000
# 6 0.000000 0.000000 0.000000 -0.001462 0.000000 0.041054
#
#
# Mechanical properties :
#
#
# Convention : Reuss Voigt Hill
#
# Bulk Modulus (GPa) = 29.23205 30.80828 30.02016
# Shear Modulus (GPa) = 29.83183 36.78298 33.30740
#
# Velocity S-wave (km/s) = 3.46134 3.84350 3.65742
# Velocity P-wave (km/s) = 5.26445 5.66301 5.46736
#
# Compressibility (1/GPa) = 0.03420903
#
# Stress axis : x y z
#
# Youngs Moduli (GPa) = 86.92313 61.48330 45.44649
#
# Poissons Ratio (x) = -0.29681 0.26525
# Poissons Ratio (y) = -0.41961 0.30780
# Poissons Ratio (z) = 0.50733 0.41641
#
# Static dielectric constant tensor:
#      x y z
#    x 1.936520 0.000000 0.017850 
#    y 0.000000 1.963800 0.000000 
#    z 0.017850 0.000000 1.986830 
# 
# From -- ./inp_files/31121.got.cif
#   From: 2010.05.17/outbox.cif.g08.bks.cpg/sg14_16_cif.got.tgz:31121.got - 2010.06.03 17:49:19.
