data_PCOD9253629
_publ_section_title
;
Structure prediction by ZEFSAII (Michael W. Deem and Ramdas Pophale) SiO2 
 PCOD9253629
Probable space group: P 21/C
;
_chemical_formula_sum "Si O2"
_cell_formula_units_Z 32
_cell_length_a 6.000000
_cell_length_b 18.000000
_cell_length_c 15.000000
_cell_angle_alpha 90.000000
_cell_angle_beta 110.000000
_cell_angle_gamma 90.000000
_cell_volume 1522.302046
_symmetry_space_group_name_H-M "P 21/C"
_symmetry_group_IT_number 14
_symmetry_cell_setting 'monoclinic'
loop_
_space_group_symop_operation_xyz
x,y,z
-x,1/2+y,1/2-z
-x,-y,-z
x,1/2-y,1/2+z
loop_
_atom_site_type_symbol
_atom_site_label
_atom_site_fract_x
_atom_site_fract_y
_atom_site_fract_z
Si Si1 0.632840 0.578097 0.020338
Si Si2 0.761305 0.190136 0.576323
Si Si3 0.983723 0.942744 0.731738
Si Si4 0.234707 0.792171 0.073977
Si Si5 0.139896 0.724420 0.245861
Si Si6 0.018665 0.545991 0.596514
Si Si7 0.285408 0.342512 0.335473
Si Si8 0.182258 0.421108 0.155758
O O1 0.459346 0.648296 0.996889
O O2 0.760923 0.579470 0.940934
O O3 0.500000 0.500000 0.000000
O O4 0.781747 0.575931 0.131440
O O5 0.884758 0.246381 0.522632
O O6 0.703516 0.237513 0.656009
O O7 0.933607 0.122843 0.629166
O O8 0.096498 0.861524 0.764606
O O9 0.907354 0.987961 0.812304
O O10 0.151371 0.998331 0.696670
O O11 0.237666 0.738539 0.160369
O O12 0.151527 0.875931 0.088432
O O13 0.503254 0.805576 0.082601
O O14 0.904726 0.777082 0.208559
O O15 0.000000 0.500000 0.500000
O O16 0.799183 0.587000 0.617157
O O17 0.351689 0.375242 0.246511
#
# Coordination Sequence:
#
# PCOD9253629 Si02
#       8
#     4   4   4   4   4   4   4   4
#     4  12  24  35  63  93 127 156 206 259 321 375
#     4  11  23  41  61  91 122 165 208 255 320 376
#     4  11  22  41  64  94 125 166 212 258 319 381
#     4  11  22  39  65  84 123 162 205 258 317 371
#     4  10  22  40  61  86 124 162 206 257 309 378
#     4  10  23  43  64  89 125 165 212 264 309 372
#     4   9  21  40  62  87 119 163 208 250 313 378
#     4  10  22  40  61  89 128 159 201 262 317 371
#
# _framework density 21.020796000000001
#
# number of rings (size 3 to 8) (size 9 to 14) (size 15 to 20)
#    0.000    1.500    1.250    4.125    3.500    1.500 
#    0.000    2.500    0.000    0.000    0.000    0.000 
#    0.000    0.000    0.000    0.000    0.000    0.000 
#
# Total GULP energy -178199.173003 kJ/mol
# GULP energy per Si atom -5568.724156 kJ/mol
# Density = 2.097295 g / cm^3
# Si number density = 21.020796 Si / 1000 Ang^3
#
#
#
# Elastic Constant Matrix: (Units=GPa)
#
#
# Indices 1 2 3 4 5 6 
#
# 1 14.3276 21.1512 10.6174 0.0000 -8.7230 0.0000
# 2 21.1512 155.2927 39.4171 0.0000 -6.9095 0.0000
# 3 10.6174 39.4171 100.4744 0.0000 -28.4603 0.0000
# 4 0.0000 0.0000 0.0000 49.0312 0.0000 -3.1575
# 5 -8.7230 -6.9095 -28.4603 0.0000 29.8901 0.0000
# 6 0.0000 0.0000 0.0000 -3.1575 0.0000 25.0615
#
#
#
# Elastic Compliance Matrix: (Units=1/GPa)
#
#
# Indices 1 2 3 4 5 6 
#
# 1 0.106927 -0.013924 0.002863 0.000000 0.030712 0.000000
# 2 -0.013924 0.009007 -0.003592 0.000000 -0.005402 0.000000
# 3 0.002863 -0.003592 0.015146 0.000000 0.014427 0.000000
# 4 0.000000 0.000000 0.000000 0.020562 0.000000 0.002591
# 5 0.030712 -0.005402 0.014427 0.000000 0.054906 0.000000
# 6 0.000000 0.000000 0.000000 0.002591 0.000000 0.040228
#
#
# Mechanical properties :
#
#
# Convention : Reuss Voigt Hill
#
# Bulk Modulus (GPa) = 9.82572 45.82954 27.82763
# Shear Modulus (GPa) = 16.12853 34.05718 25.09285
#
# Velocity S-wave (km/s) = 2.77296 4.02950 3.45877
# Velocity P-wave (km/s) = 3.86482 6.59533 5.40533
#
# Compressibility (1/GPa) = 0.10177374
#
# Stress axis : x y z
#
# Youngs Moduli (GPa) = 9.35213 111.01950 66.02361
#
# Poissons Ratio (x) = 1.54582 -0.18901
# Poissons Ratio (y) = 0.13022 0.23719
# Poissons Ratio (z) = -0.02677 0.39883
#
# Static dielectric constant tensor:
#      x y z
#    x 1.835250 0.000000 0.006300 
#    y 0.000000 1.776970 0.000000 
#    z 0.006300 0.000000 1.818520 
# 
# From -- ./inp_files/37894.got.cif
#   From: 2010.05.17/outbox.ucp.g08.bks.cvg/sg14_19_cif.got.tgz:37894.got - 2010.06.11 12:31:08.
