data_PCOD9253989
_publ_section_title
;
Structure prediction by ZEFSAII (Michael W. Deem and Ramdas Pophale) SiO2 
 PCOD9253989
Probable space group: C 2/C
;
_chemical_formula_sum "Si O2"
_cell_formula_units_Z 56
_cell_length_a 20.433253
_cell_length_b 10.168716
_cell_length_c 23.116179
_cell_angle_alpha 90.000000
_cell_angle_beta 32.679366
_cell_angle_gamma 90.000000
_cell_volume 2593.360874
_symmetry_space_group_name_H-M "C 2/C"
_symmetry_group_IT_number 15
_symmetry_cell_setting 'monoclinic'
loop_
_space_group_symop_operation_xyz
x,y,z
-x,y,1/2-z
-x,-y,-z
x,-y,1/2+z
1/2+x,1/2+y,z
1/2-x,1/2+y,1/2-z
1/2-x,1/2-y,-z
1/2+x,1/2-y,1/2+z
loop_
_atom_site_type_symbol
_atom_site_label
_atom_site_fract_x
_atom_site_fract_y
_atom_site_fract_z
Si Si1 0.857382 0.480184 0.351602
Si Si2 0.542266 0.668761 0.919431
Si Si3 0.882751 0.470135 0.462223
Si Si4 0.112875 0.395627 0.429976
Si Si5 0.731976 0.750933 0.874407
Si Si6 0.680414 0.549542 0.282174
Si Si7 0.873604 0.377905 0.731737
O O1 0.821469 0.486066 0.445530
O O2 0.795149 0.362289 0.363622
O O3 0.843358 0.610030 0.321996
O O4 0.000000 0.451764 0.250000
O O5 0.650150 0.689838 0.885004
O O6 0.552892 0.516566 0.893880
O O7 0.562820 0.751940 0.844751
O O8 0.438242 0.749632 0.029919
O O9 0.840319 0.576268 0.540403
O O10 0.848676 0.335637 0.520310
O O11 0.026753 0.504026 0.350760
O O12 0.225588 0.433414 0.307111
O O13 0.000000 0.500000 0.500000
O O14 0.818449 0.849075 0.772429
O O15 0.755804 0.602733 0.280410
#
# Coordination Sequence:
#
# PCOD9253989 Si02
#       7
#     8   8   8   8   8   8   8
#     4  10  19  28  46  71 101 123 155 201 245 295
#     4  10  17  28  51  72  97 127 164 211 242 286
#     4   9  16  28  47  70  93 122 157 210 238 280
#     4  10  15  30  50  73  98 130 173 209 238 288
#     4  10  17  29  46  70  95 125 163 194 251 292
#     4  10  17  28  50  72  99 127 159 209 249 292
#     4   9  16  29  44  71  96 120 161 200 247 280
#
# _framework density 21.593599999999999
#
# number of rings (size 3 to 8) (size 9 to 14) (size 15 to 20)
#    0.000    2.286    7.143    0.429    0.000    0.000 
#    0.000    0.000    0.000   16.286    0.000    0.000 
#    0.000    0.000    0.000    0.000    0.000    0.000 
#
# Total GULP energy -155905.352460 kJ/mol
# GULP energy per Si atom -5568.048302 kJ/mol
# Density = 2.154445 g / cm^3
# Si number density = 21.593600 Si / 1000 Ang^3
#
#
#
# Elastic Constant Matrix: (Units=GPa)
#
#
# Indices 1 2 3 4 5 6 
#
# 1 128.4458 28.3845 29.9409 0.0000 41.2825 0.0000
# 2 28.3845 44.3573 18.9587 0.0000 -3.7454 0.0000
# 3 29.9409 18.9587 58.6074 -0.0001 15.9783 0.0001
# 4 0.0000 0.0000 -0.0001 41.6660 0.0000 0.2033
# 5 41.2825 -3.7454 15.9783 0.0000 31.4192 0.0000
# 6 0.0000 0.0000 0.0001 0.2033 0.0000 26.9511
#
#
#
# Elastic Compliance Matrix: (Units=1/GPa)
#
#
# Indices 1 2 3 4 5 6 
#
# 1 0.020931 -0.017562 0.003549 0.000000 -0.031400 0.000000
# 2 -0.017562 0.043073 -0.014689 0.000000 0.035680 0.000000
# 3 0.003549 -0.014689 0.025251 0.000000 -0.019255 0.000000
# 4 0.000000 0.000000 0.000000 0.024001 0.000000 -0.000181
# 5 -0.031400 0.035680 -0.019255 0.000000 0.087131 0.000000
# 6 0.000000 0.000000 0.000000 -0.000181 0.000000 0.037106
#
#
# Mechanical properties :
#
#
# Convention : Reuss Voigt Hill
#
# Bulk Modulus (GPa) = 31.39679 42.88652 37.14165
# Shear Modulus (GPa) = 16.36573 30.28234 23.32403
#
# Velocity S-wave (km/s) = 2.75598 3.74889 3.29011
# Velocity P-wave (km/s) = 4.96977 6.21633 5.62768
#
# Compressibility (1/GPa) = 0.03185039
#
# Stress axis : x y z
#
# Youngs Moduli (GPa) = 47.77548 23.21618 39.60205
#
# Poissons Ratio (x) = 0.40773 -0.14054
# Poissons Ratio (y) = 0.83904 0.58173
# Poissons Ratio (z) = -0.16954 0.34103
#
# Static dielectric constant tensor:
#      x y z
#    x 1.757540 0.000000 0.018250 
#    y 0.000000 1.864900 0.000000 
#    z 0.018250 0.000000 1.914970 
# 
# From -- ./inp_files/210004.got.cif
#   From: 2010.05.17/outbox.cif.g08.bks.cpg/sg15_106_cif.got.tgz:210004.got - 2010.06.03 18:47:42.
