data_PCOD9253684
_publ_section_title
;
Structure prediction by ZEFSAII (Michael W. Deem and Ramdas Pophale) SiO2 
 PCOD9253684
Probable space group: P 21/C
;
_chemical_formula_sum "Si O2"
_cell_formula_units_Z 32
_cell_length_a 15.000000
_cell_length_b 12.000000
_cell_length_c 27.000000
_cell_angle_alpha 90.000000
_cell_angle_beta 160.000000
_cell_angle_gamma 90.000000
_cell_volume 1662.217897
_symmetry_space_group_name_H-M "P 21/C"
_symmetry_group_IT_number 14
_symmetry_cell_setting 'monoclinic'
loop_
_space_group_symop_operation_xyz
x,y,z
-x,1/2+y,1/2-z
-x,-y,-z
x,1/2-y,1/2+z
loop_
_atom_site_type_symbol
_atom_site_label
_atom_site_fract_x
_atom_site_fract_y
_atom_site_fract_z
Si Si1 0.705221 0.178102 0.606452
Si Si2 0.591601 0.844707 0.448355
Si Si3 0.192333 0.391543 0.426234
Si Si4 0.488240 0.884031 0.060383
Si Si5 0.111280 0.918094 0.131599
Si Si6 0.895107 0.440237 0.109070
Si Si7 0.352868 0.755612 0.589445
Si Si8 0.887392 0.839039 0.914255
O O1 0.512301 0.140129 0.549428
O O2 0.610997 0.297526 0.534283
O O3 0.736266 0.099358 0.574926
O O4 0.983162 0.165262 0.779628
O O5 0.634823 0.713050 0.467641
O O6 0.380492 0.875120 0.296094
O O7 0.836210 0.928781 0.570289
O O8 0.339752 0.497240 0.479572
O O9 0.060486 0.433196 0.408420
O O10 0.414080 0.824853 0.074223
O O11 0.800634 0.907341 0.224313
O O12 0.156197 0.035001 0.127712
O O13 0.969739 0.842975 0.015395
O O14 0.767932 0.367918 0.998223
O O15 0.620608 0.776192 0.759587
O O16 0.130859 0.707316 0.509584
#
# Coordination Sequence:
#
# PCOD9253684 Si02
#       8
#     4   4   4   4   4   4   4   4
#     4  10  25  42  66  89 128 176 223 271 331 396
#     4  11  24  42  61  96 130 176 215 273 331 400
#     4  11  25  43  65  94 133 173 218 275 333 396
#     4  11  24  43  67  97 130 173 226 279 330 393
#     4  10  24  43  68  91 136 176 218 267 335 403
#     4  11  23  41  67  96 129 172 221 279 326 393
#     4  11  22  42  71 100 133 169 226 279 328 398
#     4  11  22  44  69 101 131 178 223 273 335 396
#
# _framework density 19.251387000000001
#
# number of rings (size 3 to 8) (size 9 to 14) (size 15 to 20)
#    0.000    1.250    3.750    1.125    7.000    1.000 
#    2.250    0.000    0.000    4.500    0.000    0.000 
#    0.000    0.000    0.000    0.000    0.000    0.000 
#
# Total GULP energy -178628.713678 kJ/mol
# GULP energy per Si atom -5582.147302 kJ/mol
# Density = 1.920757 g / cm^3
# Si number density = 19.251387 Si / 1000 Ang^3
#
#
#
# Elastic Constant Matrix: (Units=GPa)
#
#
# Indices 1 2 3 4 5 6 
#
# 1 52.6700 17.7064 38.5810 0.0000 -21.9073 0.0000
# 2 17.7064 118.5851 62.1284 0.0000 -3.4987 0.0000
# 3 38.5810 62.1284 139.7559 0.0000 -9.1470 0.0000
# 4 0.0000 0.0000 0.0000 31.9616 0.0000 0.4510
# 5 -21.9073 -3.4987 -9.1470 0.0000 36.6271 0.0000
# 6 0.0000 0.0000 0.0000 0.4510 0.0000 27.0546
#
#
#
# Elastic Compliance Matrix: (Units=1/GPa)
#
#
# Indices 1 2 3 4 5 6 
#
# 1 0.031661 -0.000300 -0.007492 0.000000 0.017038 0.000000
# 2 -0.000300 0.010997 -0.004828 0.000000 -0.000334 0.000000
# 3 -0.007492 -0.004828 0.011230 0.000000 -0.002138 0.000000
# 4 0.000000 0.000000 0.000000 0.031295 0.000000 -0.000522
# 5 0.017038 -0.000334 -0.002138 0.000000 0.036927 0.000000
# 6 0.000000 0.000000 0.000000 -0.000522 0.000000 0.036971
#
#
# Mechanical properties :
#
#
# Convention : Reuss Voigt Hill
#
# Bulk Modulus (GPa) = 34.90506 60.87140 47.88823
# Shear Modulus (GPa) = 25.79044 31.96834 28.87939
#
# Velocity S-wave (km/s) = 3.66412 4.07943 3.87734
# Velocity P-wave (km/s) = 6.00596 7.34009 6.70628
#
# Compressibility (1/GPa) = 0.02864914
#
# Stress axis : x y z
#
# Youngs Moduli (GPa) = 31.58412 90.93361 89.04759
#
# Poissons Ratio (x) = 0.02724 0.66716
# Poissons Ratio (y) = 0.00946 0.42991
# Poissons Ratio (z) = 0.23663 0.43902
#
# Static dielectric constant tensor:
#      x y z
#    x 1.666930 0.000000 0.016050 
#    y 0.000000 1.684920 0.000000 
#    z 0.016050 0.000000 1.673460 
# 
# From -- ./inp_files/77599.got.cif
#   From: 2010.05.17/outbox.ucp.g08.bks.cvg/sg14_39_cif.got.tgz:77599.got - 2010.06.11 12:31:08.
