data_PCOD9253038
_publ_section_title
;
Structure prediction by ZEFSAII (Michael W. Deem and Ramdas Pophale) SiO2 
 PCOD9253038
Probable space group: P 21/C
;
_chemical_formula_sum "Si O2"
_cell_formula_units_Z 32
_cell_length_a 18.338100
_cell_length_b 13.627301
_cell_length_c 12.359591
_cell_angle_alpha 90.000000
_cell_angle_beta 149.367629
_cell_angle_gamma 90.000000
_cell_volume 1573.751040
_symmetry_space_group_name_H-M "P 21/C"
_symmetry_group_IT_number 14
_symmetry_cell_setting 'monoclinic'
loop_
_space_group_symop_operation_xyz
x,y,z
-x,1/2+y,1/2-z
-x,-y,-z
x,1/2-y,1/2+z
loop_
_atom_site_type_symbol
_atom_site_label
_atom_site_fract_x
_atom_site_fract_y
_atom_site_fract_z
Si Si1 0.361455 0.605808 0.100433
Si Si2 0.843274 0.892033 0.081371
Si Si3 0.451355 0.296580 0.847115
Si Si4 0.496642 0.069193 0.889945
Si Si5 0.299172 0.725611 0.677185
Si Si6 0.028993 0.723163 0.981622
Si Si7 0.789737 0.408506 0.639256
Si Si8 0.966061 0.090574 0.880785
O O1 0.468802 0.664468 0.159057
O O2 0.415974 0.497364 0.197896
O O3 0.345077 0.669112 0.188702
O O4 0.203890 0.601666 0.849150
O O5 0.912184 0.810356 0.246631
O O6 0.959214 0.920557 0.139275
O O7 0.813540 0.985753 0.117987
O O8 0.699265 0.852082 0.841933
O O9 0.431922 0.178236 0.821535
O O10 0.563328 0.318922 0.086588
O O11 0.655774 0.087350 0.048866
O O12 0.500000 0.000000 0.000000
O O13 0.168712 0.739878 0.593706
O O14 0.247695 0.663385 0.508399
O O15 0.079589 0.635344 0.124844
O O16 0.977103 0.811064 0.990492
O O17 0.000000 0.000000 0.000000
#
# Coordination Sequence:
#
# PCOD9253038 Si02
#       8
#     4   4   4   4   4   4   4   4
#     4  12  23  46  71  99 142 185 234 286 354 425
#     4  12  29  44  69 112 143 181 236 303 355 410
#     4  12  26  45  71 107 139 181 238 301 347 413
#     4  12  24  42  72 104 134 182 236 286 348 418
#     4  12  21  45  75  94 136 190 233 280 354 427
#     4  12  23  48  71  97 143 191 233 286 355 432
#     4  12  24  45  72 102 136 187 240 283 351 434
#     4  12  27  46  69 105 144 188 233 289 362 423
#
# _framework density 20.333586
#
# number of rings (size 3 to 8) (size 9 to 14) (size 15 to 20)
#    0.000    0.000    8.750    1.125    1.750    3.500 
#    0.000    0.000    0.000    0.000    0.000    0.000 
#    0.000    0.000    0.000    0.000    0.000    0.000 
#
# Total GULP energy -179023.510602 kJ/mol
# GULP energy per Si atom -5594.484706 kJ/mol
# Density = 2.028731 g / cm^3
# Si number density = 20.333586 Si / 1000 Ang^3
#
#
#
# Elastic Constant Matrix: (Units=GPa)
#
#
# Indices 1 2 3 4 5 6 
#
# 1 40.0071 7.1589 -9.0713 0.0000 -6.2700 0.0000
# 2 7.1589 58.7888 6.8844 0.0000 4.8359 0.0000
# 3 -9.0713 6.8844 78.1480 0.0000 -5.3472 0.0000
# 4 0.0000 0.0000 0.0000 44.8183 0.0000 -8.6869
# 5 -6.2700 4.8359 -5.3472 0.0000 26.9117 0.0000
# 6 0.0000 0.0000 0.0000 -8.6869 0.0000 23.2813
#
#
#
# Elastic Compliance Matrix: (Units=1/GPa)
#
#
# Indices 1 2 3 4 5 6 
#
# 1 0.028059 -0.004586 0.004222 0.000000 0.008200 0.000000
# 2 -0.004586 0.018256 -0.002472 0.000000 -0.004840 0.000000
# 3 0.004222 -0.002472 0.013789 0.000000 0.004168 0.000000
# 4 0.000000 0.000000 0.000000 0.024052 0.000000 0.008974
# 5 0.008200 -0.004840 0.004168 0.000000 0.040767 0.000000
# 6 0.000000 0.000000 0.000000 0.008974 0.000000 0.046302
#
#
# Mechanical properties :
#
#
# Convention : Reuss Voigt Hill
#
# Bulk Modulus (GPa) = 18.37119 20.76532 19.56825
# Shear Modulus (GPa) = 25.63586 30.46704 28.05145
#
# Velocity S-wave (km/s) = 3.55458 3.87507 3.71828
# Velocity P-wave (km/s) = 5.08932 5.50055 5.29892
#
# Compressibility (1/GPa) = 0.05443307
#
# Stress axis : x y z
#
# Youngs Moduli (GPa) = 35.63972 54.77636 72.52027
#
# Poissons Ratio (x) = 0.25119 -0.30619
# Poissons Ratio (y) = 0.16343 0.17925
# Poissons Ratio (z) = -0.15047 0.13539
#
# Static dielectric constant tensor:
#      x y z
#    x 1.694260 0.000000 -0.019200 
#    y 0.000000 1.728410 0.000000 
#    z -0.019200 0.000000 1.719640 
# 
# From -- ./inp_files/34231.got.cif
#   From: 2010.05.17/outbox.cif.g08.bks.cpg/sg14_18_cif.got.tgz:34231.got - 2010.06.03 17:49:19.
