data_PCOD9253257
_publ_section_title
;
Structure prediction by ZEFSAII (Michael W. Deem and Ramdas Pophale) SiO2 
 PCOD9253257
Probable space group: P 21/C
;
_chemical_formula_sum "Si O2"
_cell_formula_units_Z 14
_cell_length_a 11.214955
_cell_length_b 8.141178
_cell_length_c 8.605178
_cell_angle_alpha 90.000000
_cell_angle_beta 42.385126
_cell_angle_gamma 90.000000
_cell_volume 529.633979
_symmetry_space_group_name_H-M "P 21/C"
_symmetry_group_IT_number 14
_symmetry_cell_setting 'monoclinic'
loop_
_space_group_symop_operation_xyz
x,y,z
-x,1/2+y,1/2-z
-x,-y,-z
x,1/2-y,1/2+z
loop_
_atom_site_type_symbol
_atom_site_label
_atom_site_fract_x
_atom_site_fract_y
_atom_site_fract_z
Si Si1 0.086351 0.534007 0.583720
Si Si2 0.780457 0.402640 0.078452
Si Si3 0.500000 0.500000 0.500000
Si Si4 0.444316 0.371082 0.187276
O O1 0.160604 0.717903 0.501985
O O2 0.247543 0.406388 0.430848
O O3 0.000000 0.500000 0.500000
O O4 0.926026 0.512179 0.857662
O O5 0.722399 0.461774 0.301601
O O6 0.575411 0.409924 0.207699
O O7 0.537847 0.690140 0.395632
O O8 0.500000 0.500000 0.000000
#
# Coordination Sequence:
#
# PCOD9253257 Si02
#       4
#     4   4   2   4
#     4  12  26  48  77 113 155 201 257 318 376 457
#     4  12  26  48  76 112 153 203 251 314 388 449
#     4  12  26  44  76 110 146 202 246 306 384 446
#     4  12  25  49  75 107 155 195 254 312 379 453
#
# _framework density 26.433350999999998
#
# number of rings (size 3 to 8) (size 9 to 14) (size 15 to 20)
#    0.000    0.000    5.714    3.429    0.000    4.571 
#    0.000   10.000    0.000    0.000    0.000    0.000 
#    0.000    0.000    0.000    0.000    0.000    0.000 
#
# Total GULP energy -78204.405713 kJ/mol
# GULP energy per Si atom -5586.028980 kJ/mol
# Density = 2.637319 g / cm^3
# Si number density = 26.433351 Si / 1000 Ang^3
#
#
#
# Elastic Constant Matrix: (Units=GPa)
#
#
# Indices 1 2 3 4 5 6 
#
# 1 113.3000 31.0202 36.6468 0.0000 -26.8138 0.0000
# 2 31.0202 249.9553 96.1061 0.0000 -10.5153 0.0000
# 3 36.6468 96.1061 290.0485 0.0000 -50.1004 0.0000
# 4 0.0000 0.0000 0.0000 81.3781 0.0000 2.7128
# 5 -26.8138 -10.5153 -50.1004 0.0000 52.4237 0.0000
# 6 0.0000 0.0000 0.0000 2.7128 0.0000 18.1701
#
#
#
# Elastic Compliance Matrix: (Units=1/GPa)
#
#
# Indices 1 2 3 4 5 6 
#
# 1 0.010319 -0.001032 -0.000103 0.000000 0.004972 0.000000
# 2 -0.001032 0.004706 -0.001625 0.000000 -0.001137 0.000000
# 3 -0.000103 -0.001625 0.004712 0.000000 0.004124 0.000000
# 4 0.000000 0.000000 0.000000 0.012350 0.000000 -0.001844
# 5 0.004972 -0.001137 0.004124 0.000000 0.025332 0.000000
# 6 0.000000 0.000000 0.000000 -0.001844 0.000000 0.055311
#
#
# Mechanical properties :
#
#
# Convention : Reuss Voigt Hill
#
# Bulk Modulus (GPa) = 70.34310 108.98334 89.66322
# Shear Modulus (GPa) = 40.65455 63.02975 51.84215
#
# Velocity S-wave (km/s) = 3.92599 4.88841 4.43339
# Velocity P-wave (km/s) = 6.87172 8.55459 7.75892
#
# Compressibility (1/GPa) = 0.01421604
#
# Stress axis : x y z
#
# Youngs Moduli (GPa) = 96.91125 212.50145 212.24159
#
# Poissons Ratio (x) = 0.21926 0.02185
# Poissons Ratio (y) = 0.09999 0.34496
# Poissons Ratio (z) = 0.00998 0.34538
#
# Static dielectric constant tensor:
#      x y z
#    x 2.103640 0.000000 0.634990 
#    y 0.000000 1.587130 0.000000 
#    z 0.634990 0.000000 5.295410 
# 
# From -- ./inp_files/11687.got.cif
#   From: 2010.05.17/outbox.cif.g08.bks.cpg/sg14_6_cif.got.tgz:11687.got - 2010.06.03 17:49:19.
