data_PCOD9253761
_publ_section_title
;
Structure prediction by ZEFSAII (Michael W. Deem and Ramdas Pophale) SiO2 
 PCOD9253761
Probable space group: C 2/C
;
_chemical_formula_sum "Si O2"
_cell_formula_units_Z 60
_cell_length_a 22.507256
_cell_length_b 17.918666
_cell_length_c 20.711714
_cell_angle_alpha 90.000000
_cell_angle_beta 22.649856
_cell_angle_gamma 90.000000
_cell_volume 3216.741066
_symmetry_space_group_name_H-M "C 2/C"
_symmetry_group_IT_number 15
_symmetry_cell_setting 'monoclinic'
loop_
_space_group_symop_operation_xyz
x,y,z
-x,y,1/2-z
-x,-y,-z
x,-y,1/2+z
1/2+x,1/2+y,z
1/2-x,1/2+y,1/2-z
1/2-x,1/2-y,-z
1/2+x,1/2-y,1/2+z
loop_
_atom_site_type_symbol
_atom_site_label
_atom_site_fract_x
_atom_site_fract_y
_atom_site_fract_z
Si Si1 0.013130 0.797690 0.337173
Si Si2 0.737544 0.951163 0.705706
Si Si3 0.237791 0.930409 0.059037
Si Si4 0.051106 0.081722 0.058077
Si Si5 0.500000 0.445448 0.750000
Si Si6 0.335883 0.147038 0.336012
Si Si7 0.244960 0.513983 0.827253
Si Si8 0.955238 0.142458 0.564736
O O1 0.122695 0.863920 0.199415
O O2 0.053224 0.717256 0.270348
O O3 0.043108 0.792338 0.384580
O O4 0.838776 0.820244 0.496508
O O5 0.643563 0.903126 0.748601
O O6 0.889287 0.902932 0.572955
O O7 0.809636 0.024114 0.597847
O O8 0.664615 0.971972 0.848281
O O9 0.326133 0.961677 0.033334
O O10 0.136510 0.998068 0.132545
O O11 0.332989 0.899610 0.904181
O O12 0.044427 0.098754 0.140539
O O13 0.053937 0.148791 0.003175
O O14 0.895241 0.035223 0.197057
O O15 0.315116 0.588445 0.725025
#
# Coordination Sequence:
#
# PCOD9253761 Si02
#       8
#     8   8   8   8   4   8   8   8
#     4  10  19  27  38  54  83 117 142 161 185 234
#     4   8  12  22  34  51  74 102 131 166 195 235
#     4  10  15  24  35  56  84 109 127 164 203 248
#     4   8  11  17  32  51  74  97 124 158 209 245
#     4  10  12  18  34  56  82 102 120 158 218 248
#     4  11  18  27  39  57  86 113 143 159 191 230
#     4   7  12  19  34  50  71 101 131 157 207 241
#     4   7  12  22  32  48  71 102 131 160 194 234
#
# _framework density 18.652419999999999
#
# number of rings (size 3 to 8) (size 9 to 14) (size 15 to 20)
#    0.000    3.200    2.667    3.600    0.000    0.000 
#    0.000    0.000    0.000    0.000    0.000    8.400 
#    0.000   17.067    0.000    0.000    0.000    0.000 
#
# Total GULP energy -167009.218648 kJ/mol
# GULP energy per Si atom -5566.973955 kJ/mol
# Density = 1.860997 g / cm^3
# Si number density = 18.652420 Si / 1000 Ang^3
#
#
#
# Elastic Constant Matrix: (Units=GPa)
#
#
# Indices 1 2 3 4 5 6 
#
# 1 133.8334 32.3578 58.6547 0.0003 53.0513 -0.0004
# 2 32.3578 25.2664 13.5494 0.0155 11.3078 -0.0049
# 3 58.6547 13.5494 4.5541 0.0042 2.8575 -0.0015
# 4 0.0003 0.0155 0.0042 10.5880 -0.0052 8.6370
# 5 53.0513 11.3078 2.8575 -0.0052 40.5621 0.0016
# 6 -0.0004 -0.0049 -0.0015 8.6370 0.0016 15.6135
#
#
#
# Elastic Compliance Matrix: (Units=1/GPa)
#
#
# Indices 1 2 3 4 5 6 
#
# 1 0.001391 -0.013077 0.020760 0.000023 0.000363 -0.000015
# 2 -0.013077 0.057337 -0.002996 -0.000175 0.001331 0.000114
# 3 0.020760 -0.002996 -0.023404 0.000002 -0.024668 -0.000002
# 4 0.000023 -0.000175 0.000002 0.172109 0.000044 -0.095206
# 5 0.000363 0.001331 -0.024668 0.000044 0.025545 -0.000029
# 6 -0.000015 0.000114 -0.000002 -0.095206 -0.000029 0.116713
#
#
# Mechanical properties :
#
#
# Convention : Reuss Voigt Hill
#
# Bulk Modulus (GPa) = 22.37230 41.41975 31.89603
# Shear Modulus (GPa) = 14.07591 17.29219 15.68405
#
# Velocity S-wave (km/s) = 2.75006 3.04809 2.90290
# Velocity P-wave (km/s) = 4.70150 5.88576 5.32664
#
# Compressibility (1/GPa) = 0.04469813
#
# Stress axis : x y z
#
# Youngs Moduli (GPa) = 718.74362 17.44073 -42.72771
#
# Poissons Ratio (x) = 0.22808 0.88702
# Poissons Ratio (y) = 9.39918 -0.12800
# Poissons Ratio (z) = -14.92101 0.05225
#
# Static dielectric constant tensor:
#      x y z
#    x 1.712990 0.000000 0.035800 
#    y 0.000000 1.618250 0.000010 
#    z 0.035800 0.000010 1.707910 
# 
# From -- ./inp_files/256118.got.cif
#   From: 2010.05.17/outbox.cif.g08.bks.cpg/sg15_129_cif.got.tgz:256118.got - 2010.06.03 18:47:42.
