data_PCOD9253893
_publ_section_title
;
Structure prediction by ZEFSAII (Michael W. Deem and Ramdas Pophale) SiO2 
 PCOD9253893
Probable space group: C 2/C
;
_chemical_formula_sum "Si O2"
_cell_formula_units_Z 56
_cell_length_a 24.109980
_cell_length_b 12.656205
_cell_length_c 19.199516
_cell_angle_alpha 90.000000
_cell_angle_beta 31.048234
_cell_angle_gamma 90.000000
_cell_volume 3021.606186
_symmetry_space_group_name_H-M "C 2/C"
_symmetry_group_IT_number 15
_symmetry_cell_setting 'monoclinic'
loop_
_space_group_symop_operation_xyz
x,y,z
-x,y,1/2-z
-x,-y,-z
x,-y,1/2+z
1/2+x,1/2+y,z
1/2-x,1/2+y,1/2-z
1/2-x,1/2-y,-z
1/2+x,1/2-y,1/2+z
loop_
_atom_site_type_symbol
_atom_site_label
_atom_site_fract_x
_atom_site_fract_y
_atom_site_fract_z
Si Si1 0.185324 0.616454 0.545522
Si Si2 0.500000 0.707591 0.250000
Si Si3 0.964742 0.562452 0.134945
Si Si4 0.460480 0.359456 0.941151
Si Si5 0.186518 0.836678 0.733577
Si Si6 0.401032 0.133029 0.063254
Si Si7 0.732769 0.902865 0.150699
Si Si8 0.000000 0.443063 0.750000
O O1 0.257861 0.626849 0.399122
O O2 0.248560 0.609335 0.550320
O O3 0.104984 0.516935 0.628157
O O4 0.103265 0.714947 0.639979
O O5 0.502253 0.638606 0.178723
O O6 0.953935 0.641579 0.082315
O O7 0.854470 0.494625 0.249019
O O8 0.983423 0.608906 0.191812
O O9 0.054176 0.473789 0.020146
O O10 0.567372 0.383293 0.869674
O O11 0.432853 0.236042 0.985227
O O12 0.346425 0.418129 0.067083
O O13 0.272021 0.867750 0.700438
O O14 0.183421 0.708549 0.730663
#
# Coordination Sequence:
#
# PCOD9253893 Si02
#       8
#     8   4   8   8   8   8   8   4
#     4  10  15  23  38  62  92 117 145 167 206 242
#     4  11  14  22  38  64  94 120 137 174 193 258
#     4  10  18  32  45  62  89 116 147 181 215 251
#     4  11  19  26  41  66  92 121 148 169 215 257
#     4  11  17  27  39  64  90 121 144 177 204 263
#     4  10  19  29  44  64  88 117 146 181 212 252
#     4  10  18  26  39  60  89 121 147 174 205 254
#     4   9  16  28  46  64  86 118 143 180 211 254
#
# _framework density 18.533190000000001
#
# number of rings (size 3 to 8) (size 9 to 14) (size 15 to 20)
#    0.000    1.714    7.143    2.143    0.000    0.000 
#    0.000    0.714    0.000    0.000    0.000    1.000 
#    0.000    0.000    0.000    0.000    0.000    0.000 
#
# Total GULP energy -156045.320995 kJ/mol
# GULP energy per Si atom -5573.047178 kJ/mol
# Density = 1.849101 g / cm^3
# Si number density = 18.533190 Si / 1000 Ang^3
#
#
#
# Elastic Constant Matrix: (Units=GPa)
#
#
# Indices 1 2 3 4 5 6 
#
# 1 108.5569 5.4047 23.8315 0.0000 -10.2876 0.0000
# 2 5.4047 8.1533 0.9479 0.0000 0.7429 0.0000
# 3 23.8315 0.9479 47.9363 0.0000 -25.4622 0.0000
# 4 0.0000 0.0000 0.0000 3.7126 0.0000 -3.2665
# 5 -10.2876 0.7429 -25.4622 0.0000 46.1653 0.0000
# 6 0.0000 0.0000 0.0000 -3.2665 0.0000 17.6506
#
#
#
# Elastic Compliance Matrix: (Units=1/GPa)
#
#
# Indices 1 2 3 4 5 6 
#
# 1 0.010680 -0.006396 -0.005465 0.000000 -0.000532 0.000000
# 2 -0.006396 0.127486 -0.001680 0.000000 -0.004403 0.000000
# 3 -0.005465 -0.001680 0.032500 0.000000 0.016734 0.000000
# 4 0.000000 0.000000 0.000000 0.321747 0.000000 0.059545
# 5 -0.000532 -0.004403 0.016734 0.000000 0.030843 0.000000
# 6 0.000000 0.000000 0.000000 0.059545 0.000000 0.067675
#
#
# Mechanical properties :
#
#
# Convention : Reuss Voigt Hill
#
# Bulk Modulus (GPa) = 6.96457 25.00162 15.98309
# Shear Modulus (GPa) = 7.50891 22.46985 14.98938
#
# Velocity S-wave (km/s) = 2.01504 3.48575 2.84700
# Velocity P-wave (km/s) = 3.02984 5.45161 4.41021
#
# Compressibility (1/GPa) = 0.14358393
#
# Stress axis : x y z
#
# Youngs Moduli (GPa) = 93.63664 7.84398 30.76921
#
# Poissons Ratio (x) = 0.05017 0.16816
# Poissons Ratio (y) = 0.59886 0.05170
# Poissons Ratio (z) = 0.51174 0.01318
#
# Static dielectric constant tensor:
#      x y z
#    x 1.714840 0.000000 -0.024520 
#    y 0.000000 1.618980 0.000000 
#    z -0.024520 0.000000 1.692670 
# 
# From -- ./inp_files/257406.got.cif
#   From: 2010.05.17/outbox.cif.g08.bks.cpg/sg15_129_cif.got.tgz:257406.got - 2010.06.03 18:47:42.
