data_PCOD9253679
_publ_section_title
;
Structure prediction by ZEFSAII (Michael W. Deem and Ramdas Pophale) SiO2 
 PCOD9253679
Probable space group: P 21/C
;
_chemical_formula_sum "Si O2"
_cell_formula_units_Z 28
_cell_length_a 9.000000
_cell_length_b 21.000000
_cell_length_c 9.000000
_cell_angle_alpha 90.000000
_cell_angle_beta 50.000000
_cell_angle_gamma 90.000000
_cell_volume 1303.041598
_symmetry_space_group_name_H-M "P 21/C"
_symmetry_group_IT_number 14
_symmetry_cell_setting 'monoclinic'
loop_
_space_group_symop_operation_xyz
x,y,z
-x,1/2+y,1/2-z
-x,-y,-z
x,1/2-y,1/2+z
loop_
_atom_site_type_symbol
_atom_site_label
_atom_site_fract_x
_atom_site_fract_y
_atom_site_fract_z
Si Si1 0.053100 0.813222 0.186841
Si Si2 0.201800 0.434739 0.119262
Si Si3 0.266176 0.114340 0.244241
Si Si4 0.353430 0.237357 0.672456
Si Si5 0.587819 0.611807 0.697136
Si Si6 0.164566 0.586139 0.086931
Si Si7 0.749825 0.294687 0.752258
O O1 0.135537 0.768981 0.266236
O O2 0.985715 0.886595 0.258313
O O3 0.851300 0.780849 0.268523
O O4 0.202276 0.805952 0.952012
O O5 0.310480 0.419024 0.212701
O O6 0.161388 0.511325 0.140718
O O7 0.302473 0.418019 0.889211
O O8 0.336321 0.187576 0.218154
O O9 0.035664 0.102828 0.368484
O O10 0.346711 0.096572 0.019034
O O11 0.378982 0.187568 0.793839
O O12 0.530721 0.219107 0.448126
O O13 0.360223 0.595379 0.863313
O O14 0.183072 0.640581 0.204235
#
# Coordination Sequence:
#
# PCOD9253679 Si02
#       7
#     4   4   4   4   4   4   4
#     4  11  24  43  66 106 134 182 232 296 359 422
#     4  11  26  46  75 106 149 194 242 298 365 442
#     4  12  25  44  73 105 147 191 240 304 361 434
#     4  10  24  40  69 103 137 180 242 300 355 422
#     4  10  26  45  72 105 146 193 241 306 362 430
#     4  11  24  49  72 106 149 192 243 301 362 441
#     4  11  25  41  73 100 140 184 236 299 362 426
#
# _framework density 21.488185999999999
#
# number of rings (size 3 to 8) (size 9 to 14) (size 15 to 20)
#    0.000    1.143    1.429    3.429    8.000    4.000 
#    0.000    2.857    0.000    0.000    0.000    0.000 
#    0.000    0.000    0.000    0.000    0.000    0.000 
#
# Total GULP energy -156299.806582 kJ/mol
# GULP energy per Si atom -5582.135949 kJ/mol
# Density = 2.143928 g / cm^3
# Si number density = 21.488186 Si / 1000 Ang^3
#
#
#
# Elastic Constant Matrix: (Units=GPa)
#
#
# Indices 1 2 3 4 5 6 
#
# 1 64.4606 16.5947 37.9010 0.0000 2.4927 0.0000
# 2 16.5947 155.6378 18.2872 0.0000 2.6276 0.0000
# 3 37.9010 18.2872 135.1070 0.0000 10.4483 0.0000
# 4 0.0000 0.0000 0.0000 37.2480 0.0000 -1.7860
# 5 2.4927 2.6276 10.4483 0.0000 49.0484 0.0000
# 6 0.0000 0.0000 0.0000 -1.7860 0.0000 26.5372
#
#
#
# Elastic Compliance Matrix: (Units=1/GPa)
#
#
# Indices 1 2 3 4 5 6 
#
# 1 0.018881 -0.001415 -0.005121 0.000000 0.000207 0.000000
# 2 -0.001415 0.006636 -0.000487 0.000000 -0.000180 0.000000
# 3 -0.005121 -0.000487 0.009031 0.000000 -0.001637 0.000000
# 4 0.000000 0.000000 0.000000 0.026934 0.000000 0.001813
# 5 0.000207 -0.000180 -0.001637 0.000000 0.020736 0.000000
# 6 0.000000 0.000000 0.000000 0.001813 0.000000 0.037805
#
#
# Mechanical properties :
#
#
# Convention : Reuss Voigt Hill
#
# Bulk Modulus (GPa) = 48.77818 55.64126 52.20972
# Shear Modulus (GPa) = 35.48542 41.39488 38.44015
#
# Velocity S-wave (km/s) = 4.06814 4.39384 4.23412
# Velocity P-wave (km/s) = 6.69445 7.18966 6.94647
#
# Compressibility (1/GPa) = 0.02050097
#
# Stress axis : x y z
#
# Youngs Moduli (GPa) = 52.96437 150.68536 110.73325
#
# Poissons Ratio (x) = 0.21321 0.56707
# Poissons Ratio (y) = 0.07494 0.05397
# Poissons Ratio (z) = 0.27123 0.07345
#
# Static dielectric constant tensor:
#      x y z
#    x 1.837190 0.000000 0.031040 
#    y 0.000000 1.785820 0.000000 
#    z 0.031040 0.000000 1.830240 
# 
# From -- ./inp_files/10375.got.cif
#   From: 2010.05.17/outbox.ucp.g08.bks.cvg/sg14_6_cif.got.tgz:10375.got - 2010.06.11 12:31:08.
