data_PCOD9253938
_publ_section_title
;
Structure prediction by ZEFSAII (Michael W. Deem and Ramdas Pophale) SiO2 
 PCOD9253938
Probable space group: C 2/C
;
_chemical_formula_sum "Si O2"
_cell_formula_units_Z 44
_cell_length_a 12.035829
_cell_length_b 24.186537
_cell_length_c 15.891393
_cell_angle_alpha 90.000000
_cell_angle_beta 157.894946
_cell_angle_gamma 90.000000
_cell_volume 1740.815717
_symmetry_space_group_name_H-M "C 2/C"
_symmetry_group_IT_number 15
_symmetry_cell_setting 'monoclinic'
loop_
_space_group_symop_operation_xyz
x,y,z
-x,y,1/2-z
-x,-y,-z
x,-y,1/2+z
1/2+x,1/2+y,z
1/2-x,1/2+y,1/2-z
1/2-x,1/2-y,-z
1/2+x,1/2-y,1/2+z
loop_
_atom_site_type_symbol
_atom_site_label
_atom_site_fract_x
_atom_site_fract_y
_atom_site_fract_z
Si Si1 0.084731 0.067378 0.662480
Si Si2 0.347433 0.545941 0.989954
Si Si3 0.905790 0.328553 0.392584
Si Si4 0.133499 0.789890 0.599888
Si Si5 0.301894 0.333845 0.516784
Si Si6 0.000000 0.634718 0.250000
O O1 0.776435 0.096901 0.468180
O O2 0.097946 0.061266 0.569756
O O3 0.344824 0.108150 0.877301
O O4 0.053629 0.003570 0.667245
O O5 0.389460 0.602290 0.069817
O O6 0.000000 0.529889 0.750000
O O7 0.863833 0.274665 0.420828
O O8 0.193540 0.322977 0.535269
O O9 0.628271 0.318395 0.135882
O O10 0.410710 0.825101 0.763994
O O11 0.034886 0.797830 0.627325
O O12 0.000000 0.327808 0.250000
#
# Coordination Sequence:
#
# PCOD9253938 Si02
#       6
#     8   8   8   8   8   4
#     4  10  18  25  44  69  99 124 152 195 242 288
#     4  10  15  27  46  68  98 121 152 198 250 273
#     4  10  19  33  48  72  99 125 163 195 235 281
#     4  10  20  31  48  67 101 131 156 197 232 284
#     4   9  15  30  46  70  96 123 159 196 237 277
#     4  10  18  30  42  68 102 126 160 184 244 290
#
# _framework density 25.275507999999999
#
# number of rings (size 3 to 8) (size 9 to 14) (size 15 to 20)
#    0.000    2.182    8.182    0.545    0.000    2.909 
#    0.000    0.000    0.000    0.000    0.000    1.273 
#    5.455    0.000    0.000    0.000    0.000    0.000 
#
# Total GULP energy -122933.603224 kJ/mol
# GULP energy per Si atom -5587.891056 kJ/mol
# Density = 2.521798 g / cm^3
# Si number density = 25.275508 Si / 1000 Ang^3
#
#
#
# Elastic Constant Matrix: (Units=GPa)
#
#
# Indices 1 2 3 4 5 6 
#
# 1 48.8802 22.8315 26.4612 0.0035 6.8019 0.0008
# 2 22.8315 176.9379 14.3169 0.0029 23.8144 0.0002
# 3 26.4612 14.3169 66.3864 0.0237 31.2687 0.0200
# 4 0.0035 0.0029 0.0237 29.8147 0.0027 0.9299
# 5 6.8019 23.8144 31.2687 0.0027 37.2876 0.0014
# 6 0.0008 0.0002 0.0200 0.9299 0.0014 17.6003
#
#
#
# Elastic Compliance Matrix: (Units=1/GPa)
#
#
# Indices 1 2 3 4 5 6 
#
# 1 0.029357 -0.003905 -0.015721 0.000008 0.010322 0.000015
# 2 -0.003905 0.006733 0.002966 -0.000002 -0.006075 -0.000003
# 3 -0.015721 0.002966 0.033439 -0.000022 -0.027068 -0.000034
# 4 0.000008 -0.000002 -0.000022 0.033596 0.000015 -0.001775
# 5 0.010322 -0.006075 -0.027068 0.000015 0.051515 0.000026
# 6 0.000015 -0.000003 -0.000034 -0.001775 0.000026 0.056911
#
#
# Mechanical properties :
#
#
# Convention : Reuss Voigt Hill
#
# Bulk Modulus (GPa) = 27.61787 46.60262 37.11024
# Shear Modulus (GPa) = 19.45973 32.18019 25.81996
#
# Velocity S-wave (km/s) = 2.77773 3.57203 3.19962
# Velocity P-wave (km/s) = 4.60848 5.95738 5.32581
#
# Compressibility (1/GPa) = 0.03620844
#
# Stress axis : x y z
#
# Youngs Moduli (GPa) = 34.06400 148.51542 29.90479
#
# Poissons Ratio (x) = 0.58000 0.47014
# Poissons Ratio (y) = 0.13303 -0.08870
# Poissons Ratio (z) = 0.53552 -0.44050
#
# Static dielectric constant tensor:
#      x y z
#    x 2.030120 -0.000010 -0.061380 
#    y -0.000010 2.020970 -0.000020 
#    z -0.061380 -0.000020 2.097120 
# 
# From -- ./inp_files/107009.got.cif
#   From: 2010.05.17/outbox.cif.g08.bks.cpg/sg15_54_cif.got.tgz:107009.got - 2010.06.03 18:47:42.
