data_PCOD9253886
_publ_section_title
;
Structure prediction by ZEFSAII (Michael W. Deem and Ramdas Pophale) SiO2 
 PCOD9253886
Probable space group: C 2/C
;
_chemical_formula_sum "Si O2"
_cell_formula_units_Z 56
_cell_length_a 13.493942
_cell_length_b 9.192192
_cell_length_c 22.185600
_cell_angle_alpha 90.000000
_cell_angle_beta 62.075778
_cell_angle_gamma 90.000000
_cell_volume 2431.470203
_symmetry_space_group_name_H-M "C 2/C"
_symmetry_group_IT_number 15
_symmetry_cell_setting 'monoclinic'
loop_
_space_group_symop_operation_xyz
x,y,z
-x,y,1/2-z
-x,-y,-z
x,-y,1/2+z
1/2+x,1/2+y,z
1/2-x,1/2+y,1/2-z
1/2-x,1/2-y,-z
1/2+x,1/2-y,1/2+z
loop_
_atom_site_type_symbol
_atom_site_label
_atom_site_fract_x
_atom_site_fract_y
_atom_site_fract_z
Si Si1 0.433426 0.647700 0.320085
Si Si2 0.966713 0.555684 0.672019
Si Si3 0.374931 0.217079 0.267970
Si Si4 0.796464 0.791016 0.162054
Si Si5 0.603687 0.963047 0.929329
Si Si6 0.705904 0.584214 0.031982
Si Si7 0.221997 0.444034 0.605931
O O1 0.500000 0.560169 0.250000
O O2 0.487678 0.786697 0.191572
O O3 0.314811 0.699499 0.325137
O O4 0.220785 0.944975 0.363624
O O5 0.900046 0.447321 0.734856
O O6 0.902223 0.561843 0.627768
O O7 0.093534 0.493648 0.626639
O O8 0.500000 0.264440 0.250000
O O9 0.320242 0.295865 0.226306
O O10 0.299378 0.201650 0.349370
O O11 0.893950 0.698857 0.100800
O O12 0.594328 0.592916 0.104553
O O13 0.706310 0.975466 0.944832
O O14 0.500000 0.000000 0.000000
O O15 0.709020 0.475399 0.974581
O O16 0.750000 0.750000 0.000000
#
# Coordination Sequence:
#
# PCOD9253886 Si02
#       7
#     8   8   8   8   8   8   8
#     4  10  18  29  45  66  99 135 170 199 246 302
#     4   9  15  23  39  64  94 129 154 195 242 297
#     4   9  18  29  45  70  97 127 163 202 253 300
#     4   9  18  28  44  67  98 135 161 199 254 303
#     4  10  15  22  37  63 100 132 158 192 250 308
#     4  11  17  26  41  66 102 138 161 202 253 295
#     4  10  16  28  43  64 100 132 161 204 247 300
#
# _framework density 23.031334000000001
#
# number of rings (size 3 to 8) (size 9 to 14) (size 15 to 20)
#    0.000    2.286    5.714    2.143    0.000    0.000 
#    0.000    0.000    0.000    1.714    0.000    0.000 
#    0.000   13.429    0.000    0.000    0.000    3.429 
#
# Total GULP energy -156148.534677 kJ/mol
# GULP energy per Si atom -5576.733381 kJ/mol
# Density = 2.297891 g / cm^3
# Si number density = 23.031334 Si / 1000 Ang^3
#
#
#
# Elastic Constant Matrix: (Units=GPa)
#
#
# Indices 1 2 3 4 5 6 
#
# 1 59.1106 32.5264 42.4305 0.0000 29.1247 0.0000
# 2 32.5264 44.3870 33.0801 0.0000 8.9820 0.0000
# 3 42.4305 33.0801 171.8709 0.0000 20.0856 0.0000
# 4 0.0000 0.0000 0.0000 -16.6845 0.0000 13.6176
# 5 29.1247 8.9820 20.0856 0.0000 56.7018 0.0000
# 6 0.0000 0.0000 0.0000 13.6176 0.0000 6.5494
#
#
#
# Elastic Compliance Matrix: (Units=1/GPa)
#
#
# Indices 1 2 3 4 5 6 
#
# 1 0.040164 -0.023630 -0.003540 0.000000 -0.015633 0.000000
# 2 -0.023630 0.040542 -0.002751 0.000000 0.006690 0.000000
# 3 -0.003540 -0.002751 0.007259 0.000000 -0.000317 0.000000
# 4 0.000000 0.000000 0.000000 -0.022223 0.000000 0.046206
# 5 -0.015633 0.006690 -0.000317 0.000000 0.024718 0.000000
# 6 0.000000 0.000000 0.000000 0.046206 0.000000 0.056613
#
#
# Mechanical properties :
#
#
# Convention : Reuss Voigt Hill
#
# Bulk Modulus (GPa) = 35.56023 54.60472 45.08247
# Shear Modulus (GPa) = 23.11709 20.46877 21.79293
#
# Velocity S-wave (km/s) = 3.17160 2.98440 3.07942
# Velocity P-wave (km/s) = 5.37452 5.96958 5.67985
#
# Compressibility (1/GPa) = 0.02812131
#
# Stress axis : x y z
#
# Youngs Moduli (GPa) = 24.89784 24.66599 137.76081
#
# Poissons Ratio (x) = 0.58286 0.48774
# Poissons Ratio (y) = 0.58833 0.37902
# Poissons Ratio (z) = 0.08815 0.06786
#
# Static dielectric constant tensor:
#      x y z
#    x 1.858430 0.000000 -0.034360 
#    y 0.000000 1.897290 0.000000 
#    z -0.034360 0.000000 1.955080 
# 
# From -- ./inp_files/244068.got.cif
#   From: 2010.05.17/outbox.cif.g08.bks.cpg/sg15_123_cif.got.tgz:244068.got - 2010.06.03 18:47:42.
