data_PCOD9253705
_publ_section_title
;
Structure prediction by ZEFSAII (Michael W. Deem and Ramdas Pophale) SiO2 
 PCOD9253705
Probable space group: P 21/C
;
_chemical_formula_sum "Si O2"
_cell_formula_units_Z 28
_cell_length_a 24.000000
_cell_length_b 15.000000
_cell_length_c 21.000000
_cell_angle_alpha 90.000000
_cell_angle_beta 170.000000
_cell_angle_gamma 90.000000
_cell_volume 1312.780223
_symmetry_space_group_name_H-M "P 21/C"
_symmetry_group_IT_number 14
_symmetry_cell_setting 'monoclinic'
loop_
_space_group_symop_operation_xyz
x,y,z
-x,1/2+y,1/2-z
-x,-y,-z
x,1/2-y,1/2+z
loop_
_atom_site_type_symbol
_atom_site_label
_atom_site_fract_x
_atom_site_fract_y
_atom_site_fract_z
Si Si1 0.918499 0.602898 0.724142
Si Si2 0.542291 0.709224 0.390681
Si Si3 0.433828 0.667591 0.964348
Si Si4 0.869737 0.976607 0.423122
Si Si5 0.199848 0.404156 0.818184
Si Si6 0.075897 0.213245 0.556267
Si Si7 0.779974 0.979742 0.931593
O O1 0.610122 0.655121 0.402917
O O2 0.858011 0.555823 0.589320
O O3 0.206845 0.674981 0.041392
O O4 0.999880 0.530321 0.869880
O O5 0.607790 0.813041 0.451481
O O6 0.818923 0.684679 0.753949
O O7 0.126255 0.618663 0.587314
O O8 0.260885 0.735844 0.818348
O O9 0.634974 0.722363 0.139109
O O10 0.688383 0.602417 0.283176
O O11 0.927990 0.871014 0.494175
O O12 0.000000 0.000000 0.500000
O O13 0.500000 0.000000 0.000000
O O14 0.069490 0.460476 0.731002
O O15 0.451934 0.463541 0.063771
#
# Coordination Sequence:
#
# PCOD9253705 Si02
#       7
#     4   4   4   4   4   4   4
#     4  12  24  43  65  94 137 176 207 268 336 390
#     4  11  22  42  68  93 124 172 217 267 322 390
#     4  11  23  41  68  97 130 169 217 280 317 384
#     4  12  22  40  68  93 128 171 220 271 311 389
#     4  11  23  43  71  93 128 172 229 265 318 397
#     4  11  21  39  67  98 125 164 226 266 324 380
#     4  12  25  44  64 101 133 173 217 270 336 387
#
# _framework density 21.328779999999998
#
# number of rings (size 3 to 8) (size 9 to 14) (size 15 to 20)
#    0.000    0.571    2.857    7.714    0.000    0.000 
#    7.714    0.000    0.000    0.000    0.000    0.000 
#    0.000    0.000    0.000    0.000    0.000    0.000 
#
# Total GULP energy -156554.447355 kJ/mol
# GULP energy per Si atom -5591.230263 kJ/mol
# Density = 2.128023 g / cm^3
# Si number density = 21.328780 Si / 1000 Ang^3
#
#
#
# Elastic Constant Matrix: (Units=GPa)
#
#
# Indices 1 2 3 4 5 6 
#
# 1 74.8953 53.5673 21.8727 0.0000 18.0620 0.0000
# 2 53.5673 105.0664 17.8435 0.0000 -2.4738 0.0000
# 3 21.8727 17.8435 37.4077 0.0000 17.1505 0.0000
# 4 0.0000 0.0000 0.0000 -5.9458 0.0000 17.1109
# 5 18.0620 -2.4738 17.1505 0.0000 39.9411 0.0000
# 6 0.0000 0.0000 0.0000 17.1109 0.0000 41.7595
#
#
#
# Elastic Compliance Matrix: (Units=1/GPa)
#
#
# Indices 1 2 3 4 5 6 
#
# 1 0.026638 -0.013117 -0.004263 0.000000 -0.011028 0.000000
# 2 -0.013117 0.017210 -0.004666 0.000000 0.009001 0.000000
# 3 -0.004263 -0.004666 0.038225 0.000000 -0.014775 0.000000
# 4 0.000000 0.000000 0.000000 -0.077178 0.000000 0.031624
# 5 -0.011028 0.009001 -0.014775 0.000000 0.036926 0.000000
# 6 0.000000 0.000000 0.000000 0.031624 0.000000 0.010989
#
#
# Mechanical properties :
#
#
# Convention : Reuss Voigt Hill
#
# Bulk Modulus (GPa) = 26.32917 44.88181 35.60549
# Shear Modulus (GPa) = 45.63669 23.42334 34.53001
#
# Velocity S-wave (km/s) = 4.63068 3.31751 4.02797
# Velocity P-wave (km/s) = 6.40017 5.98022 6.19376
#
# Compressibility (1/GPa) = 0.03798068
#
# Stress axis : x y z
#
# Youngs Moduli (GPa) = 37.54017 58.10636 26.16115
#
# Poissons Ratio (x) = 0.76218 0.11152
# Poissons Ratio (y) = 0.49241 0.12208
# Poissons Ratio (z) = 0.16002 0.27114
#
# Static dielectric constant tensor:
#      x y z
#    x 1.794060 0.000000 0.026920 
#    y 0.000000 1.846240 0.000000 
#    z 0.026920 0.000000 1.723920 
# 
# From -- ./inp_files/70305.got.cif
#   From: 2010.05.17/outbox.ucp.g08.bks.cvg/sg14_36_cif.got.tgz:70305.got - 2010.06.11 12:31:08.
