data_PCOD9253692
_publ_section_title
;
Structure prediction by ZEFSAII (Michael W. Deem and Ramdas Pophale) SiO2 
 PCOD9253692
Probable space group: P 21/C
;
_chemical_formula_sum "Si O2"
_cell_formula_units_Z 28
_cell_length_a 9.000000
_cell_length_b 15.000000
_cell_length_c 12.000000
_cell_angle_alpha 90.000000
_cell_angle_beta 110.000000
_cell_angle_gamma 90.000000
_cell_volume 1522.302046
_symmetry_space_group_name_H-M "P 21/C"
_symmetry_group_IT_number 14
_symmetry_cell_setting 'monoclinic'
loop_
_space_group_symop_operation_xyz
x,y,z
-x,1/2+y,1/2-z
-x,-y,-z
x,1/2-y,1/2+z
loop_
_atom_site_type_symbol
_atom_site_label
_atom_site_fract_x
_atom_site_fract_y
_atom_site_fract_z
Si Si1 0.659088 0.813151 0.785870
Si Si2 0.491172 0.132972 0.682930
Si Si3 0.900689 0.416515 0.427709
Si Si4 0.564626 0.501790 0.387988
Si Si5 0.773193 0.889798 0.574753
Si Si6 0.833845 0.094196 0.659861
Si Si7 0.020436 0.224696 0.534474
O O1 0.534533 0.730930 0.767324
O O2 0.702055 0.849796 0.672748
O O3 0.820852 0.766118 0.869198
O O4 0.603321 0.898449 0.847949
O O5 0.465871 0.055449 0.770373
O O6 0.362017 0.117843 0.553585
O O7 0.660598 0.124967 0.662501
O O8 0.726136 0.445573 0.420471
O O9 0.926872 0.414062 0.300930
O O10 0.000000 0.500000 0.500000
O O11 0.931430 0.315965 0.477465
O O12 0.500000 0.500000 0.500000
O O13 0.918847 0.833205 0.557319
O O14 0.816689 0.993756 0.606444
O O15 0.919353 0.161551 0.593936
#
# Coordination Sequence:
#
# PCOD9253692 Si02
#       7
#     4   4   4   4   4   4   4
#     4  11  23  43  67  91 129 170 206 262 320 375
#     4  10  25  40  67  95 125 170 206 266 316 374
#     4  11  22  42  65  90 130 167 206 263 314 373
#     4  11  25  43  64  97 127 163 216 259 316 378
#     4  11  22  44  66  91 132 165 212 260 319 375
#     4  11  23  42  62  96 128 162 219 260 314 374
#     4  11  24  39  65  95 125 173 208 258 316 383
#
# _framework density 18.393196
#
# number of rings (size 3 to 8) (size 9 to 14) (size 15 to 20)
#    0.000    1.143    4.286    1.714    6.000    3.429 
#    0.000    1.429    0.000    0.000    0.000    0.000 
#    0.000    0.000    0.000    0.000    0.000    0.000 
#
# Total GULP energy -156085.847942 kJ/mol
# GULP energy per Si atom -5574.494569 kJ/mol
# Density = 1.835133 g / cm^3
# Si number density = 18.393196 Si / 1000 Ang^3
#
#
#
# Elastic Constant Matrix: (Units=GPa)
#
#
# Indices 1 2 3 4 5 6 
#
# 1 86.9098 68.5414 46.3339 0.0000 -36.1515 0.0000
# 2 68.5414 208.9988 75.0414 0.0000 -26.4599 0.0000
# 3 46.3339 75.0414 122.6252 0.0000 -35.9315 0.0000
# 4 0.0000 0.0000 0.0000 46.7330 0.0000 -8.7239
# 5 -36.1515 -26.4599 -35.9315 0.0000 43.0882 0.0000
# 6 0.0000 0.0000 0.0000 -8.7239 0.0000 51.6263
#
#
#
# Elastic Compliance Matrix: (Units=1/GPa)
#
#
# Indices 1 2 3 4 5 6 
#
# 1 0.022083 -0.005041 -0.000976 0.000000 0.014618 0.000000
# 2 -0.005041 0.007306 -0.003296 0.000000 -0.002492 0.000000
# 3 -0.000976 -0.003296 0.012847 0.000000 0.007870 0.000000
# 4 0.000000 0.000000 0.000000 0.022095 0.000000 0.003734
# 5 0.014618 -0.002492 0.007870 0.000000 0.040506 0.000000
# 6 0.000000 0.000000 0.000000 0.003734 0.000000 0.020001
#
#
# Mechanical properties :
#
#
# Convention : Reuss Voigt Hill
#
# Bulk Modulus (GPa) = 42.35541 88.70745 65.53143
# Shear Modulus (GPa) = 33.03959 43.53065 38.28512
#
# Velocity S-wave (km/s) = 4.24287 4.87012 4.56728
# Velocity P-wave (km/s) = 6.86151 8.94188 7.96987
#
# Compressibility (1/GPa) = 0.02360973
#
# Stress axis : x y z
#
# Youngs Moduli (GPa) = 45.28449 136.87341 77.83939
#
# Poissons Ratio (x) = 0.68998 0.07594
# Poissons Ratio (y) = 0.22828 0.25659
# Poissons Ratio (z) = 0.04418 0.45119
#
# Static dielectric constant tensor:
#      x y z
#    x 1.663220 0.000000 0.064220 
#    y 0.000000 1.642860 0.000000 
#    z 0.064220 0.000000 1.691000 
# 
# From -- ./inp_files/25287.got.cif
#   From: 2010.05.17/outbox.ucp.g08.bks.cvg/sg14_13_cif.got.tgz:25287.got - 2010.06.11 12:31:08.
