data_PCOD9253492
_publ_section_title
;
Structure prediction by ZEFSAII (Michael W. Deem and Ramdas Pophale) SiO2 
 PCOD9253492
Probable space group: P 21/C
;
_chemical_formula_sum "Si O2"
_cell_formula_units_Z 28
_cell_length_a 30.000000
_cell_length_b 9.000000
_cell_length_c 30.000000
_cell_angle_alpha 90.000000
_cell_angle_beta 170.000000
_cell_angle_gamma 90.000000
_cell_volume 1406.550239
_symmetry_space_group_name_H-M "P 21/C"
_symmetry_group_IT_number 14
_symmetry_cell_setting 'monoclinic'
loop_
_space_group_symop_operation_xyz
x,y,z
-x,1/2+y,1/2-z
-x,-y,-z
x,1/2-y,1/2+z
loop_
_atom_site_type_symbol
_atom_site_label
_atom_site_fract_x
_atom_site_fract_y
_atom_site_fract_z
Si Si1 0.973288 0.080079 0.677908
Si Si2 0.056798 0.930048 0.449914
Si Si3 0.526351 0.927667 0.977134
Si Si4 0.476596 0.430278 0.026596
Si Si5 0.772423 0.969604 0.981577
Si Si6 0.057016 0.930270 0.947878
Si Si7 0.559823 0.752637 0.332223
O O1 0.954902 0.002866 0.611613
O O2 0.703325 0.161792 0.418934
O O3 0.048312 0.995624 0.798045
O O4 0.215763 0.194862 0.914085
O O5 0.071188 0.749997 0.457155
O O6 0.798586 0.965154 0.222671
O O7 0.299563 0.972701 0.719526
O O8 0.515401 0.748647 0.971032
O O9 0.500000 0.000000 0.000000
O O10 0.212427 0.466929 0.793022
O O11 0.500000 0.500000 0.000000
O O12 0.713155 0.473773 0.291907
O O13 0.897614 0.997410 0.056589
O O14 0.530584 0.080572 0.748789
O O15 0.671457 0.803015 0.894239
#
# Coordination Sequence:
#
# PCOD9253492 Si02
#       7
#     4   4   4   4   4   4   4
#     4  10  22  35  60  86 124 153 203 245 291 346
#     4  10  19  36  60  88 109 157 197 239 283 359
#     4  10  21  37  63  87 111 147 197 246 299 352
#     4  10  22  39  62  84 116 147 194 247 305 347
#     4  10  24  37  63  88 125 159 208 243 300 348
#     4  10  21  35  65  84 111 158 205 231 284 374
#     4  10  23  35  61  83 125 159 200 247 292 340
#
# _framework density 19.906860999999999
#
# number of rings (size 3 to 8) (size 9 to 14) (size 15 to 20)
#    0.857    1.143    1.429    1.714    8.000    0.000 
#    0.000    1.429    6.286    0.000    0.000    0.000 
#    0.000    0.000    0.000    0.000    0.000    0.000 
#
# Total GULP energy -156222.015032 kJ/mol
# GULP energy per Si atom -5579.357680 kJ/mol
# Density = 1.986155 g / cm^3
# Si number density = 19.906861 Si / 1000 Ang^3
#
#
#
# Elastic Constant Matrix: (Units=GPa)
#
#
# Indices 1 2 3 4 5 6 
#
# 1 200.7429 30.6989 78.5298 0.0000 -10.3193 0.0000
# 2 30.6989 18.9138 13.2467 0.0000 3.6794 0.0000
# 3 78.5298 13.2467 175.3658 0.0000 -6.9736 0.0000
# 4 0.0000 0.0000 0.0000 19.0641 0.0000 1.7123
# 5 -10.3193 3.6794 -6.9736 0.0000 41.7362 0.0000
# 6 0.0000 0.0000 0.0000 1.7123 0.0000 35.1021
#
#
#
# Elastic Compliance Matrix: (Units=1/GPa)
#
#
# Indices 1 2 3 4 5 6 
#
# 1 0.007865 -0.011468 -0.002555 0.000000 0.002529 0.000000
# 2 -0.011468 0.073908 -0.000825 0.000000 -0.009489 0.000000
# 3 -0.002555 -0.000825 0.006933 0.000000 0.000599 0.000000
# 4 0.000000 0.000000 0.000000 0.052685 0.000000 -0.002570
# 5 0.002529 -0.009489 0.000599 0.000000 0.025522 0.000000
# 6 0.000000 0.000000 0.000000 -0.002570 0.000000 0.028614
#
#
# Mechanical properties :
#
#
# Convention : Reuss Voigt Hill
#
# Bulk Modulus (GPa) = 16.94622 71.10815 44.02719
# Shear Modulus (GPa) = 20.41721 37.35030 28.88376
#
# Velocity S-wave (km/s) = 3.20603 4.33627 3.81326
# Velocity P-wave (km/s) = 4.71551 7.80186 6.44613
#
# Compressibility (1/GPa) = 0.05901021
#
# Stress axis : x y z
#
# Youngs Moduli (GPa) = 127.15029 13.53035 144.24419
#
# Poissons Ratio (x) = 0.15516 0.36856
# Poissons Ratio (y) = 1.45810 0.11899
# Poissons Ratio (z) = 0.32488 0.01116
#
# Static dielectric constant tensor:
#      x y z
#    x 1.694670 0.000000 -0.005040 
#    y 0.000000 1.747820 0.000000 
#    z -0.005040 0.000000 1.712000 
# 
# From -- ./inp_files/80915.got.cif
#   From: 2010.05.17/outbox.ucp.g08.bks.cvg/sg14_41_cif.got.tgz:80915.got - 2010.06.11 12:31:08.
