data_PCOD9253405
_publ_section_title
;
Structure prediction by ZEFSAII (Michael W. Deem and Ramdas Pophale) SiO2 
 PCOD9253405
Probable space group: P 21/C
;
_chemical_formula_sum "Si O2"
_cell_formula_units_Z 24
_cell_length_a 8.846959
_cell_length_b 9.790044
_cell_length_c 9.979979
_cell_angle_alpha 90.000000
_cell_angle_beta 80.942964
_cell_angle_gamma 90.000000
_cell_volume 853.610048
_symmetry_space_group_name_H-M "P 21/C"
_symmetry_group_IT_number 14
_symmetry_cell_setting 'monoclinic'
loop_
_space_group_symop_operation_xyz
x,y,z
-x,1/2+y,1/2-z
-x,-y,-z
x,1/2-y,1/2+z
loop_
_atom_site_type_symbol
_atom_site_label
_atom_site_fract_x
_atom_site_fract_y
_atom_site_fract_z
Si Si1 0.132396 0.682110 0.990797
Si Si2 0.330914 0.430327 0.007329
Si Si3 0.682975 0.676060 0.295662
Si Si4 0.880602 0.883933 0.987411
Si Si5 0.576960 0.511632 0.671463
Si Si6 0.314515 0.738869 0.707986
O O1 0.185074 0.531268 0.024786
O O2 0.247221 0.771261 0.068790
O O3 0.184262 0.699037 0.830998
O O4 0.274094 0.078169 0.914281
O O5 0.317473 0.322952 0.130555
O O6 0.500000 0.500000 0.000000
O O7 0.331927 0.360529 0.858895
O O8 0.964518 0.745453 0.023461
O O9 0.838908 0.617020 0.336392
O O10 0.540597 0.594376 0.383061
O O11 0.000000 0.000000 0.000000
O O12 0.456189 0.636545 0.715344
O O13 0.646971 0.396793 0.763752
#
# Coordination Sequence:
#
# PCOD9253405 Si02
#       6
#     4   4   4   4   4   4
#     4  12  29  57  86 134 192 245 316 406 489 570
#     4  12  30  56  92 141 185 249 328 408 476 589
#     4  12  30  54  91 133 187 249 322 384 489 579
#     4  12  29  54  87 133 187 251 313 399 488 582
#     4  12  28  52  92 131 178 249 321 395 483 578
#     4  12  29  52  89 131 183 242 325 393 480 588
#
# _framework density 28.115881000000002
#
# number of rings (size 3 to 8) (size 9 to 14) (size 15 to 20)
#    0.000    0.000    3.333    3.500    9.333    3.333 
#    0.000    0.000    0.000    0.000    0.000    0.000 
#    0.000    0.000    0.000    0.000    0.000    0.000 
#
# Total GULP energy -134400.999705 kJ/mol
# GULP energy per Si atom -5600.041654 kJ/mol
# Density = 2.805189 g / cm^3
# Si number density = 28.115881 Si / 1000 Ang^3
#
#
#
# Elastic Constant Matrix: (Units=GPa)
#
#
# Indices 1 2 3 4 5 6 
#
# 1 185.8765 74.7049 61.8825 0.0000 5.2691 0.0000
# 2 74.7049 205.1550 52.3775 0.0000 -6.1047 0.0000
# 3 61.8825 52.3775 133.5057 0.0000 22.1460 0.0000
# 4 0.0000 0.0000 0.0000 47.8562 0.0000 -6.1857
# 5 5.2691 -6.1047 22.1460 0.0000 61.4487 0.0000
# 6 0.0000 0.0000 0.0000 -6.1857 0.0000 71.2281
#
#
#
# Elastic Compliance Matrix: (Units=1/GPa)
#
#
# Indices 1 2 3 4 5 6 
#
# 1 0.006973 -0.001895 -0.002508 0.000000 0.000118 0.000000
# 2 -0.001895 0.006046 -0.001723 0.000000 0.001384 0.000000
# 3 -0.002508 -0.001723 0.009914 0.000000 -0.003529 0.000000
# 4 0.000000 0.000000 0.000000 0.021133 0.000000 0.001835
# 5 0.000118 0.001384 -0.003529 0.000000 0.017673 0.000000
# 6 0.000000 0.000000 0.000000 0.001835 0.000000 0.014199
#
#
# Mechanical properties :
#
#
# Convention : Reuss Voigt Hill
#
# Bulk Modulus (GPa) = 93.63048 100.27411 96.95229
# Shear Modulus (GPa) = 54.49511 58.47808 56.48660
#
# Velocity S-wave (km/s) = 4.40731 4.56553 4.48712
# Velocity P-wave (km/s) = 7.69890 7.97083 7.83605
#
# Compressibility (1/GPa) = 0.01068028
#
# Stress axis : x y z
#
# Youngs Moduli (GPa) = 143.40213 165.40952 100.86479
#
# Poissons Ratio (x) = 0.31352 0.25299
# Poissons Ratio (y) = 0.27181 0.17378
# Poissons Ratio (z) = 0.35968 0.28498
#
# Static dielectric constant tensor:
#      x y z
#    x 2.148090 0.000000 0.093290 
#    y 0.000000 2.370420 0.000000 
#    z 0.093290 0.000000 2.393490 
# 
# From -- ./inp_files/28020.got.cif
#   From: 2010.05.17/outbox.cif.g08.bks.cpg/sg14_15_cif.got.tgz:28020.got - 2010.06.03 17:49:19.
