data_PCOD9253623
_publ_section_title
;
Structure prediction by ZEFSAII (Michael W. Deem and Ramdas Pophale) SiO2 
 PCOD9253623
Probable space group: P 21/C
;
_chemical_formula_sum "Si O2"
_cell_formula_units_Z 32
_cell_length_a 24.000000
_cell_length_b 9.000000
_cell_length_c 9.000000
_cell_angle_alpha 90.000000
_cell_angle_beta 120.000000
_cell_angle_gamma 90.000000
_cell_volume 1683.553385
_symmetry_space_group_name_H-M "P 21/C"
_symmetry_group_IT_number 14
_symmetry_cell_setting 'monoclinic'
loop_
_space_group_symop_operation_xyz
x,y,z
-x,1/2+y,1/2-z
-x,-y,-z
x,1/2-y,1/2+z
loop_
_atom_site_type_symbol
_atom_site_label
_atom_site_fract_x
_atom_site_fract_y
_atom_site_fract_z
Si Si1 0.941901 0.888026 0.745530
Si Si2 0.690597 0.573505 0.341692
Si Si3 0.806759 0.108774 0.866278
Si Si4 0.560277 0.915492 0.153616
Si Si5 0.695895 0.902650 0.208750
Si Si6 0.813356 0.427067 0.020716
Si Si7 0.935072 0.927958 0.087586
Si Si8 0.439724 0.414026 0.984446
O O1 0.934895 0.722181 0.679193
O O2 0.880000 0.981859 0.611393
O O3 0.945970 0.888044 0.929352
O O4 0.007597 0.965955 0.781042
O O5 0.745297 0.460125 0.365562
O O6 0.701548 0.733566 0.277093
O O7 0.690539 0.592898 0.521276
O O8 0.624027 0.519886 0.178350
O O9 0.798308 0.100231 0.676028
O O10 0.819916 0.273465 0.941835
O O11 0.867396 0.010745 0.997135
O O12 0.630027 0.970836 0.189223
O O13 0.560528 0.913915 0.335000
O O14 0.556628 0.751396 0.077939
O O15 0.500000 0.000000 0.000000
O O16 0.757045 0.985496 0.359847
O O17 0.500000 0.500000 0.000000
#
# Coordination Sequence:
#
# PCOD9253623 Si02
#       8
#     4   4   4   4   4   4   4   4
#     4  10  22  39  60  87 118 153 194 239 289 346
#     4  11  22  39  61  86 116 153 195 240 291 347
#     4  11  23  39  59  86 118 153 195 242 293 348
#     4  11  22  39  61  88 119 154 195 240 291 347
#     4  11  22  39  61  86 116 153 195 240 291 347
#     4  11  23  39  59  86 118 153 195 242 293 348
#     4  10  22  39  60  87 118 153 194 239 289 346
#     4  11  22  39  61  88 119 154 195 240 291 347
#
# _framework density 19.007415999999999
#
# number of rings (size 3 to 8) (size 9 to 14) (size 15 to 20)
#    0.000    1.250    0.000    8.250    0.000    5.500 
#    0.000    5.000    0.000    0.000    0.000    0.000 
#    0.000    0.000    0.000    0.000    0.000    0.000 
#
# Total GULP energy -178756.244293 kJ/mol
# GULP energy per Si atom -5586.132634 kJ/mol
# Density = 1.896415 g / cm^3
# Si number density = 19.007416 Si / 1000 Ang^3
#
#
#
# Elastic Constant Matrix: (Units=GPa)
#
#
# Indices 1 2 3 4 5 6 
#
# 1 66.9377 5.0930 46.7935 0.0000 8.8426 0.0000
# 2 5.0930 43.3862 18.2572 0.0000 12.8893 0.0000
# 3 46.7935 18.2572 154.2343 0.0000 3.3339 0.0000
# 4 0.0000 0.0000 0.0000 30.2912 0.0000 -1.0258
# 5 8.8426 12.8893 3.3339 0.0000 32.5738 0.0000
# 6 0.0000 0.0000 0.0000 -1.0258 0.0000 30.0115
#
#
#
# Elastic Compliance Matrix: (Units=1/GPa)
#
#
# Indices 1 2 3 4 5 6 
#
# 1 0.019792 0.001878 -0.006108 0.000000 -0.005491 0.000000
# 2 0.001878 0.027634 -0.003602 0.000000 -0.011076 0.000000
# 3 -0.006108 -0.003602 0.008716 0.000000 0.002191 0.000000
# 4 0.000000 0.000000 0.000000 0.033051 0.000000 0.001130
# 5 -0.005491 -0.011076 0.002191 0.000000 0.036349 0.000000
# 6 0.000000 0.000000 0.000000 0.001130 0.000000 0.033359
#
#
# Mechanical properties :
#
#
# Convention : Reuss Voigt Hill
#
# Bulk Modulus (GPa) = 24.70427 44.98285 34.84356
# Shear Modulus (GPa) = 26.58766 31.53627 29.06197
#
# Velocity S-wave (km/s) = 3.74412 4.07769 3.91446
# Velocity P-wave (km/s) = 5.63175 6.77403 6.22913
#
# Compressibility (1/GPa) = 0.04047884
#
# Stress axis : x y z
#
# Youngs Moduli (GPa) = 50.52594 36.18674 114.73373
#
# Poissons Ratio (x) = -0.06797 0.70083
# Poissons Ratio (y) = -0.09491 0.41323
# Poissons Ratio (z) = 0.30863 0.13033
#
# Static dielectric constant tensor:
#      x y z
#    x 1.696060 0.000000 0.020040 
#    y 0.000000 1.671230 0.000000 
#    z 0.020040 0.000000 1.630860 
# 
# From -- ./inp_files/19372.got.cif
#   From: 2010.05.17/outbox.ucp.g08.bks.cvg/sg14_10_cif.got.tgz:19372.got - 2010.06.11 12:31:08.
