data_PCOD9253139
_publ_section_title
;
Structure prediction by ZEFSAII (Michael W. Deem and Ramdas Pophale) SiO2 
 PCOD9253139
Probable space group: P 21/C
;
_chemical_formula_sum "Si O2"
_cell_formula_units_Z 16
_cell_length_a 20.378306
_cell_length_b 4.755936
_cell_length_c 8.308817
_cell_angle_alpha 90.000000
_cell_angle_beta 126.350510
_cell_angle_gamma 90.000000
_cell_volume 648.571967
_symmetry_space_group_name_H-M "P 21/C"
_symmetry_group_IT_number 14
_symmetry_cell_setting 'monoclinic'
loop_
_space_group_symop_operation_xyz
x,y,z
-x,1/2+y,1/2-z
-x,-y,-z
x,1/2-y,1/2+z
loop_
_atom_site_type_symbol
_atom_site_label
_atom_site_fract_x
_atom_site_fract_y
_atom_site_fract_z
Si Si1 0.219227 0.652826 0.909717
Si Si2 0.968218 0.159538 0.797061
Si Si3 0.530923 0.833453 0.889192
Si Si4 0.281642 0.333331 0.312893
O O1 0.260288 0.487969 0.116423
O O2 0.126592 0.721919 0.817966
O O3 0.225238 0.433476 0.769795
O O4 0.265623 0.932631 0.926113
O O5 0.981923 0.938735 0.671946
O O6 0.000000 0.000000 0.000000
O O7 0.521552 0.061453 0.732273
O O8 0.500000 0.000000 0.000000
O O9 0.624410 0.745640 0.045475
#
# Coordination Sequence:
#
# PCOD9253139 Si02
#       4
#     4   4   4   4
#     4  12  25  43  66  96 129 168 211 260 316 375
#     4  12  24  43  67  96 129 168 211 260 313 375
#     4  12  25  43  66  94 127 168 213 262 316 375
#     4  12  24  43  65  94 129 168 211 262 315 375
#
# _framework density 24.669581000000001
#
# number of rings (size 3 to 8) (size 9 to 14) (size 15 to 20)
#    0.000    0.000    0.000   12.000    0.000    0.000 
#    0.000    0.000    0.000    0.000    0.000    0.000 
#    0.000    0.000    0.000    0.000    0.000    0.000 
#
# Total GULP energy -89864.862823 kJ/mol
# GULP energy per Si atom -5616.553926 kJ/mol
# Density = 2.461343 g / cm^3
# Si number density = 24.669581 Si / 1000 Ang^3
#
#
#
# Elastic Constant Matrix: (Units=GPa)
#
#
# Indices 1 2 3 4 5 6 
#
# 1 105.1122 17.9484 11.1312 0.0000 7.4796 0.0000
# 2 17.9484 94.4840 -18.9529 0.0000 -6.3507 0.0000
# 3 11.1312 -18.9529 77.6780 0.0000 0.7969 0.0000
# 4 0.0000 0.0000 0.0000 35.7065 0.0000 -12.9192
# 5 7.4796 -6.3507 0.7969 0.0000 38.7991 0.0000
# 6 0.0000 0.0000 0.0000 -12.9192 0.0000 36.0209
#
#
#
# Elastic Compliance Matrix: (Units=1/GPa)
#
#
# Indices 1 2 3 4 5 6 
#
# 1 0.010335 -0.002539 -0.002076 0.000000 -0.002365 0.000000
# 2 -0.002539 0.011874 0.003237 0.000000 0.002367 0.000000
# 3 -0.002076 0.003237 0.013954 0.000000 0.000643 0.000000
# 4 0.000000 0.000000 0.000000 0.032182 0.000000 0.011543
# 5 -0.002365 0.002367 0.000643 0.000000 0.026604 0.000000
# 6 0.000000 0.000000 0.000000 0.011543 0.000000 0.031902
#
#
# Mechanical properties :
#
#
# Convention : Reuss Voigt Hill
#
# Bulk Modulus (GPa) = 29.93326 33.05865 31.49596
# Shear Modulus (GPa) = 35.52543 39.91513 37.72028
#
# Velocity S-wave (km/s) = 3.79892 4.02679 3.91451
# Velocity P-wave (km/s) = 5.60378 5.92028 5.76420
#
# Compressibility (1/GPa) = 0.03340765
#
# Stress axis : x y z
#
# Youngs Moduli (GPa) = 96.75548 84.21463 71.66234
#
# Poissons Ratio (x) = 0.21380 0.14879
# Poissons Ratio (y) = 0.24564 -0.23196
# Poissons Ratio (z) = 0.20089 -0.27259
#
# Static dielectric constant tensor:
#      x y z
#    x 1.941880 0.000000 -0.101880 
#    y 0.000000 1.913540 0.000000 
#    z -0.101880 0.000000 1.958190 
# 
# From -- ./inp_files/14710.got.cif
#   From: 2010.05.17/outbox.cif.g08.bks.cpg/sg14_8_cif.got.tgz:14710.got - 2010.06.03 17:49:19.
