data_PCOD9253451
_publ_section_title
;
Structure prediction by ZEFSAII (Michael W. Deem and Ramdas Pophale) SiO2 
 PCOD9253451
Probable space group: P 21/C
;
_chemical_formula_sum "Si O2"
_cell_formula_units_Z 24
_cell_length_a 11.159533
_cell_length_b 12.036029
_cell_length_c 13.453115
_cell_angle_alpha 90.000000
_cell_angle_beta 145.778482
_cell_angle_gamma 90.000000
_cell_volume 1016.231719
_symmetry_space_group_name_H-M "P 21/C"
_symmetry_group_IT_number 14
_symmetry_cell_setting 'monoclinic'
loop_
_space_group_symop_operation_xyz
x,y,z
-x,1/2+y,1/2-z
-x,-y,-z
x,1/2-y,1/2+z
loop_
_atom_site_type_symbol
_atom_site_label
_atom_site_fract_x
_atom_site_fract_y
_atom_site_fract_z
Si Si1 0.133099 0.841453 0.516710
Si Si2 0.850568 0.726553 0.646969
Si Si3 0.713461 0.537685 0.784212
Si Si4 0.093270 0.837737 0.122557
Si Si5 0.854526 0.568494 0.267963
Si Si6 0.729330 0.018887 0.075482
O O1 0.265048 0.954506 0.609113
O O2 0.233051 0.746191 0.652891
O O3 0.056335 0.800218 0.358161
O O4 0.905619 0.876830 0.410651
O O5 0.706600 0.615569 0.551016
O O6 0.956313 0.726929 0.611533
O O7 0.745600 0.834351 0.627292
O O8 0.475418 0.580034 0.609047
O O9 0.748384 0.465409 0.706472
O O10 0.927034 0.883798 0.924887
O O11 0.216315 0.942502 0.255733
O O12 0.064643 0.548192 0.344970
#
# Coordination Sequence:
#
# PCOD9253451 Si02
#       6
#     4   4   4   4   4   4
#     4   9  17  30  50  73  97 130 168 209 262 311
#     4   9  17  30  50  72  95 131 171 207 255 308
#     4   9  17  30  50  76 101 125 165 218 260 306
#     4   9  17  30  49  71  98 133 172 209 252 313
#     4   9  17  30  49  72 100 134 170 208 258 312
#     4   9  17  30  50  75 101 129 166 212 259 306
#
# _framework density 23.616662000000002
#
# number of rings (size 3 to 8) (size 9 to 14) (size 15 to 20)
#    0.000    3.000    0.000    1.000    0.000    1.333 
#    0.000    6.667    0.000    8.000    0.000    0.000 
#    0.000    0.000    0.000    0.000    0.000    0.000 
#
# Total GULP energy -133667.104450 kJ/mol
# GULP energy per Si atom -5569.462685 kJ/mol
# Density = 2.356291 g / cm^3
# Si number density = 23.616662 Si / 1000 Ang^3
#
#
#
# Elastic Constant Matrix: (Units=GPa)
#
#
# Indices 1 2 3 4 5 6 
#
# 1 42.1488 4.0090 17.4104 0.0000 -24.4122 0.0000
# 2 4.0090 79.1843 18.6183 0.0000 -11.1795 0.0000
# 3 17.4104 18.6183 44.4309 0.0000 -11.6839 0.0000
# 4 0.0000 0.0000 0.0000 31.8942 0.0000 -16.8711
# 5 -24.4122 -11.1795 -11.6839 0.0000 32.6853 0.0000
# 6 0.0000 0.0000 0.0000 -16.8711 0.0000 23.1407
#
#
#
# Elastic Compliance Matrix: (Units=1/GPa)
#
#
# Indices 1 2 3 4 5 6 
#
# 1 0.047080 0.005037 -0.011986 0.000000 0.032602 0.000000
# 2 0.005037 0.014815 -0.006468 0.000000 0.006517 0.000000
# 3 -0.011986 -0.006468 0.029777 0.000000 -0.000520 0.000000
# 4 0.000000 0.000000 0.000000 0.051036 0.000000 0.037208
# 5 0.032602 0.006517 -0.000520 0.000000 0.056988 0.000000
# 6 0.000000 0.000000 0.000000 0.037208 0.000000 0.070341
#
#
# Mechanical properties :
#
#
# Convention : Reuss Voigt Hill
#
# Bulk Modulus (GPa) = 15.42291 27.31549 21.36920
# Shear Modulus (GPa) = 15.69942 25.92580 20.81261
#
# Velocity S-wave (km/s) = 2.58109 3.31686 2.97184
# Velocity P-wave (km/s) = 3.92777 5.12446 4.56550
#
# Compressibility (1/GPa) = 0.06483862
#
# Stress axis : x y z
#
# Youngs Moduli (GPa) = 21.24041 67.50066 33.58270
#
# Poissons Ratio (x) = -0.34003 0.40253
# Poissons Ratio (y) = -0.10700 0.21721
# Poissons Ratio (z) = 0.25459 0.43659
#
# Static dielectric constant tensor:
#      x y z
#    x 1.843600 0.000000 -0.029760 
#    y 0.000000 2.075140 0.000000 
#    z -0.029760 0.000000 1.901570 
# 
# From -- ./inp_files/29894.got.cif
#   From: 2010.05.17/outbox.cif.g08.bks.cpg/sg14_15_cif.got.tgz:29894.got - 2010.06.03 17:49:19.
