data_PCOD9253872
_publ_section_title
;
Structure prediction by ZEFSAII (Michael W. Deem and Ramdas Pophale) SiO2 
 PCOD9253872
Probable space group: C 2/C
;
_chemical_formula_sum "Si O2"
_cell_formula_units_Z 52
_cell_length_a 7.764582
_cell_length_b 29.471977
_cell_length_c 14.640931
_cell_angle_alpha 90.000000
_cell_angle_beta 129.438131
_cell_angle_gamma 90.000000
_cell_volume 2587.547045
_symmetry_space_group_name_H-M "C 2/C"
_symmetry_group_IT_number 15
_symmetry_cell_setting 'monoclinic'
loop_
_space_group_symop_operation_xyz
x,y,z
-x,y,1/2-z
-x,-y,-z
x,-y,1/2+z
1/2+x,1/2+y,z
1/2-x,1/2+y,1/2-z
1/2-x,1/2-y,-z
1/2+x,1/2-y,1/2+z
loop_
_atom_site_type_symbol
_atom_site_label
_atom_site_fract_x
_atom_site_fract_y
_atom_site_fract_z
Si Si1 0.855492 0.315735 0.609798
Si Si2 0.432445 0.739407 0.914971
Si Si3 0.348614 0.083664 0.040353
Si Si4 0.401572 0.461114 0.312336
Si Si5 0.625438 0.879027 0.133914
Si Si6 0.500000 0.020176 0.250000
Si Si7 0.500000 0.809843 0.250000
Si Si8 0.500000 0.687977 0.750000
O O1 0.627427 0.286161 0.536165
O O2 0.806869 0.368182 0.575046
O O3 0.000000 0.312495 0.750000
O O4 0.999676 0.291329 0.577640
O O5 0.438509 0.717949 0.814885
O O6 0.185126 0.724349 0.855195
O O7 0.476615 0.051159 0.152520
O O8 0.477563 0.095733 0.988652
O O9 0.116891 0.058482 0.937267
O O10 0.500000 0.481684 0.250000
O O11 0.254620 0.417969 0.232125
O O12 0.227879 0.491483 0.310946
O O13 0.519671 0.845681 0.172461
O O14 0.809404 0.845691 0.152659
#
# Coordination Sequence:
#
# PCOD9253872 Si02
#       8
#     8   8   8   8   8   4   4   4
#     4  11  21  38  62  90 124 176 215 248 315 392
#     4  10  21  35  62  94 122 168 217 259 299 373
#     4  11  21  40  64  90 128 166 211 259 322 396
#     4  10  22  41  64  93 123 162 221 275 317 386
#     4  10  18  36  63  90 121 162 210 265 313 367
#     4  12  25  39  66  96 126 170 208 263 341 392
#     4  10  21  36  64 102 126 162 222 272 315 358
#     4  10  14  33  60  84 112 160 216 247 292 358
#
# _framework density 20.096253999999998
#
# number of rings (size 3 to 8) (size 9 to 14) (size 15 to 20)
#    0.000    1.538    5.385    1.846    0.000    2.462 
#    0.000    6.154    1.692    0.000    0.000    0.000 
#    0.000    0.000    0.000    0.000    0.000    0.000 
#
# Total GULP energy -144752.424385 kJ/mol
# GULP energy per Si atom -5567.400938 kJ/mol
# Density = 2.005051 g / cm^3
# Si number density = 20.096254 Si / 1000 Ang^3
#
#
#
# Elastic Constant Matrix: (Units=GPa)
#
#
# Indices 1 2 3 4 5 6 
#
# 1 49.3889 27.3951 11.3434 0.0000 8.9497 0.0000
# 2 27.3951 95.8918 37.2136 0.0000 0.7000 0.0000
# 3 11.3434 37.2136 128.1849 0.0000 10.6365 0.0000
# 4 0.0000 0.0000 0.0000 17.9770 0.0000 10.3040
# 5 8.9497 0.7000 10.6365 0.0000 15.3346 0.0000
# 6 0.0000 0.0000 0.0000 10.3040 0.0000 6.7073
#
#
#
# Elastic Compliance Matrix: (Units=1/GPa)
#
#
# Indices 1 2 3 4 5 6 
#
# 1 0.027537 -0.008267 0.001343 0.000000 -0.016625 0.000000
# 2 -0.008267 0.014289 -0.003993 0.000000 0.006942 0.000000
# 3 0.001343 -0.003993 0.009434 0.000000 -0.007145 0.000000
# 4 0.000000 0.000000 0.000000 0.465639 0.000000 -0.715331
# 5 -0.016625 0.006942 -0.007145 0.000000 0.079554 0.000000
# 6 0.000000 0.000000 0.000000 -0.715331 0.000000 1.248006
#
#
# Mechanical properties :
#
#
# Convention : Reuss Voigt Hill
#
# Bulk Modulus (GPa) = 33.98246 47.26330 40.62288
# Shear Modulus (GPa) = 2.66510 21.17134 11.91822
#
# Velocity S-wave (km/s) = 1.15284 3.24928 2.43792
# Velocity P-wave (km/s) = 4.32650 6.13569 5.30873
#
# Compressibility (1/GPa) = 0.02942695
#
# Stress axis : x y z
#
# Youngs Moduli (GPa) = 36.31457 69.98417 105.99441
#
# Poissons Ratio (x) = 0.57854 -0.14231
# Poissons Ratio (y) = 0.30020 0.42321
# Poissons Ratio (z) = -0.04876 0.27943
#
# Static dielectric constant tensor:
#      x y z
#    x 1.848430 0.000000 0.009340 
#    y 0.000000 1.717800 0.000000 
#    z 0.009340 0.000000 1.751540 
# 
# From -- ./inp_files/139332.got.cif
#   From: 2010.05.17/outbox.cif.g08.bks.cpg/sg15_70_cif.got.tgz:139332.got - 2010.06.03 18:47:42.
