data_PCOD9253529
_publ_section_title
;
Structure prediction by ZEFSAII (Michael W. Deem and Ramdas Pophale) SiO2 
 PCOD9253529
Probable space group: P 21/C
;
_chemical_formula_sum "Si O2"
_cell_formula_units_Z 30
_cell_length_a 15.000000
_cell_length_b 12.000000
_cell_length_c 9.000000
_cell_angle_alpha 90.000000
_cell_angle_beta 120.000000
_cell_angle_gamma 90.000000
_cell_volume 1402.961154
_symmetry_space_group_name_H-M "P 21/C"
_symmetry_group_IT_number 14
_symmetry_cell_setting 'monoclinic'
loop_
_space_group_symop_operation_xyz
x,y,z
-x,1/2+y,1/2-z
-x,-y,-z
x,1/2-y,1/2+z
loop_
_atom_site_type_symbol
_atom_site_label
_atom_site_fract_x
_atom_site_fract_y
_atom_site_fract_z
Si Si1 0.723399 0.648361 0.792567
Si Si2 0.500000 0.500000 0.000000
Si Si3 0.729245 0.414017 0.168532
Si Si4 0.447888 0.317850 0.750838
Si Si5 0.331612 0.764228 0.106222
Si Si6 0.145790 0.250873 0.860996
Si Si7 0.388830 0.986938 0.980726
Si Si8 0.092427 0.414162 0.584040
O O1 0.626384 0.714688 0.780095
O O2 0.766852 0.710206 0.682148
O O3 0.690701 0.528156 0.709166
O O4 0.809632 0.657741 0.988448
O O5 0.378199 0.520836 0.936648
O O6 0.476763 0.370531 0.932804
O O7 0.719474 0.326748 0.297821
O O8 0.812407 0.508571 0.280746
O O9 0.735203 0.331810 0.030041
O O10 0.555360 0.286289 0.762476
O O11 0.394945 0.421802 0.619977
O O12 0.361325 0.866660 0.020158
O O13 0.070309 0.316619 0.687006
O O14 0.113222 0.149190 0.943259
O O15 0.500000 0.000000 0.000000
O O16 0.000000 0.500000 0.500000
#
# Coordination Sequence:
#
# PCOD9253529 Si02
#       8
#     4   2   4   4   4   4   4   4
#     4  11  21  38  63  92 134 176 238 281 337 407
#     4  10  20  36  60  84 130 178 226 270 340 404
#     4  11  24  43  65  95 139 185 224 286 349 413
#     4  11  22  34  56  85 131 191 228 282 334 407
#     4  11  24  38  57  94 137 182 236 274 353 411
#     4  10  23  43  72 103 125 174 234 280 346 413
#     4  12  22  34  54  88 132 184 240 284 329 411
#     4  11  26  50  76 104 138 177 229 293 350 408
#
# _framework density 21.383343
#
# number of rings (size 3 to 8) (size 9 to 14) (size 15 to 20)
#    0.000    1.067    4.000    3.200    1.867    6.400 
#    0.000    2.667    0.000    0.000    0.000    0.000 
#    0.000    0.000    0.000    0.000    0.000    0.000 
#
# Total GULP energy -167034.054227 kJ/mol
# GULP energy per Si atom -5567.801808 kJ/mol
# Density = 2.133467 g / cm^3
# Si number density = 21.383343 Si / 1000 Ang^3
#
#
#
# Elastic Constant Matrix: (Units=GPa)
#
#
# Indices 1 2 3 4 5 6 
#
# 1 42.7096 19.2564 28.6780 0.0000 -0.6026 0.0000
# 2 19.2564 85.7603 36.7266 0.0000 1.0381 0.0000
# 3 28.6780 36.7266 57.8646 0.0000 -13.3703 0.0000
# 4 0.0000 0.0000 0.0000 52.4547 0.0000 5.9086
# 5 -0.6026 1.0381 -13.3703 0.0000 33.4551 0.0000
# 6 0.0000 0.0000 0.0000 5.9086 0.0000 37.7884
#
#
#
# Elastic Compliance Matrix: (Units=1/GPa)
#
#
# Indices 1 2 3 4 5 6 
#
# 1 0.036644 0.000515 -0.020204 0.000000 -0.007431 0.000000
# 2 0.000515 0.016825 -0.012176 0.000000 -0.005379 0.000000
# 3 -0.020204 -0.012176 0.038590 0.000000 0.015437 0.000000
# 4 0.000000 0.000000 0.000000 0.019406 0.000000 -0.003034
# 5 -0.007431 -0.005379 0.015437 0.000000 0.036093 0.000000
# 6 0.000000 0.000000 0.000000 -0.003034 0.000000 0.026938
#
#
# Mechanical properties :
#
#
# Convention : Reuss Voigt Hill
#
# Bulk Modulus (GPa) = 35.30324 39.51741 37.41033
# Shear Modulus (GPa) = 20.18820 31.51785 25.85303
#
# Velocity S-wave (km/s) = 3.07597 3.84336 3.48088
# Velocity P-wave (km/s) = 5.40009 6.18190 5.80417
#
# Compressibility (1/GPa) = 0.02832601
#
# Stress axis : x y z
#
# Youngs Moduli (GPa) = 27.28988 59.43712 25.91326
#
# Poissons Ratio (x) = -0.03058 0.52356
# Poissons Ratio (y) = -0.01404 0.31553
# Poissons Ratio (z) = 0.55137 0.72373
#
# Static dielectric constant tensor:
#      x y z
#    x 1.799550 0.000000 -0.011770 
#    y 0.000000 1.766310 0.000000 
#    z -0.011770 0.000000 1.902160 
# 
# From -- ./inp_files/15939.got.cif
#   From: 2010.05.17/outbox.ucp.g08.bks.cvg/sg14_8_cif.got.tgz:15939.got - 2010.06.11 12:31:08.
