data_PCOD9253016
_publ_section_title
;
Structure prediction by ZEFSAII (Michael W. Deem and Ramdas Pophale) SiO2 
 PCOD9253016
Probable space group: P 21/C
;
_chemical_formula_sum "Si O2"
_cell_formula_units_Z 24
_cell_length_a 25.571196
_cell_length_b 10.614379
_cell_length_c 11.811226
_cell_angle_alpha 90.000000
_cell_angle_beta 157.528434
_cell_angle_gamma 90.000000
_cell_volume 1225.348379
_symmetry_space_group_name_H-M "P 21/C"
_symmetry_group_IT_number 14
_symmetry_cell_setting 'monoclinic'
loop_
_space_group_symop_operation_xyz
x,y,z
-x,1/2+y,1/2-z
-x,-y,-z
x,1/2-y,1/2+z
loop_
_atom_site_type_symbol
_atom_site_label
_atom_site_fract_x
_atom_site_fract_y
_atom_site_fract_z
Si Si1 0.249756 0.916186 0.992711
Si Si2 0.946579 0.191858 0.577027
Si Si3 0.749915 0.874079 0.817024
Si Si4 0.750062 0.082348 0.627510
Si Si5 0.750285 0.149303 0.381961
Si Si6 0.446176 0.691646 0.708764
O O1 0.117441 0.899901 0.647150
O O2 0.249785 0.791968 0.070834
O O3 0.382170 0.900060 0.176847
O O4 0.249719 0.036249 0.071893
O O5 0.877923 0.327217 0.415055
O O6 0.882684 0.140270 0.566417
O O7 0.108244 0.199816 0.899496
O O8 0.607850 0.800560 0.532910
O O9 0.749883 0.961698 0.705462
O O10 0.750213 0.062864 0.492822
O O11 0.622254 0.172921 0.403393
O O12 0.617987 0.140185 0.036763
#
# Coordination Sequence:
#
# PCOD9253016 Si02
#       6
#     4   4   4   4   4   4
#     4   9  17  36  57  72 108 140 165 218 266 294
#     4   9  19  33  55  80 102 135 177 214 246 325
#     4  12  19  32  58  82 101 138 175 211 269 294
#     4   9  20  38  56  68 111 147 159 221 262 301
#     4   8  16  38  53  70 110 143 163 204 271 303
#     4   9  19  33  55  80 102 135 177 214 246 325
#
# _framework density 19.586266999999999
#
# number of rings (size 3 to 8) (size 9 to 14) (size 15 to 20)
#    0.000    3.333    3.333    1.000    0.000    1.333 
#    0.000   11.667    0.000    0.000    0.000    0.000 
#    0.000    0.000    0.000    0.000    0.000    0.000 
#
# Total GULP energy -133830.821577 kJ/mol
# GULP energy per Si atom -5576.284232 kJ/mol
# Density = 1.954169 g / cm^3
# Si number density = 19.586267 Si / 1000 Ang^3
#
#
#
# Elastic Constant Matrix: (Units=GPa)
#
#
# Indices 1 2 3 4 5 6 
#
# 1 104.5791 8.8089 70.7237 0.0000 -15.7503 0.0000
# 2 8.8089 17.8003 17.6511 0.0000 5.0737 0.0000
# 3 70.7237 17.6511 149.1019 0.0000 41.5580 0.0000
# 4 0.0000 0.0000 0.0000 1.1446 0.0000 -7.2004
# 5 -15.7503 5.0737 41.5580 0.0000 34.6343 0.0000
# 6 0.0000 0.0000 0.0000 -7.2004 0.0000 14.2189
#
#
#
# Elastic Compliance Matrix: (Units=1/GPa)
#
#
# Indices 1 2 3 4 5 6 
#
# 1 0.060801 -0.002606 -0.054607 0.000000 0.093555 0.000000
# 2 -0.002606 0.063767 -0.005077 0.000000 -0.004435 0.000000
# 3 -0.054607 -0.005077 0.059986 0.000000 -0.096066 0.000000
# 4 0.000000 0.000000 0.000000 -0.399739 0.000000 -0.202426
# 5 0.093555 -0.004435 -0.096066 0.000000 0.187339 0.000000
# 6 0.000000 0.000000 0.000000 -0.202426 0.000000 -0.032179
#
#
# Mechanical properties :
#
#
# Convention : Reuss Voigt Hill
#
# Bulk Modulus (GPa) = 16.67401 51.76096 34.21748
# Shear Modulus (GPa) = 59.14096 21.61942 40.38019
#
# Velocity S-wave (km/s) = 5.50097 3.32596 4.54547
# Velocity P-wave (km/s) = 6.99136 6.42136 6.71242
#
# Compressibility (1/GPa) = 0.05997359
#
# Stress axis : x y z
#
# Youngs Moduli (GPa) = 16.44714 15.68219 16.67068
#
# Poissons Ratio (x) = 0.04087 0.91034
# Poissons Ratio (y) = 0.04286 0.08463
# Poissons Ratio (z) = 0.89813 0.07961
#
# Static dielectric constant tensor:
#      x y z
#    x 1.721200 0.000000 -0.016660 
#    y 0.000000 1.656230 0.000000 
#    z -0.016660 0.000000 1.691360 
# 
# From -- ./inp_files/36255.got.cif
#   From: 2010.05.17/outbox.cif.g08.bks.cpg/sg14_19_cif.got.tgz:36255.got - 2010.06.03 17:49:19.
