data_PCOD9253203
_publ_section_title
;
Structure prediction by ZEFSAII (Michael W. Deem and Ramdas Pophale) SiO2 
 PCOD9253203
Probable space group: P 21/C
;
_chemical_formula_sum "Si O2"
_cell_formula_units_Z 32
_cell_length_a 7.417011
_cell_length_b 22.241848
_cell_length_c 8.995637
_cell_angle_alpha 90.000000
_cell_angle_beta 123.027126
_cell_angle_gamma 90.000000
_cell_volume 1244.198063
_symmetry_space_group_name_H-M "P 21/C"
_symmetry_group_IT_number 14
_symmetry_cell_setting 'monoclinic'
loop_
_space_group_symop_operation_xyz
x,y,z
-x,1/2+y,1/2-z
-x,-y,-z
x,1/2-y,1/2+z
loop_
_atom_site_type_symbol
_atom_site_label
_atom_site_fract_x
_atom_site_fract_y
_atom_site_fract_z
Si Si1 0.669399 0.056930 0.702998
Si Si2 0.642105 0.570734 0.309823
Si Si3 0.533030 0.307489 0.786550
Si Si4 0.303994 0.219591 0.882860
Si Si5 0.931687 0.205694 0.296383
Si Si6 0.869741 0.966952 0.220977
Si Si7 0.890752 0.094769 0.108027
Si Si8 0.713377 0.875540 0.382129
O O1 0.885016 0.053744 0.702208
O O2 0.478098 0.103853 0.595838
O O3 0.586305 0.989402 0.695069
O O4 0.758694 0.075924 0.905180
O O5 0.459332 0.620550 0.211878
O O6 0.716917 0.554871 0.513133
O O7 0.861081 0.595845 0.333152
O O8 0.442378 0.276316 0.891068
O O9 0.363976 0.295447 0.577602
O O10 0.754108 0.277419 0.835816
O O11 0.345585 0.167576 0.782982
O O12 0.055481 0.239862 0.775916
O O13 0.821908 0.159767 0.132795
O O14 0.107278 0.162225 0.451729
O O15 0.795597 0.935995 0.338310
O O16 0.864801 0.039339 0.210884
#
# Coordination Sequence:
#
# PCOD9253203 Si02
#       8
#     4   4   4   4   4   4   4   4
#     4   9  21  40  70  99 132 172 218 274 337 399
#     4   9  18  41  70 100 128 173 223 273 330 406
#     4  12  26  46  73  94 134 182 224 281 338 396
#     4  12  27  48  66  98 132 179 230 280 331 401
#     4  12  28  43  67  97 134 175 229 278 338 400
#     4   9  20  38  67  99 135 169 218 268 328 400
#     4   9  19  41  66  99 134 172 217 271 327 402
#     4  12  25  42  65  99 132 175 223 276 335 408
#
# _framework density 25.719377999999999
#
# number of rings (size 3 to 8) (size 9 to 14) (size 15 to 20)
#    0.000    1.500    3.750    2.250    3.500    3.500 
#    0.000    1.250    0.000    0.000    0.000    0.000 
#    0.000    0.000    0.000    0.000    0.000    0.000 
#
# Total GULP energy -179366.243363 kJ/mol
# GULP energy per Si atom -5605.195105 kJ/mol
# Density = 2.566084 g / cm^3
# Si number density = 25.719378 Si / 1000 Ang^3
#
#
#
# Elastic Constant Matrix: (Units=GPa)
#
#
# Indices 1 2 3 4 5 6 
#
# 1 104.9930 41.2714 -0.8005 0.0000 9.3799 0.0000
# 2 41.2714 68.2630 22.7962 0.0000 1.4879 0.0000
# 3 -0.8005 22.7962 54.6025 0.0000 -10.1232 0.0000
# 4 0.0000 0.0000 0.0000 29.9657 0.0000 -7.0413
# 5 9.3799 1.4879 -10.1232 0.0000 28.2084 0.0000
# 6 0.0000 0.0000 0.0000 -7.0413 0.0000 36.0440
#
#
#
# Elastic Compliance Matrix: (Units=1/GPa)
#
#
# Indices 1 2 3 4 5 6 
#
# 1 0.013428 -0.009247 0.003557 0.000000 -0.002701 0.000000
# 2 -0.009247 0.023758 -0.010409 0.000000 -0.001914 0.000000
# 3 0.003557 -0.010409 0.024205 0.000000 0.008053 0.000000
# 4 0.000000 0.000000 0.000000 0.034977 0.000000 0.006833
# 5 -0.002701 -0.001914 0.008053 0.000000 0.039339 0.000000
# 6 0.000000 0.000000 0.000000 0.006833 0.000000 0.029079
#
#
# Mechanical properties :
#
#
# Convention : Reuss Voigt Hill
#
# Bulk Modulus (GPa) = 34.25654 39.37698 36.81676
# Shear Modulus (GPa) = 24.18778 29.81637 27.00208
#
# Velocity S-wave (km/s) = 3.07000 3.40854 3.24369
# Velocity P-wave (km/s) = 5.09066 5.55286 5.32678
#
# Compressibility (1/GPa) = 0.02919151
#
# Stress axis : x y z
#
# Youngs Moduli (GPa) = 74.47214 42.09121 41.31363
#
# Poissons Ratio (x) = 0.38923 -0.14694
# Poissons Ratio (y) = 0.68867 0.43004
# Poissons Ratio (z) = -0.26488 0.43813
#
# Static dielectric constant tensor:
#      x y z
#    x 1.970640 0.000000 0.028440 
#    y 0.000000 2.051680 0.000000 
#    z 0.028440 0.000000 2.061870 
# 
# From -- ./inp_files/26797.got.cif
#   From: 2010.05.17/outbox.cif.g08.bks.cpg/sg14_14_cif.got.tgz:26797.got - 2010.06.03 17:49:19.
