data_PCOD9253215
_publ_section_title
;
Structure prediction by ZEFSAII (Michael W. Deem and Ramdas Pophale) SiO2 
 PCOD9253215
Probable space group: P 21/C
;
_chemical_formula_sum "Si O2"
_cell_formula_units_Z 24
_cell_length_a 8.000020
_cell_length_b 15.949312
_cell_length_c 14.235851
_cell_angle_alpha 90.000000
_cell_angle_beta 31.276020
_cell_angle_gamma 90.000000
_cell_volume 943.015643
_symmetry_space_group_name_H-M "P 21/C"
_symmetry_group_IT_number 14
_symmetry_cell_setting 'monoclinic'
loop_
_space_group_symop_operation_xyz
x,y,z
-x,1/2+y,1/2-z
-x,-y,-z
x,1/2-y,1/2+z
loop_
_atom_site_type_symbol
_atom_site_label
_atom_site_fract_x
_atom_site_fract_y
_atom_site_fract_z
Si Si1 0.068531 0.591292 0.696612
Si Si2 0.457239 0.872221 0.828600
Si Si3 0.521890 0.792473 0.506428
Si Si4 0.171537 0.702566 0.974666
Si Si5 0.215165 0.942748 0.771737
Si Si6 0.495725 0.122631 0.860140
O O1 0.343320 0.601685 0.486215
O O2 0.813382 0.525932 0.776835
O O3 0.239895 0.566948 0.711225
O O4 0.880776 0.677084 0.808471
O O5 0.810307 0.831882 0.655338
O O6 0.414685 0.944924 0.772464
O O7 0.203434 0.798171 0.922795
O O8 0.531508 0.707889 0.563006
O O9 0.337569 0.792673 0.496162
O O10 0.369854 0.866762 0.640328
O O11 0.372610 0.647612 0.804491
O O12 0.848375 0.920000 0.972016
#
# Coordination Sequence:
#
# PCOD9253215 Si02
#       6
#     4   4   4   4   4   4
#     4  12  26  46  71 107 148 187 232 288 355 419
#     4  12  25  45  71 104 143 182 233 294 354 411
#     4  12  25  45  74 105 138 187 239 292 347 416
#     4  12  26  45  74 106 136 180 244 296 345 419
#     4  12  26  46  71 107 148 187 232 288 355 419
#     4  12  25  45  74 105 138 187 239 292 347 416
#
# _framework density 25.450265000000002
#
# number of rings (size 3 to 8) (size 9 to 14) (size 15 to 20)
#    0.000    0.000    3.333    7.500    0.000    0.000 
#    0.000    2.500    0.000    0.000    0.000    0.000 
#    0.000    0.000    0.000    0.000    0.000    0.000 
#
# Total GULP energy -134671.177861 kJ/mol
# GULP energy per Si atom -5611.299078 kJ/mol
# Density = 2.539234 g / cm^3
# Si number density = 25.450265 Si / 1000 Ang^3
#
#
#
# Elastic Constant Matrix: (Units=GPa)
#
#
# Indices 1 2 3 4 5 6 
#
# 1 99.8720 -3.4022 32.3702 0.0000 5.2521 0.0000
# 2 -3.4022 71.6361 27.3551 0.0000 4.5855 0.0000
# 3 32.3702 27.3551 136.3552 0.0000 6.1943 0.0000
# 4 0.0000 0.0000 0.0000 22.0589 0.0000 -4.1388
# 5 5.2521 4.5855 6.1943 0.0000 53.2187 0.0000
# 6 0.0000 0.0000 0.0000 -4.1388 0.0000 35.9612
#
#
#
# Elastic Compliance Matrix: (Units=1/GPa)
#
#
# Indices 1 2 3 4 5 6 
#
# 1 0.011067 0.001701 -0.002928 0.000000 -0.000898 0.000000
# 2 0.001701 0.015427 -0.003449 0.000000 -0.001096 0.000000
# 3 -0.002928 -0.003449 0.008740 0.000000 -0.000431 0.000000
# 4 0.000000 0.000000 0.000000 0.046334 0.000000 0.005333
# 5 -0.000898 -0.001096 -0.000431 0.000000 0.019024 0.000000
# 6 0.000000 0.000000 0.000000 0.005333 0.000000 0.028421
#
#
# Mechanical properties :
#
#
# Convention : Reuss Voigt Hill
#
# Bulk Modulus (GPa) = 38.63500 46.72329 42.67915
# Shear Modulus (GPa) = 34.01531 39.01711 36.51621
#
# Velocity S-wave (km/s) = 3.65984 3.91970 3.79199
# Velocity P-wave (km/s) = 5.75089 6.23569 5.99819
#
# Compressibility (1/GPa) = 0.02588327
#
# Stress axis : x y z
#
# Youngs Moduli (GPa) = 90.35953 64.81964 114.41209
#
# Poissons Ratio (x) = -0.11026 0.33496
# Poissons Ratio (y) = -0.15371 0.39461
# Poissons Ratio (z) = 0.26455 0.22357
#
# Static dielectric constant tensor:
#      x y z
#    x 2.020130 0.000000 0.007350 
#    y 0.000000 2.083260 0.000000 
#    z 0.007350 0.000000 1.954310 
# 
# From -- ./inp_files/41676.got.cif
#   From: 2010.05.17/outbox.cif.g08.bks.cpg/sg14_21_cif.got.tgz:41676.got - 2010.06.03 17:49:19.
