data_PCOD9253388
_publ_section_title
;
Structure prediction by ZEFSAII (Michael W. Deem and Ramdas Pophale) SiO2 
 PCOD9253388
Probable space group: P 21/C
;
_chemical_formula_sum "Si O2"
_cell_formula_units_Z 12
_cell_length_a 10.740298
_cell_length_b 5.017922
_cell_length_c 19.506777
_cell_angle_alpha 90.000000
_cell_angle_beta 26.571519
_cell_angle_gamma 90.000000
_cell_volume 470.260814
_symmetry_space_group_name_H-M "P 21/C"
_symmetry_group_IT_number 14
_symmetry_cell_setting 'monoclinic'
loop_
_space_group_symop_operation_xyz
x,y,z
-x,1/2+y,1/2-z
-x,-y,-z
x,1/2-y,1/2+z
loop_
_atom_site_type_symbol
_atom_site_label
_atom_site_fract_x
_atom_site_fract_y
_atom_site_fract_z
Si Si1 0.057779 0.918926 0.836772
Si Si2 0.478695 0.106894 0.806413
Si Si3 0.302809 0.250556 0.609511
O O1 0.296434 0.750126 0.755827
O O2 0.935736 0.767237 0.830258
O O3 0.175175 0.192862 0.746939
O O4 0.800837 0.959426 0.014339
O O5 0.415201 0.337349 0.781574
O O6 0.500000 0.500000 0.500000
O O7 0.500000 0.000000 0.500000
#
# Coordination Sequence:
#
# PCOD9253388 Si02
#       3
#     4   4   4
#     4  12  28  54  85 121 171 211 288 337 428 485
#     4  12  30  51  83 121 169 226 276 334 405 505
#     4  12  28  49  83 124 162 214 267 358 417 486
#
# _framework density 25.517755999999999
#
# number of rings (size 3 to 8) (size 9 to 14) (size 15 to 20)
#    0.000    0.000    3.333    4.000    4.667    8.000 
#    0.000    0.000    0.000    0.000    0.000    0.000 
#    0.000    0.000    0.000    0.000    0.000    0.000 
#
# Total GULP energy -67434.713636 kJ/mol
# GULP energy per Si atom -5619.559470 kJ/mol
# Density = 2.545968 g / cm^3
# Si number density = 25.517756 Si / 1000 Ang^3
#
#
#
# Elastic Constant Matrix: (Units=GPa)
#
#
# Indices 1 2 3 4 5 6 
#
# 1 156.8833 52.4038 74.8621 0.0000 7.6952 0.0000
# 2 52.4038 179.2901 74.8157 0.0000 24.8105 0.0000
# 3 74.8621 74.8157 216.4788 0.0000 36.7383 0.0000
# 4 0.0000 0.0000 0.0000 41.0361 0.0000 20.3667
# 5 7.6952 24.8105 36.7383 0.0000 64.6117 0.0000
# 6 0.0000 0.0000 0.0000 20.3667 0.0000 57.4658
#
#
#
# Elastic Compliance Matrix: (Units=1/GPa)
#
#
# Indices 1 2 3 4 5 6 
#
# 1 0.007966 -0.001455 -0.002419 0.000000 0.000986 0.000000
# 2 -0.001455 0.006892 -0.001615 0.000000 -0.001555 0.000000
# 3 -0.002419 -0.001615 0.006486 0.000000 -0.002780 0.000000
# 4 0.000000 0.000000 0.000000 0.029570 0.000000 -0.010480
# 5 0.000986 -0.001555 -0.002780 0.000000 0.017537 0.000000
# 6 0.000000 0.000000 0.000000 -0.010480 0.000000 0.021116
#
#
# Mechanical properties :
#
#
# Convention : Reuss Voigt Hill
#
# Bulk Modulus (GPa) = 96.47315 106.31283 101.39299
# Shear Modulus (GPa) = 48.07643 55.99409 52.03526
#
# Velocity S-wave (km/s) = 4.34526 4.68944 4.52063
# Velocity P-wave (km/s) = 7.94125 8.43053 8.18954
#
# Compressibility (1/GPa) = 0.01036558
#
# Stress axis : x y z
#
# Youngs Moduli (GPa) = 125.52805 145.09796 154.18385
#
# Poissons Ratio (x) = 0.21117 0.37300
# Poissons Ratio (y) = 0.18268 0.24896
# Poissons Ratio (z) = 0.30368 0.23429
#
# Static dielectric constant tensor:
#      x y z
#    x 2.053380 0.000000 0.011900 
#    y 0.000000 2.035050 0.000000 
#    z 0.011900 0.000000 1.979130 
# 
# From -- ./inp_files/11376.got.cif
#   From: 2010.05.17/outbox.cif.g08.bks.cpg/sg14_6_cif.got.tgz:11376.got - 2010.06.03 17:49:19.
