data_PCOD9253155
_publ_section_title
;
Structure prediction by ZEFSAII (Michael W. Deem and Ramdas Pophale) SiO2 
 PCOD9253155
Probable space group: P 21/C
;
_chemical_formula_sum "Si O2"
_cell_formula_units_Z 20
_cell_length_a 25.859523
_cell_length_b 5.092400
_cell_length_c 18.254634
_cell_angle_alpha 90.000000
_cell_angle_beta 18.657158
_cell_angle_gamma 90.000000
_cell_volume 769.018324
_symmetry_space_group_name_H-M "P 21/C"
_symmetry_group_IT_number 14
_symmetry_cell_setting 'monoclinic'
loop_
_space_group_symop_operation_xyz
x,y,z
-x,1/2+y,1/2-z
-x,-y,-z
x,1/2-y,1/2+z
loop_
_atom_site_type_symbol
_atom_site_label
_atom_site_fract_x
_atom_site_fract_y
_atom_site_fract_z
Si Si1 0.457110 0.251641 0.513099
Si Si2 0.770159 0.289486 0.517975
Si Si3 0.138211 0.112376 0.375813
Si Si4 0.028753 0.924886 0.102119
Si Si5 0.621023 0.555454 0.586615
O O1 0.500000 0.500000 0.500000
O O2 0.270007 0.263058 0.752832
O O3 0.500000 0.000000 0.500000
O O4 0.580512 0.272615 0.281648
O O5 0.852835 0.384144 0.483505
O O6 0.744297 0.506482 0.489497
O O7 0.870655 0.037090 0.357164
O O8 0.017790 0.353868 0.550087
O O9 0.071102 0.841281 0.499235
O O10 0.250711 0.077647 0.153289
O O11 0.503923 0.808676 0.755971
#
# Coordination Sequence:
#
# PCOD9253155 Si02
#       5
#     4   4   4   4   4
#     4  12  24  44  79 110 147 197 261 319 368 448
#     4  12  28  50  77 115 154 202 254 318 381 452
#     4  12  25  49  74 115 148 204 253 312 387 453
#     4  12  28  47  78 110 157 200 254 313 385 458
#     4  12  29  48  78 114 154 198 258 321 383 451
#
# _framework density 26.007179000000001
#
# number of rings (size 3 to 8) (size 9 to 14) (size 15 to 20)
#    0.000    0.000    6.000    2.400    2.800    8.000 
#    0.000    0.000    0.000    0.000    0.000    0.000 
#    0.000    0.000    0.000    0.000    0.000    0.000 
#
# Total GULP energy -111392.519029 kJ/mol
# GULP energy per Si atom -5569.625951 kJ/mol
# Density = 2.594799 g / cm^3
# Si number density = 26.007179 Si / 1000 Ang^3
#
#
#
# Elastic Constant Matrix: (Units=GPa)
#
#
# Indices 1 2 3 4 5 6 
#
# 1 79.7559 74.3534 26.0927 0.0000 15.7106 0.0000
# 2 74.3534 214.0979 65.0417 0.0000 34.3781 0.0000
# 3 26.0927 65.0417 130.5188 0.0000 35.0792 0.0000
# 4 0.0000 0.0000 0.0000 37.4240 0.0000 -6.6644
# 5 15.7106 34.3781 35.0792 0.0000 51.1890 0.0000
# 6 0.0000 0.0000 0.0000 -6.6644 0.0000 28.9433
#
#
#
# Elastic Compliance Matrix: (Units=1/GPa)
#
#
# Indices 1 2 3 4 5 6 
#
# 1 0.018657 -0.006171 -0.000281 0.000000 -0.001389 0.000000
# 2 -0.006171 0.007760 -0.002135 0.000000 -0.001855 0.000000
# 3 -0.000281 -0.002135 0.010264 0.000000 -0.005513 0.000000
# 4 0.000000 0.000000 0.000000 0.027863 0.000000 0.006416
# 5 -0.001389 -0.001855 -0.005513 0.000000 0.024986 0.000000
# 6 0.000000 0.000000 0.000000 0.006416 0.000000 0.036028
#
#
# Mechanical properties :
#
#
# Convention : Reuss Voigt Hill
#
# Bulk Modulus (GPa) = 51.26549 83.92761 67.59655
# Shear Modulus (GPa) = 33.50455 40.77024 37.13740
#
# Velocity S-wave (km/s) = 3.59316 3.96366 3.78294
# Velocity P-wave (km/s) = 6.08023 7.29989 6.71780
#
# Compressibility (1/GPa) = 0.01950630
#
# Stress axis : x y z
#
# Youngs Moduli (GPa) = 53.60033 128.86292 97.43006
#
# Poissons Ratio (x) = 0.79517 0.02742
# Poissons Ratio (y) = 0.33075 0.20802
# Poissons Ratio (z) = 0.01508 0.27513
#
# Static dielectric constant tensor:
#      x y z
#    x 2.162890 0.000000 -0.035860 
#    y 0.000000 2.696250 0.000000 
#    z -0.035860 0.000000 2.041810 
# 
# From -- ./inp_files/62111.got.cif
#   From: 2010.05.17/outbox.cif.g08.bks.cpg/sg14_32_cif.got.tgz:62111.got - 2010.06.03 17:49:19.
