data_PCOD9253673
_publ_section_title
;
Structure prediction by ZEFSAII (Michael W. Deem and Ramdas Pophale) SiO2 
 PCOD9253673
Probable space group: P 21/C
;
_chemical_formula_sum "Si O2"
_cell_formula_units_Z 28
_cell_length_a 9.000000
_cell_length_b 12.000000
_cell_length_c 21.000000
_cell_angle_alpha 90.000000
_cell_angle_beta 40.000000
_cell_angle_gamma 90.000000
_cell_volume 1457.842299
_symmetry_space_group_name_H-M "P 21/C"
_symmetry_group_IT_number 14
_symmetry_cell_setting 'monoclinic'
loop_
_space_group_symop_operation_xyz
x,y,z
-x,1/2+y,1/2-z
-x,-y,-z
x,1/2-y,1/2+z
loop_
_atom_site_type_symbol
_atom_site_label
_atom_site_fract_x
_atom_site_fract_y
_atom_site_fract_z
Si Si1 0.319838 0.426829 0.699472
Si Si2 0.150494 0.246067 0.857563
Si Si3 0.916116 0.641027 0.359626
Si Si4 0.782413 0.574124 0.548231
Si Si5 0.094955 0.093986 0.638041
Si Si6 0.186745 0.945120 0.487045
Si Si7 0.278197 0.446863 0.218108
O O1 0.296157 0.334516 0.764585
O O2 0.241372 0.382322 0.653577
O O3 0.565194 0.489240 0.621002
O O4 0.137546 0.523811 0.775358
O O5 0.231513 0.180898 0.896909
O O6 0.147663 0.141776 0.807931
O O7 0.927501 0.325573 0.951126
O O8 0.813098 0.608337 0.463364
O O9 0.952354 0.774288 0.353278
O O10 0.149710 0.565826 0.273512
O O11 0.000000 0.500000 0.500000
O O12 0.234028 0.080842 0.658381
O O13 0.209265 0.030884 0.539772
O O14 0.440206 0.938898 0.369562
O O15 0.000000 0.000000 0.500000
#
# Coordination Sequence:
#
# PCOD9253673 Si02
#       7
#     4   4   4   4   4   4   4
#     4  10  25  46  70 100 143 184 233 284 346 421
#     4  11  25  45  71  98 138 183 224 293 345 406
#     4  11  23  45  71 103 139 183 236 285 350 416
#     4  12  26  42  66 105 139 180 235 284 352 413
#     4  10  23  44  69 103 134 182 236 281 348 415
#     4  11  26  46  69 104 139 178 237 287 353 413
#     4  11  24  45  71  98 140 188 227 287 350 415
#
# _framework density 19.206467
#
# number of rings (size 3 to 8) (size 9 to 14) (size 15 to 20)
#    0.000    1.143    2.857    1.714    6.000    3.429 
#    5.143    0.000    0.000    0.000    0.000    0.000 
#    0.000    0.000    0.000    0.000    0.000    0.000 
#
# Total GULP energy -156048.034394 kJ/mol
# GULP energy per Si atom -5573.144086 kJ/mol
# Density = 1.916275 g / cm^3
# Si number density = 19.206467 Si / 1000 Ang^3
#
#
#
# Elastic Constant Matrix: (Units=GPa)
#
#
# Indices 1 2 3 4 5 6 
#
# 1 100.8065 36.5609 49.4018 0.0000 9.2614 0.0000
# 2 36.5609 162.6609 48.0523 0.0000 5.0795 0.0000
# 3 49.4018 48.0523 104.3404 0.0000 12.2269 0.0000
# 4 0.0000 0.0000 0.0000 41.6604 0.0000 16.4003
# 5 9.2614 5.0795 12.2269 0.0000 49.4182 0.0000
# 6 0.0000 0.0000 0.0000 16.4003 0.0000 38.6190
#
#
#
# Elastic Compliance Matrix: (Units=1/GPa)
#
#
# Indices 1 2 3 4 5 6 
#
# 1 0.013193 -0.001300 -0.005534 0.000000 -0.000970 0.000000
# 2 -0.001300 0.007244 -0.002741 0.000000 0.000177 0.000000
# 3 -0.005534 -0.002741 0.013710 0.000000 -0.002073 0.000000
# 4 0.000000 0.000000 0.000000 0.028822 0.000000 -0.012240
# 5 -0.000970 0.000177 -0.002073 0.000000 0.020912 0.000000
# 6 0.000000 0.000000 0.000000 -0.012240 0.000000 0.031092
#
#
# Mechanical properties :
#
#
# Convention : Reuss Voigt Hill
#
# Bulk Modulus (GPa) = 66.68671 70.64865 68.66768
# Shear Modulus (GPa) = 35.93975 41.52573 38.73274
#
# Velocity S-wave (km/s) = 4.33047 4.65485 4.49559
# Velocity P-wave (km/s) = 7.73306 8.10887 7.92320
#
# Compressibility (1/GPa) = 0.01499549
#
# Stress axis : x y z
#
# Youngs Moduli (GPa) = 75.80007 138.03919 72.94174
#
# Poissons Ratio (x) = 0.17948 0.40365
# Poissons Ratio (y) = 0.09856 0.19996
# Poissons Ratio (z) = 0.41947 0.37842
#
# Static dielectric constant tensor:
#      x y z
#    x 1.695580 0.000000 0.001560 
#    y 0.000000 1.682790 0.000000 
#    z 0.001560 0.000000 1.697010 
# 
# From -- ./inp_files/65530.got.cif
#   From: 2010.05.17/outbox.ucp.g08.bks.cvg/sg14_33_cif.got.tgz:65530.got - 2010.06.11 12:31:08.
