data_PCOD9253425
_publ_section_title
;
Structure prediction by ZEFSAII (Michael W. Deem and Ramdas Pophale) SiO2 
 PCOD9253425
Probable space group: P 21/C
;
_chemical_formula_sum "Si O2"
_cell_formula_units_Z 32
_cell_length_a 13.317014
_cell_length_b 17.886972
_cell_length_c 6.908437
_cell_angle_alpha 90.000000
_cell_angle_beta 113.582850
_cell_angle_gamma 90.000000
_cell_volume 1508.160883
_symmetry_space_group_name_H-M "P 21/C"
_symmetry_group_IT_number 14
_symmetry_cell_setting 'monoclinic'
loop_
_space_group_symop_operation_xyz
x,y,z
-x,1/2+y,1/2-z
-x,-y,-z
x,1/2-y,1/2+z
loop_
_atom_site_type_symbol
_atom_site_label
_atom_site_fract_x
_atom_site_fract_y
_atom_site_fract_z
Si Si1 0.752043 0.648983 0.083627
Si Si2 0.353211 0.931078 0.646855
Si Si3 0.563680 0.630794 0.403962
Si Si4 0.678852 0.468913 0.433799
Si Si5 0.106995 0.459863 0.323472
Si Si6 0.533387 0.593585 0.825202
Si Si7 0.778079 0.810155 0.158701
Si Si8 0.862324 0.496934 0.110455
O O1 0.621966 0.637118 0.024674
O O2 0.756771 0.658906 0.855833
O O3 0.818044 0.573339 0.172186
O O4 0.808627 0.723887 0.203749
O O5 0.448864 0.869355 0.702221
O O6 0.328698 0.933490 0.858527
O O7 0.410224 0.011603 0.648320
O O8 0.234852 0.935573 0.456298
O O9 0.622786 0.550851 0.410326
O O10 0.535092 0.628957 0.611595
O O11 0.661397 0.689541 0.456817
O O12 0.806397 0.486124 0.500098
O O13 0.595138 0.422595 0.232672
O O14 0.143353 0.373002 0.370754
O O15 0.122579 0.482279 0.107488
O O16 0.980542 0.471702 0.273133
#
# Coordination Sequence:
#
# PCOD9253425 Si02
#       8
#     4   4   4   4   4   4   4   4
#     4   9  16  25  38  56  77  99 123 154 192 231
#     4   7   9  15  29  49  70  87 108 145 185 212
#     4   7  10  17  30  49  69  87 110 142 179 214
#     4   7   9  15  29  49  70  87 108 145 185 212
#     4   8  13  21  35  56  77  96 125 164 195 217
#     4   7  10  17  30  49  69  87 110 142 179 214
#     4   9  16  25  38  56  77  99 123 154 192 231
#     4   8  13  21  35  56  77  96 125 164 195 217
#
# _framework density 21.217894999999999
#
# number of rings (size 3 to 8) (size 9 to 14) (size 15 to 20)
#    0.000    4.250    0.000    4.500    0.000    0.000 
#    0.000    0.000    0.000    2.250    0.000   14.000 
#    0.000    0.000    0.000    0.000    0.000    0.000 
#
# Total GULP energy -178205.811933 kJ/mol
# GULP energy per Si atom -5568.931623 kJ/mol
# Density = 2.116960 g / cm^3
# Si number density = 21.217895 Si / 1000 Ang^3
#
#
#
# Elastic Constant Matrix: (Units=GPa)
#
#
# Indices 1 2 3 4 5 6 
#
# 1 115.0159 34.8871 59.4334 0.0000 51.3028 0.0000
# 2 34.8871 59.1516 25.8195 0.0000 19.9811 0.0000
# 3 59.4334 25.8195 85.2476 0.0000 15.5216 0.0000
# 4 0.0000 0.0000 0.0000 26.5724 0.0000 0.0612
# 5 51.3028 19.9811 15.5216 0.0000 51.1280 0.0000
# 6 0.0000 0.0000 0.0000 0.0612 0.0000 15.3559
#
#
#
# Elastic Compliance Matrix: (Units=1/GPa)
#
#
# Indices 1 2 3 4 5 6 
#
# 1 0.025449 -0.002233 -0.013311 0.000000 -0.020622 0.000000
# 2 -0.002233 0.021702 -0.004107 0.000000 -0.004994 0.000000
# 3 -0.013311 -0.004107 0.020673 0.000000 0.008686 0.000000
# 4 0.000000 0.000000 0.000000 0.037633 0.000000 -0.000150
# 5 -0.020622 -0.004994 0.008686 0.000000 0.039566 0.000000
# 6 0.000000 0.000000 0.000000 -0.000150 0.000000 0.065122
#
#
# Mechanical properties :
#
#
# Convention : Reuss Voigt Hill
#
# Bulk Modulus (GPa) = 35.06110 55.52168 45.29139
# Shear Modulus (GPa) = 19.30831 27.89627 23.60229
#
# Velocity S-wave (km/s) = 3.01990 3.62988 3.33885
# Velocity P-wave (km/s) = 5.35909 6.61757 6.02130
#
# Compressibility (1/GPa) = 0.02852164
#
# Stress axis : x y z
#
# Youngs Moduli (GPa) = 39.29488 46.07790 48.37133
#
# Poissons Ratio (x) = 0.10290 0.64388
# Poissons Ratio (y) = 0.08775 0.19866
# Poissons Ratio (z) = 0.52307 0.18924
#
# Static dielectric constant tensor:
#      x y z
#    x 1.836050 0.000000 -0.051020 
#    y 0.000000 1.772820 0.000000 
#    z -0.051020 0.000000 1.875400 
# 
# From -- ./inp_files/32479.got.cif
#   From: 2010.05.17/outbox.cif.g08.bks.cpg/sg14_17_cif.got.tgz:32479.got - 2010.06.03 17:49:19.
