data_PCOD9253580
_publ_section_title
;
Structure prediction by ZEFSAII (Michael W. Deem and Ramdas Pophale) SiO2 
 PCOD9253580
Probable space group: P 21/C
;
_chemical_formula_sum "Si O2"
_cell_formula_units_Z 28
_cell_length_a 15.000000
_cell_length_b 21.000000
_cell_length_c 9.000000
_cell_angle_alpha 90.000000
_cell_angle_beta 150.000000
_cell_angle_gamma 90.000000
_cell_volume 1417.500000
_symmetry_space_group_name_H-M "P 21/C"
_symmetry_group_IT_number 14
_symmetry_cell_setting 'monoclinic'
loop_
_space_group_symop_operation_xyz
x,y,z
-x,1/2+y,1/2-z
-x,-y,-z
x,1/2-y,1/2+z
loop_
_atom_site_type_symbol
_atom_site_label
_atom_site_fract_x
_atom_site_fract_y
_atom_site_fract_z
Si Si1 0.194369 0.030940 0.774511
Si Si2 0.087597 0.335424 0.247744
Si Si3 0.477705 0.945166 0.344829
Si Si4 0.906732 0.792102 0.584745
Si Si5 0.323778 0.690413 0.671342
Si Si6 0.661128 0.905714 0.316930
Si Si7 0.671370 0.322609 0.673280
O O1 0.182183 0.095916 0.858658
O O2 0.259936 0.050681 0.702656
O O3 0.000000 0.000000 0.500000
O O4 0.319511 0.975756 0.018791
O O5 0.147300 0.279664 0.447034
O O6 0.104951 0.303711 0.108939
O O7 0.878206 0.343237 0.990862
O O8 0.420478 0.877686 0.338580
O O9 0.632286 0.933351 0.442631
O O10 0.500000 0.000000 0.500000
O O11 0.787140 0.843498 0.497740
O O12 0.115175 0.808206 0.919369
O O13 0.387160 0.758009 0.827472
O O14 0.338159 0.693662 0.514549
O O15 0.466377 0.878733 0.989426
#
# Coordination Sequence:
#
# PCOD9253580 Si02
#       7
#     4   4   4   4   4   4   4
#     4  11  22  40  60  79 114 160 194 223 276 357
#     4   9  19  34  55  79 107 143 186 230 283 333
#     4  11  24  38  55  85 121 149 187 239 282 333
#     4   9  18  34  55  81 107 139 186 238 279 331
#     4   9  19  37  55  79 113 146 181 229 288 331
#     4  10  21  37  59  81 108 150 197 233 279 336
#     4   9  18  34  57  82 107 139 187 244 281 323
#
# _framework density 19.753086
#
# number of rings (size 3 to 8) (size 9 to 14) (size 15 to 20)
#    0.000    2.286    0.000    3.857    0.000    8.000 
#    0.000    7.143    0.000    0.000    0.000    0.000 
#    0.000    0.000    0.000    0.000    0.000    0.000 
#
# Total GULP energy -156079.647834 kJ/mol
# GULP energy per Si atom -5574.273137 kJ/mol
# Density = 1.970813 g / cm^3
# Si number density = 19.753086 Si / 1000 Ang^3
#
#
#
# Elastic Constant Matrix: (Units=GPa)
#
#
# Indices 1 2 3 4 5 6 
#
# 1 98.4484 26.2856 15.0411 0.0000 29.1967 0.0000
# 2 26.2856 81.0162 2.2823 0.0000 9.5541 0.0000
# 3 15.0411 2.2823 23.0390 0.0000 10.5271 0.0000
# 4 0.0000 0.0000 0.0000 36.4653 0.0000 -0.4232
# 5 29.1967 9.5541 10.5271 0.0000 17.1918 0.0000
# 6 0.0000 0.0000 0.0000 -0.4232 0.0000 57.5936
#
#
#
# Elastic Compliance Matrix: (Units=1/GPa)
#
#
# Indices 1 2 3 4 5 6 
#
# 1 0.021192 -0.002672 0.003049 0.000000 -0.036372 0.000000
# 2 -0.002672 0.013681 0.002485 0.000000 -0.004586 0.000000
# 3 0.003049 0.002485 0.061322 0.000000 -0.044108 0.000000
# 4 0.000000 0.000000 0.000000 0.027426 0.000000 0.000202
# 5 -0.036372 -0.004586 -0.044108 0.000000 0.149495 0.000000
# 6 0.000000 0.000000 0.000000 0.000202 0.000000 0.017365
#
#
# Mechanical properties :
#
#
# Convention : Reuss Voigt Hill
#
# Bulk Modulus (GPa) = 9.81185 32.19129 21.00157
# Shear Modulus (GPa) = 15.68725 32.84311 24.26518
#
# Velocity S-wave (km/s) = 2.82115 4.08202 3.50869
# Velocity P-wave (km/s) = 3.94841 6.20882 5.20285
#
# Compressibility (1/GPa) = 0.10191755
#
# Stress axis : x y z
#
# Youngs Moduli (GPa) = 47.18729 73.09361 16.30736
#
# Poissons Ratio (x) = 0.19533 -0.04971
# Poissons Ratio (y) = 0.12610 -0.04052
# Poissons Ratio (z) = -0.14385 -0.18163
#
# Static dielectric constant tensor:
#      x y z
#    x 1.669440 0.000000 -0.001400 
#    y 0.000000 1.712950 0.000000 
#    z -0.001400 0.000000 1.779520 
# 
# From -- ./inp_files/16888.got.cif
#   From: 2010.05.17/outbox.ucp.g08.bks.cvg/sg14_9_cif.got.tgz:16888.got - 2010.06.11 12:31:08.
