data_PCOD9253676
_publ_section_title
;
Structure prediction by ZEFSAII (Michael W. Deem and Ramdas Pophale) SiO2 
 PCOD9253676
Probable space group: P 21/C
;
_chemical_formula_sum "Si O2"
_cell_formula_units_Z 28
_cell_length_a 9.000000
_cell_length_b 21.000000
_cell_length_c 9.000000
_cell_angle_alpha 90.000000
_cell_angle_beta 50.000000
_cell_angle_gamma 90.000000
_cell_volume 1303.041598
_symmetry_space_group_name_H-M "P 21/C"
_symmetry_group_IT_number 14
_symmetry_cell_setting 'monoclinic'
loop_
_space_group_symop_operation_xyz
x,y,z
-x,1/2+y,1/2-z
-x,-y,-z
x,1/2-y,1/2+z
loop_
_atom_site_type_symbol
_atom_site_label
_atom_site_fract_x
_atom_site_fract_y
_atom_site_fract_z
Si Si1 0.843276 0.853413 0.249060
Si Si2 0.153427 0.957039 0.486659
Si Si3 0.549751 0.547347 0.099588
Si Si4 0.157197 0.896695 0.806531
Si Si5 0.632962 0.725174 0.282683
Si Si6 0.650891 0.266692 0.803563
Si Si7 0.972211 0.172992 0.558971
O O1 0.699329 0.902216 0.428503
O O2 0.719845 0.796302 0.253363
O O3 0.974903 0.826335 0.299671
O O4 0.977906 0.884767 0.033718
O O5 0.115047 0.939557 0.686837
O O6 0.142519 0.889995 0.411194
O O7 0.344000 0.000909 0.354461
O O8 0.000000 0.000000 0.500000
O O9 0.342262 0.575594 0.278077
O O10 0.500000 0.500000 0.000000
O O11 0.250097 0.829483 0.690720
O O12 0.461770 0.719874 0.512442
O O13 0.518840 0.716904 0.202782
O O14 0.821990 0.680122 0.159504
O O15 0.831237 0.231186 0.613201
#
# Coordination Sequence:
#
# PCOD9253676 Si02
#       7
#     4   4   4   4   4   4   4
#     4  12  24  45  70 104 138 186 230 292 353 421
#     4  11  25  47  72  99 141 189 233 291 344 411
#     4  10  23  46  70  97 139 185 234 285 340 419
#     4  11  24  45  76  99 137 183 238 289 356 418
#     4  12  25  42  69 104 146 178 227 293 361 418
#     4  12  25  42  70 108 137 184 231 286 365 420
#     4  12  26  45  69 103 148 178 235 295 354 423
#
# _framework density 21.488185999999999
#
# number of rings (size 3 to 8) (size 9 to 14) (size 15 to 20)
#    0.000    0.571    5.714    1.714    6.000    2.286 
#    0.000    2.143    0.000    0.000    0.000    0.000 
#    0.000    0.000    0.000    0.000    0.000    0.000 
#
# Total GULP energy -156270.513531 kJ/mol
# GULP energy per Si atom -5581.089769 kJ/mol
# Density = 2.143928 g / cm^3
# Si number density = 21.488186 Si / 1000 Ang^3
#
#
#
# Elastic Constant Matrix: (Units=GPa)
#
#
# Indices 1 2 3 4 5 6 
#
# 1 104.9508 34.6557 10.2215 0.0000 -12.3470 0.0000
# 2 34.6557 86.3634 -8.9635 0.0000 -7.3210 0.0000
# 3 10.2215 -8.9635 68.7742 0.0000 -11.5632 0.0000
# 4 0.0000 0.0000 0.0000 24.0752 0.0000 4.7119
# 5 -12.3470 -7.3210 -11.5632 0.0000 30.2488 0.0000
# 6 0.0000 0.0000 0.0000 4.7119 0.0000 49.4307
#
#
#
# Elastic Compliance Matrix: (Units=1/GPa)
#
#
# Indices 1 2 3 4 5 6 
#
# 1 0.011562 -0.004582 -0.001826 0.000000 0.002912 0.000000
# 2 -0.004582 0.013946 0.002941 0.000000 0.002629 0.000000
# 3 -0.001826 0.002941 0.016233 0.000000 0.006172 0.000000
# 4 0.000000 0.000000 0.000000 0.042326 0.000000 -0.004035
# 5 0.002912 0.002629 0.006172 0.000000 0.037243 0.000000
# 6 0.000000 0.000000 0.000000 -0.004035 0.000000 0.020615
#
#
# Mechanical properties :
#
#
# Convention : Reuss Voigt Hill
#
# Bulk Modulus (GPa) = 28.73125 36.87955 32.80540
# Shear Modulus (GPa) = 31.16019 35.69593 33.42806
#
# Velocity S-wave (km/s) = 3.81216 4.08019 3.94845
# Velocity P-wave (km/s) = 5.72508 6.27672 6.00723
#
# Compressibility (1/GPa) = 0.03480531
#
# Stress axis : x y z
#
# Youngs Moduli (GPa) = 86.49188 71.70655 61.60436
#
# Poissons Ratio (x) = 0.32857 0.11248
# Poissons Ratio (y) = 0.39632 -0.18115
# Poissons Ratio (z) = 0.15793 -0.21086
#
# Static dielectric constant tensor:
#      x y z
#    x 1.782070 0.000000 0.010750 
#    y 0.000000 1.864450 0.000000 
#    z 0.010750 0.000000 1.763690 
# 
# From -- ./inp_files/10359.got.cif
#   From: 2010.05.17/outbox.ucp.g08.bks.cvg/sg14_6_cif.got.tgz:10359.got - 2010.06.11 12:31:08.
