data_PCOD9253550
_publ_section_title
;
Structure prediction by ZEFSAII (Michael W. Deem and Ramdas Pophale) SiO2 
 PCOD9253550
Probable space group: P 21/C
;
_chemical_formula_sum "Si O2"
_cell_formula_units_Z 32
_cell_length_a 18.000000
_cell_length_b 12.000000
_cell_length_c 15.000000
_cell_angle_alpha 90.000000
_cell_angle_beta 150.000000
_cell_angle_gamma 90.000000
_cell_volume 1620.000000
_symmetry_space_group_name_H-M "P 21/C"
_symmetry_group_IT_number 14
_symmetry_cell_setting 'monoclinic'
loop_
_space_group_symop_operation_xyz
x,y,z
-x,1/2+y,1/2-z
-x,-y,-z
x,1/2-y,1/2+z
loop_
_atom_site_type_symbol
_atom_site_label
_atom_site_fract_x
_atom_site_fract_y
_atom_site_fract_z
Si Si1 0.807835 0.465322 0.596674
Si Si2 0.328954 0.444492 0.381581
Si Si3 0.635143 0.146061 0.207802
Si Si4 0.850915 0.470446 0.068135
Si Si5 0.872548 0.224922 0.731059
Si Si6 0.629850 0.929180 0.753062
Si Si7 0.214629 0.191771 0.590771
Si Si8 0.669402 0.378723 0.159934
O O1 0.791719 0.538465 0.668846
O O2 0.794480 0.334611 0.607665
O O3 0.684018 0.505272 0.397524
O O4 0.976382 0.493219 0.744731
O O5 0.360048 0.569074 0.376229
O O6 0.477250 0.396053 0.581471
O O7 0.271192 0.367351 0.240850
O O8 0.777954 0.104497 0.412237
O O9 0.618588 0.277299 0.172105
O O10 0.839590 0.383376 0.136773
O O11 0.774038 0.592094 0.971233
O O12 0.807500 0.182941 0.757004
O O13 0.043799 0.264976 0.917292
O O14 0.692866 0.804145 0.827015
O O15 0.458050 0.911192 0.544897
O O16 0.697011 0.008162 0.743945
#
# Coordination Sequence:
#
# PCOD9253550 Si02
#       8
#     4   4   4   4   4   4   4   4
#     4  11  23  42  66  93 127 166 218 265 320 375
#     4  10  21  38  66  93 122 168 211 262 318 376
#     4  10  20  39  64  94 124 161 210 265 315 377
#     4  10  23  38  64  96 127 162 212 264 316 374
#     4  11  23  42  65  97 125 170 217 259 317 386
#     4  11  24  46  60  93 133 168 204 272 317 385
#     4  10  22  43  64  89 136 165 210 264 321 377
#     4  11  24  42  67  89 132 169 212 259 327 382
#
# _framework density 19.753086
#
# number of rings (size 3 to 8) (size 9 to 14) (size 15 to 20)
#    0.000    1.500    3.750    0.750    3.500    2.000 
#    2.250    0.000    0.000    0.000    0.000    0.000 
#    0.000    0.000    0.000    0.000    0.000    0.000 
#
# Total GULP energy -178142.053779 kJ/mol
# GULP energy per Si atom -5566.939181 kJ/mol
# Density = 1.970813 g / cm^3
# Si number density = 19.753086 Si / 1000 Ang^3
#
#
#
# Elastic Constant Matrix: (Units=GPa)
#
#
# Indices 1 2 3 4 5 6 
#
# 1 30.9559 24.5971 -2.2171 0.0000 -1.0795 0.0000
# 2 24.5971 123.2277 13.1876 0.0000 -2.3168 0.0000
# 3 -2.2171 13.1876 60.3626 0.0000 -5.2527 0.0000
# 4 0.0000 0.0000 0.0000 36.6890 0.0000 -4.0067
# 5 -1.0795 -2.3168 -5.2527 0.0000 9.4211 0.0000
# 6 0.0000 0.0000 0.0000 -4.0067 0.0000 20.9923
#
#
#
# Elastic Compliance Matrix: (Units=1/GPa)
#
#
# Indices 1 2 3 4 5 6 
#
# 1 0.039171 -0.008120 0.003604 0.000000 0.004501 0.000000
# 2 -0.008120 0.010003 -0.002470 0.000000 0.000152 0.000000
# 3 0.003604 -0.002470 0.018100 0.000000 0.009897 0.000000
# 4 0.000000 0.000000 0.000000 0.027836 0.000000 0.005313
# 5 0.004501 0.000152 0.009897 0.000000 0.112216 0.000000
# 6 0.000000 0.000000 0.000000 0.005313 0.000000 0.048651
#
#
# Mechanical properties :
#
#
# Convention : Reuss Voigt Hill
#
# Bulk Modulus (GPa) = 18.76093 31.74236 25.25165
# Shear Modulus (GPa) = 17.37823 25.35239 21.36531
#
# Velocity S-wave (km/s) = 2.96931 3.58643 3.29237
# Velocity P-wave (km/s) = 4.61239 5.76667 5.22152
#
# Compressibility (1/GPa) = 0.05330225
#
# Stress axis : x y z
#
# Youngs Moduli (GPa) = 25.52900 99.96907 55.24894
#
# Poissons Ratio (x) = 0.81174 -0.19914
# Poissons Ratio (y) = 0.20729 0.13649
# Poissons Ratio (z) = -0.09202 0.24696
#
# Static dielectric constant tensor:
#      x y z
#    x 1.767870 0.000000 0.011180 
#    y 0.000000 1.673520 0.000000 
#    z 0.011180 0.000000 1.688540 
# 
# From -- ./inp_files/49032.got.cif
#   From: 2010.05.17/outbox.ucp.g08.bks.cvg/sg14_25_cif.got.tgz:49032.got - 2010.06.11 12:31:08.
