data_PCOD9253606
_publ_section_title
;
Structure prediction by ZEFSAII (Michael W. Deem and Ramdas Pophale) SiO2 
 PCOD9253606
Probable space group: P 21/C
;
_chemical_formula_sum "Si O2"
_cell_formula_units_Z 32
_cell_length_a 12.000000
_cell_length_b 12.000000
_cell_length_c 12.000000
_cell_angle_alpha 90.000000
_cell_angle_beta 110.000000
_cell_angle_gamma 90.000000
_cell_volume 1623.788849
_symmetry_space_group_name_H-M "P 21/C"
_symmetry_group_IT_number 14
_symmetry_cell_setting 'monoclinic'
loop_
_space_group_symop_operation_xyz
x,y,z
-x,1/2+y,1/2-z
-x,-y,-z
x,1/2-y,1/2+z
loop_
_atom_site_type_symbol
_atom_site_label
_atom_site_fract_x
_atom_site_fract_y
_atom_site_fract_z
Si Si1 0.798457 0.059357 0.932648
Si Si2 0.543451 0.531598 0.332459
Si Si3 0.090613 0.582914 0.090753
Si Si4 0.935885 0.307944 0.299724
Si Si5 0.760420 0.291610 0.036308
Si Si6 0.487569 0.890280 0.569776
Si Si7 0.155700 0.441910 0.326133
Si Si8 0.582511 0.843798 0.071590
O O1 0.881455 0.095212 0.859339
O O2 0.683071 0.989718 0.857331
O O3 0.754495 0.175678 0.969631
O O4 0.860232 0.999498 0.058408
O O5 0.484215 0.574889 0.198845
O O6 0.489406 0.415535 0.360680
O O7 0.534044 0.617421 0.433328
O O8 0.036842 0.699698 0.116403
O O9 0.145724 0.524744 0.218449
O O10 0.183606 0.618889 0.028820
O O11 0.000000 0.500000 0.000000
O O12 0.839065 0.279827 0.173059
O O13 0.052630 0.351691 0.279722
O O14 0.630307 0.332206 0.016115
O O15 0.579827 0.788597 0.588074
O O16 0.500000 0.000000 0.500000
O O17 0.284215 0.387841 0.374050
#
# Coordination Sequence:
#
# PCOD9253606 Si02
#       8
#     4   4   4   4   4   4   4   4
#     4  10  21  41  66  90 121 175 213 259 321 386
#     4  10  22  45  67  92 130 169 218 269 327 390
#     4  11  23  41  65  93 127 172 211 262 321 374
#     4  11  23  39  66  95 127 168 213 266 312 387
#     4  11  22  40  65  92 128 170 219 259 316 388
#     4  12  26  40  67 102 130 166 221 275 323 388
#     4  11  22  44  64  94 132 164 214 262 330 388
#     4  10  24  43  68  95 128 178 209 267 337 381
#
# _framework density 19.706996
#
# number of rings (size 3 to 8) (size 9 to 14) (size 15 to 20)
#    0.000    1.250    3.750    1.875    1.750    3.000 
#    6.750    0.000    0.000    0.000    0.000    0.000 
#    0.000    0.000    0.000    0.000    0.000    0.000 
#
# Total GULP energy -178653.355301 kJ/mol
# GULP energy per Si atom -5582.917353 kJ/mol
# Density = 1.966214 g / cm^3
# Si number density = 19.706996 Si / 1000 Ang^3
#
#
#
# Elastic Constant Matrix: (Units=GPa)
#
#
# Indices 1 2 3 4 5 6 
#
# 1 49.4092 20.1766 12.8287 0.0000 4.2418 0.0000
# 2 20.1766 66.8977 16.6273 0.0000 -2.9736 0.0000
# 3 12.8287 16.6273 87.1670 0.0000 0.6213 0.0000
# 4 0.0000 0.0000 0.0000 16.7153 0.0000 -20.5421
# 5 4.2418 -2.9736 0.6213 0.0000 25.3608 0.0000
# 6 0.0000 0.0000 0.0000 -20.5421 0.0000 -15.7365
#
#
#
# Elastic Compliance Matrix: (Units=1/GPa)
#
#
# Indices 1 2 3 4 5 6 
#
# 1 0.024043 -0.006921 -0.002184 0.000000 -0.004779 0.000000
# 2 -0.006921 0.017778 -0.002396 0.000000 0.003301 0.000000
# 3 -0.002184 -0.002396 0.012252 0.000000 -0.000216 0.000000
# 4 0.000000 0.000000 0.000000 0.022972 0.000000 -0.029988
# 5 -0.004779 0.003301 -0.000216 0.000000 0.040623 0.000000
# 6 0.000000 0.000000 0.000000 -0.029988 0.000000 -0.024401
#
#
# Mechanical properties :
#
#
# Convention : Reuss Voigt Hill
#
# Bulk Modulus (GPa) = 32.18501 33.63767 32.91134
# Shear Modulus (GPa) = 39.48636 15.52401 27.50519
#
# Velocity S-wave (km/s) = 4.48110 2.80972 3.73997
# Velocity P-wave (km/s) = 6.56817 5.25661 5.94865
#
# Compressibility (1/GPa) = 0.03107037
#
# Stress axis : x y z
#
# Youngs Moduli (GPa) = 41.59254 56.24971 81.61735
#
# Poissons Ratio (x) = 0.38930 0.17827
# Poissons Ratio (y) = 0.28786 0.19556
# Poissons Ratio (z) = 0.09085 0.13478
#
# Static dielectric constant tensor:
#      x y z
#    x 1.708480 0.000000 0.005310 
#    y 0.000000 1.688170 0.000000 
#    z 0.005310 0.000000 1.656960 
# 
# From -- ./inp_files/29363.got.cif
#   From: 2010.05.17/outbox.ucp.g08.bks.cvg/sg14_15_cif.got.tgz:29363.got - 2010.06.11 12:31:08.
