data_PCOD9253965
_publ_section_title
;
Structure prediction by ZEFSAII (Michael W. Deem and Ramdas Pophale) SiO2 
 PCOD9253965
Probable space group: C 2/C
;
_chemical_formula_sum "Si O2"
_cell_formula_units_Z 40
_cell_length_a 18.950711
_cell_length_b 7.129726
_cell_length_c 25.833025
_cell_angle_alpha 90.000000
_cell_angle_beta 30.038269
_cell_angle_gamma 90.000000
_cell_volume 1747.212197
_symmetry_space_group_name_H-M "C 2/C"
_symmetry_group_IT_number 15
_symmetry_cell_setting 'monoclinic'
loop_
_space_group_symop_operation_xyz
x,y,z
-x,y,1/2-z
-x,-y,-z
x,-y,1/2+z
1/2+x,1/2+y,z
1/2-x,1/2+y,1/2-z
1/2-x,1/2-y,-z
1/2+x,1/2-y,1/2+z
loop_
_atom_site_type_symbol
_atom_site_label
_atom_site_fract_x
_atom_site_fract_y
_atom_site_fract_z
Si Si1 0.347790 0.626325 0.325266
Si Si2 0.857283 0.912339 0.612680
Si Si3 0.662763 0.923746 0.644511
Si Si4 0.869847 0.703590 0.708230
Si Si5 0.821789 0.445465 0.471887
O O1 0.500000 0.570933 0.250000
O O2 0.333059 0.851661 0.344963
O O3 0.349681 0.624109 0.261778
O O4 0.235863 0.525025 0.433603
O O5 0.889503 0.765904 0.637064
O O6 0.761922 0.839249 0.625681
O O7 0.764820 0.072758 0.699185
O O8 0.000000 0.000000 0.500000
O O9 0.500000 0.863352 0.750000
O O10 0.712670 0.915501 0.553501
O O11 0.011008 0.590839 0.634212
O O12 0.750000 0.250000 0.500000
#
# Coordination Sequence:
#
# PCOD9253965 Si02
#       5
#     8   8   8   8   8
#     4   9  15  25  48  81 109 136 188 248 288 336
#     4  11  23  37  60  92 125 161 201 253 312 363
#     4   9  15  31  54  82 104 151 200 239 291 355
#     4  11  20  36  56  91 124 155 198 257 307 363
#     4  10  15  28  54  84 109 141 206 254 288 344
#
# _framework density 22.893612999999998
#
# number of rings (size 3 to 8) (size 9 to 14) (size 15 to 20)
#    0.000    2.000    8.000    3.600    0.000    0.000 
#    0.000    4.000    0.000    2.400    0.000    0.000 
#    0.000    0.000    0.000    0.000    0.000    0.000 
#
# Total GULP energy -111673.764602 kJ/mol
# GULP energy per Si atom -5583.688230 kJ/mol
# Density = 2.284151 g / cm^3
# Si number density = 22.893613 Si / 1000 Ang^3
#
#
#
# Elastic Constant Matrix: (Units=GPa)
#
#
# Indices 1 2 3 4 5 6 
#
# 1 168.1639 27.7087 36.7949 0.0065 23.5767 -0.0142
# 2 27.7087 40.3821 1.5013 0.0150 16.2041 -0.0145
# 3 36.7949 1.5013 117.4485 -0.0009 18.8896 -0.0011
# 4 0.0065 0.0150 -0.0009 10.8273 -0.0016 15.1926
# 5 23.5767 16.2041 18.8896 -0.0016 41.0952 0.0065
# 6 -0.0142 -0.0145 -0.0011 15.1926 0.0065 14.3832
#
#
#
# Elastic Compliance Matrix: (Units=1/GPa)
#
#
# Indices 1 2 3 4 5 6 
#
# 1 0.007312 -0.004307 -0.001981 0.000007 -0.001586 -0.000004
# 2 -0.004307 0.032239 0.002791 0.000189 -0.011524 -0.000166
# 3 -0.001981 0.002791 0.009819 0.000016 -0.004478 -0.000013
# 4 0.000007 0.000189 0.000016 -0.191562 -0.000126 0.202342
# 5 -0.001586 -0.011524 -0.004478 -0.000126 0.031846 0.000105
# 6 -0.000004 -0.000166 -0.000013 0.202342 0.000105 -0.144203
#
#
# Mechanical properties :
#
#
# Convention : Reuss Voigt Hill
#
# Bulk Modulus (GPa) = 23.59802 50.88937 37.24369
# Shear Modulus (GPa) = -21.41976 30.59377 4.58700
#
# Velocity S-wave (km/s) = -3.06211 3.65957 1.41703
# Velocity P-wave (km/s) = 1.47376 6.33510 4.35669
#
# Compressibility (1/GPa) = 0.04237644
#
# Stress axis : x y z
#
# Youngs Moduli (GPa) = 136.76111 31.01825 101.84002
#
# Poissons Ratio (x) = 0.13360 0.20170
# Poissons Ratio (y) = 0.58904 -0.28420
# Poissons Ratio (z) = 0.27086 -0.08656
#
# Static dielectric constant tensor:
#      x y z
#    x 1.943310 0.000000 0.054460 
#    y 0.000000 1.913520 0.000000 
#    z 0.054460 0.000000 1.802610 
# 
# From -- ./inp_files/298265.got.cif
#   From: 2010.05.17/outbox.cif.g08.bks.cpg/sg15_150_cif.got.tgz:298265.got - 2010.06.03 18:47:42.
