data_PCOD9253896
_publ_section_title
;
Structure prediction by ZEFSAII (Michael W. Deem and Ramdas Pophale) SiO2 
 PCOD9253896
Probable space group: C 2/C
;
_chemical_formula_sum "Si O2"
_cell_formula_units_Z 56
_cell_length_a 16.293745
_cell_length_b 8.678777
_cell_length_c 35.515895
_cell_angle_alpha 90.000000
_cell_angle_beta 155.676222
_cell_angle_gamma 90.000000
_cell_volume 2068.645891
_symmetry_space_group_name_H-M "C 2/C"
_symmetry_group_IT_number 15
_symmetry_cell_setting 'monoclinic'
loop_
_space_group_symop_operation_xyz
x,y,z
-x,y,1/2-z
-x,-y,-z
x,-y,1/2+z
1/2+x,1/2+y,z
1/2-x,1/2+y,1/2-z
1/2-x,1/2-y,-z
1/2+x,1/2-y,1/2+z
loop_
_atom_site_type_symbol
_atom_site_label
_atom_site_fract_x
_atom_site_fract_y
_atom_site_fract_z
Si Si1 0.455697 0.318790 0.959377
Si Si2 0.182893 0.596447 0.417148
Si Si3 0.849126 0.238682 0.156950
Si Si4 0.363246 0.143755 0.229475
Si Si5 0.363920 0.432787 0.067996
Si Si6 0.549348 0.983660 0.574303
Si Si7 0.853163 0.007234 0.757633
O O1 0.344911 0.359420 0.952241
O O2 0.342908 0.402624 0.877311
O O3 0.405283 0.141969 0.927931
O O4 0.697120 0.329274 0.065550
O O5 0.292127 0.513308 0.497382
O O6 0.124518 0.752166 0.416800
O O7 0.985973 0.545186 0.311745
O O8 0.677646 0.146827 0.107985
O O9 0.000000 0.320165 0.250000
O O10 0.996781 0.112347 0.200228
O O11 0.500000 0.160819 0.250000
O O12 0.367331 0.316108 0.249228
O O13 0.186133 0.479069 0.021949
O O14 0.573255 0.502158 0.168993
O O15 0.631912 0.972779 0.651439
#
# Coordination Sequence:
#
# PCOD9253896 Si02
#       7
#     8   8   8   8   8   8   8
#     4  10  15  24  38  54  80 110 141 182 223 249
#     4   9  17  24  35  55  81 115 144 175 216 276
#     4  10  16  21  33  55  78 105 142 179 210 247
#     4   8  14  23  34  51  76 103 136 173 214 251
#     4  10  16  25  36  54  84 114 145 175 220 268
#     4  10  16  23  38  55  81 114 143 180 221 256
#     4   9  16  23  34  56  78 108 142 179 211 255
#
# _framework density 27.070848000000002
#
# number of rings (size 3 to 8) (size 9 to 14) (size 15 to 20)
#    0.000    2.571    2.857    4.286    0.000    0.000 
#    0.000    0.000    0.000    0.000    0.000    6.000 
#    0.000   10.286    0.000    0.000    0.000    0.000 
#
# Total GULP energy -156216.189629 kJ/mol
# GULP energy per Si atom -5579.149630 kJ/mol
# Density = 2.700923 g / cm^3
# Si number density = 27.070848 Si / 1000 Ang^3
#
#
#
# Elastic Constant Matrix: (Units=GPa)
#
#
# Indices 1 2 3 4 5 6 
#
# 1 78.8390 15.5230 54.4957 -0.0004 -11.0823 0.0002
# 2 15.5230 44.4926 17.3664 -0.0005 9.3176 -0.0001
# 3 54.4957 17.3664 284.0312 -0.0015 -20.3346 0.0010
# 4 -0.0004 -0.0005 -0.0015 40.3055 0.0007 1.7737
# 5 -11.0823 9.3176 -20.3346 0.0007 67.5518 -0.0006
# 6 0.0002 -0.0001 0.0010 1.7737 -0.0006 8.3604
#
#
#
# Elastic Compliance Matrix: (Units=1/GPa)
#
#
# Indices 1 2 3 4 5 6 
#
# 1 0.015788 -0.005045 -0.002540 0.000000 0.002521 0.000000
# 2 -0.005045 0.025568 -0.000927 0.000000 -0.004633 0.000000
# 3 -0.002540 -0.000927 0.004133 0.000000 0.000955 0.000000
# 4 0.000000 0.000000 0.000000 0.025044 0.000000 -0.005313
# 5 0.002521 -0.004633 0.000955 0.000000 0.016144 0.000001
# 6 0.000000 0.000000 0.000000 -0.005313 0.000001 0.120738
#
#
# Mechanical properties :
#
#
# Convention : Reuss Voigt Hill
#
# Bulk Modulus (GPa) = 35.13108 64.68145 49.90626
# Shear Modulus (GPa) = 21.37422 44.57539 32.97480
#
# Velocity S-wave (km/s) = 2.81297 4.06226 3.49390
# Velocity P-wave (km/s) = 4.85346 6.77848 5.89508
#
# Compressibility (1/GPa) = 0.02846483
#
# Stress axis : x y z
#
# Youngs Moduli (GPa) = 63.34104 39.11167 241.94420
#
# Poissons Ratio (x) = 0.19730 0.61457
# Poissons Ratio (y) = 0.31953 0.22431
# Poissons Ratio (z) = 0.16089 0.03626
#
# Static dielectric constant tensor:
#      x y z
#    x 2.114880 0.000000 -0.073720 
#    y 0.000000 2.181640 0.000000 
#    z -0.073720 0.000000 2.264110 
# 
# From -- ./inp_files/154521.got.cif
#   From: 2010.05.17/outbox.cif.g08.bks.cpg/sg15_78_cif.got.tgz:154521.got - 2010.06.03 18:47:42.
