data_PCOD9253729
_publ_section_title
;
Structure prediction by ZEFSAII (Michael W. Deem and Ramdas Pophale) SiO2 
 PCOD9253729
Probable space group: P 21/C
;
_chemical_formula_sum "Si O2"
_cell_formula_units_Z 32
_cell_length_a 9.000000
_cell_length_b 15.000000
_cell_length_c 24.000000
_cell_angle_alpha 90.000000
_cell_angle_beta 30.000000
_cell_angle_gamma 90.000000
_cell_volume 1620.000000
_symmetry_space_group_name_H-M "P 21/C"
_symmetry_group_IT_number 14
_symmetry_cell_setting 'monoclinic'
loop_
_space_group_symop_operation_xyz
x,y,z
-x,1/2+y,1/2-z
-x,-y,-z
x,1/2-y,1/2+z
loop_
_atom_site_type_symbol
_atom_site_label
_atom_site_fract_x
_atom_site_fract_y
_atom_site_fract_z
Si Si1 0.385619 0.703282 0.350481
Si Si2 0.761659 0.966631 0.689430
Si Si3 0.454881 0.885149 0.069082
Si Si4 0.377213 0.002097 0.439735
Si Si5 0.617719 0.900670 0.255278
Si Si6 0.178433 0.203787 0.533717
Si Si7 0.070710 0.418397 0.176999
Si Si8 0.709059 0.418244 0.504308
O O1 0.559666 0.622948 0.260198
O O2 0.570855 0.797522 0.290772
O O3 0.338633 0.650093 0.426359
O O4 0.091677 0.746671 0.414019
O O5 0.589792 0.056542 0.725675
O O6 0.051493 0.958050 0.555378
O O7 0.903374 0.997934 0.702012
O O8 0.451328 0.892468 0.002446
O O9 0.130846 0.889832 0.204519
O O10 0.595844 0.787702 0.035563
O O11 0.623202 0.975252 0.038562
O O12 0.315976 0.110283 0.462610
O O13 0.525837 0.968253 0.334607
O O14 0.609658 0.958709 0.408550
O O15 0.946412 0.911637 0.124562
O O16 0.096695 0.161839 0.622152
#
# Coordination Sequence:
#
# PCOD9253729 Si02
#       8
#     4   4   4   4   4   4   4   4
#     4  12  27  44  73 107 146 193 236 299 374 444
#     4  11  24  45  72 102 145 186 234 304 361 434
#     4  11  25  48  71 106 144 194 247 300 361 444
#     4  11  25  49  72 103 145 188 243 306 361 432
#     4  12  26  44  71 105 141 189 238 296 366 440
#     4  11  26  44  76 107 137 194 244 302 368 438
#     4  11  23  50  70 104 145 189 246 305 368 425
#     4  11  27  46  70 106 149 188 242 301 368 434
#
# _framework density 19.753086
#
# number of rings (size 3 to 8) (size 9 to 14) (size 15 to 20)
#    0.000    0.750    5.000    2.625    5.250    4.000 
#    0.000    0.000    0.000    0.000    0.000    0.000 
#    0.000    0.000    0.000    0.000    0.000    0.000 
#
# Total GULP energy -178192.402187 kJ/mol
# GULP energy per Si atom -5568.512568 kJ/mol
# Density = 1.970813 g / cm^3
# Si number density = 19.753086 Si / 1000 Ang^3
#
#
#
# Elastic Constant Matrix: (Units=GPa)
#
#
# Indices 1 2 3 4 5 6 
#
# 1 79.4377 39.1885 28.2527 0.0000 -10.7069 0.0000
# 2 39.1885 193.2716 71.4324 0.0000 -5.6574 0.0000
# 3 28.2527 71.4324 137.1361 0.0000 -0.5476 0.0000
# 4 0.0000 0.0000 0.0000 50.8075 0.0000 1.2464
# 5 -10.7069 -5.6574 -0.5476 0.0000 37.0785 0.0000
# 6 0.0000 0.0000 0.0000 1.2464 0.0000 45.1374
#
#
#
# Elastic Compliance Matrix: (Units=1/GPa)
#
#
# Indices 1 2 3 4 5 6 
#
# 1 0.014881 -0.002198 -0.001905 0.000000 0.003933 0.000000
# 2 -0.002198 0.006764 -0.003069 0.000000 0.000352 0.000000
# 3 -0.001905 -0.003069 0.009280 0.000000 -0.000881 0.000000
# 4 0.000000 0.000000 0.000000 0.019695 0.000000 -0.000544
# 5 0.003933 0.000352 -0.000881 0.000000 0.028146 0.000000
# 6 0.000000 0.000000 0.000000 -0.000544 0.000000 0.022170
#
#
# Mechanical properties :
#
#
# Convention : Reuss Voigt Hill
#
# Bulk Modulus (GPa) = 60.31353 76.39917 68.35635
# Shear Modulus (GPa) = 41.38821 44.66948 43.02884
#
# Velocity S-wave (km/s) = 4.58239 4.76057 4.67233
# Velocity P-wave (km/s) = 7.65491 8.30532 7.98674
#
# Compressibility (1/GPa) = 0.01658003
#
# Stress axis : x y z
#
# Youngs Moduli (GPa) = 67.20203 147.83202 107.76178
#
# Poissons Ratio (x) = 0.32493 0.20529
# Poissons Ratio (y) = 0.14771 0.33075
# Poissons Ratio (z) = 0.12802 0.45374
#
# Static dielectric constant tensor:
#      x y z
#    x 1.814510 0.000000 -0.007480 
#    y 0.000000 1.666070 0.000000 
#    z -0.007480 0.000000 1.728240 
# 
# From -- ./inp_files/72444.got.cif
#   From: 2010.05.17/outbox.ucp.g08.bks.cvg/sg14_37_cif.got.tgz:72444.got - 2010.06.11 12:31:08.
