data_PCOD9253123
_publ_section_title
;
Structure prediction by ZEFSAII (Michael W. Deem and Ramdas Pophale) SiO2 
 PCOD9253123
Probable space group: P 21/C
;
_chemical_formula_sum "Si O2"
_cell_formula_units_Z 24
_cell_length_a 8.633836
_cell_length_b 11.050174
_cell_length_c 12.732057
_cell_angle_alpha 90.000000
_cell_angle_beta 113.092206
_cell_angle_gamma 90.000000
_cell_volume 1117.378306
_symmetry_space_group_name_H-M "P 21/C"
_symmetry_group_IT_number 14
_symmetry_cell_setting 'monoclinic'
loop_
_space_group_symop_operation_xyz
x,y,z
-x,1/2+y,1/2-z
-x,-y,-z
x,1/2-y,1/2+z
loop_
_atom_site_type_symbol
_atom_site_label
_atom_site_fract_x
_atom_site_fract_y
_atom_site_fract_z
Si Si1 0.749555 0.477097 0.802354
Si Si2 0.733387 0.660637 0.972453
Si Si3 0.469513 0.393721 0.577138
Si Si4 0.891905 0.283663 0.999705
Si Si5 0.884838 0.459733 0.171822
Si Si6 0.176023 0.964468 0.099622
O O1 0.672313 0.587179 0.851564
O O2 0.629591 0.402052 0.695161
O O3 0.914043 0.519157 0.782561
O O4 0.823381 0.391239 0.910811
O O5 0.597122 0.760395 0.973618
O O6 0.910437 0.721458 0.980485
O O7 0.787796 0.564880 0.078895
O O8 0.500000 0.500000 0.500000
O O9 0.316253 0.441591 0.606293
O O10 0.863769 0.330006 0.109797
O O11 0.790773 0.165182 0.943540
O O12 0.835397 0.456873 0.278825
O O13 0.000000 0.000000 0.000000
#
# Coordination Sequence:
#
# PCOD9253123 Si02
#       6
#     4   4   4   4   4   4
#     4   9  21  42  68  93 128 175 218 281 336 387
#     4   9  20  44  67  93 128 178 225 265 336 407
#     4  12  26  40  60  97 142 173 216 283 342 391
#     4   9  20  43  68  93 126 170 225 274 328 403
#     4   9  21  44  74  91 126 180 230 275 329 402
#     4  12  24  40  63 103 129 170 230 269 335 405
#
# _framework density 21.478847999999999
#
# number of rings (size 3 to 8) (size 9 to 14) (size 15 to 20)
#    0.000    2.000    1.667    3.000    2.333    5.333 
#    0.000    1.667    0.000    0.000    0.000    0.000 
#    0.000    0.000    0.000    0.000    0.000    0.000 
#
# Total GULP energy -133932.152728 kJ/mol
# GULP energy per Si atom -5580.506364 kJ/mol
# Density = 2.142996 g / cm^3
# Si number density = 21.478848 Si / 1000 Ang^3
#
#
#
# Elastic Constant Matrix: (Units=GPa)
#
#
# Indices 1 2 3 4 5 6 
#
# 1 47.1962 28.6482 49.3998 0.0000 0.5839 0.0000
# 2 28.6482 101.5089 29.7183 0.0000 -3.5164 0.0000
# 3 49.3998 29.7183 114.1711 0.0000 -10.0399 0.0000
# 4 0.0000 0.0000 0.0000 21.4177 0.0000 6.0082
# 5 0.5839 -3.5164 -10.0399 0.0000 26.3213 0.0000
# 6 0.0000 0.0000 0.0000 6.0082 0.0000 36.5877
#
#
#
# Elastic Compliance Matrix: (Units=1/GPa)
#
#
# Indices 1 2 3 4 5 6 
#
# 1 0.045150 -0.007689 -0.018327 0.000000 -0.009019 0.000000
# 2 -0.007689 0.011977 0.000378 0.000000 0.001915 0.000000
# 3 -0.018327 0.000378 0.017208 0.000000 0.007021 0.000000
# 4 0.000000 0.000000 0.000000 0.048945 0.000000 -0.008037
# 5 -0.009019 0.001915 0.007021 0.000000 0.041126 0.000000
# 6 0.000000 0.000000 0.000000 -0.008037 0.000000 0.028651
#
#
# Mechanical properties :
#
#
# Convention : Reuss Voigt Hill
#
# Bulk Modulus (GPa) = 43.36998 53.15652 48.26325
# Shear Modulus (GPa) = 19.83963 27.20603 23.52283
#
# Velocity S-wave (km/s) = 3.04251 3.56285 3.31291
# Velocity P-wave (km/s) = 5.70774 6.45967 6.09531
#
# Compressibility (1/GPa) = 0.02305743
#
# Stress axis : x y z
#
# Youngs Moduli (GPa) = 22.14831 83.49211 58.11341
#
# Poissons Ratio (x) = 0.64199 1.06506
# Poissons Ratio (y) = 0.17030 -0.02195
# Poissons Ratio (z) = 0.40592 -0.03154
#
# Static dielectric constant tensor:
#      x y z
#    x 1.769270 0.000000 -0.017800 
#    y 0.000000 1.786710 0.000000 
#    z -0.017800 0.000000 1.755360 
# 
# From -- ./inp_files/24275.got.cif
#   From: 2010.05.17/outbox.cif.g08.bks.cpg/sg14_13_cif.got.tgz:24275.got - 2010.06.03 17:49:19.
