data_PCOD9253144
_publ_section_title
;
Structure prediction by ZEFSAII (Michael W. Deem and Ramdas Pophale) SiO2 
 PCOD9253144
Probable space group: P 21/C
;
_chemical_formula_sum "Si O2"
_cell_formula_units_Z 16
_cell_length_a 16.180291
_cell_length_b 4.720906
_cell_length_c 8.540904
_cell_angle_alpha 90.000000
_cell_angle_beta 110.010018
_cell_angle_gamma 90.000000
_cell_volume 613.018657
_symmetry_space_group_name_H-M "P 21/C"
_symmetry_group_IT_number 14
_symmetry_cell_setting 'monoclinic'
loop_
_space_group_symop_operation_xyz
x,y,z
-x,1/2+y,1/2-z
-x,-y,-z
x,1/2-y,1/2+z
loop_
_atom_site_type_symbol
_atom_site_label
_atom_site_fract_x
_atom_site_fract_y
_atom_site_fract_z
Si Si1 0.768133 0.965618 0.578220
Si Si2 0.300064 0.961630 0.799606
Si Si3 0.964047 0.925016 0.807468
Si Si4 0.471314 0.173307 0.327382
O O1 0.697252 0.147973 0.630270
O O2 0.863784 0.010644 0.712265
O O3 0.743399 0.641189 0.589738
O O4 0.761675 0.036329 0.392667
O O5 0.387134 0.127995 0.803238
O O6 0.022977 0.095958 0.720975
O O7 0.000000 0.000000 0.000000
O O8 0.538355 0.418990 0.306762
O O9 0.500000 0.000000 0.500000
#
# Coordination Sequence:
#
# PCOD9253144 Si02
#       4
#     4   4   4   4
#     4  12  25  46  70 104 142 186 235 288 349 417
#     4  12  26  46  71 101 140 185 233 292 350 417
#     4  12  24  43  70 104 142 187 234 288 346 413
#     4  12  27  49  74 105 140 184 234 292 354 421
#
# _framework density 26.100349999999999
#
# number of rings (size 3 to 8) (size 9 to 14) (size 15 to 20)
#    0.000    0.000    0.000   10.500    0.000    4.000 
#    0.000    0.000    0.000    0.000    0.000    0.000 
#    0.000    0.000    0.000    0.000    0.000    0.000 
#
# Total GULP energy -89758.646541 kJ/mol
# GULP energy per Si atom -5609.915409 kJ/mol
# Density = 2.604094 g / cm^3
# Si number density = 26.100350 Si / 1000 Ang^3
#
#
#
# Elastic Constant Matrix: (Units=GPa)
#
#
# Indices 1 2 3 4 5 6 
#
# 1 92.6540 26.6884 6.0119 0.0000 23.3138 0.0000
# 2 26.6884 122.1589 4.2120 0.0000 5.8596 0.0000
# 3 6.0119 4.2120 93.5060 0.0000 9.4681 0.0000
# 4 0.0000 0.0000 0.0000 39.5223 0.0000 -10.8160
# 5 23.3138 5.8596 9.4681 0.0000 36.5545 0.0000
# 6 0.0000 0.0000 0.0000 -10.8160 0.0000 31.1553
#
#
#
# Elastic Compliance Matrix: (Units=1/GPa)
#
#
# Indices 1 2 3 4 5 6 
#
# 1 0.013617 -0.002580 0.000080 0.000000 -0.008292 0.000000
# 2 -0.002580 0.008744 -0.000259 0.000000 0.000311 0.000000
# 3 0.000080 -0.000259 0.010990 0.000000 -0.002856 0.000000
# 4 0.000000 0.000000 0.000000 0.027958 0.000000 0.009706
# 5 -0.008292 0.000311 -0.002856 0.000000 0.033335 0.000000
# 6 0.000000 0.000000 0.000000 0.009706 0.000000 0.035467
#
#
# Mechanical properties :
#
#
# Convention : Reuss Voigt Hill
#
# Bulk Modulus (GPa) = 35.92871 42.46040 39.19456
# Shear Modulus (GPa) = 34.50478 39.54020 37.02249
#
# Velocity S-wave (km/s) = 3.63988 3.89643 3.77034
# Velocity P-wave (km/s) = 5.60896 6.04536 5.83125
#
# Compressibility (1/GPa) = 0.02783289
#
# Stress axis : x y z
#
# Youngs Moduli (GPa) = 73.43623 114.36744 90.98985
#
# Poissons Ratio (x) = 0.29507 -0.00731
# Poissons Ratio (y) = 0.18947 0.02361
# Poissons Ratio (z) = -0.00590 0.02968
#
# Static dielectric constant tensor:
#      x y z
#    x 2.084140 0.000000 -0.027240 
#    y 0.000000 1.934280 0.000000 
#    z -0.027240 0.000000 1.939530 
# 
# From -- ./inp_files/14856.got.cif
#   From: 2010.05.17/outbox.cif.g08.bks.cpg/sg14_8_cif.got.tgz:14856.got - 2010.06.03 17:49:19.
