data_PCOD9253932
_publ_section_title
;
Structure prediction by ZEFSAII (Michael W. Deem and Ramdas Pophale) SiO2 
 PCOD9253932
Probable space group: C 2/C
;
_chemical_formula_sum "Si O2"
_cell_formula_units_Z 56
_cell_length_a 7.823621
_cell_length_b 14.304646
_cell_length_c 24.481859
_cell_angle_alpha 90.000000
_cell_angle_beta 58.949497
_cell_angle_gamma 90.000000
_cell_volume 2347.278729
_symmetry_space_group_name_H-M "C 2/C"
_symmetry_group_IT_number 15
_symmetry_cell_setting 'monoclinic'
loop_
_space_group_symop_operation_xyz
x,y,z
-x,y,1/2-z
-x,-y,-z
x,-y,1/2+z
1/2+x,1/2+y,z
1/2-x,1/2+y,1/2-z
1/2-x,1/2-y,-z
1/2+x,1/2-y,1/2+z
loop_
_atom_site_type_symbol
_atom_site_label
_atom_site_fract_x
_atom_site_fract_y
_atom_site_fract_z
Si Si1 0.743223 0.602210 0.712289
Si Si2 0.754208 0.998664 0.395785
Si Si3 0.263452 0.515223 0.182479
Si Si4 0.650222 0.312319 0.063148
Si Si5 0.780852 0.846920 0.965756
Si Si6 0.165767 0.938178 0.440695
Si Si7 0.716357 0.710557 0.352538
O O1 0.500000 0.613422 0.750000
O O2 0.803563 0.530391 0.654861
O O3 0.802293 0.556132 0.759787
O O4 0.828746 0.702760 0.680322
O O5 0.687994 0.099478 0.429415
O O6 0.995625 0.008348 0.353177
O O7 0.734570 0.908497 0.439060
O O8 0.222486 0.486190 0.127037
O O9 0.203667 0.623333 0.195408
O O10 0.445062 0.350248 0.070128
O O11 0.650537 0.253213 0.119738
O O12 0.750000 0.250000 0.000000
O O13 0.016981 0.832911 0.913247
O O14 0.750000 0.750000 0.000000
O O15 0.708091 0.911542 0.027907
O O16 0.000000 0.000000 0.500000
#
# Coordination Sequence:
#
# PCOD9253932 Si02
#       7
#     8   8   8   8   8   8   8
#     4   9  18  35  57  78 104 139 194 229 269 324
#     4   8  17  31  52  75 103 144 183 216 257 332
#     4   9  17  32  56  78 102 143 180 232 260 333
#     4  10  15  26  54  83 103 129 179 230 265 307
#     4  11  21  35  54  82 117 146 182 221 273 339
#     4  11  17  33  58  81 107 143 191 217 271 334
#     4  10  19  33  58  84 107 141 184 230 278 320
#
# _framework density 23.857413999999999
#
# number of rings (size 3 to 8) (size 9 to 14) (size 15 to 20)
#    0.000    2.286    5.714    0.857    0.000    0.000 
#    2.571    2.857    3.143    0.000    0.000    0.000 
#    0.000    0.000    0.000    0.000    0.000    0.000 
#
# Total GULP energy -155994.720396 kJ/mol
# GULP energy per Si atom -5571.240014 kJ/mol
# Density = 2.380311 g / cm^3
# Si number density = 23.857414 Si / 1000 Ang^3
#
#
#
# Elastic Constant Matrix: (Units=GPa)
#
#
# Indices 1 2 3 4 5 6 
#
# 1 70.3189 14.5868 29.8456 0.0000 -4.8866 0.0000
# 2 14.5868 151.0501 74.2884 0.0000 25.8241 0.0000
# 3 29.8456 74.2884 144.6270 0.0001 22.4323 -0.0001
# 4 0.0000 0.0000 0.0001 38.2919 0.0000 9.5178
# 5 -4.8866 25.8241 22.4323 0.0000 31.8976 0.0000
# 6 0.0000 0.0000 -0.0001 9.5178 0.0000 18.1751
#
#
#
# Elastic Compliance Matrix: (Units=1/GPa)
#
#
# Indices 1 2 3 4 5 6 
#
# 1 0.016442 -0.000629 -0.003973 0.000000 0.005822 0.000000
# 2 -0.000629 0.009485 -0.003969 0.000000 -0.004984 0.000000
# 3 -0.003973 -0.003969 0.010516 0.000000 -0.004791 0.000000
# 4 0.000000 0.000000 0.000000 0.030023 0.000000 -0.015722
# 5 0.005822 -0.004984 -0.004791 0.000000 0.039647 0.000000
# 6 0.000000 0.000000 0.000000 -0.015722 0.000000 0.063254
#
#
# Mechanical properties :
#
#
# Convention : Reuss Voigt Hill
#
# Bulk Modulus (GPa) = 51.81133 67.04863 59.42998
# Shear Modulus (GPa) = 25.91427 34.15793 30.03610
#
# Velocity S-wave (km/s) = 3.29935 3.78796 3.55207
# Velocity P-wave (km/s) = 6.02317 6.87724 6.46432
#
# Compressibility (1/GPa) = 0.01930080
#
# Stress axis : x y z
#
# Youngs Moduli (GPa) = 60.81874 105.42574 95.09248
#
# Poissons Ratio (x) = 0.06635 0.37779
# Poissons Ratio (y) = 0.03827 0.37745
# Poissons Ratio (z) = 0.24163 0.41846
#
# Static dielectric constant tensor:
#      x y z
#    x 2.010930 0.000000 -0.086480 
#    y 0.000000 2.041670 0.000000 
#    z -0.086480 0.000000 1.910120 
# 
# From -- ./inp_files/291976.got.cif
#   From: 2010.05.17/outbox.cif.g08.bks.cpg/sg15_146_cif.got.tgz:291976.got - 2010.06.03 18:47:42.
