data_PCOD9253189
_publ_section_title
;
Structure prediction by ZEFSAII (Michael W. Deem and Ramdas Pophale) SiO2 
 PCOD9253189
Probable space group: P 21/C
;
_chemical_formula_sum "Si O2"
_cell_formula_units_Z 22
_cell_length_a 13.889147
_cell_length_b 8.635632
_cell_length_c 23.076522
_cell_angle_alpha 90.000000
_cell_angle_beta 17.736475
_cell_angle_gamma 90.000000
_cell_volume 843.191519
_symmetry_space_group_name_H-M "P 21/C"
_symmetry_group_IT_number 14
_symmetry_cell_setting 'monoclinic'
loop_
_space_group_symop_operation_xyz
x,y,z
-x,1/2+y,1/2-z
-x,-y,-z
x,1/2-y,1/2+z
loop_
_atom_site_type_symbol
_atom_site_label
_atom_site_fract_x
_atom_site_fract_y
_atom_site_fract_z
Si Si1 0.894832 0.756080 0.216998
Si Si2 0.500000 0.000000 0.000000
Si Si3 0.209696 0.922790 0.701074
Si Si4 0.615675 0.495003 0.216694
Si Si5 0.514904 0.831153 0.323137
Si Si6 0.439747 0.303175 0.427409
O O1 0.622608 0.674998 0.409858
O O2 0.779951 0.805542 0.219156
O O3 0.005305 0.921772 0.177691
O O4 0.192207 0.644700 0.043818
O O5 0.415752 0.932305 0.112628
O O6 0.373718 0.853907 0.664498
O O7 0.500000 0.000000 0.500000
O O8 0.937265 0.798257 0.841630
O O9 0.497379 0.663694 0.302514
O O10 0.482478 0.453462 0.229769
O O11 0.491742 0.365514 0.332958
O O12 0.000000 0.500000 0.000000
#
# Coordination Sequence:
#
# PCOD9253189 Si02
#       6
#     4   2   4   4   4   4
#     4  12  26  49  76 116 154 205 253 327 388 474
#     4  12  24  48  82 106 164 190 262 316 400 468
#     4  12  29  48  76 114 155 201 257 317 400 474
#     4  12  27  50  77 112 154 207 259 325 385 455
#     4  12  27  49  77 111 155 202 264 314 391 454
#     4  12  29  48  76 118 151 206 259 321 395 471
#
# _framework density 26.091345
#
# number of rings (size 3 to 8) (size 9 to 14) (size 15 to 20)
#    0.000    0.000    7.273    0.000   10.182    0.727 
#    0.000    0.000    0.000    0.000    0.000    0.000 
#    0.000    0.000    0.000    0.000    0.000    0.000 
#
# Total GULP energy -122513.825608 kJ/mol
# GULP energy per Si atom -5568.810255 kJ/mol
# Density = 2.603196 g / cm^3
# Si number density = 26.091345 Si / 1000 Ang^3
#
#
#
# Elastic Constant Matrix: (Units=GPa)
#
#
# Indices 1 2 3 4 5 6 
#
# 1 42.1776 4.5617 11.4194 0.0000 -9.7208 0.0000
# 2 4.5617 96.6366 2.8190 0.0000 -10.2660 0.0000
# 3 11.4194 2.8190 105.5540 0.0000 -19.2140 0.0000
# 4 0.0000 0.0000 0.0000 25.6018 0.0000 -2.2266
# 5 -9.7208 -10.2660 -19.2140 0.0000 35.2747 0.0000
# 6 0.0000 0.0000 0.0000 -2.2266 0.0000 54.5503
#
#
#
# Elastic Compliance Matrix: (Units=1/GPa)
#
#
# Indices 1 2 3 4 5 6 
#
# 1 0.025598 -0.000523 -0.001664 0.000000 0.005996 0.000000
# 2 -0.000523 0.010698 0.000346 0.000000 0.003158 0.000000
# 3 -0.001664 0.000346 0.010634 0.000000 0.005434 0.000000
# 4 0.000000 0.000000 0.000000 0.039199 0.000000 0.001600
# 5 0.005996 0.003158 0.005434 0.000000 0.033880 0.000000
# 6 0.000000 0.000000 0.000000 0.001600 0.000000 0.018397
#
#
# Mechanical properties :
#
#
# Convention : Reuss Voigt Hill
#
# Bulk Modulus (GPa) = 23.12264 31.32982 27.22623
# Shear Modulus (GPa) = 31.94797 38.12323 35.03560
#
# Velocity S-wave (km/s) = 3.50303 3.82664 3.66841
# Velocity P-wave (km/s) = 5.02425 5.61765 5.32922
#
# Compressibility (1/GPa) = 0.04324765
#
# Stress axis : x y z
#
# Youngs Moduli (GPa) = 39.06526 93.47460 94.03977
#
# Poissons Ratio (x) = 0.04888 0.15648
# Poissons Ratio (y) = 0.02043 -0.03250
# Poissons Ratio (z) = 0.06500 -0.03231
#
# Static dielectric constant tensor:
#      x y z
#    x 2.065050 0.000000 -0.000210 
#    y 0.000000 2.057030 0.000000 
#    z -0.000210 0.000000 2.151990 
# 
# From -- ./inp_files/73711.got.cif
#   From: 2010.05.17/outbox.cif.g08.bks.cpg/sg14_37_cif.got.tgz:73711.got - 2010.06.03 17:49:19.
