data_PCOD9253929
_publ_section_title
;
Structure prediction by ZEFSAII (Michael W. Deem and Ramdas Pophale) SiO2 
 PCOD9253929
Probable space group: C 2/C
;
_chemical_formula_sum "Si O2"
_cell_formula_units_Z 64
_cell_length_a 6.864141
_cell_length_b 26.529679
_cell_length_c 14.516264
_cell_angle_alpha 90.000000
_cell_angle_beta 91.607061
_cell_angle_gamma 90.000000
_cell_volume 2642.422100
_symmetry_space_group_name_H-M "C 2/C"
_symmetry_group_IT_number 15
_symmetry_cell_setting 'monoclinic'
loop_
_space_group_symop_operation_xyz
x,y,z
-x,y,1/2-z
-x,-y,-z
x,-y,1/2+z
1/2+x,1/2+y,z
1/2-x,1/2+y,1/2-z
1/2-x,1/2-y,-z
1/2+x,1/2-y,1/2+z
loop_
_atom_site_type_symbol
_atom_site_label
_atom_site_fract_x
_atom_site_fract_y
_atom_site_fract_z
Si Si1 0.244424 0.962358 0.039841
Si Si2 0.728240 0.869019 0.342549
Si Si3 0.173666 0.070316 0.006758
Si Si4 0.850589 0.732957 0.158645
Si Si5 0.275424 0.627499 0.323474
Si Si6 0.802870 0.150839 0.638155
Si Si7 0.677649 0.892750 0.624195
Si Si8 0.628291 0.199375 0.002305
O O1 0.297872 0.940147 0.941077
O O2 0.010755 0.953988 0.047665
O O3 0.324756 0.923658 0.116741
O O4 0.291413 0.021209 0.041133
O O5 0.713272 0.867718 0.232920
O O6 0.618170 0.826229 0.401191
O O7 0.960098 0.856394 0.360578
O O8 0.105410 0.099476 0.096746
O O9 0.265508 0.113915 0.944740
O O10 0.701743 0.687847 0.179001
O O11 0.776474 0.788977 0.139020
O O12 0.000000 0.734374 0.250000
O O13 0.946346 0.715013 0.063473
O O14 0.287886 0.606143 0.221836
O O15 0.050224 0.616538 0.352311
O O16 0.731548 0.844055 0.563905
O O17 0.750000 0.250000 0.000000
#
# Coordination Sequence:
#
# PCOD9253929 Si02
#       8
#     8   8   8   8   8   8   8   8
#     4   9  20  38  55  79 108 146 187 233 273 321
#     4   9  17  29  52  78 100 136 189 226 259 325
#     4  10  22  36  53  79 116 145 182 232 281 322
#     4  11  17  31  54  81 107 142 184 226 268 336
#     4  10  20  35  54  84 111 141 180 227 279 332
#     4  10  18  31  50  79 106 142 186 221 271 332
#     4   9  19  34  57  80 106 139 190 222 270 335
#     4  10  15  26  51  81  98 134 178 231 263 315
#
# _framework density 24.220205
#
# number of rings (size 3 to 8) (size 9 to 14) (size 15 to 20)
#    0.000    2.250    5.000    0.000    0.000    2.500 
#    0.000    2.500    0.000    6.750    0.000    0.000 
#    0.000    0.000    0.000    0.000    0.000    0.000 
#
# Total GULP energy -178824.996223 kJ/mol
# GULP energy per Si atom -5588.281132 kJ/mol
# Density = 2.416508 g / cm^3
# Si number density = 24.220205 Si / 1000 Ang^3
#
#
#
# Elastic Constant Matrix: (Units=GPa)
#
#
# Indices 1 2 3 4 5 6 
#
# 1 69.1334 20.8628 16.8695 0.0000 -8.6534 0.0000
# 2 20.8628 221.2116 91.3628 0.0000 -5.1305 0.0000
# 3 16.8695 91.3628 194.0155 0.0000 -23.0670 0.0000
# 4 0.0000 0.0000 0.0000 13.8341 0.0000 17.0133
# 5 -8.6534 -5.1305 -23.0670 0.0000 32.9014 0.0000
# 6 0.0000 0.0000 0.0000 17.0133 0.0000 2.2292
#
#
#
# Elastic Compliance Matrix: (Units=1/GPa)
#
#
# Indices 1 2 3 4 5 6 
#
# 1 0.015369 -0.001231 -0.000326 0.000000 0.003622 0.000000
# 2 -0.001231 0.005745 -0.002760 0.000000 -0.001363 0.000000
# 3 -0.000326 -0.002760 0.007005 0.000000 0.004395 0.000000
# 4 0.000000 0.000000 0.000000 -0.008620 0.000000 0.065787
# 5 0.003622 -0.001363 0.004395 0.000000 0.034215 0.000000
# 6 0.000000 0.000000 0.000000 0.065787 0.000000 -0.053493
#
#
# Mechanical properties :
#
#
# Convention : Reuss Voigt Hill
#
# Bulk Modulus (GPa) = 51.32295 82.50564 66.91430
# Shear Modulus (GPa) = 325.71466 33.47730 179.59598
#
# Velocity S-wave (km/s) = 11.60916 3.72184 8.62046
# Velocity P-wave (km/s) = 14.17508 7.25315 11.25924
#
# Compressibility (1/GPa) = 0.01948446
#
# Stress axis : x y z
#
# Youngs Moduli (GPa) = 65.06551 174.06081 142.75464
#
# Poissons Ratio (x) = 0.21423 0.04656
# Poissons Ratio (y) = 0.08008 0.39407
# Poissons Ratio (z) = 0.02122 0.48049
#
# Static dielectric constant tensor:
#      x y z
#    x 2.112020 0.000000 0.042720 
#    y 0.000000 1.885280 0.000000 
#    z 0.042720 0.000000 1.920420 
# 
# From -- ./inp_files/91803.got.cif
#   From: 2010.05.17/outbox.cif.g08.bks.cpg/sg15_46_cif.got.tgz:91803.got - 2010.06.03 18:47:42.
