data_PCOD9253983
_publ_section_title
;
Structure prediction by ZEFSAII (Michael W. Deem and Ramdas Pophale) SiO2 
 PCOD9253983
Probable space group: C 2/C
;
_chemical_formula_sum "Si O2"
_cell_formula_units_Z 56
_cell_length_a 16.155810
_cell_length_b 11.419387
_cell_length_c 19.039429
_cell_angle_alpha 90.000000
_cell_angle_beta 44.891818
_cell_angle_gamma 90.000000
_cell_volume 2479.070597
_symmetry_space_group_name_H-M "C 2/C"
_symmetry_group_IT_number 15
_symmetry_cell_setting 'monoclinic'
loop_
_space_group_symop_operation_xyz
x,y,z
-x,y,1/2-z
-x,-y,-z
x,-y,1/2+z
1/2+x,1/2+y,z
1/2-x,1/2+y,1/2-z
1/2-x,1/2-y,-z
1/2+x,1/2-y,1/2+z
loop_
_atom_site_type_symbol
_atom_site_label
_atom_site_fract_x
_atom_site_fract_y
_atom_site_fract_z
Si Si1 0.885473 0.772363 0.865146
Si Si2 0.662788 0.652554 0.480853
Si Si3 0.453994 0.588805 0.451937
Si Si4 0.574056 0.848338 0.633927
Si Si5 0.980161 0.421852 0.411050
Si Si6 0.161901 0.291884 0.899190
Si Si7 0.674195 0.266614 0.821612
O O1 0.882590 0.873194 0.925149
O O2 0.907005 0.653930 0.896809
O O3 0.776661 0.775866 0.878893
O O4 0.000000 0.788673 0.750000
O O5 0.586643 0.539909 0.506606
O O6 0.592733 0.728228 0.580126
O O7 0.791193 0.614893 0.430660
O O8 0.688331 0.730012 0.396469
O O9 0.417090 0.680732 0.533989
O O10 0.587780 0.624023 0.355106
O O11 0.500000 0.836988 0.750000
O O12 0.516529 0.947699 0.619447
O O13 0.910161 0.401630 0.526254
O O14 0.103116 0.350970 0.342630
O O15 0.207919 0.285869 0.792760
#
# Coordination Sequence:
#
# PCOD9253983 Si02
#       7
#     8   8   8   8   8   8   8
#     4  10  15  29  57  90 124 154 208 265 314 366
#     4  11  25  46  61  95 132 172 223 257 324 411
#     4  10  21  36  63  91 130 166 208 270 321 394
#     4  11  26  46  69  88 128 183 220 268 318 393
#     4  10  21  37  65  97 127 164 223 268 322 391
#     4  10  18  35  59  99 126 166 207 275 333 373
#     4  10  22  40  65  99 132 164 212 275 340 381
#
# _framework density 22.589110999999999
#
# number of rings (size 3 to 8) (size 9 to 14) (size 15 to 20)
#    0.000    2.000    2.857    4.286    2.000    3.429 
#    7.714    0.000    0.000    0.000    0.000    0.000 
#    0.000    0.000    0.000    0.000    0.000    0.000 
#
# Total GULP energy -156562.446146 kJ/mol
# GULP energy per Si atom -5591.515934 kJ/mol
# Density = 2.253770 g / cm^3
# Si number density = 22.589111 Si / 1000 Ang^3
#
#
#
# Elastic Constant Matrix: (Units=GPa)
#
#
# Indices 1 2 3 4 5 6 
#
# 1 52.5482 14.0267 5.9603 0.0000 -3.6969 0.0000
# 2 14.0267 81.7852 58.4691 0.0000 -6.1429 0.0000
# 3 5.9603 58.4691 200.8446 0.0000 4.4131 0.0000
# 4 0.0000 0.0000 0.0000 12.2306 0.0000 1.8160
# 5 -3.6969 -6.1429 4.4131 0.0000 25.5884 0.0000
# 6 0.0000 0.0000 0.0000 1.8160 0.0000 27.1401
#
#
#
# Elastic Compliance Matrix: (Units=1/GPa)
#
#
# Indices 1 2 3 4 5 6 
#
# 1 0.020080 -0.003585 0.000404 0.000000 0.001971 0.000000
# 2 -0.003585 0.016615 -0.004825 0.000000 0.004303 0.000000
# 3 0.000404 -0.004825 0.006420 0.000000 -0.002207 0.000000
# 4 0.000000 0.000000 0.000000 0.082583 0.000000 -0.005526
# 5 0.001971 0.004303 -0.002207 0.000000 0.040779 0.000000
# 6 0.000000 0.000000 0.000000 -0.005526 0.000000 0.037216
#
#
# Mechanical properties :
#
#
# Convention : Reuss Voigt Hill
#
# Bulk Modulus (GPa) = 36.89545 54.67670 45.78608
# Shear Modulus (GPa) = 21.85919 30.10661 25.98290
#
# Velocity S-wave (km/s) = 3.11414 3.65470 3.39520
# Velocity P-wave (km/s) = 5.41288 6.48588 5.97352
#
# Compressibility (1/GPa) = 0.02710361
#
# Stress axis : x y z
#
# Youngs Moduli (GPa) = 49.80120 60.18812 155.76123
#
# Poissons Ratio (x) = 0.21577 -0.06300
# Poissons Ratio (y) = 0.17854 0.75154
# Poissons Ratio (z) = -0.02014 0.29040
#
# Static dielectric constant tensor:
#      x y z
#    x 1.915520 0.000000 0.007460 
#    y 0.000000 1.818910 0.000000 
#    z 0.007460 0.000000 1.832090 
# 
# From -- ./inp_files/252352.got.cif
#   From: 2010.05.17/outbox.cif.g08.bks.cpg/sg15_127_cif.got.tgz:252352.got - 2010.06.03 18:47:42.
