data_PCOD9253517
_publ_section_title
;
Structure prediction by ZEFSAII (Michael W. Deem and Ramdas Pophale) SiO2 
 PCOD9253517
Probable space group: P 21/C
;
_chemical_formula_sum "Si O2"
_cell_formula_units_Z 28
_cell_length_a 12.000000
_cell_length_b 9.000000
_cell_length_c 15.000000
_cell_angle_alpha 90.000000
_cell_angle_beta 120.000000
_cell_angle_gamma 90.000000
_cell_volume 1402.961154
_symmetry_space_group_name_H-M "P 21/C"
_symmetry_group_IT_number 14
_symmetry_cell_setting 'monoclinic'
loop_
_space_group_symop_operation_xyz
x,y,z
-x,1/2+y,1/2-z
-x,-y,-z
x,1/2-y,1/2+z
loop_
_atom_site_type_symbol
_atom_site_label
_atom_site_fract_x
_atom_site_fract_y
_atom_site_fract_z
Si Si1 0.082207 0.062777 0.616366
Si Si2 0.143862 0.590299 0.833305
Si Si3 0.565598 0.425614 0.240699
Si Si4 0.218777 0.353630 0.718110
Si Si5 0.567306 0.639899 0.626207
Si Si6 0.714700 0.350762 0.708715
Si Si7 0.411331 0.910584 0.531731
O O1 0.196858 0.947049 0.687058
O O2 0.140405 0.230698 0.630323
O O3 0.000000 0.000000 0.500000
O O4 0.986270 0.080167 0.662690
O O5 0.144699 0.466640 0.754800
O O6 0.184324 0.750698 0.808024
O O7 0.264083 0.561944 0.948341
O O8 0.686459 0.538040 0.299515
O O9 0.496880 0.384581 0.303563
O O10 0.621866 0.276495 0.215414
O O11 0.459089 0.519021 0.143124
O O12 0.312703 0.252874 0.817020
O O13 0.628617 0.480000 0.626589
O O14 0.456317 0.740198 0.536534
O O15 0.500000 0.000000 0.500000
#
# Coordination Sequence:
#
# PCOD9253517 Si02
#       7
#     4   4   4   4   4   4   4
#     4  11  25  40  65  87 112 160 218 252 291 356
#     4  11  22  41  63  85 125 164 192 251 301 366
#     4  10  20  37  64  89 128 158 187 253 307 357
#     4   9  20  40  60  86 122 162 196 239 310 357
#     4  10  20  34  63  93 124 155 194 245 300 364
#     4  10  21  39  61  88 122 161 198 247 305 352
#     4  11  20  39  62  91 124 159 199 237 308 368
#
# _framework density 19.957787
#
# number of rings (size 3 to 8) (size 9 to 14) (size 15 to 20)
#    0.000    1.714    4.286    2.571    6.000    0.571 
#    0.000    2.857    3.143    0.000    0.000    0.000 
#    0.000    0.000    0.000    0.000    0.000    0.000 
#
# Total GULP energy -156101.176094 kJ/mol
# GULP energy per Si atom -5575.042003 kJ/mol
# Density = 1.991236 g / cm^3
# Si number density = 19.957787 Si / 1000 Ang^3
#
#
#
# Elastic Constant Matrix: (Units=GPa)
#
#
# Indices 1 2 3 4 5 6 
#
# 1 52.2834 18.7728 0.7061 0.0000 -3.8696 0.0000
# 2 18.7728 155.4351 31.2731 0.0000 -0.7523 0.0000
# 3 0.7061 31.2731 58.5333 0.0000 7.8661 0.0000
# 4 0.0000 0.0000 0.0000 40.7678 0.0000 7.3852
# 5 -3.8696 -0.7523 7.8661 0.0000 30.3679 0.0000
# 6 0.0000 0.0000 0.0000 7.3852 0.0000 29.7864
#
#
#
# Elastic Compliance Matrix: (Units=1/GPa)
#
#
# Indices 1 2 3 4 5 6 
#
# 1 0.020218 -0.002599 0.000836 0.000000 0.002295 0.000000
# 2 -0.002599 0.007586 -0.004147 0.000000 0.000931 0.000000
# 3 0.000836 -0.004147 0.019985 0.000000 -0.005173 0.000000
# 4 0.000000 0.000000 0.000000 0.025683 0.000000 -0.006368
# 5 0.002295 0.000931 -0.005173 0.000000 0.034585 0.000000
# 6 0.000000 0.000000 0.000000 -0.006368 0.000000 0.035151
#
#
# Mechanical properties :
#
#
# Convention : Reuss Voigt Hill
#
# Bulk Modulus (GPa) = 27.80082 40.86176 34.33129
# Shear Modulus (GPa) = 29.93689 34.55106 32.24398
#
# Velocity S-wave (km/s) = 3.87720 4.16529 4.02382
# Velocity P-wave (km/s) = 5.83126 6.60692 6.23117
#
# Compressibility (1/GPa) = 0.03597016
#
# Stress axis : x y z
#
# Youngs Moduli (GPa) = 49.46009 131.81622 50.03751
#
# Poissons Ratio (x) = 0.34259 -0.04184
# Poissons Ratio (y) = 0.12855 0.20750
# Poissons Ratio (z) = -0.04136 0.54664
#
# Static dielectric constant tensor:
#      x y z
#    x 1.649770 0.000000 -0.149880 
#    y 0.000000 1.899380 0.000000 
#    z -0.149880 0.000000 1.241080 
# 
# From -- ./inp_files/43558.got.cif
#   From: 2010.05.17/outbox.ucp.g08.bks.cvg/sg14_22_cif.got.tgz:43558.got - 2010.06.11 12:31:08.
