data_PCOD9253563
_publ_section_title
;
Structure prediction by ZEFSAII (Michael W. Deem and Ramdas Pophale) SiO2 
 PCOD9253563
Probable space group: P 21/C
;
_chemical_formula_sum "Si O2"
_cell_formula_units_Z 30
_cell_length_a 12.000000
_cell_length_b 9.000000
_cell_length_c 15.000000
_cell_angle_alpha 90.000000
_cell_angle_beta 120.000000
_cell_angle_gamma 90.000000
_cell_volume 1402.961154
_symmetry_space_group_name_H-M "P 21/C"
_symmetry_group_IT_number 14
_symmetry_cell_setting 'monoclinic'
loop_
_space_group_symop_operation_xyz
x,y,z
-x,1/2+y,1/2-z
-x,-y,-z
x,1/2-y,1/2+z
loop_
_atom_site_type_symbol
_atom_site_label
_atom_site_fract_x
_atom_site_fract_y
_atom_site_fract_z
Si Si1 0.745974 0.630991 0.693489
Si Si2 0.556652 0.875586 0.832425
Si Si3 0.095635 0.370420 0.857638
Si Si4 0.545243 0.209826 0.870828
Si Si5 0.876721 0.133028 0.770376
Si Si6 0.347270 0.689411 0.393425
Si Si7 0.173166 0.203695 0.579096
Si Si8 0.000000 0.000000 0.000000
O O1 0.810476 0.750682 0.653833
O O2 0.601475 0.686022 0.655864
O O3 0.728819 0.468572 0.642165
O O4 0.817628 0.628379 0.819031
O O5 0.465296 0.831874 0.711740
O O6 0.479329 0.839588 0.892316
O O7 0.687121 0.781092 0.879435
O O8 0.586511 0.050964 0.845888
O O9 0.088853 0.518077 0.795369
O O10 0.961727 0.282112 0.801149
O O11 0.141713 0.394151 0.978348
O O12 0.627453 0.234820 0.993693
O O13 0.732248 0.186466 0.691988
O O14 0.911692 0.055291 0.877398
O O15 0.067273 0.334201 0.534104
#
# Coordination Sequence:
#
# PCOD9253563 Si02
#       8
#     4   4   4   4   4   4   4   2
#     4  10  20  41  63  90 132 167 210 265 325 387
#     4  10  22  39  65  95 131 171 216 260 333 386
#     4  11  22  42  63  94 121 171 216 270 331 379
#     4  10  22  39  62  94 128 174 209 264 321 387
#     4  11  25  42  65  94 126 167 226 268 327 393
#     4  11  23  41  62  96 132 172 217 267 325 394
#     4  10  21  39  68  91 130 169 215 270 325 384
#     4  10  22  44  62  92 126 172 214 272 324 376
#
# _framework density 21.383343
#
# number of rings (size 3 to 8) (size 9 to 14) (size 15 to 20)
#    0.000    1.600    1.333    4.000    1.867    4.267 
#    2.400    4.000    0.000    0.000    0.000    0.000 
#    0.000    0.000    0.000    0.000    0.000    0.000 
#
# Total GULP energy -167234.666041 kJ/mol
# GULP energy per Si atom -5574.488868 kJ/mol
# Density = 2.133467 g / cm^3
# Si number density = 21.383343 Si / 1000 Ang^3
#
#
#
# Elastic Constant Matrix: (Units=GPa)
#
#
# Indices 1 2 3 4 5 6 
#
# 1 12.8440 -5.5696 -0.5588 0.0000 0.6402 0.0000
# 2 -5.5696 29.6047 31.3983 0.0000 -0.4421 0.0000
# 3 -0.5588 31.3983 194.9467 0.0000 -6.8615 0.0000
# 4 0.0000 0.0000 0.0000 40.7251 0.0000 -5.3197
# 5 0.6402 -0.4421 -6.8615 0.0000 26.3495 0.0000
# 6 0.0000 0.0000 0.0000 -5.3197 0.0000 29.0765
#
#
#
# Elastic Compliance Matrix: (Units=1/GPa)
#
#
# Indices 1 2 3 4 5 6 
#
# 1 0.086232 0.019318 -0.002954 0.000000 -0.002540 0.000000
# 2 0.019318 0.045093 -0.007264 0.000000 -0.001604 0.000000
# 3 -0.002954 -0.007264 0.006347 0.000000 0.001603 0.000000
# 4 0.000000 0.000000 0.000000 0.025156 0.000000 0.004602
# 5 -0.002540 -0.001604 0.001603 0.000000 0.038404 0.000000
# 6 0.000000 0.000000 0.000000 0.004602 0.000000 0.035234
#
#
# Mechanical properties :
#
#
# Convention : Reuss Voigt Hill
#
# Bulk Modulus (GPa) = 6.41546 31.99280 19.20413
# Shear Modulus (GPa) = 18.50324 33.37193 25.93758
#
# Velocity S-wave (km/s) = 2.94481 3.95479 3.48657
# Velocity P-wave (km/s) = 3.81697 5.98731 5.02081
#
# Compressibility (1/GPa) = 0.15587343
#
# Stress axis : x y z
#
# Youngs Moduli (GPa) = 11.59656 22.17660 157.54330
#
# Poissons Ratio (x) = -0.42840 0.46532
# Poissons Ratio (y) = -0.22402 1.14435
# Poissons Ratio (z) = 0.03425 0.16109
#
# Static dielectric constant tensor:
#      x y z
#    x 1.807410 0.000000 0.008380 
#    y 0.000000 1.752010 0.000000 
#    z 0.008380 0.000000 1.768550 
# 
# From -- ./inp_files/43846.got.cif
#   From: 2010.05.17/outbox.ucp.g08.bks.cvg/sg14_22_cif.got.tgz:43846.got - 2010.06.11 12:31:08.
