data_PCOD9253745
_publ_section_title
;
Structure prediction by ZEFSAII (Michael W. Deem and Ramdas Pophale) SiO2 
 PCOD9253745
Probable space group: P 21/C
;
_chemical_formula_sum "Si O2"
_cell_formula_units_Z 24
_cell_length_a 15.000000
_cell_length_b 9.000000
_cell_length_c 9.000000
_cell_angle_alpha 90.000000
_cell_angle_beta 80.000000
_cell_angle_gamma 90.000000
_cell_volume 1196.541420
_symmetry_space_group_name_H-M "P 21/C"
_symmetry_group_IT_number 14
_symmetry_cell_setting 'monoclinic'
loop_
_space_group_symop_operation_xyz
x,y,z
-x,1/2+y,1/2-z
-x,-y,-z
x,1/2-y,1/2+z
loop_
_atom_site_type_symbol
_atom_site_label
_atom_site_fract_x
_atom_site_fract_y
_atom_site_fract_z
Si Si1 0.293259 0.871226 0.163698
Si Si2 0.908808 0.972312 0.727807
Si Si3 0.370586 0.895968 0.805053
Si Si4 0.094637 0.337129 0.107052
Si Si5 0.689338 0.841335 0.377938
Si Si6 0.407849 0.100050 0.278316
O O1 0.189160 0.938155 0.217294
O O2 0.305471 0.702204 0.215253
O O3 0.373223 0.936025 0.248253
O O4 0.329753 0.884047 0.983615
O O5 0.003037 0.073641 0.696190
O O6 0.902838 0.888878 0.567595
O O7 0.918461 0.838199 0.846508
O O8 0.482442 0.875610 0.766772
O O9 0.351061 0.056518 0.740972
O O10 0.200881 0.361404 0.133078
O O11 0.654746 0.683251 0.327033
O O12 0.634164 0.867282 0.547094
#
# Coordination Sequence:
#
# PCOD9253745 Si02
#       6
#     4   4   4   4   4   4
#     4  12  25  45  65 101 137 179 227 284 338 401
#     4  11  27  46  75  98 141 169 230 277 345 403
#     4  12  27  41  68 100 139 183 230 278 333 402
#     4  11  25  48  70 106 129 180 221 283 337 407
#     4  12  23  43  72  98 140 179 224 284 335 405
#     4  12  23  45  68  99 137 183 230 276 340 400
#
# _framework density 20.05781
#
# number of rings (size 3 to 8) (size 9 to 14) (size 15 to 20)
#    0.000    0.333    3.333    5.000    4.667    2.000 
#    0.000    0.000    0.000    0.000    0.000    0.000 
#    0.000    0.000    0.000    0.000    0.000    0.000 
#
# Total GULP energy -133658.771344 kJ/mol
# GULP energy per Si atom -5569.115473 kJ/mol
# Density = 2.001216 g / cm^3
# Si number density = 20.057810 Si / 1000 Ang^3
#
#
#
# Elastic Constant Matrix: (Units=GPa)
#
#
# Indices 1 2 3 4 5 6 
#
# 1 200.7636 22.3102 24.7671 0.0000 -30.3514 0.0000
# 2 22.3102 32.4438 -24.3761 0.0000 -13.6558 0.0000
# 3 24.7671 -24.3761 99.1333 0.0000 -29.6728 0.0000
# 4 0.0000 0.0000 0.0000 44.1969 0.0000 12.6485
# 5 -30.3514 -13.6558 -29.6728 0.0000 46.1014 0.0000
# 6 0.0000 0.0000 0.0000 12.6485 0.0000 55.3079
#
#
#
# Elastic Compliance Matrix: (Units=1/GPa)
#
#
# Indices 1 2 3 4 5 6 
#
# 1 0.006095 -0.006441 -0.003068 0.000000 0.000130 0.000000
# 2 -0.006441 0.075042 0.031518 0.000000 0.038274 0.000000
# 3 -0.003068 0.031518 0.025756 0.000000 0.023894 0.000000
# 4 0.000000 0.000000 0.000000 0.024211 0.000000 -0.005537
# 5 0.000130 0.038274 0.023894 0.000000 0.048494 0.000000
# 6 0.000000 0.000000 0.000000 -0.005537 0.000000 0.019347
#
#
# Mechanical properties :
#
#
# Convention : Reuss Voigt Hill
#
# Bulk Modulus (GPa) = 6.62643 41.97145 24.29894
# Shear Modulus (GPa) = 24.36305 49.76387 37.06346
#
# Velocity S-wave (km/s) = 3.48895 4.98639 4.30330
# Velocity P-wave (km/s) = 4.42054 7.35682 6.06894
#
# Compressibility (1/GPa) = 0.15091080
#
# Stress axis : x y z
#
# Youngs Moduli (GPa) = 164.07202 13.32589 38.82622
#
# Poissons Ratio (x) = 0.08583 0.11910
# Poissons Ratio (y) = 1.05680 -1.22371
# Poissons Ratio (z) = 0.50330 -0.42000
#
# Static dielectric constant tensor:
#      x y z
#    x 1.687170 0.000000 -0.005740 
#    y 0.000000 1.770180 0.000000 
#    z -0.005740 0.000000 1.706440 
# 
# From -- ./inp_files/15010.got.cif
#   From: 2010.05.17/outbox.ucp.g08.bks.cvg/sg14_8_cif.got.tgz:15010.got - 2010.06.11 12:31:08.
