data_PCOD9253124
_publ_section_title
;
Structure prediction by ZEFSAII (Michael W. Deem and Ramdas Pophale) SiO2 
 PCOD9253124
Probable space group: P 21/C
;
_chemical_formula_sum "Si O2"
_cell_formula_units_Z 24
_cell_length_a 19.622520
_cell_length_b 10.057376
_cell_length_c 20.236242
_cell_angle_alpha 90.000000
_cell_angle_beta 166.222012
_cell_angle_gamma 90.000000
_cell_volume 951.127607
_symmetry_space_group_name_H-M "P 21/C"
_symmetry_group_IT_number 14
_symmetry_cell_setting 'monoclinic'
loop_
_space_group_symop_operation_xyz
x,y,z
-x,1/2+y,1/2-z
-x,-y,-z
x,1/2-y,1/2+z
loop_
_atom_site_type_symbol
_atom_site_label
_atom_site_fract_x
_atom_site_fract_y
_atom_site_fract_z
Si Si1 0.814107 0.698809 0.639560
Si Si2 0.724333 0.103154 0.518647
Si Si3 0.445047 0.321194 0.329724
Si Si4 0.565073 0.550365 0.132337
Si Si5 0.075389 0.509790 0.148765
Si Si6 0.694281 0.376738 0.367704
O O1 0.498074 0.744038 0.323369
O O2 0.985278 0.610820 0.747454
O O3 0.838662 0.625810 0.733091
O O4 0.005905 0.831896 0.821395
O O5 0.585131 0.250942 0.397338
O O6 0.728064 0.070966 0.600754
O O7 0.498197 0.993246 0.280834
O O8 0.301879 0.196781 0.233863
O O9 0.672690 0.389201 0.592976
O O10 0.211964 0.428761 0.090776
O O11 0.500000 0.500000 0.000000
O O12 0.733138 0.439035 0.331186
O O13 0.000000 0.500000 0.000000
#
# Coordination Sequence:
#
# PCOD9253124 Si02
#       6
#     4   4   4   4   4   4
#     4  12  24  40  64  90 130 159 205 254 302 375
#     4   8  24  37  68  88 121 168 198 264 298 353
#     4   9  24  42  62  90 124 156 211 246 310 362
#     4   8  20  41  70  87 123 160 209 259 299 354
#     4  12  26  39  65  91 128 165 199 249 315 362
#     4   9  25  41  64  92 120 158 214 243 313 352
#
# _framework density 25.233207
#
# number of rings (size 3 to 8) (size 9 to 14) (size 15 to 20)
#    2.000    0.000    0.000    1.500    9.333    6.667 
#    0.000    1.667    0.000    0.000    0.000    0.000 
#    0.000    0.000    0.000    0.000    0.000    0.000 
#
# Total GULP energy -133972.487253 kJ/mol
# GULP energy per Si atom -5582.186969 kJ/mol
# Density = 2.517577 g / cm^3
# Si number density = 25.233207 Si / 1000 Ang^3
#
#
#
# Elastic Constant Matrix: (Units=GPa)
#
#
# Indices 1 2 3 4 5 6 
#
# 1 79.8675 22.4091 13.3424 0.0000 -11.0483 0.0000
# 2 22.4091 104.6282 21.2785 0.0000 -4.9171 0.0000
# 3 13.3424 21.2785 88.6169 0.0000 -16.0102 0.0000
# 4 0.0000 0.0000 0.0000 44.1323 0.0000 -3.0602
# 5 -11.0483 -4.9171 -16.0102 0.0000 15.3475 0.0000
# 6 0.0000 0.0000 0.0000 -3.0602 0.0000 30.2552
#
#
#
# Elastic Compliance Matrix: (Units=1/GPa)
#
#
# Indices 1 2 3 4 5 6 
#
# 1 0.014611 -0.002713 0.000240 0.000000 0.009900 0.000000
# 2 -0.002713 0.010561 -0.002303 0.000000 -0.000972 0.000000
# 3 0.000240 -0.002303 0.014416 0.000000 0.014474 0.000000
# 4 0.000000 0.000000 0.000000 0.022819 0.000000 0.002308
# 5 0.009900 -0.000972 0.014474 0.000000 0.087071 0.000000
# 6 0.000000 0.000000 0.000000 0.002308 0.000000 0.033286
#
#
# Mechanical properties :
#
#
# Convention : Reuss Voigt Hill
#
# Bulk Modulus (GPa) = 33.29226 43.01918 38.15572
# Shear Modulus (GPa) = 24.71216 32.35250 28.53233
#
# Velocity S-wave (km/s) = 3.13285 3.58458 3.36630
# Velocity P-wave (km/s) = 5.12921 5.84961 5.50122
#
# Compressibility (1/GPa) = 0.03003701
#
# Stress axis : x y z
#
# Youngs Moduli (GPa) = 68.44020 94.68410 69.36568
#
# Poissons Ratio (x) = 0.25688 -0.01665
# Poissons Ratio (y) = 0.18568 0.15976
# Poissons Ratio (z) = -0.01643 0.21807
#
# Static dielectric constant tensor:
#      x y z
#    x 2.032550 0.000000 0.030440 
#    y 0.000000 2.178530 0.000000 
#    z 0.030440 0.000000 1.953280 
# 
# From -- ./inp_files/74962.got.cif
#   From: 2010.05.17/outbox.cif.g08.bks.cpg/sg14_38_cif.got.tgz:74962.got - 2010.06.03 17:49:19.
