data_PCOD9253798
_publ_section_title
;
Structure prediction by ZEFSAII (Michael W. Deem and Ramdas Pophale) SiO2 
 PCOD9253798
Probable space group: C 2/C
;
_chemical_formula_sum "Si O2"
_cell_formula_units_Z 52
_cell_length_a 17.799917
_cell_length_b 19.095751
_cell_length_c 7.712510
_cell_angle_alpha 90.000000
_cell_angle_beta 72.199604
_cell_angle_gamma 90.000000
_cell_volume 2496.005103
_symmetry_space_group_name_H-M "C 2/C"
_symmetry_group_IT_number 15
_symmetry_cell_setting 'monoclinic'
loop_
_space_group_symop_operation_xyz
x,y,z
-x,y,1/2-z
-x,-y,-z
x,-y,1/2+z
1/2+x,1/2+y,z
1/2-x,1/2+y,1/2-z
1/2-x,1/2-y,-z
1/2+x,1/2-y,1/2+z
loop_
_atom_site_type_symbol
_atom_site_label
_atom_site_fract_x
_atom_site_fract_y
_atom_site_fract_z
Si Si1 0.844713 0.674799 0.518482
Si Si2 0.616631 0.685062 0.888977
Si Si3 0.254501 0.785856 0.717877
Si Si4 0.992874 0.081799 0.965350
Si Si5 0.000000 0.718276 0.250000
Si Si6 0.223586 0.927460 0.120876
Si Si7 0.321398 0.578159 0.224907
O O1 0.817241 0.736494 0.667671
O O2 0.800146 0.693848 0.367216
O O3 0.936814 0.675985 0.408995
O O4 0.809607 0.601301 0.614359
O O5 0.679081 0.739597 0.925846
O O6 0.561707 0.625510 0.013802
O O7 0.552442 0.732183 0.835548
O O8 0.668851 0.636714 0.723246
O O9 0.222657 0.857146 0.653602
O O10 0.000000 0.090438 0.750000
O O11 0.907275 0.101613 0.098344
O O12 0.000000 0.000000 0.000000
O O13 0.182553 0.001071 0.193661
O O14 0.228074 0.932834 0.913568
#
# Coordination Sequence:
#
# PCOD9253798 Si02
#       7
#     8   8   8   8   4   8   8
#     4   8  15  26  42  69  88 120 150 200 225 267
#     4  10  16  28  44  72  94 122 150 202 224 270
#     4   8  16  26  44  63  93 118 161 185 230 263
#     4  12  20  29  45  75 103 124 149 187 236 280
#     4  10  14  24  48  68  98 110 156 200 240 256
#     4  10  19  30  48  68  98 120 159 183 232 277
#     4  11  18  32  46  72  94 128 148 190 231 285
#
# _framework density 20.833290999999999
#
# number of rings (size 3 to 8) (size 9 to 14) (size 15 to 20)
#    0.000    2.154    3.846    3.692    0.000    0.000 
#    0.000    0.000    0.000   12.000    4.000    0.000 
#    0.000    0.000    0.000    0.000    0.000    0.000 
#
# Total GULP energy -144778.880082 kJ/mol
# GULP energy per Si atom -5568.418465 kJ/mol
# Density = 2.078587 g / cm^3
# Si number density = 20.833291 Si / 1000 Ang^3
#
#
#
# Elastic Constant Matrix: (Units=GPa)
#
#
# Indices 1 2 3 4 5 6 
#
# 1 84.9963 44.9538 25.1644 0.0000 -46.6179 0.0000
# 2 44.9538 92.8946 29.1407 0.0000 -27.6859 0.0000
# 3 25.1644 29.1407 50.6032 0.0000 -14.4926 0.0000
# 4 0.0000 0.0000 0.0000 21.0711 0.0000 -15.6955
# 5 -46.6179 -27.6859 -14.4926 0.0000 33.1763 0.0000
# 6 0.0000 0.0000 0.0000 -15.6955 0.0000 35.5027
#
#
#
# Elastic Compliance Matrix: (Units=1/GPa)
#
#
# Indices 1 2 3 4 5 6 
#
# 1 0.053502 -0.003556 -0.004432 0.000000 0.070275 0.000000
# 2 -0.003556 0.016052 -0.005795 0.000000 0.005867 0.000000
# 3 -0.004432 -0.005795 0.025299 0.000000 -0.000011 0.000000
# 4 0.000000 0.000000 0.000000 0.070760 0.000000 0.031282
# 5 0.070275 0.005867 -0.000011 0.000000 0.133781 0.000000
# 6 0.000000 0.000000 0.000000 0.031282 0.000000 0.041997
#
#
# Mechanical properties :
#
#
# Convention : Reuss Voigt Hill
#
# Bulk Modulus (GPa) = 14.86157 47.44577 31.15367
# Shear Modulus (GPa) = 12.77512 26.56569 19.67040
#
# Velocity S-wave (km/s) = 2.47899 3.57481 3.07609
# Velocity P-wave (km/s) = 3.91700 6.31367 5.25382
#
# Compressibility (1/GPa) = 0.06728765
#
# Stress axis : x y z
#
# Youngs Moduli (GPa) = 18.69099 62.29593 39.52676
#
# Poissons Ratio (x) = 0.22153 0.17516
# Poissons Ratio (y) = 0.06647 0.22907
# Poissons Ratio (z) = 0.08283 0.36102
#
# Static dielectric constant tensor:
#      x y z
#    x 1.825010 0.000000 0.044520 
#    y 0.000000 1.895980 0.000000 
#    z 0.044520 0.000000 1.862600 
# 
# From -- ./inp_files/49663.got.cif
#   From: 2010.05.17/outbox.cif.g08.bks.cpg/sg15_25_cif.got.tgz:49663.got - 2010.06.03 18:47:42.
