data_PCOD9253634
_publ_section_title
;
Structure prediction by ZEFSAII (Michael W. Deem and Ramdas Pophale) SiO2 
 PCOD9253634
Probable space group: P 21/C
;
_chemical_formula_sum "Si O2"
_cell_formula_units_Z 32
_cell_length_a 24.000000
_cell_length_b 12.000000
_cell_length_c 18.000000
_cell_angle_alpha 90.000000
_cell_angle_beta 20.000000
_cell_angle_gamma 90.000000
_cell_volume 1773.032423
_symmetry_space_group_name_H-M "P 21/C"
_symmetry_group_IT_number 14
_symmetry_cell_setting 'monoclinic'
loop_
_space_group_symop_operation_xyz
x,y,z
-x,1/2+y,1/2-z
-x,-y,-z
x,1/2-y,1/2+z
loop_
_atom_site_type_symbol
_atom_site_label
_atom_site_fract_x
_atom_site_fract_y
_atom_site_fract_z
Si Si1 0.716253 0.812574 0.556709
Si Si2 0.042623 0.746437 0.747176
Si Si3 0.299074 0.586020 0.373310
Si Si4 0.336552 0.919756 0.391509
Si Si5 0.486038 0.877652 0.368591
Si Si6 0.927020 0.829826 0.050757
Si Si7 0.180197 0.581452 0.352033
Si Si8 0.603273 0.748685 0.029505
O O1 0.564022 0.744599 0.782838
O O2 0.681634 0.774009 0.513815
O O3 0.886046 0.773093 0.386449
O O4 0.696435 0.948191 0.581030
O O5 0.155056 0.636354 0.603560
O O6 0.176513 0.847910 0.565926
O O7 0.990103 0.770051 0.897490
O O8 0.361311 0.462578 0.315448
O O9 0.220881 0.597542 0.388438
O O10 0.462465 0.658977 0.184663
O O11 0.383189 0.896915 0.420574
O O12 0.501832 0.864631 0.149867
O O13 0.355276 0.905903 0.594688
O O14 0.759314 0.769849 0.282963
O O15 0.886779 0.956748 0.076680
O O16 0.052462 0.841356 0.964301
#
# Coordination Sequence:
#
# PCOD9253634 Si02
#       8
#     4   4   4   4   4   4   4   4
#     4  11  23  39  66  89 127 172 211 258 318 382
#     4  11  25  38  63  90 129 166 211 259 314 377
#     4  11  22  38  61  94 128 162 207 259 322 381
#     4  10  22  43  59  92 131 168 212 255 317 384
#     4  11  21  38  65  97 125 164 208 266 318 372
#     4  11  22  39  61  96 128 165 210 272 311 367
#     4  11  22  35  66  94 132 154 215 271 318 361
#     4  10  22  40  64  91 126 167 206 263 319 372
#
# _framework density 18.048175000000001
#
# number of rings (size 3 to 8) (size 9 to 14) (size 15 to 20)
#    0.000    1.250    3.750    1.875    7.000    0.000 
#    0.000    0.625    0.000    3.750    0.000    0.000 
#    0.000    0.000    0.000    0.000    0.000    0.000 
#
# Total GULP energy -178222.481006 kJ/mol
# GULP energy per Si atom -5569.452531 kJ/mol
# Density = 1.800710 g / cm^3
# Si number density = 18.048175 Si / 1000 Ang^3
#
#
#
# Elastic Constant Matrix: (Units=GPa)
#
#
# Indices 1 2 3 4 5 6 
#
# 1 118.7887 27.9885 46.2371 0.0000 -29.3483 0.0000
# 2 27.9885 93.8438 36.2995 0.0000 -13.5316 0.0000
# 3 46.2371 36.2995 110.8128 0.0000 -10.4170 0.0000
# 4 0.0000 0.0000 0.0000 30.5224 0.0000 -9.1764
# 5 -29.3483 -13.5316 -10.4170 0.0000 40.1436 0.0000
# 6 0.0000 0.0000 0.0000 -9.1764 0.0000 31.1239
#
#
#
# Elastic Compliance Matrix: (Units=1/GPa)
#
#
# Indices 1 2 3 4 5 6 
#
# 1 0.012045 -0.000969 -0.004009 0.000000 0.007439 0.000000
# 2 -0.000969 0.012682 -0.003500 0.000000 0.002658 0.000000
# 3 -0.004009 -0.003500 0.011744 0.000000 -0.001063 0.000000
# 4 0.000000 0.000000 0.000000 0.035949 0.000000 0.010599
# 5 0.007439 0.002658 -0.001063 0.000000 0.030969 0.000000
# 6 0.000000 0.000000 0.000000 0.010599 0.000000 0.035255
#
#
# Mechanical properties :
#
#
# Convention : Reuss Voigt Hill
#
# Bulk Modulus (GPa) = 51.24443 60.49952 55.87197
# Shear Modulus (GPa) = 30.84413 34.55265 32.69839
#
# Velocity S-wave (km/s) = 4.13848 4.38021 4.26106
# Velocity P-wave (km/s) = 7.16176 7.69256 7.43190
#
# Compressibility (1/GPa) = 0.01951431
#
# Stress axis : x y z
#
# Youngs Moduli (GPa) = 83.02196 78.85073 85.15236
#
# Poissons Ratio (x) = 0.07640 0.34139
# Poissons Ratio (y) = 0.08045 0.29805
# Poissons Ratio (z) = 0.33285 0.27599
#
# Static dielectric constant tensor:
#      x y z
#    x 1.649250 0.000000 0.034410 
#    y 0.000000 1.648390 0.000000 
#    z 0.034410 0.000000 1.649600 
# 
# From -- ./inp_files/61994.got.cif
#   From: 2010.05.17/outbox.ucp.g08.bks.cvg/sg14_31_cif.got.tgz:61994.got - 2010.06.11 12:31:08.
