data_PCOD9253073
_publ_section_title
;
Structure prediction by ZEFSAII (Michael W. Deem and Ramdas Pophale) SiO2 
 PCOD9253073
Probable space group: P 21/C
;
_chemical_formula_sum "Si O2"
_cell_formula_units_Z 24
_cell_length_a 25.224227
_cell_length_b 4.798904
_cell_length_c 17.086254
_cell_angle_alpha 90.000000
_cell_angle_beta 148.956375
_cell_angle_gamma 90.000000
_cell_volume 1066.586245
_symmetry_space_group_name_H-M "P 21/C"
_symmetry_group_IT_number 14
_symmetry_cell_setting 'monoclinic'
loop_
_space_group_symop_operation_xyz
x,y,z
-x,1/2+y,1/2-z
-x,-y,-z
x,1/2-y,1/2+z
loop_
_atom_site_type_symbol
_atom_site_label
_atom_site_fract_x
_atom_site_fract_y
_atom_site_fract_z
Si Si1 0.988111 0.566809 0.181544
Si Si2 0.511889 0.566809 0.818456
Si Si3 0.235283 0.624662 0.145986
Si Si4 0.686329 0.645361 0.345360
Si Si5 0.186329 0.354641 0.345359
Si Si6 0.264717 0.875339 0.354014
O O1 0.002616 0.882968 0.227349
O O2 0.076943 0.463206 0.236150
O O3 0.876701 0.510217 0.005183
O O4 0.497384 0.882968 0.772650
O O5 0.423057 0.463205 0.763849
O O6 0.623299 0.510219 0.994818
O O7 0.314896 0.382717 0.222045
O O8 0.250000 0.750000 0.250000
O O9 0.250489 0.880442 0.105853
O O10 0.750000 0.763539 0.500000
O O11 0.249511 0.619561 0.394148
O O12 0.185104 0.117286 0.277955
#
# Coordination Sequence:
#
# PCOD9253073 Si02
#       6
#     4   4   4   4   4   4
#     4  12  23  40  68  95 123 169 217 256 310 383
#     4  12  23  40  68  95 123 169 217 256 310 383
#     4  12  26  43  64  99 133 161 210 274 318 364
#     4  12  23  42  70  93 126 172 216 255 314 385
#     4  12  23  42  70  93 126 172 216 255 314 385
#     4  12  26  43  64  99 133 161 210 274 318 364
#
# _framework density 22.501698999999999
#
# number of rings (size 3 to 8) (size 9 to 14) (size 15 to 20)
#    0.000    0.000    6.667    4.000    0.000    2.667 
#    0.000    0.000    0.000    0.000    0.000    0.000 
#    0.000    0.000    0.000    0.000    0.000    0.000 
#
# Total GULP energy -134525.849463 kJ/mol
# GULP energy per Si atom -5605.243728 kJ/mol
# Density = 2.245048 g / cm^3
# Si number density = 22.501699 Si / 1000 Ang^3
#
#
#
# Elastic Constant Matrix: (Units=GPa)
#
#
# Indices 1 2 3 4 5 6 
#
# 1 103.5446 0.5599 18.9219 0.0000 18.3595 0.0000
# 2 0.5599 70.0264 -23.3974 0.0000 0.4477 0.0000
# 3 18.9219 -23.3974 51.2012 0.0000 6.3395 0.0000
# 4 0.0000 0.0000 0.0000 18.4817 0.0000 0.3004
# 5 18.3595 0.4477 6.3395 0.0000 23.7072 0.0000
# 6 0.0000 0.0000 0.0000 0.3004 0.0000 26.9018
#
#
#
# Elastic Compliance Matrix: (Units=1/GPa)
#
#
# Indices 1 2 3 4 5 6 
#
# 1 0.011826 -0.001381 -0.004003 0.000000 -0.008062 0.000000
# 2 -0.001381 0.017155 0.008540 0.000000 -0.001538 0.000000
# 3 -0.004003 0.008540 0.025389 0.000000 -0.003850 0.000000
# 4 0.000000 0.000000 0.000000 0.054117 0.000000 -0.000604
# 5 -0.008062 -0.001538 -0.003850 0.000000 0.049483 0.000000
# 6 0.000000 0.000000 0.000000 -0.000604 0.000000 0.037179
#
#
# Mechanical properties :
#
#
# Convention : Reuss Voigt Hill
#
# Bulk Modulus (GPa) = 16.47931 24.10458 20.29194
# Shear Modulus (GPa) = 23.91600 29.06398 26.48999
#
# Velocity S-wave (km/s) = 3.26368 3.59783 3.43482
# Velocity P-wave (km/s) = 4.64130 5.29101 4.97677
#
# Compressibility (1/GPa) = 0.06068215
#
# Stress axis : x y z
#
# Youngs Moduli (GPa) = 84.55839 58.29368 39.38657
#
# Poissons Ratio (x) = 0.08048 0.15767
# Poissons Ratio (y) = 0.11674 -0.33635
# Poissons Ratio (z) = 0.33850 -0.49781
#
# Static dielectric constant tensor:
#      x y z
#    x 1.859120 0.000000 -0.014710 
#    y 0.000000 1.815000 0.000000 
#    z -0.014710 0.000000 1.804870 
# 
# From -- ./inp_files/45992.got.cif
#   From: 2010.05.17/outbox.cif.g08.bks.cpg/sg14_23_cif.got.tgz:45992.got - 2010.06.03 17:49:19.
