data_PCOD9253369
_publ_section_title
;
Structure prediction by ZEFSAII (Michael W. Deem and Ramdas Pophale) SiO2 
 PCOD9253369
Probable space group: P 21/C
;
_chemical_formula_sum "Si O2"
_cell_formula_units_Z 16
_cell_length_a 9.288911
_cell_length_b 7.854308
_cell_length_c 18.354603
_cell_angle_alpha 90.000000
_cell_angle_beta 147.516282
_cell_angle_gamma 90.000000
_cell_volume 719.184742
_symmetry_space_group_name_H-M "P 21/C"
_symmetry_group_IT_number 14
_symmetry_cell_setting 'monoclinic'
loop_
_space_group_symop_operation_xyz
x,y,z
-x,1/2+y,1/2-z
-x,-y,-z
x,1/2-y,1/2+z
loop_
_atom_site_type_symbol
_atom_site_label
_atom_site_fract_x
_atom_site_fract_y
_atom_site_fract_z
Si Si1 0.834277 0.054392 0.859557
Si Si2 0.211681 0.007151 0.413925
Si Si3 0.741403 0.389331 0.906313
Si Si4 0.205530 0.087842 0.886437
O O1 0.761115 0.245191 0.852763
O O2 0.021021 0.008297 0.871015
O O3 0.550815 0.966033 0.729454
O O4 0.000000 0.000000 0.000000
O O5 0.193706 0.214828 0.409740
O O6 0.500000 0.000000 0.500000
O O7 0.232592 0.887639 0.494395
O O8 0.966404 0.938207 0.260474
O O9 0.000000 0.500000 0.000000
O O10 0.500000 0.000000 0.000000
#
# Coordination Sequence:
#
# PCOD9253369 Si02
#       4
#     4   4   4   4
#     4  12  29  49  76 114 151 203 256 316 383 454
#     4  12  27  49  76 110 152 206 254 312 378 453
#     4  12  27  49  78 108 157 201 254 312 383 453
#     4  12  29  49  78 110 155 200 258 316 381 454
#
# _framework density 22.247413000000002
#
# number of rings (size 3 to 8) (size 9 to 14) (size 15 to 20)
#    0.000    0.000    5.000    3.000   10.500    0.000 
#    0.000    0.000    0.000    0.000    0.000    0.000 
#    0.000    0.000    0.000    0.000    0.000    0.000 
#
# Total GULP energy -89124.136530 kJ/mol
# GULP energy per Si atom -5570.258533 kJ/mol
# Density = 2.219678 g / cm^3
# Si number density = 22.247413 Si / 1000 Ang^3
#
#
#
# Elastic Constant Matrix: (Units=GPa)
#
#
# Indices 1 2 3 4 5 6 
#
# 1 160.9935 17.7365 72.4677 0.0000 22.5009 0.0000
# 2 17.7365 74.5742 21.6607 0.0000 17.6024 0.0000
# 3 72.4677 21.6607 205.3629 0.0000 12.5374 0.0000
# 4 0.0000 0.0000 0.0000 31.7770 0.0000 5.8670
# 5 22.5009 17.6024 12.5374 0.0000 48.5708 0.0000
# 6 0.0000 0.0000 0.0000 5.8670 0.0000 21.6539
#
#
#
# Elastic Compliance Matrix: (Units=1/GPa)
#
#
# Indices 1 2 3 4 5 6 
#
# 1 0.007791 -0.000460 -0.002530 0.000000 -0.002790 0.000000
# 2 -0.000460 0.015009 -0.001120 0.000000 -0.004938 0.000000
# 3 -0.002530 -0.001120 0.005877 0.000000 0.000061 0.000000
# 4 0.000000 0.000000 0.000000 0.033126 0.000000 -0.008975
# 5 -0.002790 -0.004938 0.000061 0.000000 0.023654 0.000000
# 6 0.000000 0.000000 0.000000 -0.008975 0.000000 0.048613
#
#
# Mechanical properties :
#
#
# Convention : Reuss Voigt Hill
#
# Bulk Modulus (GPa) = 48.88054 73.85115 61.36585
# Shear Modulus (GPa) = 33.53248 42.33806 37.93527
#
# Velocity S-wave (km/s) = 3.88655 4.36714 4.13383
# Velocity P-wave (km/s) = 6.49302 7.66137 7.10127
#
# Compressibility (1/GPa) = 0.02045804
#
# Stress axis : x y z
#
# Youngs Moduli (GPa) = 128.35380 66.62485 170.16275
#
# Poissons Ratio (x) = 0.03062 0.43059
# Poissons Ratio (y) = 0.05898 0.19050
# Poissons Ratio (z) = 0.32480 0.07459
#
# Static dielectric constant tensor:
#      x y z
#    x 2.299990 0.000000 -0.309320 
#    y 0.000000 1.748300 0.000000 
#    z -0.309320 0.000000 1.878140 
# 
# From -- ./inp_files/7287.got.cif
#   From: 2010.05.17/outbox.cif.g08.bks.cpg/sg14_4_cif.got.tgz:7287.got - 2010.06.03 17:49:19.
