data_PCOD9253644
_publ_section_title
;
Structure prediction by ZEFSAII (Michael W. Deem and Ramdas Pophale) SiO2 
 PCOD9253644
Probable space group: P 21/C
;
_chemical_formula_sum "Si O2"
_cell_formula_units_Z 32
_cell_length_a 15.000000
_cell_length_b 18.000000
_cell_length_c 12.000000
_cell_angle_alpha 90.000000
_cell_angle_beta 150.000000
_cell_angle_gamma 90.000000
_cell_volume 1620.000000
_symmetry_space_group_name_H-M "P 21/C"
_symmetry_group_IT_number 14
_symmetry_cell_setting 'monoclinic'
loop_
_space_group_symop_operation_xyz
x,y,z
-x,1/2+y,1/2-z
-x,-y,-z
x,1/2-y,1/2+z
loop_
_atom_site_type_symbol
_atom_site_label
_atom_site_fract_x
_atom_site_fract_y
_atom_site_fract_z
Si Si1 0.712547 0.961222 0.933372
Si Si2 0.738434 0.298962 0.219448
Si Si3 0.627894 0.708111 0.320437
Si Si4 0.995504 0.783396 0.646649
Si Si5 0.200332 0.530640 0.702169
Si Si6 0.972009 0.538615 0.090538
Si Si7 0.328952 0.536284 0.094942
Si Si8 0.314533 0.712188 0.130406
O O1 0.718184 0.871731 0.941208
O O2 0.539391 0.979803 0.820320
O O3 0.704899 0.986416 0.795719
O O4 0.881492 0.001695 0.169373
O O5 0.919748 0.270247 0.356113
O O6 0.783475 0.381721 0.310124
O O7 0.693584 0.230853 0.250522
O O8 0.547914 0.306357 0.947817
O O9 0.511402 0.736382 0.299815
O O10 0.793007 0.759236 0.459849
O O11 0.993716 0.871394 0.614963
O O12 0.149585 0.762026 0.904512
O O13 0.000000 0.500000 0.500000
O O14 0.276710 0.523007 0.909523
O O15 0.784144 0.513419 0.942347
O O16 0.000000 0.500000 0.000000
O O17 0.293507 0.624343 0.081615
#
# Coordination Sequence:
#
# PCOD9253644 Si02
#       8
#     4   4   4   4   4   4   4   4
#     4  11  23  43  69  96 135 169 213 285 333 392
#     4  11  23  41  66  96 129 171 216 277 325 391
#     4  10  23  43  67  96 129 167 221 267 333 391
#     4  11  23  42  60  90 128 169 217 262 318 393
#     4  12  21  40  68 100 135 170 216 277 340 392
#     4  12  27  43  64  94 130 180 229 268 329 401
#     4  11  23  43  66  97 133 173 217 272 337 390
#     4  10  22  42  64  94 133 165 210 268 331 389
#
# _framework density 19.753086
#
# number of rings (size 3 to 8) (size 9 to 14) (size 15 to 20)
#    0.000    1.000    5.000    3.375    0.000    6.500 
#    0.000    0.000    0.000    0.000    0.000    0.000 
#    0.000    0.000    0.000    0.000    0.000    0.000 
#
# Total GULP energy -178311.295730 kJ/mol
# GULP energy per Si atom -5572.227992 kJ/mol
# Density = 1.970813 g / cm^3
# Si number density = 19.753086 Si / 1000 Ang^3
#
#
#
# Elastic Constant Matrix: (Units=GPa)
#
#
# Indices 1 2 3 4 5 6 
#
# 1 89.4295 17.0070 20.8290 0.0000 28.3446 0.0000
# 2 17.0070 94.0356 23.7322 0.0000 19.2706 0.0000
# 3 20.8290 23.7322 32.6171 0.0000 31.1026 0.0000
# 4 0.0000 0.0000 0.0000 20.5286 0.0000 6.4900
# 5 28.3446 19.2706 31.1026 0.0000 40.9961 0.0000
# 6 0.0000 0.0000 0.0000 6.4900 0.0000 33.6318
#
#
#
# Elastic Compliance Matrix: (Units=1/GPa)
#
#
# Indices 1 2 3 4 5 6 
#
# 1 0.014382 -0.000829 0.001914 0.000000 -0.011006 0.000000
# 2 -0.000829 0.013245 -0.013442 0.000000 0.004545 0.000000
# 3 0.001914 -0.013442 0.124580 0.000000 -0.089520 0.000000
# 4 0.000000 0.000000 0.000000 0.051877 0.000000 -0.010011
# 5 -0.011006 0.004545 -0.089520 0.000000 0.097782 0.000000
# 6 0.000000 0.000000 0.000000 -0.010011 0.000000 0.031666
#
#
# Mechanical properties :
#
#
# Convention : Reuss Voigt Hill
#
# Bulk Modulus (GPa) = 7.84351 37.69097 22.76724
# Shear Modulus (GPa) = 12.47681 29.33225 20.90453
#
# Velocity S-wave (km/s) = 2.51597 3.85768 3.25667
# Velocity P-wave (km/s) = 3.52413 6.24217 5.06874
#
# Compressibility (1/GPa) = 0.12749395
#
# Stress axis : x y z
#
# Youngs Moduli (GPa) = 69.53009 75.49948 8.02697
#
# Poissons Ratio (x) = 0.06256 -0.01536
# Poissons Ratio (y) = 0.05761 0.10790
# Poissons Ratio (z) = -0.13305 1.01484
#
# Static dielectric constant tensor:
#      x y z
#    x 1.744960 0.000000 -0.051290 
#    y 0.000000 1.667720 0.000000 
#    z -0.051290 0.000000 1.738060 
# 
# From -- ./inp_files/33066.got.cif
#   From: 2010.05.17/outbox.ucp.g08.bks.cvg/sg14_17_cif.got.tgz:33066.got - 2010.06.11 12:31:08.
