data_PCOD9253544
_publ_section_title
;
Structure prediction by ZEFSAII (Michael W. Deem and Ramdas Pophale) SiO2 
 PCOD9253544
Probable space group: P 21/C
;
_chemical_formula_sum "Si O2"
_cell_formula_units_Z 28
_cell_length_a 15.000000
_cell_length_b 9.000000
_cell_length_c 18.000000
_cell_angle_alpha 90.000000
_cell_angle_beta 140.000000
_cell_angle_gamma 90.000000
_cell_volume 1561.973892
_symmetry_space_group_name_H-M "P 21/C"
_symmetry_group_IT_number 14
_symmetry_cell_setting 'monoclinic'
loop_
_space_group_symop_operation_xyz
x,y,z
-x,1/2+y,1/2-z
-x,-y,-z
x,1/2-y,1/2+z
loop_
_atom_site_type_symbol
_atom_site_label
_atom_site_fract_x
_atom_site_fract_y
_atom_site_fract_z
Si Si1 0.525465 0.855000 0.196851
Si Si2 0.009980 0.549598 0.922522
Si Si3 0.329037 0.939425 0.583887
Si Si4 0.087241 0.666264 0.264663
Si Si5 0.176176 0.493579 0.834291
Si Si6 0.251553 0.246044 0.786934
Si Si7 0.631530 0.982972 0.028415
O O1 0.425274 0.710358 0.147083
O O2 0.642829 0.797751 0.212409
O O3 0.598490 0.935809 0.315268
O O4 0.434509 0.980499 0.094335
O O5 0.961189 0.406706 0.843584
O O6 0.897650 0.676131 0.830231
O O7 0.000000 0.500000 0.000000
O O8 0.170332 0.592006 0.009651
O O9 0.290205 0.994092 0.474405
O O10 0.237803 0.595246 0.379871
O O11 0.957372 0.611074 0.231814
O O12 0.112169 0.842171 0.282339
O O13 0.241268 0.419027 0.802233
O O14 0.302497 0.169277 0.897244
O O15 0.500000 0.000000 0.000000
#
# Coordination Sequence:
#
# PCOD9253544 Si02
#       7
#     4   4   4   4   4   4   4
#     4  11  23  42  58  94 130 167 204 255 320 376
#     4  10  20  43  67  88 123 167 211 255 317 373
#     4  11  24  40  62  88 133 166 206 258 317 376
#     4  10  20  38  64  91 122 161 209 264 304 366
#     4  11  22  41  65  94 121 163 217 263 305 368
#     4  10  22  40  67  92 124 160 213 262 309 378
#     4   9  19  37  60  86 121 162 204 245 307 372
#
# _framework density 17.926036
#
# number of rings (size 3 to 8) (size 9 to 14) (size 15 to 20)
#    0.000    1.714    2.857    2.571    2.000    0.571 
#    2.571    0.714    0.000    0.000    0.000    0.000 
#    0.000    0.000    0.000    0.000    0.000    0.000 
#
# Total GULP energy -155911.739821 kJ/mol
# GULP energy per Si atom -5568.276422 kJ/mol
# Density = 1.788524 g / cm^3
# Si number density = 17.926036 Si / 1000 Ang^3
#
#
#
# Elastic Constant Matrix: (Units=GPa)
#
#
# Indices 1 2 3 4 5 6 
#
# 1 68.0649 28.0015 46.5424 0.0000 4.7774 0.0000
# 2 28.0015 103.6226 45.0854 0.0000 5.9774 0.0000
# 3 46.5424 45.0854 144.1651 0.0000 10.0822 0.0000
# 4 0.0000 0.0000 0.0000 31.6208 0.0000 4.9804
# 5 4.7774 5.9774 10.0822 0.0000 36.9496 0.0000
# 6 0.0000 0.0000 0.0000 4.9804 0.0000 33.2127
#
#
#
# Elastic Compliance Matrix: (Units=1/GPa)
#
#
# Indices 1 2 3 4 5 6 
#
# 1 0.019613 -0.002927 -0.005375 0.000000 -0.000596 0.000000
# 2 -0.002927 0.011635 -0.002639 0.000000 -0.000784 0.000000
# 3 -0.005375 -0.002639 0.009602 0.000000 -0.001498 0.000000
# 4 0.000000 0.000000 0.000000 0.032390 0.000000 -0.004857
# 5 -0.000596 -0.000784 -0.001498 0.000000 0.027677 0.000000
# 6 0.000000 0.000000 0.000000 -0.004857 0.000000 0.030837
#
#
# Mechanical properties :
#
#
# Convention : Reuss Voigt Hill
#
# Bulk Modulus (GPa) = 52.71994 61.67902 57.19948
# Shear Modulus (GPa) = 31.25834 33.43816 32.34825
#
# Velocity S-wave (km/s) = 4.18034 4.32364 4.25260
# Velocity P-wave (km/s) = 7.26456 7.70762 7.48937
#
# Compressibility (1/GPa) = 0.01896815
#
# Stress axis : x y z
#
# Youngs Moduli (GPa) = 50.98623 85.94981 104.14783
#
# Poissons Ratio (x) = 0.25158 0.55978
# Poissons Ratio (y) = 0.14924 0.27483
# Poissons Ratio (z) = 0.27404 0.22680
#
# Static dielectric constant tensor:
#      x y z
#    x 1.652520 0.000000 -0.007310 
#    y 0.000000 1.635650 0.000000 
#    z -0.007310 0.000000 1.608340 
# 
# From -- ./inp_files/59077.got.cif
#   From: 2010.05.17/outbox.ucp.g08.bks.cvg/sg14_30_cif.got.tgz:59077.got - 2010.06.11 12:31:08.
