data_PCOD9253534
_publ_section_title
;
Structure prediction by ZEFSAII (Michael W. Deem and Ramdas Pophale) SiO2 
 PCOD9253534
Probable space group: P 21/C
;
_chemical_formula_sum "Si O2"
_cell_formula_units_Z 32
_cell_length_a 12.000000
_cell_length_b 21.000000
_cell_length_c 12.000000
_cell_angle_alpha 90.000000
_cell_angle_beta 30.000000
_cell_angle_gamma 90.000000
_cell_volume 1512.000000
_symmetry_space_group_name_H-M "P 21/C"
_symmetry_group_IT_number 14
_symmetry_cell_setting 'monoclinic'
loop_
_space_group_symop_operation_xyz
x,y,z
-x,1/2+y,1/2-z
-x,-y,-z
x,1/2-y,1/2+z
loop_
_atom_site_type_symbol
_atom_site_label
_atom_site_fract_x
_atom_site_fract_y
_atom_site_fract_z
Si Si1 0.470941 0.294983 0.649393
Si Si2 0.525327 0.447368 0.819063
Si Si3 0.118627 0.267113 0.775412
Si Si4 0.426427 0.174761 0.830543
Si Si5 0.783526 0.143245 0.699007
Si Si6 0.288342 0.424453 0.262989
Si Si7 0.930229 0.372535 0.425068
Si Si8 0.847943 0.589158 0.994603
O O1 0.335028 0.260032 0.667086
O O2 0.524882 0.240808 0.693884
O O3 0.675769 0.328330 0.406440
O O4 0.296273 0.347717 0.847661
O O5 0.681896 0.508325 0.701164
O O6 0.670837 0.386298 0.659585
O O7 0.345806 0.459700 0.875755
O O8 0.417060 0.431530 0.033081
O O9 0.205490 0.303085 0.589692
O O10 0.011628 0.199289 0.846033
O O11 0.942067 0.307026 0.998845
O O12 0.580971 0.137866 0.786728
O O13 0.379764 0.128684 0.767568
O O14 0.953510 0.086151 0.586121
O O15 0.043593 0.403783 0.435980
O O16 0.022617 0.404448 0.233719
#
# Coordination Sequence:
#
# PCOD9253534 Si02
#       8
#     4   4   4   4   4   4   4   4
#     4  10  20  37  57  88 123 158 196 250 317 368
#     4  10  23  39  66  89 124 168 214 255 309 367
#     4  10  22  35  54  94 125 152 199 251 312 377
#     4  11  22  38  60  88 130 159 196 257 314 368
#     4  10  24  35  58  87 124 162 201 244 313 380
#     4  10  23  42  59  95 127 161 210 263 308 374
#     4  11  20  35  64  89 120 160 203 258 318 367
#     4  10  21  39  57  85 124 155 209 257 294 375
#
# _framework density 21.164021000000002
#
# number of rings (size 3 to 8) (size 9 to 14) (size 15 to 20)
#    0.000    1.750    2.500    1.125    5.250    1.000 
#    0.000    0.625    0.000   10.500    0.000    0.000 
#    0.000    0.000    0.000    0.000    0.000    0.000 
#
# Total GULP energy -178418.502931 kJ/mol
# GULP energy per Si atom -5575.578217 kJ/mol
# Density = 2.111585 g / cm^3
# Si number density = 21.164021 Si / 1000 Ang^3
#
#
#
# Elastic Constant Matrix: (Units=GPa)
#
#
# Indices 1 2 3 4 5 6 
#
# 1 60.1097 5.2414 13.4628 0.0000 -2.1726 0.0000
# 2 5.2414 37.3762 7.8301 0.0000 -3.5647 0.0000
# 3 13.4628 7.8301 66.9773 0.0000 -4.2330 0.0000
# 4 0.0000 0.0000 0.0000 19.0974 0.0000 0.4555
# 5 -2.1726 -3.5647 -4.2330 0.0000 29.6790 0.0000
# 6 0.0000 0.0000 0.0000 0.4555 0.0000 28.6701
#
#
#
# Elastic Compliance Matrix: (Units=1/GPa)
#
#
# Indices 1 2 3 4 5 6 
#
# 1 0.017544 -0.001713 -0.003288 0.000000 0.000610 0.000000
# 2 -0.001713 0.027837 -0.002731 0.000000 0.002829 0.000000
# 3 -0.003288 -0.002731 0.016019 0.000000 0.001716 0.000000
# 4 0.000000 0.000000 0.000000 0.052383 0.000000 -0.000832
# 5 0.000610 0.002829 0.001716 0.000000 0.034323 0.000000
# 6 0.000000 0.000000 0.000000 -0.000832 0.000000 0.034893
#
#
# Mechanical properties :
#
#
# Convention : Reuss Voigt Hill
#
# Bulk Modulus (GPa) = 21.76949 24.17020 22.96984
# Shear Modulus (GPa) = 23.38904 24.68455 24.03679
#
# Velocity S-wave (km/s) = 3.32796 3.41888 3.37373
# Velocity P-wave (km/s) = 5.00754 5.19906 5.10420
#
# Compressibility (1/GPa) = 0.04593585
#
# Stress axis : x y z
#
# Youngs Moduli (GPa) = 56.99950 35.92316 62.42587
#
# Poissons Ratio (x) = 0.06155 0.20523
# Poissons Ratio (y) = 0.09766 0.17050
# Poissons Ratio (z) = 0.18739 0.09811
#
# Static dielectric constant tensor:
#      x y z
#    x 1.819920 0.000000 -0.057310 
#    y 0.000000 1.755400 0.000000 
#    z -0.057310 0.000000 1.747050 
# 
# From -- ./inp_files/30721.got.cif
#   From: 2010.05.17/outbox.ucp.g08.bks.cvg/sg14_16_cif.got.tgz:30721.got - 2010.06.11 12:31:08.
