data_PCOD9253759
_publ_section_title
;
Structure prediction by ZEFSAII (Michael W. Deem and Ramdas Pophale) SiO2 
 PCOD9253759
Probable space group: C 2/C
;
_chemical_formula_sum "Si O2"
_cell_formula_units_Z 64
_cell_length_a 11.471077
_cell_length_b 21.997756
_cell_length_c 13.963288
_cell_angle_alpha 90.000000
_cell_angle_beta 59.659519
_cell_angle_gamma 90.000000
_cell_volume 3040.889428
_symmetry_space_group_name_H-M "C 2/C"
_symmetry_group_IT_number 15
_symmetry_cell_setting 'monoclinic'
loop_
_space_group_symop_operation_xyz
x,y,z
-x,y,1/2-z
-x,-y,-z
x,-y,1/2+z
1/2+x,1/2+y,z
1/2-x,1/2+y,1/2-z
1/2-x,1/2-y,-z
1/2+x,1/2-y,1/2+z
loop_
_atom_site_type_symbol
_atom_site_label
_atom_site_fract_x
_atom_site_fract_y
_atom_site_fract_z
Si Si1 0.927628 0.540819 0.664665
Si Si2 0.649627 0.522508 0.564847
Si Si3 0.363010 0.828386 0.625160
Si Si4 0.299544 0.898928 0.450235
Si Si5 0.581456 0.636285 0.317044
Si Si6 0.852449 0.209944 0.524856
Si Si7 0.638194 0.505516 0.800690
Si Si8 0.915850 0.420311 0.946753
O O1 0.781823 0.532373 0.772772
O O2 0.908738 0.563791 0.563044
O O3 0.053239 0.581508 0.643147
O O4 0.992212 0.473664 0.634763
O O5 0.704711 0.457093 0.507158
O O6 0.644440 0.514689 0.682691
O O7 0.495785 0.536693 0.602213
O O8 0.760055 0.570976 0.482909
O O9 0.321415 0.867369 0.546428
O O10 0.228334 0.833411 0.743994
O O11 0.391871 0.758961 0.586910
O O12 0.499271 0.859967 0.605990
O O13 0.236261 0.847942 0.409018
O O14 0.500000 0.632592 0.250000
O O15 0.481673 0.678420 0.421263
O O16 0.614352 0.566117 0.330020
O O17 0.750000 0.250000 0.500000
#
# Coordination Sequence:
#
# PCOD9253759 Si02
#       8
#     8   8   8   8   8   8   8   8
#     4   8  13  17  29  43  62  87 119 136 171 210
#     4   9  13  17  30  44  63  86 120 135 171 210
#     4  10  16  24  32  42  66  96 128 147 167 199
#     4   9  13  21  27  43  63  88 123 137 172 207
#     4  12  15  22  32  44  64  93 126 147 164 205
#     4  10  18  22  31  46  63  98 128 148 165 199
#     4  10  12  18  29  47  62  90 118 138 164 212
#     4   8  13  20  28  43  60  90 121 137 172 207
#
# _framework density 21.046472999999999
#
# number of rings (size 3 to 8) (size 9 to 14) (size 15 to 20)
#    0.000    2.500    7.500    1.500    0.000    0.000 
#    0.000    0.000    0.000    0.000    0.000    0.000 
#    0.000    0.000    0.000   87.750    0.000    0.000 
#
# Total GULP energy -178409.390012 kJ/mol
# GULP energy per Si atom -5575.293438 kJ/mol
# Density = 2.099857 g / cm^3
# Si number density = 21.046473 Si / 1000 Ang^3
#
#
#
# Elastic Constant Matrix: (Units=GPa)
#
#
# Indices 1 2 3 4 5 6 
#
# 1 51.0660 28.7535 60.1672 0.0000 -26.7065 0.0000
# 2 28.7535 109.9090 71.1617 0.0000 -42.0162 0.0000
# 3 60.1672 71.1617 160.0924 0.0000 -63.7256 0.0000
# 4 0.0000 0.0000 0.0000 27.4050 0.0000 -18.8760
# 5 -26.7065 -42.0162 -63.7256 0.0000 48.0371 0.0000
# 6 0.0000 0.0000 0.0000 -18.8760 0.0000 13.7813
#
#
#
# Elastic Compliance Matrix: (Units=1/GPa)
#
#
# Indices 1 2 3 4 5 6 
#
# 1 0.035566 -0.000175 -0.011610 0.000000 0.004219 0.000000
# 2 -0.000175 0.014284 -0.002859 0.000000 0.008604 0.000000
# 3 -0.011610 -0.002859 0.017620 0.000000 0.014420 0.000000
# 4 0.000000 0.000000 0.000000 0.644861 0.000000 0.883258
# 5 0.004219 0.008604 0.014420 0.000000 0.049818 0.000000
# 6 0.000000 0.000000 0.000000 0.883258 0.000000 1.282348
#
#
# Mechanical properties :
#
#
# Convention : Reuss Voigt Hill
#
# Bulk Modulus (GPa) = 26.18869 71.24802 48.71835
# Shear Modulus (GPa) = 2.39634 28.57702 15.48668
#
# Velocity S-wave (km/s) = 1.06821 3.68884 2.71557
# Velocity P-wave (km/s) = 3.74055 7.21593 5.74723
#
# Compressibility (1/GPa) = 0.03818443
#
# Stress axis : x y z
#
# Youngs Moduli (GPa) = 28.11666 70.00639 56.75272
#
# Poissons Ratio (x) = 0.01224 0.65888
# Poissons Ratio (y) = 0.00492 0.16224
# Poissons Ratio (z) = 0.32642 0.20013
#
# Static dielectric constant tensor:
#      x y z
#    x 1.731990 0.000000 -0.089670 
#    y 0.000000 1.735570 0.000000 
#    z -0.089670 0.000000 1.699860 
# 
# From -- ./inp_files/299408.got.cif
#   From: 2010.05.17/outbox.cif.g08.bks.cpg/sg15_150_cif.got.tgz:299408.got - 2010.06.03 18:47:42.
