data_PCOD9253318
_publ_section_title
;
Structure prediction by ZEFSAII (Michael W. Deem and Ramdas Pophale) SiO2 
 PCOD9253318
Probable space group: P 21/C
;
_chemical_formula_sum "Si O2"
_cell_formula_units_Z 20
_cell_length_a 10.976546
_cell_length_b 7.542624
_cell_length_c 26.251024
_cell_angle_alpha 90.000000
_cell_angle_beta 22.870606
_cell_angle_gamma 90.000000
_cell_volume 844.684541
_symmetry_space_group_name_H-M "P 21/C"
_symmetry_group_IT_number 14
_symmetry_cell_setting 'monoclinic'
loop_
_space_group_symop_operation_xyz
x,y,z
-x,1/2+y,1/2-z
-x,-y,-z
x,1/2-y,1/2+z
loop_
_atom_site_type_symbol
_atom_site_label
_atom_site_fract_x
_atom_site_fract_y
_atom_site_fract_z
Si Si1 0.112202 0.647739 0.543913
Si Si2 0.191473 0.247849 0.736544
Si Si3 0.737455 0.547154 0.140612
Si Si4 0.101252 0.797858 0.857146
Si Si5 0.834355 0.899619 0.366423
O O1 0.431050 0.744943 0.403749
O O2 0.035424 0.656880 0.634187
O O3 0.833954 0.768253 0.629406
O O4 0.109712 0.439794 0.529662
O O5 0.132987 0.173343 0.702876
O O6 0.092225 0.451247 0.775442
O O7 0.780676 0.385536 0.163538
O O8 0.416930 0.583686 0.233902
O O9 0.000000 0.500000 0.000000
O O10 0.907590 0.745823 0.881437
O O11 0.500000 0.000000 0.500000
#
# Coordination Sequence:
#
# PCOD9253318 Si02
#       5
#     4   4   4   4   4
#     4  12  27  49  80 113 155 204 255 323 395 465
#     4  12  26  49  78 114 155 201 261 321 399 465
#     4  12  27  48  75 113 155 201 264 319 383 469
#     4  12  27  48  77 112 154 206 256 321 391 461
#     4  12  27  49  78 116 159 200 263 329 389 469
#
# _framework density 23.677477
#
# number of rings (size 3 to 8) (size 9 to 14) (size 15 to 20)
#    0.000    0.000    6.000    2.400    5.600    2.400 
#    0.000    0.000    0.000    0.000    0.000    0.000 
#    0.000    0.000    0.000    0.000    0.000    0.000 
#
# Total GULP energy -111695.152779 kJ/mol
# GULP energy per Si atom -5584.757639 kJ/mol
# Density = 2.362359 g / cm^3
# Si number density = 23.677477 Si / 1000 Ang^3
#
#
#
# Elastic Constant Matrix: (Units=GPa)
#
#
# Indices 1 2 3 4 5 6 
#
# 1 66.5386 27.8141 31.2973 0.0000 -3.3390 0.0000
# 2 27.8141 125.3309 4.7997 0.0000 -2.2433 0.0000
# 3 31.2973 4.7997 95.8866 0.0000 -3.2889 0.0000
# 4 0.0000 0.0000 0.0000 40.2739 0.0000 -8.8772
# 5 -3.3390 -2.2433 -3.2889 0.0000 35.6284 0.0000
# 6 0.0000 0.0000 0.0000 -8.8772 0.0000 48.8040
#
#
#
# Elastic Compliance Matrix: (Units=1/GPa)
#
#
# Indices 1 2 3 4 5 6 
#
# 1 0.019716 -0.004120 -0.006194 0.000000 0.001016 0.000000
# 2 -0.004120 0.008863 0.000910 0.000000 0.000256 0.000000
# 3 -0.006194 0.000910 0.012427 0.000000 0.000624 0.000000
# 4 0.000000 0.000000 0.000000 0.025867 0.000000 0.004705
# 5 0.001016 0.000256 0.000624 0.000000 0.028236 0.000000
# 6 0.000000 0.000000 0.000000 0.004705 0.000000 0.021346
#
#
# Mechanical properties :
#
#
# Convention : Reuss Voigt Hill
#
# Bulk Modulus (GPa) = 45.05156 46.17539 45.61347
# Shear Modulus (GPa) = 35.04792 39.86425 37.45609
#
# Velocity S-wave (km/s) = 3.85154 4.10766 3.98166
# Velocity P-wave (km/s) = 6.23279 6.48393 6.35960
#
# Compressibility (1/GPa) = 0.02219679
#
# Stress axis : x y z
#
# Youngs Moduli (GPa) = 50.72135 112.82938 80.47270
#
# Poissons Ratio (x) = 0.46486 0.49845
# Poissons Ratio (y) = 0.20897 -0.07322
# Poissons Ratio (z) = 0.31417 -0.10266
#
# Static dielectric constant tensor:
#      x y z
#    x 1.917460 0.000000 0.012020 
#    y 0.000000 2.022850 0.000000 
#    z 0.012020 0.000000 1.918340 
# 
# From -- ./inp_files/79881.got.cif
#   From: 2010.05.17/outbox.cif.g08.bks.cpg/sg14_40_cif.got.tgz:79881.got - 2010.06.03 17:49:19.
