data_PCOD9253461
_publ_section_title
;
Structure prediction by ZEFSAII (Michael W. Deem and Ramdas Pophale) SiO2 
 PCOD9253461
Probable space group: P 21/C
;
_chemical_formula_sum "Si O2"
_cell_formula_units_Z 28
_cell_length_a 27.000000
_cell_length_b 9.000000
_cell_length_c 9.000000
_cell_angle_alpha 90.000000
_cell_angle_beta 40.000000
_cell_angle_gamma 90.000000
_cell_volume 1405.776502
_symmetry_space_group_name_H-M "P 21/C"
_symmetry_group_IT_number 14
_symmetry_cell_setting 'monoclinic'
loop_
_space_group_symop_operation_xyz
x,y,z
-x,1/2+y,1/2-z
-x,-y,-z
x,1/2-y,1/2+z
loop_
_atom_site_type_symbol
_atom_site_label
_atom_site_fract_x
_atom_site_fract_y
_atom_site_fract_z
Si Si1 0.574478 0.572470 0.257695
Si Si2 0.235485 0.089056 0.446601
Si Si3 0.914953 0.558061 0.183812
Si Si4 0.717619 0.349552 0.960396
Si Si5 0.145871 0.255958 0.410614
Si Si6 0.754209 0.073628 0.043283
Si Si7 0.636906 0.698159 0.834022
O O1 0.500000 0.500000 0.500000
O O2 0.595744 0.726378 0.290328
O O3 0.641038 0.449517 0.128352
O O4 0.576469 0.618381 0.081039
O O5 0.177792 0.130804 0.448673
O O6 0.316486 0.158835 0.207970
O O7 0.236997 0.923748 0.504896
O O8 0.211614 0.175892 0.653689
O O9 0.887873 0.620114 0.404706
O O10 0.843625 0.453731 0.298883
O O11 0.914742 0.689295 0.063695
O O12 0.000000 0.500000 0.000000
O O13 0.752204 0.367170 0.717197
O O14 0.712492 0.180798 0.022457
O O15 0.705054 0.921621 0.155566
#
# Coordination Sequence:
#
# PCOD9253461 Si02
#       7
#     4   4   4   4   4   4   4
#     4  10  23  41  61  94 126 156 203 253 311 371
#     4  10  17  37  63  90 109 159 214 252 287 370
#     4  11  24  40  60  90 125 159 208 262 318 363
#     4  10  23  36  59  91 123 156 205 259 299 353
#     4  10  19  38  65  83 119 158 213 252 304 377
#     4  11  22  38  59  88 122 157 215 250 302 370
#     4  10  20  38  68  86 117 169 207 244 304 374
#
# _framework density 19.917818
#
# number of rings (size 3 to 8) (size 9 to 14) (size 15 to 20)
#    0.000    1.714    4.286    1.714    2.000    4.571 
#    0.000    2.857    0.000    0.000    0.000    0.000 
#    0.000    0.000    0.000    0.000    0.000    0.000 
#
# Total GULP energy -155922.279374 kJ/mol
# GULP energy per Si atom -5568.652835 kJ/mol
# Density = 1.987248 g / cm^3
# Si number density = 19.917818 Si / 1000 Ang^3
#
#
#
# Elastic Constant Matrix: (Units=GPa)
#
#
# Indices 1 2 3 4 5 6 
#
# 1 34.5024 15.3197 35.9154 0.0000 9.8369 0.0000
# 2 15.3197 52.3708 18.0837 0.0000 11.9705 0.0000
# 3 35.9154 18.0837 74.7870 0.0000 14.5590 0.0000
# 4 0.0000 0.0000 0.0000 25.8331 0.0000 0.7022
# 5 9.8369 11.9705 14.5590 0.0000 14.4906 0.0000
# 6 0.0000 0.0000 0.0000 0.7022 0.0000 26.7390
#
#
#
# Elastic Compliance Matrix: (Units=1/GPa)
#
#
# Indices 1 2 3 4 5 6 
#
# 1 0.062264 -0.006800 -0.026258 0.000000 -0.010268 0.000000
# 2 -0.006800 0.024625 0.000463 0.000000 -0.016192 0.000000
# 3 -0.026258 0.000463 0.027938 0.000000 -0.010628 0.000000
# 4 0.000000 0.000000 0.000000 0.038738 0.000000 -0.001017
# 5 -0.010268 -0.016192 -0.010628 0.000000 0.100034 0.000000
# 6 0.000000 0.000000 0.000000 -0.001017 0.000000 0.037425
#
#
# Mechanical properties :
#
#
# Convention : Reuss Voigt Hill
#
# Bulk Modulus (GPa) = 20.14605 33.36641 26.75623
# Shear Modulus (GPa) = 13.41351 19.56864 16.49107
#
# Velocity S-wave (km/s) = 2.59789 3.13784 2.88054
# Velocity P-wave (km/s) = 4.37439 5.46959 4.95236
#
# Compressibility (1/GPa) = 0.04963753
#
# Stress axis : x y z
#
# Youngs Moduli (GPa) = 16.06076 40.60966 35.79318
#
# Poissons Ratio (x) = 0.27613 0.93986
# Poissons Ratio (y) = 0.10921 -0.01658
# Poissons Ratio (z) = 0.42172 -0.01881
#
# Static dielectric constant tensor:
#      x y z
#    x 1.709530 0.000000 0.003320 
#    y 0.000000 1.799660 0.000000 
#    z 0.003320 0.000000 1.736500 
# 
# From -- ./inp_files/17602.got.cif
#   From: 2010.05.17/outbox.ucp.g08.bks.cvg/sg14_9_cif.got.tgz:17602.got - 2010.06.11 12:31:08.
