data_PCOD9253811
_publ_section_title
;
Structure prediction by ZEFSAII (Michael W. Deem and Ramdas Pophale) SiO2 
 PCOD9253811
Probable space group: C 2/C
;
_chemical_formula_sum "Si O2"
_cell_formula_units_Z 44
_cell_length_a 9.992041
_cell_length_b 18.320832
_cell_length_c 19.653823
_cell_angle_alpha 90.000000
_cell_angle_beta 150.236584
_cell_angle_gamma 90.000000
_cell_volume 1786.057842
_symmetry_space_group_name_H-M "C 2/C"
_symmetry_group_IT_number 15
_symmetry_cell_setting 'monoclinic'
loop_
_space_group_symop_operation_xyz
x,y,z
-x,y,1/2-z
-x,-y,-z
x,-y,1/2+z
1/2+x,1/2+y,z
1/2-x,1/2+y,1/2-z
1/2-x,1/2-y,-z
1/2+x,1/2-y,1/2+z
loop_
_atom_site_type_symbol
_atom_site_label
_atom_site_fract_x
_atom_site_fract_y
_atom_site_fract_z
Si Si1 0.198540 0.997015 0.512787
Si Si2 0.539321 0.105049 0.567141
Si Si3 0.500000 0.499032 0.250000
Si Si4 0.958746 0.154851 0.859539
Si Si5 0.750398 0.921889 0.772987
Si Si6 0.567928 0.198846 0.098574
O O1 0.358479 0.051768 0.531802
O O2 0.958972 0.055277 0.424678
O O3 0.018772 0.926479 0.411892
O O4 0.463353 0.958913 0.660595
O O5 0.362758 0.154330 0.438976
O O6 0.751826 0.053961 0.620188
O O7 0.730835 0.150641 0.701575
O O8 0.625409 0.542079 0.241851
O O9 0.871156 0.215802 0.875383
O O10 0.243997 0.185786 0.958269
O O11 0.690260 0.839914 0.720207
#
# Coordination Sequence:
#
# PCOD9253811 Si02
#       6
#     8   8   4   8   8   8
#     4  10  18  31  51  74 107 138 181 217 267 313
#     4  11  18  31  52  77 109 138 176 225 262 317
#     4  10  14  26  46  74 100 126 172 212 258 300
#     4  10  19  33  45  77 113 138 174 221 266 322
#     4  10  18  28  45  76 102 136 171 218 262 322
#     4  10  20  29  48  72 114 142 170 211 282 320
#
# _framework density 24.635259999999999
#
# number of rings (size 3 to 8) (size 9 to 14) (size 15 to 20)
#    0.000    1.818    5.455    2.182    0.000    3.636 
#    0.000    0.909    0.000    0.000    0.000    1.273 
#   16.364    0.182    0.000    0.000    0.000    0.000 
#
# Total GULP energy -122590.589201 kJ/mol
# GULP energy per Si atom -5572.299509 kJ/mol
# Density = 2.457919 g / cm^3
# Si number density = 24.635260 Si / 1000 Ang^3
#
#
#
# Elastic Constant Matrix: (Units=GPa)
#
#
# Indices 1 2 3 4 5 6 
#
# 1 59.0582 24.6420 -1.1325 0.0011 13.6563 0.0003
# 2 24.6420 131.8256 28.6267 0.0032 -7.1047 0.0006
# 3 -1.1325 28.6267 114.9331 0.0133 6.6657 0.0030
# 4 0.0011 0.0032 0.0133 22.2451 0.0025 -0.4241
# 5 13.6563 -7.1047 6.6657 0.0025 39.3822 0.0009
# 6 0.0003 0.0006 0.0030 -0.4241 0.0009 -1.5398
#
#
#
# Elastic Compliance Matrix: (Units=1/GPa)
#
#
# Indices 1 2 3 4 5 6 
#
# 1 0.020909 -0.004772 0.001883 -0.000001 -0.008430 0.000001
# 2 -0.004772 0.009237 -0.002566 0.000000 0.003755 0.000000
# 3 0.001883 -0.002566 0.009516 -0.000005 -0.002727 0.000017
# 4 -0.000001 0.000000 -0.000005 0.044719 -0.000002 -0.012316
# 5 -0.008430 0.003755 -0.002727 -0.000002 0.029454 0.000012
# 6 0.000001 0.000000 0.000017 -0.012316 0.000012 -0.646041
#
#
# Mechanical properties :
#
#
# Convention : Reuss Voigt Hill
#
# Bulk Modulus (GPa) = 34.77678 45.56548 40.17113
# Shear Modulus (GPa) = -9.77111 28.92955 9.57922
#
# Velocity S-wave (km/s) = -1.99372 3.43055 1.97405
# Velocity P-wave (km/s) = 2.97446 5.85045 4.64086
#
# Compressibility (1/GPa) = 0.02875482
#
# Stress axis : x y z
#
# Youngs Moduli (GPa) = 47.82639 108.25667 105.08144
#
# Poissons Ratio (x) = 0.51658 -0.19792
# Poissons Ratio (y) = 0.22822 0.26960
# Poissons Ratio (z) = -0.09008 0.27774
#
# Static dielectric constant tensor:
#      x y z
#    x 2.203840 0.000000 -0.095280 
#    y 0.000000 1.973310 0.000000 
#    z -0.095280 0.000000 2.030020 
# 
# From -- ./inp_files/314301.got.cif
#   From: 2010.05.17/outbox.cif.g08.bks.cpg/sg15_158_cif.got.tgz:314301.got - 2010.06.03 18:47:42.
