data_PCOD9253291
_publ_section_title
;
Structure prediction by ZEFSAII (Michael W. Deem and Ramdas Pophale) SiO2 
 PCOD9253291
Probable space group: P 21/C
;
_chemical_formula_sum "Si O2"
_cell_formula_units_Z 12
_cell_length_a 20.783132
_cell_length_b 4.657974
_cell_length_c 18.335201
_cell_angle_alpha 90.000000
_cell_angle_beta 164.269900
_cell_angle_gamma 90.000000
_cell_volume 481.208296
_symmetry_space_group_name_H-M "P 21/C"
_symmetry_group_IT_number 14
_symmetry_cell_setting 'monoclinic'
loop_
_space_group_symop_operation_xyz
x,y,z
-x,1/2+y,1/2-z
-x,-y,-z
x,1/2-y,1/2+z
loop_
_atom_site_type_symbol
_atom_site_label
_atom_site_fract_x
_atom_site_fract_y
_atom_site_fract_z
Si Si1 0.518335 0.076888 0.935421
Si Si2 0.175083 0.068413 0.257959
Si Si3 0.954351 0.769606 0.652678
O O1 0.581830 0.409218 0.996914
O O2 0.271082 0.054906 0.624044
O O3 0.500000 0.000000 0.000000
O O4 0.741765 0.896767 0.148033
O O5 0.072400 0.921602 0.217977
O O6 0.000000 0.000000 0.000000
O O7 0.888476 0.521603 0.639553
#
# Coordination Sequence:
#
# PCOD9253291 Si02
#       3
#     4   4   4
#     4  12  26  46  80 110 144 197 257 306 373 454
#     4  12  26  46  80 110 144 197 257 306 373 454
#     4  12  28  48  74 110 160 196 248 322 382 440
#
# _framework density 24.937228000000001
#
# number of rings (size 3 to 8) (size 9 to 14) (size 15 to 20)
#    0.000    0.000    3.333    6.000    4.667    5.333 
#    0.000    0.000    0.000    0.000    0.000    0.000 
#    0.000    0.000    0.000    0.000    0.000    0.000 
#
# Total GULP energy -67176.294119 kJ/mol
# GULP energy per Si atom -5598.024510 kJ/mol
# Density = 2.488047 g / cm^3
# Si number density = 24.937228 Si / 1000 Ang^3
#
#
#
# Elastic Constant Matrix: (Units=GPa)
#
#
# Indices 1 2 3 4 5 6 
#
# 1 161.2182 49.8933 38.6991 0.0000 -9.4389 0.0000
# 2 49.8933 118.7343 18.1299 0.0000 -10.9917 0.0000
# 3 38.6991 18.1299 94.0854 0.0000 -24.3272 0.0000
# 4 0.0000 0.0000 0.0000 63.1027 0.0000 4.6335
# 5 -9.4389 -10.9917 -24.3272 0.0000 33.6679 0.0000
# 6 0.0000 0.0000 0.0000 4.6335 0.0000 54.8156
#
#
#
# Elastic Compliance Matrix: (Units=1/GPa)
#
#
# Indices 1 2 3 4 5 6 
#
# 1 0.007730 -0.002892 -0.002836 0.000000 -0.000826 0.000000
# 2 -0.002892 0.009870 -0.000109 0.000000 0.002333 0.000000
# 3 -0.002836 -0.000109 0.014267 0.000000 0.009478 0.000000
# 4 0.000000 0.000000 0.000000 0.015946 0.000000 -0.001348
# 5 -0.000826 0.002333 0.009478 0.000000 0.037080 0.000000
# 6 0.000000 0.000000 0.000000 -0.001348 0.000000 0.018357
#
#
# Mechanical properties :
#
#
# Convention : Reuss Voigt Hill
#
# Bulk Modulus (GPa) = 49.52229 65.27583 57.39906
# Shear Modulus (GPa) = 41.09982 48.13829 44.61905
#
# Velocity S-wave (km/s) = 4.06412 4.39837 4.23455
# Velocity P-wave (km/s) = 6.47493 7.21298 6.85390
#
# Compressibility (1/GPa) = 0.02019293
#
# Stress axis : x y z
#
# Youngs Moduli (GPa) = 129.36514 101.31802 70.09256
#
# Poissons Ratio (x) = 0.29298 0.19877
# Poissons Ratio (y) = 0.37408 0.00767
# Poissons Ratio (z) = 0.36686 0.01108
#
# Static dielectric constant tensor:
#      x y z
#    x 2.009760 0.000000 0.037570 
#    y 0.000000 1.897670 0.000000 
#    z 0.037570 0.000000 2.298450 
# 
# From -- ./inp_files/59837.got.cif
#   From: 2010.05.17/outbox.cif.g08.bks.cpg/sg14_30_cif.got.tgz:59837.got - 2010.06.03 17:49:19.
