data_PCOD9253508
_publ_section_title
;
Structure prediction by ZEFSAII (Michael W. Deem and Ramdas Pophale) SiO2 
 PCOD9253508
Probable space group: P 21/C
;
_chemical_formula_sum "Si O2"
_cell_formula_units_Z 28
_cell_length_a 9.000000
_cell_length_b 12.000000
_cell_length_c 15.000000
_cell_angle_alpha 90.000000
_cell_angle_beta 120.000000
_cell_angle_gamma 90.000000
_cell_volume 1402.961154
_symmetry_space_group_name_H-M "P 21/C"
_symmetry_group_IT_number 14
_symmetry_cell_setting 'monoclinic'
loop_
_space_group_symop_operation_xyz
x,y,z
-x,1/2+y,1/2-z
-x,-y,-z
x,1/2-y,1/2+z
loop_
_atom_site_type_symbol
_atom_site_label
_atom_site_fract_x
_atom_site_fract_y
_atom_site_fract_z
Si Si1 0.720099 0.148223 0.743035
Si Si2 0.206376 0.202358 0.341970
Si Si3 0.847337 0.314021 0.631666
Si Si4 0.503475 0.955033 0.601242
Si Si5 0.763951 0.288782 0.916343
Si Si6 0.990052 0.553914 0.094584
Si Si7 0.095502 0.442119 0.309544
O O1 0.734487 0.239298 0.666517
O O2 0.673500 0.200505 0.824630
O O3 0.907713 0.086722 0.795252
O O4 0.579221 0.056115 0.679353
O O5 0.374769 0.152651 0.349735
O O6 0.176790 0.113727 0.413807
O O7 0.209634 0.333189 0.362379
O O8 0.041580 0.193479 0.227737
O O9 0.829651 0.267128 0.526839
O O10 0.816606 0.446282 0.626905
O O11 0.327479 0.902162 0.580298
O O12 0.500000 0.000000 0.500000
O O13 0.900709 0.333851 0.886008
O O14 0.057681 0.471159 0.192922
O O15 0.000000 0.500000 0.000000
#
# Coordination Sequence:
#
# PCOD9253508 Si02
#       7
#     4   4   4   4   4   4   4
#     4  11  21  44  62  99 134 167 219 275 323 390
#     4  10  21  40  63  93 130 171 218 264 330 384
#     4  10  20  41  68  93 130 174 211 283 318 377
#     4  12  24  43  67  93 136 181 209 272 337 392
#     4  12  24  38  68  99 128 172 223 265 337 393
#     4  11  19  35  63  96 120 169 226 261 302 395
#     4  10  19  40  67  86 134 163 216 280 321 361
#
# _framework density 19.957787
#
# number of rings (size 3 to 8) (size 9 to 14) (size 15 to 20)
#    0.000    1.143    8.571    2.571    0.000    1.714 
#    0.000    3.571    0.000    0.000    0.000    0.000 
#    0.000    0.000    0.000    0.000    0.000    0.000 
#
# Total GULP energy -155904.342178 kJ/mol
# GULP energy per Si atom -5568.012221 kJ/mol
# Density = 1.991236 g / cm^3
# Si number density = 19.957787 Si / 1000 Ang^3
#
#
#
# Elastic Constant Matrix: (Units=GPa)
#
#
# Indices 1 2 3 4 5 6 
#
# 1 60.0284 34.8666 41.5223 0.0000 -11.2507 0.0000
# 2 34.8666 142.2821 37.0664 0.0000 5.9775 0.0000
# 3 41.5223 37.0664 69.6992 0.0000 -16.9641 0.0000
# 4 0.0000 0.0000 0.0000 21.4444 0.0000 -4.3563
# 5 -11.2507 5.9775 -16.9641 0.0000 21.6409 0.0000
# 6 0.0000 0.0000 0.0000 -4.3563 0.0000 39.3099
#
#
#
# Elastic Compliance Matrix: (Units=1/GPa)
#
#
# Indices 1 2 3 4 5 6 
#
# 1 0.029859 -0.003746 -0.014540 0.000000 0.005160 0.000000
# 2 -0.003746 0.009584 -0.004923 0.000000 -0.008453 0.000000
# 3 -0.014540 -0.004923 0.029805 0.000000 0.017164 0.000000
# 4 0.000000 0.000000 0.000000 0.047706 0.000000 0.005287
# 5 0.005160 -0.008453 0.017164 0.000000 0.064681 0.000000
# 6 0.000000 0.000000 0.000000 0.005287 0.000000 0.026025
#
#
# Mechanical properties :
#
#
# Convention : Reuss Voigt Hill
#
# Bulk Modulus (GPa) = 43.80094 55.43558 49.61826
# Shear Modulus (GPa) = 19.10672 27.04935 23.07804
#
# Velocity S-wave (km/s) = 3.09747 3.68547 3.40419
# Velocity P-wave (km/s) = 5.89804 6.77842 6.35350
#
# Compressibility (1/GPa) = 0.02283056
#
# Stress axis : x y z
#
# Youngs Moduli (GPa) = 33.49038 104.34299 33.55143
#
# Poissons Ratio (x) = 0.39086 0.48785
# Poissons Ratio (y) = 0.12545 0.16516
# Poissons Ratio (z) = 0.48696 0.51364
#
# Static dielectric constant tensor:
#      x y z
#    x 1.822420 0.000000 0.057590 
#    y 0.000000 1.761570 0.000000 
#    z 0.057590 0.000000 1.704440 
# 
# From -- ./inp_files/40001.got.cif
#   From: 2010.05.17/outbox.ucp.g08.bks.cvg/sg14_21_cif.got.tgz:40001.got - 2010.06.11 12:31:08.
