data_PCOD9253240
_publ_section_title
;
Structure prediction by ZEFSAII (Michael W. Deem and Ramdas Pophale) SiO2 
 PCOD9253240
Probable space group: P 21/C
;
_chemical_formula_sum "Si O2"
_cell_formula_units_Z 16
_cell_length_a 8.054901
_cell_length_b 7.358856
_cell_length_c 13.224307
_cell_angle_alpha 90.000000
_cell_angle_beta 47.989138
_cell_angle_gamma 90.000000
_cell_volume 582.428671
_symmetry_space_group_name_H-M "P 21/C"
_symmetry_group_IT_number 14
_symmetry_cell_setting 'monoclinic'
loop_
_space_group_symop_operation_xyz
x,y,z
-x,1/2+y,1/2-z
-x,-y,-z
x,1/2-y,1/2+z
loop_
_atom_site_type_symbol
_atom_site_label
_atom_site_fract_x
_atom_site_fract_y
_atom_site_fract_z
Si Si1 0.154905 0.396122 0.751576
Si Si2 0.667269 0.989955 0.528271
Si Si3 0.951103 0.009181 0.137691
Si Si4 0.573071 0.303741 0.265893
O O1 0.141663 0.432455 0.637863
O O2 0.366181 0.506454 0.706158
O O3 0.923664 0.480707 0.891289
O O4 0.865562 0.813692 0.211126
O O5 0.604457 0.146322 0.635471
O O6 0.500000 0.000000 0.500000
O O7 0.639257 0.801517 0.602355
O O8 0.762600 0.162201 0.222482
O O9 0.000000 0.000000 0.000000
#
# Coordination Sequence:
#
# PCOD9253240 Si02
#       4
#     4   4   4   4
#     4  12  26  53  81 117 165 208 268 330 398 481
#     4  12  27  53  77 119 162 203 270 331 395 480
#     4  12  25  47  83 116 153 213 258 324 405 466
#     4  12  29  49  80 115 162 211 265 327 400 472
#
# _framework density 27.471174000000001
#
# number of rings (size 3 to 8) (size 9 to 14) (size 15 to 20)
#    0.000    0.000    7.500    0.750    3.500    0.000 
#    0.000    2.500    0.000    0.000    0.000    0.000 
#    0.000    0.000    0.000    0.000    0.000    0.000 
#
# Total GULP energy -89827.338226 kJ/mol
# GULP energy per Si atom -5614.208639 kJ/mol
# Density = 2.740865 g / cm^3
# Si number density = 27.471174 Si / 1000 Ang^3
#
#
#
# Elastic Constant Matrix: (Units=GPa)
#
#
# Indices 1 2 3 4 5 6 
#
# 1 75.8143 29.0736 31.2263 0.0000 29.7065 0.0000
# 2 29.0736 222.3307 62.0928 0.0000 16.8446 0.0000
# 3 31.2263 62.0928 151.7616 0.0000 29.3362 0.0000
# 4 0.0000 0.0000 0.0000 68.0483 0.0000 2.9541
# 5 29.7065 16.8446 29.3362 0.0000 60.8387 0.0000
# 6 0.0000 0.0000 0.0000 2.9541 0.0000 62.7714
#
#
#
# Elastic Compliance Matrix: (Units=1/GPa)
#
#
# Indices 1 2 3 4 5 6 
#
# 1 0.017181 -0.001243 -0.001623 0.000000 -0.007263 0.000000
# 2 -0.001243 0.005179 -0.001878 0.000000 0.000079 0.000000
# 3 -0.001623 -0.001878 0.008203 0.000000 -0.002643 0.000000
# 4 0.000000 0.000000 0.000000 0.014726 0.000000 -0.000693
# 5 -0.007263 0.000079 -0.002643 0.000000 0.021236 0.000000
# 6 0.000000 0.000000 0.000000 -0.000693 0.000000 0.015963
#
#
# Mechanical properties :
#
#
# Convention : Reuss Voigt Hill
#
# Bulk Modulus (GPa) = 47.45205 77.18803 62.32004
# Shear Modulus (GPa) = 50.50493 60.16594 55.33544
#
# Velocity S-wave (km/s) = 4.29239 4.68498 4.49297
# Velocity P-wave (km/s) = 6.47125 7.57788 7.04632
#
# Compressibility (1/GPa) = 0.02107391
#
# Stress axis : x y z
#
# Youngs Moduli (GPa) = 58.20421 193.08685 121.91309
#
# Poissons Ratio (x) = 0.24007 0.19781
# Poissons Ratio (y) = 0.07237 0.22900
# Poissons Ratio (z) = 0.09444 0.36270
#
# Static dielectric constant tensor:
#      x y z
#    x 2.191110 0.000000 -0.036030 
#    y 0.000000 2.130440 0.000000 
#    z -0.036030 0.000000 2.175220 
# 
# From -- ./inp_files/22926.got.cif
#   From: 2010.05.17/outbox.cif.g08.bks.cpg/sg14_12_cif.got.tgz:22926.got - 2010.06.03 17:49:19.
