data_PCOD9253942
_publ_section_title
;
Structure prediction by ZEFSAII (Michael W. Deem and Ramdas Pophale) SiO2 
 PCOD9253942
Probable space group: C 2/C
;
_chemical_formula_sum "Si O2"
_cell_formula_units_Z 56
_cell_length_a 8.100053
_cell_length_b 24.906449
_cell_length_c 13.896496
_cell_angle_alpha 90.000000
_cell_angle_beta 118.073153
_cell_angle_gamma 90.000000
_cell_volume 2473.686309
_symmetry_space_group_name_H-M "C 2/C"
_symmetry_group_IT_number 15
_symmetry_cell_setting 'monoclinic'
loop_
_space_group_symop_operation_xyz
x,y,z
-x,y,1/2-z
-x,-y,-z
x,-y,1/2+z
1/2+x,1/2+y,z
1/2-x,1/2+y,1/2-z
1/2-x,1/2-y,-z
1/2+x,1/2-y,1/2+z
loop_
_atom_site_type_symbol
_atom_site_label
_atom_site_fract_x
_atom_site_fract_y
_atom_site_fract_z
Si Si1 0.994450 0.069810 0.597847
Si Si2 0.737702 0.208444 0.218577
Si Si3 0.253397 0.901422 0.862655
Si Si4 0.682342 0.327286 0.228552
Si Si5 0.704335 0.198561 0.423351
Si Si6 0.852659 0.611976 0.936442
Si Si7 0.112025 0.954083 0.646765
O O1 0.112538 0.124587 0.641616
O O2 0.816890 0.070249 0.622072
O O3 0.901137 0.060625 0.468248
O O4 0.121422 0.018157 0.653727
O O5 0.802325 0.161557 0.164694
O O6 0.750998 0.271833 0.200416
O O7 0.803646 0.199564 0.347083
O O8 0.515699 0.198948 0.156056
O O9 0.263263 0.924632 0.756083
O O10 0.087759 0.933781 0.867251
O O11 0.445271 0.906943 0.974349
O O12 0.500000 0.315658 0.250000
O O13 0.845848 0.350673 0.341024
O O14 0.750000 0.250000 0.500000
O O15 0.729326 0.148467 0.499448
#
# Coordination Sequence:
#
# PCOD9253942 Si02
#       7
#     8   8   8   8   8   8   8
#     4  10  22  40  66  86 114 157 208 259 305 358
#     4  10  18  30  52  87 121 154 192 239 303 356
#     4  10  23  38  61  87 124 163 195 246 304 379
#     4  10  18  34  59  96 121 153 199 260 312 348
#     4  10  15  27  48  84 124 146 183 249 298 346
#     4  10  20  33  61  96 113 146 205 258 302 343
#     4  10  23  45  59  81 122 169 202 240 311 376
#
# _framework density 22.638279000000001
#
# number of rings (size 3 to 8) (size 9 to 14) (size 15 to 20)
#    0.000    2.000    2.857    1.714    6.000    2.286 
#    0.000    1.429    3.143    0.000    0.000    0.000 
#    0.000    0.000    0.000    0.000    0.000    0.000 
#
# Total GULP energy -156213.589510 kJ/mol
# GULP energy per Si atom -5579.056768 kJ/mol
# Density = 2.258675 g / cm^3
# Si number density = 22.638279 Si / 1000 Ang^3
#
#
#
# Elastic Constant Matrix: (Units=GPa)
#
#
# Indices 1 2 3 4 5 6 
#
# 1 16.2307 -6.4765 -6.1158 0.0000 7.7226 0.0000
# 2 -6.4765 69.0307 3.3239 0.0000 -8.5911 0.0000
# 3 -6.1158 3.3239 90.8941 0.0000 20.9748 0.0000
# 4 0.0000 0.0000 0.0000 49.0263 0.0000 -26.5802
# 5 7.7226 -8.5911 20.9748 0.0000 31.7545 0.0000
# 6 0.0000 0.0000 0.0000 -26.5802 0.0000 78.8680
#
#
#
# Elastic Compliance Matrix: (Units=1/GPa)
#
#
# Indices 1 2 3 4 5 6 
#
# 1 0.079521 0.003727 0.011143 0.000000 -0.025691 0.000000
# 2 0.003727 0.015406 -0.001257 0.000000 0.004092 0.000000
# 3 0.011143 -0.001257 0.014750 0.000000 -0.012792 0.000000
# 4 0.000000 0.000000 0.000000 0.024957 0.000000 0.008411
# 5 -0.025691 0.004092 -0.012792 0.000000 0.047296 0.000000
# 6 0.000000 0.000000 0.000000 0.008411 0.000000 0.015514
#
#
# Mechanical properties :
#
#
# Convention : Reuss Voigt Hill
#
# Bulk Modulus (GPa) = 7.30449 17.51318 12.40883
# Shear Modulus (GPa) = 23.16396 44.29138 33.72767
#
# Velocity S-wave (km/s) = 3.20225 4.42801 3.86405
# Velocity P-wave (km/s) = 4.11171 5.82202 5.03995
#
# Compressibility (1/GPa) = 0.13690215
#
# Stress axis : x y z
#
# Youngs Moduli (GPa) = 12.57527 64.91102 67.79888
#
# Poissons Ratio (x) = -0.24192 -0.75547
# Poissons Ratio (y) = -0.04687 0.08521
# Poissons Ratio (z) = -0.14012 0.08158
#
# Static dielectric constant tensor:
#      x y z
#    x 1.852880 0.000000 -0.027990 
#    y 0.000000 1.922940 0.000000 
#    z -0.027990 0.000000 1.920940 
# 
# From -- ./inp_files/137977.got.cif
#   From: 2010.05.17/outbox.cif.g08.bks.cpg/sg15_69_cif.got.tgz:137977.got - 2010.06.03 18:47:42.
