data_PCOD9253685
_publ_section_title
;
Structure prediction by ZEFSAII (Michael W. Deem and Ramdas Pophale) SiO2 
 PCOD9253685
Probable space group: P 21/C
;
_chemical_formula_sum "Si O2"
_cell_formula_units_Z 32
_cell_length_a 9.000000
_cell_length_b 12.000000
_cell_length_c 30.000000
_cell_angle_alpha 90.000000
_cell_angle_beta 30.000000
_cell_angle_gamma 90.000000
_cell_volume 1620.000000
_symmetry_space_group_name_H-M "P 21/C"
_symmetry_group_IT_number 14
_symmetry_cell_setting 'monoclinic'
loop_
_space_group_symop_operation_xyz
x,y,z
-x,1/2+y,1/2-z
-x,-y,-z
x,1/2-y,1/2+z
loop_
_atom_site_type_symbol
_atom_site_label
_atom_site_fract_x
_atom_site_fract_y
_atom_site_fract_z
Si Si1 0.892354 0.514004 0.078073
Si Si2 0.231201 0.550692 0.699897
Si Si3 0.778532 0.392713 0.551619
Si Si4 0.304366 0.907436 0.685366
Si Si5 0.040536 0.739175 0.911656
Si Si6 0.632444 0.263303 0.410692
Si Si7 0.658352 0.225477 0.757430
Si Si8 0.956728 0.246086 0.422223
O O1 0.555324 0.548093 0.154264
O O2 0.930860 0.394104 0.089960
O O3 0.059768 0.615140 0.059479
O O4 0.000000 0.500000 0.000000
O O5 0.454937 0.446311 0.640942
O O6 0.308253 0.636593 0.639802
O O7 0.261832 0.607487 0.740494
O O8 0.907749 0.506316 0.772905
O O9 0.862244 0.304180 0.568773
O O10 0.000000 0.500000 0.500000
O O11 0.796192 0.327787 0.499673
O O12 0.377528 0.845814 0.619391
O O13 0.187905 0.807479 0.746529
O O14 0.236061 0.763139 0.818088
O O15 0.707029 0.773704 0.986057
O O16 0.843640 0.259820 0.400086
O O17 0.301533 0.226527 0.844429
#
# Coordination Sequence:
#
# PCOD9253685 Si02
#       8
#     4   4   4   4   4   4   4   4
#     4  11  22  45  68  91 130 176 218 270 327 395
#     4  11  25  44  68  96 137 176 220 276 328 397
#     4  12  23  45  71  92 132 180 212 265 336 398
#     4  10  24  44  65  93 136 174 217 273 329 389
#     4  12  25  42  70  98 130 176 224 271 334 394
#     4  11  25  44  63 100 136 166 225 281 325 394
#     4  10  25  44  63  99 136 167 221 274 333 394
#     4  11  25  44  67  98 134 174 220 274 332 394
#
# _framework density 19.753086
#
# number of rings (size 3 to 8) (size 9 to 14) (size 15 to 20)
#    0.000    1.000    5.000    0.750    7.000    5.000 
#    0.000    0.000    0.000    0.000    0.000    0.000 
#    0.000    0.000    0.000    0.000    0.000    0.000 
#
# Total GULP energy -178249.590017 kJ/mol
# GULP energy per Si atom -5570.299688 kJ/mol
# Density = 1.970813 g / cm^3
# Si number density = 19.753086 Si / 1000 Ang^3
#
#
#
# Elastic Constant Matrix: (Units=GPa)
#
#
# Indices 1 2 3 4 5 6 
#
# 1 106.6624 15.1457 -9.6731 0.0000 5.2133 0.0000
# 2 15.1457 84.1785 4.9138 0.0000 -3.4701 0.0000
# 3 -9.6731 4.9138 27.0178 0.0000 7.0440 0.0000
# 4 0.0000 0.0000 0.0000 18.5011 0.0000 -11.2950
# 5 5.2133 -3.4701 7.0440 0.0000 30.1808 0.0000
# 6 0.0000 0.0000 0.0000 -11.2950 0.0000 30.3887
#
#
#
# Elastic Compliance Matrix: (Units=1/GPa)
#
#
# Indices 1 2 3 4 5 6 
#
# 1 0.010302 -0.002273 0.004934 0.000000 -0.003192 0.000000
# 2 -0.002273 0.012624 -0.003823 0.000000 0.002737 0.000000
# 3 0.004934 -0.003823 0.042391 0.000000 -0.011185 0.000000
# 4 0.000000 0.000000 0.000000 0.069916 0.000000 0.025986
# 5 -0.003192 0.002737 -0.011185 0.000000 0.036610 0.000000
# 6 0.000000 0.000000 0.000000 0.025986 0.000000 0.042566
#
#
# Mechanical properties :
#
#
# Convention : Reuss Voigt Hill
#
# Bulk Modulus (GPa) = 15.87506 26.51460 21.19483
# Shear Modulus (GPa) = 21.03222 29.64562 25.33892
#
# Velocity S-wave (km/s) = 3.26660 3.87823 3.58548
# Velocity P-wave (km/s) = 4.72036 5.78847 5.28148
#
# Compressibility (1/GPa) = 0.06299188
#
# Stress axis : x y z
#
# Youngs Moduli (GPa) = 97.07197 79.21114 23.59010
#
# Poissons Ratio (x) = 0.18006 -0.11639
# Poissons Ratio (y) = 0.22066 0.09019
# Poissons Ratio (z) = -0.47895 0.30285
#
# Static dielectric constant tensor:
#      x y z
#    x 1.613630 0.000000 -0.001510 
#    y 0.000000 1.772160 0.000000 
#    z -0.001510 0.000000 2.012160 
# 
# From -- ./inp_files/79633.got.cif
#   From: 2010.05.17/outbox.ucp.g08.bks.cvg/sg14_40_cif.got.tgz:79633.got - 2010.06.11 12:31:08.
