data_PCOD9253990
_publ_section_title
;
Structure prediction by ZEFSAII (Michael W. Deem and Ramdas Pophale) SiO2 
 PCOD9253990
Probable space group: C 2/C
;
_chemical_formula_sum "Si O2"
_cell_formula_units_Z 40
_cell_length_a 17.194294
_cell_length_b 6.842666
_cell_length_c 31.652883
_cell_angle_alpha 90.000000
_cell_angle_beta 159.070215
_cell_angle_gamma 90.000000
_cell_volume 1330.341375
_symmetry_space_group_name_H-M "C 2/C"
_symmetry_group_IT_number 15
_symmetry_cell_setting 'monoclinic'
loop_
_space_group_symop_operation_xyz
x,y,z
-x,y,1/2-z
-x,-y,-z
x,-y,1/2+z
1/2+x,1/2+y,z
1/2-x,1/2+y,1/2-z
1/2-x,1/2-y,-z
1/2+x,1/2-y,1/2+z
loop_
_atom_site_type_symbol
_atom_site_label
_atom_site_fract_x
_atom_site_fract_y
_atom_site_fract_z
Si Si1 0.589134 0.642605 0.950887
Si Si2 0.910588 0.401315 0.308838
Si Si3 0.388324 0.204123 0.503921
Si Si4 0.279841 0.228578 0.360505
Si Si5 0.169565 0.671308 0.302602
O O1 0.345962 0.595149 0.808364
O O2 0.654900 0.431569 0.004264
O O3 0.508261 0.776533 0.950123
O O4 0.750000 0.750000 0.000000
O O5 0.071122 0.384355 0.429164
O O6 0.937117 0.596407 0.294776
O O7 0.902854 0.225134 0.269808
O O8 0.258825 0.139200 0.396190
O O9 0.633002 0.192100 0.608539
O O10 0.262074 0.460620 0.364043
O O11 0.000000 0.744769 0.250000
#
# Coordination Sequence:
#
# PCOD9253990 Si02
#       5
#     8   8   8   8   8
#     4   8  16  29  47  75 105 122 168 214 240 299
#     4   7  18  28  45  73 101 122 164 210 240 293
#     4  10  15  30  52  71  96 140 154 206 262 273
#     4   7  17  29  45  72  99 121 169 206 236 297
#     4   8  16  29  47  71  95 120 169 206 232 299
#
# _framework density 30.06747
#
# number of rings (size 3 to 8) (size 9 to 14) (size 15 to 20)
#    2.400    1.600    0.000    2.400    0.000    3.200 
#    0.000    1.000    0.000    9.600    0.000    7.000 
#    0.000    0.000    0.000    0.000    0.000    0.000 
#
# Total GULP energy -111502.874422 kJ/mol
# GULP energy per Si atom -5575.143721 kJ/mol
# Density = 2.999904 g / cm^3
# Si number density = 30.067470 Si / 1000 Ang^3
#
#
#
# Elastic Constant Matrix: (Units=GPa)
#
#
# Indices 1 2 3 4 5 6 
#
# 1 294.8165 88.9760 84.4256 -0.0028 -5.2384 -0.0003
# 2 88.9760 81.0491 52.2020 -0.0099 -20.4913 -0.0177
# 3 84.4256 52.2020 87.6059 -0.0031 -30.6009 -0.0073
# 4 -0.0028 -0.0099 -0.0031 37.2634 0.0014 -36.2733
# 5 -5.2384 -20.4913 -30.6009 0.0014 87.9425 0.0029
# 6 -0.0003 -0.0177 -0.0073 -36.2733 0.0029 -63.6337
#
#
#
# Elastic Compliance Matrix: (Units=1/GPa)
#
#
# Indices 1 2 3 4 5 6 
#
# 1 0.005722 -0.004518 -0.003496 0.000000 -0.001928 0.000001
# 2 -0.004518 0.023616 -0.008982 0.000000 0.002108 -0.000005
# 3 -0.003496 -0.008982 0.022007 0.000000 0.005357 0.000001
# 4 0.000000 0.000000 0.000000 0.017259 0.000000 -0.009838
# 5 -0.001928 0.002108 0.005357 0.000000 0.013611 -0.000001
# 6 0.000001 -0.000005 0.000001 -0.009838 -0.000001 -0.010107
#
#
# Mechanical properties :
#
#
# Convention : Reuss Voigt Hill
#
# Bulk Modulus (GPa) = 57.62470 101.63098 79.62784
# Shear Modulus (GPa) = 44.68858 28.17229 36.43044
#
# Velocity S-wave (km/s) = 3.85941 3.06432 3.48461
# Velocity P-wave (km/s) = 6.25034 6.81134 6.53686
#
# Compressibility (1/GPa) = 0.01735367
#
# Stress axis : x y z
#
# Youngs Moduli (GPa) = 174.75450 42.34440 45.43958
#
# Poissons Ratio (x) = 0.19130 0.15887
# Poissons Ratio (y) = 0.78949 0.40814
# Poissons Ratio (z) = 0.61097 0.38034
#
# Static dielectric constant tensor:
#      x y z
#    x 2.411380 0.000000 0.022030 
#    y 0.000000 2.461540 0.000000 
#    z 0.022030 0.000000 2.498620 
# 
# From -- ./inp_files/313372.got.cif
#   From: 2010.05.17/outbox.cif.g08.bks.cpg/sg15_157_cif.got.tgz:313372.got - 2010.06.03 18:47:42.
