data_PCOD9253019
_publ_section_title
;
Structure prediction by ZEFSAII (Michael W. Deem and Ramdas Pophale) SiO2 
 PCOD9253019
Probable space group: P 21/C
;
_chemical_formula_sum "Si O2"
_cell_formula_units_Z 20
_cell_length_a 4.801498
_cell_length_b 8.017279
_cell_length_c 21.065976
_cell_angle_alpha 90.000000
_cell_angle_beta 121.063641
_cell_angle_gamma 90.000000
_cell_volume 694.641484
_symmetry_space_group_name_H-M "P 21/C"
_symmetry_group_IT_number 14
_symmetry_cell_setting 'monoclinic'
loop_
_space_group_symop_operation_xyz
x,y,z
-x,1/2+y,1/2-z
-x,-y,-z
x,1/2-y,1/2+z
loop_
_atom_site_type_symbol
_atom_site_label
_atom_site_fract_x
_atom_site_fract_y
_atom_site_fract_z
Si Si1 0.462114 0.953907 0.893079
Si Si2 0.558056 0.188373 0.430198
Si Si3 0.365776 0.813191 0.188325
Si Si4 0.646374 0.487345 0.198261
Si Si5 0.988415 0.719986 0.910483
O O1 0.198611 0.820197 0.883697
O O2 0.804275 0.857921 0.932669
O O3 0.432120 0.124161 0.930326
O O4 0.453025 0.025748 0.819920
O O5 0.782982 0.237487 0.394540
O O6 0.767449 0.126980 0.512946
O O7 0.305222 0.058183 0.367837
O O8 0.609400 0.662615 0.230006
O O9 0.182701 0.867265 0.230128
O O10 0.302722 0.391132 0.150352
#
# Coordination Sequence:
#
# PCOD9253019 Si02
#       5
#     4   4   4   4   4
#     4   9  23  36  67  87 127 160 213 260 326 381
#     4   8  21  36  62  96 125 167 216 262 325 384
#     4   8  19  39  59  96 123 176 214 266 321 391
#     4   9  19  36  66  88 134 167 219 265 326 383
#     4  12  19  42  63  97 122 167 207 276 316 385
#
# _framework density 28.791830000000001
#
# number of rings (size 3 to 8) (size 9 to 14) (size 15 to 20)
#    2.400    0.000    0.000    3.000    0.000    0.000 
#    0.000   20.000    0.000    0.000    0.000    0.000 
#    0.000    0.000    0.000    0.000    0.000    0.000 
#
# Total GULP energy -111401.450453 kJ/mol
# GULP energy per Si atom -5570.072523 kJ/mol
# Density = 2.872630 g / cm^3
# Si number density = 28.791830 Si / 1000 Ang^3
#
#
#
# Elastic Constant Matrix: (Units=GPa)
#
#
# Indices 1 2 3 4 5 6 
#
# 1 105.9882 24.0270 30.0359 0.0000 -14.0782 0.0000
# 2 24.0270 107.9698 31.1338 0.0000 -10.0573 0.0000
# 3 30.0359 31.1338 160.5004 0.0000 0.1631 0.0000
# 4 0.0000 0.0000 0.0000 55.4064 0.0000 -6.3005
# 5 -14.0782 -10.0573 0.1631 0.0000 25.3949 0.0000
# 6 0.0000 0.0000 0.0000 -6.3005 0.0000 42.7392
#
#
#
# Elastic Compliance Matrix: (Units=1/GPa)
#
#
# Indices 1 2 3 4 5 6 
#
# 1 0.011000 -0.001415 -0.001790 0.000000 0.005549 0.000000
# 2 -0.001415 0.010394 -0.001755 0.000000 0.003343 0.000000
# 3 -0.001790 -0.001755 0.006908 0.000000 -0.001732 0.000000
# 4 0.000000 0.000000 0.000000 0.018356 0.000000 0.002706
# 5 0.005549 0.003343 -0.001732 0.000000 0.043790 0.000000
# 6 0.000000 0.000000 0.000000 0.002706 0.000000 0.023797
#
#
# Mechanical properties :
#
#
# Convention : Reuss Voigt Hill
#
# Bulk Modulus (GPa) = 54.39855 60.53910 57.46883
# Shear Modulus (GPa) = 38.37570 43.99221 41.18395
#
# Velocity S-wave (km/s) = 3.65481 3.91313 3.78617
# Velocity P-wave (km/s) = 6.06176 6.44119 6.25435
#
# Compressibility (1/GPa) = 0.01838284
#
# Stress axis : x y z
#
# Youngs Moduli (GPa) = 90.90870 96.20774 144.76795
#
# Poissons Ratio (x) = 0.13613 0.25909
# Poissons Ratio (y) = 0.12863 0.25405
# Poissons Ratio (z) = 0.16270 0.16883
#
# Static dielectric constant tensor:
#      x y z
#    x 2.207140 0.000000 0.020360 
#    y 0.000000 2.227620 0.000000 
#    z 0.020360 0.000000 2.227120 
# 
# From -- ./inp_files/63103.got.cif
#   From: 2010.05.17/outbox.cif.g08.bks.cpg/sg14_32_cif.got.tgz:63103.got - 2010.06.03 17:49:19.
