data_PCOD9253669
_publ_section_title
;
Structure prediction by ZEFSAII (Michael W. Deem and Ramdas Pophale) SiO2 
 PCOD9253669
Probable space group: P 21/C
;
_chemical_formula_sum "Si O2"
_cell_formula_units_Z 28
_cell_length_a 21.000000
_cell_length_b 9.000000
_cell_length_c 12.000000
_cell_angle_alpha 90.000000
_cell_angle_beta 140.000000
_cell_angle_gamma 90.000000
_cell_volume 1457.842299
_symmetry_space_group_name_H-M "P 21/C"
_symmetry_group_IT_number 14
_symmetry_cell_setting 'monoclinic'
loop_
_space_group_symop_operation_xyz
x,y,z
-x,1/2+y,1/2-z
-x,-y,-z
x,1/2-y,1/2+z
loop_
_atom_site_type_symbol
_atom_site_label
_atom_site_fract_x
_atom_site_fract_y
_atom_site_fract_z
Si Si1 0.043487 0.539962 0.701715
Si Si2 0.456838 0.933964 0.066306
Si Si3 0.527661 0.915102 0.658757
Si Si4 0.238383 0.441753 0.558667
Si Si5 0.895432 0.818898 0.529651
Si Si6 0.781372 0.037376 0.217810
Si Si7 0.853871 0.369743 0.365024
O O1 0.071881 0.463740 0.856096
O O2 0.139736 0.561571 0.751720
O O3 0.985434 0.699996 0.627269
O O4 0.965449 0.416163 0.551470
O O5 0.482857 0.754896 0.101812
O O6 0.490134 0.005952 0.237487
O O7 0.336658 0.958675 0.908461
O O8 0.500000 0.000000 0.000000
O O9 0.646241 0.907763 0.804310
O O10 0.500000 0.000000 0.500000
O O11 0.179557 0.288578 0.502952
O O12 0.206231 0.520219 0.399653
O O13 0.214629 0.546621 0.634910
O O14 0.837527 0.895360 0.348434
O O15 0.827346 0.196003 0.319433
#
# Coordination Sequence:
#
# PCOD9253669 Si02
#       7
#     4   4   4   4   4   4   4
#     4  10  24  42  65  94 129 176 218 267 325 385
#     4  11  24  45  68 103 133 177 227 276 343 406
#     4  11  23  45  70  99 136 181 221 281 340 408
#     4  10  25  43  64  98 132 168 222 268 330 391
#     4  11  24  42  65  93 132 170 223 268 328 384
#     4  11  25  42  67  94 131 171 215 274 328 387
#     4  10  23  43  62  94 130 167 222 261 322 381
#
# _framework density 19.206467
#
# number of rings (size 3 to 8) (size 9 to 14) (size 15 to 20)
#    0.000    1.429    0.000    3.429   12.000    2.857 
#    5.143    0.000    0.000    0.000    0.000    0.000 
#    0.000    0.000    0.000    0.000    0.000    0.000 
#
# Total GULP energy -155872.676419 kJ/mol
# GULP energy per Si atom -5566.881301 kJ/mol
# Density = 1.916275 g / cm^3
# Si number density = 19.206467 Si / 1000 Ang^3
#
#
#
# Elastic Constant Matrix: (Units=GPa)
#
#
# Indices 1 2 3 4 5 6 
#
# 1 154.5960 57.1911 36.6471 0.0000 -14.0246 0.0000
# 2 57.1911 155.8841 50.9545 0.0000 -10.9558 0.0000
# 3 36.6471 50.9545 83.0613 0.0000 -16.8866 0.0000
# 4 0.0000 0.0000 0.0000 44.3446 0.0000 -6.0157
# 5 -14.0246 -10.9558 -16.8866 0.0000 32.6882 0.0000
# 6 0.0000 0.0000 0.0000 -6.0157 0.0000 45.9978
#
#
#
# Elastic Compliance Matrix: (Units=1/GPa)
#
#
# Indices 1 2 3 4 5 6 
#
# 1 0.007852 -0.002179 -0.001778 0.000000 0.001720 0.000000
# 2 -0.002179 0.008629 -0.004396 0.000000 -0.000314 0.000000
# 3 -0.001778 -0.004396 0.016834 0.000000 0.006460 0.000000
# 4 0.000000 0.000000 0.000000 0.022958 0.000000 0.003002
# 5 0.001720 -0.000314 0.006460 0.000000 0.034562 0.000000
# 6 0.000000 0.000000 0.000000 0.003002 0.000000 0.022133
#
#
# Mechanical properties :
#
#
# Convention : Reuss Voigt Hill
#
# Bulk Modulus (GPa) = 60.20707 75.90297 68.05502
# Shear Modulus (GPa) = 36.97925 41.18935 39.08430
#
# Velocity S-wave (km/s) = 4.39265 4.63596 4.51594
# Velocity P-wave (km/s) = 7.55926 8.26205 7.91846
#
# Compressibility (1/GPa) = 0.01660934
#
# Stress axis : x y z
#
# Youngs Moduli (GPa) = 127.35628 115.88429 59.40327
#
# Poissons Ratio (x) = 0.25247 0.10563
# Poissons Ratio (y) = 0.27746 0.26115
# Poissons Ratio (z) = 0.22646 0.50945
#
# Static dielectric constant tensor:
#      x y z
#    x 1.726610 0.000000 -0.054720 
#    y 0.000000 1.660020 0.000000 
#    z -0.054720 0.000000 1.759450 
# 
# From -- ./inp_files/35008.got.cif
#   From: 2010.05.17/outbox.ucp.g08.bks.cvg/sg14_18_cif.got.tgz:35008.got - 2010.06.11 12:31:08.
