data_PCOD9253469
_publ_section_title
;
Structure prediction by ZEFSAII (Michael W. Deem and Ramdas Pophale) SiO2 
 PCOD9253469
Probable space group: P 21/C
;
_chemical_formula_sum "Si O2"
_cell_formula_units_Z 32
_cell_length_a 15.000000
_cell_length_b 15.000000
_cell_length_c 21.000000
_cell_angle_alpha 90.000000
_cell_angle_beta 160.000000
_cell_angle_gamma 90.000000
_cell_volume 1616.045177
_symmetry_space_group_name_H-M "P 21/C"
_symmetry_group_IT_number 14
_symmetry_cell_setting 'monoclinic'
loop_
_space_group_symop_operation_xyz
x,y,z
-x,1/2+y,1/2-z
-x,-y,-z
x,1/2-y,1/2+z
loop_
_atom_site_type_symbol
_atom_site_label
_atom_site_fract_x
_atom_site_fract_y
_atom_site_fract_z
Si Si1 0.086186 0.911030 0.630485
Si Si2 0.271738 0.620927 0.708215
Si Si3 0.292098 0.142724 0.102302
Si Si4 0.665738 0.488540 0.929785
Si Si5 0.370742 0.687643 0.636605
Si Si6 0.439988 0.198625 0.062690
Si Si7 0.267331 0.106297 0.716986
Si Si8 0.040943 0.326824 0.190269
O O1 0.323296 0.852594 0.813861
O O2 0.974070 0.866280 0.491005
O O3 0.215712 0.003472 0.696281
O O4 0.842557 0.936685 0.512181
O O5 0.460141 0.534334 0.839645
O O6 0.257269 0.635934 0.621657
O O7 0.439679 0.705975 0.841305
O O8 0.995234 0.622871 0.560288
O O9 0.490583 0.069220 0.263518
O O10 0.394514 0.241903 0.190568
O O11 0.340420 0.146949 0.058954
O O12 0.876515 0.416500 0.095498
O O13 0.478000 0.624443 0.653045
O O14 0.151223 0.751690 0.462744
O O15 0.195605 0.206062 0.853955
O O16 0.237826 0.153814 0.764230
#
# Coordination Sequence:
#
# PCOD9253469 Si02
#       8
#     4   4   4   4   4   4   4   4
#     4  10  19  37  62  88 117 143 201 254 289 336
#     4  11  22  38  64  88 114 154 205 247 297 344
#     4  10  21  38  60  87 119 152 199 250 292 340
#     4  10  21  40  64  90 114 152 200 255 294 340
#     4  10  19  36  60  88 114 154 198 249 293 338
#     4  11  24  38  56  88 125 163 190 238 293 360
#     4  10  18  34  62  88 107 148 196 251 285 337
#     4  10  23  39  54  87 129 154 192 237 298 360
#
# _framework density 19.801427
#
# number of rings (size 3 to 8) (size 9 to 14) (size 15 to 20)
#    0.000    1.750    1.250    5.625    1.750    3.000 
#    2.250    0.625    0.000    0.000    0.000    0.000 
#    0.000    0.000    0.000    0.000    0.000    0.000 
#
# Total GULP energy -178430.872163 kJ/mol
# GULP energy per Si atom -5575.964755 kJ/mol
# Density = 1.975636 g / cm^3
# Si number density = 19.801427 Si / 1000 Ang^3
#
#
#
# Elastic Constant Matrix: (Units=GPa)
#
#
# Indices 1 2 3 4 5 6 
#
# 1 68.6775 1.9456 40.5712 0.0000 31.6767 0.0000
# 2 1.9456 26.3606 20.4717 0.0000 10.8001 0.0000
# 3 40.5712 20.4717 47.4091 0.0000 6.9422 0.0000
# 4 0.0000 0.0000 0.0000 7.6381 0.0000 13.7508
# 5 31.6767 10.8001 6.9422 0.0000 16.0232 0.0000
# 6 0.0000 0.0000 0.0000 13.7508 0.0000 19.8142
#
#
#
# Elastic Compliance Matrix: (Units=1/GPa)
#
#
# Indices 1 2 3 4 5 6 
#
# 1 -0.013804 -0.029685 0.018905 0.000000 0.039107 0.000000
# 2 -0.029685 0.010435 0.014237 0.000000 0.045483 0.000000
# 3 0.018905 0.014237 0.006027 0.000000 -0.049581 0.000000
# 4 0.000000 0.000000 0.000000 -0.524987 0.000000 0.364335
# 5 0.039107 0.045483 -0.049581 0.000000 -0.024078 0.000000
# 6 0.000000 0.000000 0.000000 0.364335 0.000000 -0.202375
#
#
# Mechanical properties :
#
#
# Convention : Reuss Voigt Hill
#
# Bulk Modulus (GPa) = 104.46444 29.82491 67.14468
# Shear Modulus (GPa) = -6.64446 13.99235 3.67394
#
# Velocity S-wave (km/s) = -1.83380 2.66114 1.36361
# Velocity P-wave (km/s) = 6.95606 4.95348 6.03836
#
# Compressibility (1/GPa) = 0.00957264
#
# Stress axis : x y z
#
# Youngs Moduli (GPa) = -72.44312 95.83268 165.91282
#
# Poissons Ratio (x) = 2.84479 -3.13653
# Poissons Ratio (y) = -2.15047 -2.36218
# Poissons Ratio (z) = 1.36952 -1.36442
#
# Static dielectric constant tensor:
#      x y z
#    x 1.689170 0.000000 0.001030 
#    y 0.000000 1.728640 0.000000 
#    z 0.001030 0.000000 1.706040 
# 
# From -- ./inp_files/68727.got.cif
#   From: 2010.05.17/outbox.ucp.g08.bks.cvg/sg14_35_cif.got.tgz:68727.got - 2010.06.11 12:31:08.
