data_PCOD9253163
_publ_section_title
;
Structure prediction by ZEFSAII (Michael W. Deem and Ramdas Pophale) SiO2 
 PCOD9253163
Probable space group: P 21/C
;
_chemical_formula_sum "Si O2"
_cell_formula_units_Z 20
_cell_length_a 16.230601
_cell_length_b 5.009760
_cell_length_c 8.712070
_cell_angle_alpha 90.000000
_cell_angle_beta 96.183584
_cell_angle_gamma 90.000000
_cell_volume 704.269233
_symmetry_space_group_name_H-M "P 21/C"
_symmetry_group_IT_number 14
_symmetry_cell_setting 'monoclinic'
loop_
_space_group_symop_operation_xyz
x,y,z
-x,1/2+y,1/2-z
-x,-y,-z
x,1/2-y,1/2+z
loop_
_atom_site_type_symbol
_atom_site_label
_atom_site_fract_x
_atom_site_fract_y
_atom_site_fract_z
Si Si1 0.949151 0.228205 0.777632
Si Si2 0.272750 0.494509 0.010385
Si Si3 0.500000 0.500000 0.500000
Si Si4 0.379340 0.133706 0.242912
Si Si5 0.500000 0.000000 0.500000
Si Si6 0.836845 0.483143 0.515775
O O1 0.872290 0.382216 0.684443
O O2 0.013968 0.473586 0.809342
O O3 0.912718 0.083826 0.919186
O O4 0.310147 0.470746 0.846802
O O5 0.238507 0.785226 0.035448
O O6 0.197431 0.280777 0.000298
O O7 0.341484 0.392971 0.145745
O O8 0.584674 0.474339 0.392811
O O9 0.466558 0.764520 0.392560
O O10 0.449971 0.227652 0.385463
#
# Coordination Sequence:
#
# PCOD9253163 Si02
#       6
#     4   4   2   4   2   4
#     4  12  24  45  78 112 150 194 248 302 368 432
#     4  12  28  47  75 106 156 202 252 306 402 454
#     4  12  28  48  76 106 146 186 268 318 388 448
#     4  12  28  51  76 110 146 206 254 330 384 456
#     4  12  28  48  76 106 146 186 268 318 388 448
#     4  12  26  49  73 112 154 196 248 306 368 472
#
# _framework density 28.398232
#
# number of rings (size 3 to 8) (size 9 to 14) (size 15 to 20)
#    0.000    0.000    2.000    7.200    2.800    3.200 
#    0.000    0.000    0.000    0.000    0.000    0.000 
#    0.000    0.000    0.000    0.000    0.000    0.000 
#
# Total GULP energy -111535.503245 kJ/mol
# GULP energy per Si atom -5576.775162 kJ/mol
# Density = 2.833360 g / cm^3
# Si number density = 28.398232 Si / 1000 Ang^3
#
#
#
# Elastic Constant Matrix: (Units=GPa)
#
#
# Indices 1 2 3 4 5 6 
#
# 1 120.5576 42.0972 48.7222 0.0000 11.9633 0.0000
# 2 42.0972 172.1921 -9.5033 0.0000 -13.9555 0.0000
# 3 48.7222 -9.5033 159.5455 0.0000 -17.1657 0.0000
# 4 0.0000 0.0000 0.0000 33.8623 0.0000 0.1818
# 5 11.9633 -13.9555 -17.1657 0.0000 55.6192 0.0000
# 6 0.0000 0.0000 0.0000 0.1818 0.0000 50.6498
#
#
#
# Elastic Compliance Matrix: (Units=1/GPa)
#
#
# Indices 1 2 3 4 5 6 
#
# 1 0.011714 -0.003483 -0.004292 0.000000 -0.004718 0.000000
# 2 -0.003483 0.007007 0.001811 0.000000 0.003066 0.000000
# 3 -0.004292 0.001811 0.008104 0.000000 0.003879 0.000000
# 4 0.000000 0.000000 0.000000 0.029532 0.000000 -0.000106
# 5 -0.004718 0.003066 0.003879 0.000000 0.020961 0.000000
# 6 0.000000 0.000000 0.000000 -0.000106 0.000000 0.019744
#
#
# Mechanical properties :
#
#
# Convention : Reuss Voigt Hill
#
# Bulk Modulus (GPa) = 67.13065 68.32526 67.72796
# Shear Modulus (GPa) = 43.87657 52.75821 48.31739
#
# Velocity S-wave (km/s) = 3.93497 4.31490 4.12931
# Velocity P-wave (km/s) = 6.65850 6.99545 6.82906
#
# Compressibility (1/GPa) = 0.01489633
#
# Stress axis : x y z
#
# Youngs Moduli (GPa) = 85.36827 142.70470 123.39904
#
# Poissons Ratio (x) = 0.49705 0.52967
# Poissons Ratio (y) = 0.29735 -0.22347
# Poissons Ratio (z) = 0.36643 -0.25844
#
# Static dielectric constant tensor:
#      x y z
#    x 2.219500 0.000000 0.659190 
#    y 0.000000 1.425120 0.000000 
#    z 0.659190 0.000000 1.267200 
# 
# From -- ./inp_files/17245.got.cif
#   From: 2010.05.17/outbox.cif.g08.bks.cpg/sg14_9_cif.got.tgz:17245.got - 2010.06.03 17:49:19.
