data_PCOD9253226
_publ_section_title
;
Structure prediction by ZEFSAII (Michael W. Deem and Ramdas Pophale) SiO2 
 PCOD9253226
Probable space group: P 21/C
;
_chemical_formula_sum "Si O2"
_cell_formula_units_Z 20
_cell_length_a 16.587852
_cell_length_b 4.760635
_cell_length_c 9.040383
_cell_angle_alpha 90.000000
_cell_angle_beta 107.405526
_cell_angle_gamma 90.000000
_cell_volume 681.218612
_symmetry_space_group_name_H-M "P 21/C"
_symmetry_group_IT_number 14
_symmetry_cell_setting 'monoclinic'
loop_
_space_group_symop_operation_xyz
x,y,z
-x,1/2+y,1/2-z
-x,-y,-z
x,1/2-y,1/2+z
loop_
_atom_site_type_symbol
_atom_site_label
_atom_site_fract_x
_atom_site_fract_y
_atom_site_fract_z
Si Si1 0.000000 0.500000 0.500000
Si Si2 0.405975 0.912434 0.241827
Si Si3 0.701538 0.611530 0.783118
Si Si4 0.910612 0.447628 0.146282
Si Si5 0.500000 0.500000 0.500000
Si Si6 0.807195 0.560046 0.566901
O O1 0.929504 0.408740 0.329131
O O2 0.978879 0.219474 0.591233
O O3 0.325931 0.706724 0.220904
O O4 0.478953 0.760858 0.372444
O O5 0.427777 0.893694 0.081479
O O6 0.385426 0.218092 0.303153
O O7 0.779864 0.629675 0.716907
O O8 0.732817 0.793536 0.937329
O O9 0.894940 0.768591 0.082146
O O10 0.825704 0.267156 0.065465
#
# Coordination Sequence:
#
# PCOD9253226 Si02
#       6
#     2   4   4   4   2   4
#     4  12  28  50  76 114 156 204 258 316 390 464
#     4  12  27  47  76 110 153 202 253 317 384 461
#     4  12  25  46  74 108 149 198 254 316 382 455
#     4  12  27  47  76 110 153 202 253 317 384 461
#     4  12  28  50  76 114 156 204 258 316 390 464
#     4  12  25  46  74 108 149 198 254 316 382 455
#
# _framework density 29.359155000000001
#
# number of rings (size 3 to 8) (size 9 to 14) (size 15 to 20)
#    0.000    0.000    0.000    9.600    0.000   11.200 
#    0.000    0.000    0.000    0.000    0.000    0.000 
#    0.000    0.000    0.000    0.000    0.000    0.000 
#
# Total GULP energy -111520.133398 kJ/mol
# GULP energy per Si atom -5576.006670 kJ/mol
# Density = 2.929233 g / cm^3
# Si number density = 29.359155 Si / 1000 Ang^3
#
#
#
# Elastic Constant Matrix: (Units=GPa)
#
#
# Indices 1 2 3 4 5 6 
#
# 1 69.5587 -7.5551 -9.4837 0.0000 -11.8309 0.0000
# 2 -7.5551 166.8172 8.8909 0.0000 -12.8346 0.0000
# 3 -9.4837 8.8909 141.5147 0.0000 -21.0018 0.0000
# 4 0.0000 0.0000 0.0000 38.8814 0.0000 5.6615
# 5 -11.8309 -12.8346 -21.0018 0.0000 32.4405 0.0000
# 6 0.0000 0.0000 0.0000 5.6615 0.0000 60.4292
#
#
#
# Elastic Compliance Matrix: (Units=1/GPa)
#
#
# Indices 1 2 3 4 5 6 
#
# 1 0.016121 0.001212 0.002155 0.000000 0.007754 0.000000
# 2 0.001212 0.006274 0.000134 0.000000 0.003011 0.000000
# 3 0.002155 0.000134 0.008106 0.000000 0.006086 0.000000
# 4 0.000000 0.000000 0.000000 0.026075 0.000000 -0.002443
# 5 0.007754 0.003011 0.006086 0.000000 0.038785 0.000000
# 6 0.000000 0.000000 0.000000 -0.002443 0.000000 0.016777
#
#
# Mechanical properties :
#
#
# Convention : Reuss Voigt Hill
#
# Bulk Modulus (GPa) = 26.66577 40.17720 33.42149
# Shear Modulus (GPa) = 42.50381 52.08612 47.29497
#
# Velocity S-wave (km/s) = 3.80902 4.21658 4.01797
# Velocity P-wave (km/s) = 5.33359 6.11723 5.73880
#
# Compressibility (1/GPa) = 0.03750126
#
# Stress axis : x y z
#
# Youngs Moduli (GPa) = 62.03268 159.38845 123.37036
#
# Poissons Ratio (x) = -0.19315 -0.26585
# Poissons Ratio (y) = -0.07517 -0.01651
# Poissons Ratio (z) = -0.13367 -0.02134
#
# Static dielectric constant tensor:
#      x y z
#    x 2.264370 0.000000 -0.027400 
#    y 0.000000 1.722540 0.000000 
#    z -0.027400 0.000000 1.939500 
# 
# From -- ./inp_files/17293.got.cif
#   From: 2010.05.17/outbox.cif.g08.bks.cpg/sg14_9_cif.got.tgz:17293.got - 2010.06.03 17:49:19.
