data_PCOD9253688
_publ_section_title
;
Structure prediction by ZEFSAII (Michael W. Deem and Ramdas Pophale) SiO2 
 PCOD9253688
Probable space group: P 21/C
;
_chemical_formula_sum "Si O2"
_cell_formula_units_Z 32
_cell_length_a 12.000000
_cell_length_b 9.000000
_cell_length_c 30.000000
_cell_angle_alpha 90.000000
_cell_angle_beta 150.000000
_cell_angle_gamma 90.000000
_cell_volume 1620.000000
_symmetry_space_group_name_H-M "P 21/C"
_symmetry_group_IT_number 14
_symmetry_cell_setting 'monoclinic'
loop_
_space_group_symop_operation_xyz
x,y,z
-x,1/2+y,1/2-z
-x,-y,-z
x,1/2-y,1/2+z
loop_
_atom_site_type_symbol
_atom_site_label
_atom_site_fract_x
_atom_site_fract_y
_atom_site_fract_z
Si Si1 0.576313 0.384355 0.690835
Si Si2 0.233964 0.382938 0.815544
Si Si3 0.250640 0.759209 0.340879
Si Si4 0.189160 0.659911 0.137573
Si Si5 0.399644 0.242363 0.782524
Si Si6 0.066775 0.329926 0.520875
Si Si7 0.012815 0.836261 0.418835
Si Si8 0.569435 0.159468 0.504536
O O1 0.647667 0.327857 0.666539
O O2 0.739348 0.322096 0.786125
O O3 0.570279 0.565919 0.693998
O O4 0.332153 0.321341 0.617277
O O5 0.233841 0.562755 0.823260
O O6 0.355242 0.338143 0.811470
O O7 0.988392 0.313866 0.731769
O O8 0.366637 0.302017 0.901716
O O9 0.381645 0.748057 0.433621
O O10 0.401470 0.692730 0.179127
O O11 0.089156 0.494461 0.101736
O O12 0.004936 0.765191 0.051714
O O13 0.179536 0.246413 0.675588
O O14 0.945447 0.248306 0.520233
O O15 0.000000 0.500000 0.500000
O O16 0.218459 0.851761 0.455599
O O17 0.500000 0.000000 0.500000
#
# Coordination Sequence:
#
# PCOD9253688 Si02
#       8
#     4   4   4   4   4   4   4   4
#     4  11  26  42  66  99 140 172 225 274 338 405
#     4  11  24  43  72  92 134 173 231 273 341 391
#     4  11  25  44  68  98 131 180 224 279 332 399
#     4  11  25  42  72  96 136 180 219 271 344 402
#     4  11  22  45  68  98 138 177 219 282 335 400
#     4  12  25  43  67 102 139 171 220 281 339 398
#     4  11  24  44  71  97 137 179 228 271 340 410
#     4  10  24  44  68  96 129 177 225 275 322 403
#
# _framework density 19.753086
#
# number of rings (size 3 to 8) (size 9 to 14) (size 15 to 20)
#    0.000    1.000    3.750    1.875   10.500    1.000 
#    0.000    2.500    0.000    0.000    0.000    0.000 
#    0.000    0.000    0.000    0.000    0.000    0.000 
#
# Total GULP energy -178703.607160 kJ/mol
# GULP energy per Si atom -5584.487724 kJ/mol
# Density = 1.970813 g / cm^3
# Si number density = 19.753086 Si / 1000 Ang^3
#
#
#
# Elastic Constant Matrix: (Units=GPa)
#
#
# Indices 1 2 3 4 5 6 
#
# 1 128.5286 28.8408 9.7016 0.0000 -14.6831 0.0000
# 2 28.8408 65.3246 9.4386 0.0000 -15.2498 0.0000
# 3 9.7016 9.4386 72.3212 0.0000 -22.4474 0.0000
# 4 0.0000 0.0000 0.0000 31.7294 0.0000 -2.2905
# 5 -14.6831 -15.2498 -22.4474 0.0000 36.0366 0.0000
# 6 0.0000 0.0000 0.0000 -2.2905 0.0000 45.9916
#
#
#
# Elastic Compliance Matrix: (Units=1/GPa)
#
#
# Indices 1 2 3 4 5 6 
#
# 1 0.008784 -0.003376 -0.000087 0.000000 0.002096 0.000000
# 2 -0.003376 0.018284 0.000051 0.000000 0.006393 0.000000
# 3 -0.000087 0.000051 0.017142 0.000000 0.010664 0.000000
# 4 0.000000 0.000000 0.000000 0.031630 0.000000 0.001575
# 5 0.002096 0.006393 0.010664 0.000000 0.037952 0.000000
# 6 0.000000 0.000000 0.000000 0.001575 0.000000 0.021822
#
#
# Mechanical properties :
#
#
# Convention : Reuss Voigt Hill
#
# Bulk Modulus (GPa) = 26.74824 40.23737 33.49281
# Shear Modulus (GPa) = 32.27887 37.29776 34.78831
#
# Velocity S-wave (km/s) = 4.04681 4.35006 4.20117
# Velocity P-wave (km/s) = 5.95031 6.75611 6.36597
#
# Compressibility (1/GPa) = 0.03738564
#
# Stress axis : x y z
#
# Youngs Moduli (GPa) = 113.84342 54.69285 58.33561
#
# Poissons Ratio (x) = 0.18466 0.00508
# Poissons Ratio (y) = 0.38436 -0.00298
# Poissons Ratio (z) = 0.00992 -0.00280
#
# Static dielectric constant tensor:
#      x y z
#    x 1.698640 0.000000 -0.002440 
#    y 0.000000 1.692370 0.000000 
#    z -0.002440 0.000000 1.748720 
# 
# From -- ./inp_files/80036.got.cif
#   From: 2010.05.17/outbox.ucp.g08.bks.cvg/sg14_41_cif.got.tgz:80036.got - 2010.06.11 12:31:08.
