data_PCOD9253680
_publ_section_title
;
Structure prediction by ZEFSAII (Michael W. Deem and Ramdas Pophale) SiO2 
 PCOD9253680
Probable space group: P 21/C
;
_chemical_formula_sum "Si O2"
_cell_formula_units_Z 32
_cell_length_a 15.000000
_cell_length_b 15.000000
_cell_length_c 21.000000
_cell_angle_alpha 90.000000
_cell_angle_beta 20.000000
_cell_angle_gamma 90.000000
_cell_volume 1616.045177
_symmetry_space_group_name_H-M "P 21/C"
_symmetry_group_IT_number 14
_symmetry_cell_setting 'monoclinic'
loop_
_space_group_symop_operation_xyz
x,y,z
-x,1/2+y,1/2-z
-x,-y,-z
x,1/2-y,1/2+z
loop_
_atom_site_type_symbol
_atom_site_label
_atom_site_fract_x
_atom_site_fract_y
_atom_site_fract_z
Si Si1 0.965950 0.886618 0.160066
Si Si2 0.750386 0.562562 0.102566
Si Si3 0.558811 0.215061 0.477272
Si Si4 0.501995 0.881523 0.182486
Si Si5 0.908867 0.407576 0.670100
Si Si6 0.323016 0.826653 0.807264
Si Si7 0.337050 0.602776 0.653634
Si Si8 0.448260 0.623866 0.431047
O O1 0.722160 0.828115 0.346559
O O2 0.183420 0.894967 0.069618
O O3 0.884362 0.985459 0.191880
O O4 0.097106 0.838414 0.011550
O O5 0.673189 0.457816 0.164308
O O6 0.559707 0.614628 0.180450
O O7 0.675541 0.601854 0.225050
O O8 0.044889 0.574372 0.875381
O O9 0.649093 0.290434 0.366422
O O10 0.547329 0.271390 0.550875
O O11 0.764106 0.136720 0.327941
O O12 0.399417 0.778783 0.252329
O O13 0.510084 0.911792 0.101861
O O14 0.784756 0.885246 0.026451
O O15 0.779650 0.368815 0.691182
O O16 0.429096 0.579116 0.516764
#
# Coordination Sequence:
#
# PCOD9253680 Si02
#       8
#     4   4   4   4   4   4   4   4
#     4  11  24  45  68 105 145 183 244 305 359 431
#     4  11  24  49  71 105 145 184 243 298 359 432
#     4  10  24  40  73  99 139 188 233 293 361 422
#     4  12  25  44  74 104 141 196 240 296 365 431
#     4  12  24  47  70 106 144 189 248 298 363 428
#     4  11  25  44  72 101 146 188 240 306 354 438
#     4  10  24  44  73 101 144 187 234 294 359 427
#     4   9  23  45  68 104 142 179 237 297 347 438
#
# _framework density 19.801427
#
# number of rings (size 3 to 8) (size 9 to 14) (size 15 to 20)
#    0.750    0.500    3.750    1.875    5.250    1.500 
#    0.000    0.000    2.750    0.000    0.000    0.000 
#    0.000    0.000    0.000    0.000    0.000    0.000 
#
# Total GULP energy -178261.053412 kJ/mol
# GULP energy per Si atom -5570.657919 kJ/mol
# Density = 1.975636 g / cm^3
# Si number density = 19.801427 Si / 1000 Ang^3
#
#
#
# Elastic Constant Matrix: (Units=GPa)
#
#
# Indices 1 2 3 4 5 6 
#
# 1 135.4579 36.3188 16.4365 0.0000 3.9307 0.0000
# 2 36.3188 98.1983 -21.4123 0.0000 -5.3895 0.0000
# 3 16.4365 -21.4123 30.7725 0.0000 -4.2726 0.0000
# 4 0.0000 0.0000 0.0000 32.7311 0.0000 2.5649
# 5 3.9307 -5.3895 -4.2726 0.0000 33.6378 0.0000
# 6 0.0000 0.0000 0.0000 2.5649 0.0000 39.5484
#
#
#
# Elastic Compliance Matrix: (Units=1/GPa)
#
#
# Indices 1 2 3 4 5 6 
#
# 1 0.010467 -0.006360 -0.010513 0.000000 -0.003577 0.000000
# 2 -0.006360 0.016182 0.015392 0.000000 0.005291 0.000000
# 3 -0.010513 0.015392 0.050220 0.000000 0.010073 0.000000
# 4 0.000000 0.000000 0.000000 0.030708 0.000000 -0.001992
# 5 -0.003577 0.005291 0.010073 0.000000 0.032274 0.000000
# 6 0.000000 0.000000 0.000000 -0.001992 0.000000 0.025415
#
#
# Mechanical properties :
#
#
# Convention : Reuss Voigt Hill
#
# Bulk Modulus (GPa) = 13.53042 36.34607 24.93825
# Shear Modulus (GPa) = 25.92498 36.72250 31.32374
#
# Velocity S-wave (km/s) = 3.62228 4.31111 3.98162
# Velocity P-wave (km/s) = 4.93380 6.57084 5.81027
#
# Compressibility (1/GPa) = 0.07390752
#
# Stress axis : x y z
#
# Youngs Moduli (GPa) = 95.53806 61.79591 19.91223
#
# Poissons Ratio (x) = 0.39302 0.20933
# Poissons Ratio (y) = 0.60762 -0.30648
# Poissons Ratio (z) = 1.00438 -0.95115
#
# Static dielectric constant tensor:
#      x y z
#    x 1.709740 0.000000 0.001590 
#    y 0.000000 1.750400 0.000000 
#    z 0.001590 0.000000 1.713890 
# 
# From -- ./inp_files/68694.got.cif
#   From: 2010.05.17/outbox.ucp.g08.bks.cvg/sg14_35_cif.got.tgz:68694.got - 2010.06.11 12:31:08.
