data_PCOD9253264
_publ_section_title
;
Structure prediction by ZEFSAII (Michael W. Deem and Ramdas Pophale) SiO2 
 PCOD9253264
Probable space group: P 21/C
;
_chemical_formula_sum "Si O2"
_cell_formula_units_Z 32
_cell_length_a 7.456704
_cell_length_b 21.694523
_cell_length_c 8.541441
_cell_angle_alpha 90.000000
_cell_angle_beta 82.531344
_cell_angle_gamma 90.000000
_cell_volume 1370.023237
_symmetry_space_group_name_H-M "P 21/C"
_symmetry_group_IT_number 14
_symmetry_cell_setting 'monoclinic'
loop_
_space_group_symop_operation_xyz
x,y,z
-x,1/2+y,1/2-z
-x,-y,-z
x,1/2-y,1/2+z
loop_
_atom_site_type_symbol
_atom_site_label
_atom_site_fract_x
_atom_site_fract_y
_atom_site_fract_z
Si Si1 0.320613 0.176723 0.457589
Si Si2 0.694461 0.297608 0.025428
Si Si3 0.990656 0.643695 0.204466
Si Si4 0.128022 0.191541 0.965076
Si Si5 0.383739 0.539564 0.635470
Si Si6 0.249930 0.672712 0.622849
Si Si7 0.007421 0.493802 0.810445
Si Si8 0.281643 0.406545 0.260711
O O1 0.535898 0.175479 0.434740
O O2 0.211738 0.139082 0.341109
O O3 0.243461 0.246204 0.449112
O O4 0.274744 0.145133 0.627641
O O5 0.681115 0.314166 0.208889
O O6 0.676453 0.224591 0.001984
O O7 0.882334 0.323621 0.937465
O O8 0.974933 0.684904 0.359301
O O9 0.055056 0.574712 0.228042
O O10 0.252777 0.131865 0.923445
O O11 0.966205 0.183863 0.858167
O O12 0.500000 0.500000 0.500000
O O13 0.305303 0.603633 0.574468
O O14 0.209569 0.505596 0.725439
O O15 0.526598 0.559484 0.753173
O O16 0.875446 0.544446 0.750963
O O17 0.000000 0.500000 0.000000
#
# Coordination Sequence:
#
# PCOD9253264 Si02
#       8
#     4   4   4   4   4   4   4   4
#     4  12  26  47  74 109 148 198 253 324 390 469
#     4  12  27  48  76 112 151 201 257 332 394 465
#     4  12  27  47  73 111 151 197 260 310 392 472
#     4  12  26  47  77 107 149 199 250 324 396 468
#     4  12  28  50  78 117 157 207 266 326 390 477
#     4  12  25  49  78 110 157 198 258 329 400 462
#     4  12  27  49  77 107 157 207 257 317 392 471
#     4  12  26  50  78 106 156 202 259 323 394 462
#
# _framework density 23.357265999999999
#
# number of rings (size 3 to 8) (size 9 to 14) (size 15 to 20)
#    0.000    0.000    5.000    4.500    3.500    2.500 
#    2.250    0.000    0.000    0.000    0.000    0.000 
#    0.000    0.000    0.000    0.000    0.000    0.000 
#
# Total GULP energy -179180.811907 kJ/mol
# GULP energy per Si atom -5599.400372 kJ/mol
# Density = 2.330410 g / cm^3
# Si number density = 23.357266 Si / 1000 Ang^3
#
#
#
# Elastic Constant Matrix: (Units=GPa)
#
#
# Indices 1 2 3 4 5 6 
#
# 1 112.9167 16.1863 7.9865 0.0000 17.0137 0.0000
# 2 16.1863 114.0501 25.8517 0.0000 -3.7450 0.0000
# 3 7.9865 25.8517 63.3771 0.0000 2.1365 0.0000
# 4 0.0000 0.0000 0.0000 34.3681 0.0000 0.3022
# 5 17.0137 -3.7450 2.1365 0.0000 29.6337 0.0000
# 6 0.0000 0.0000 0.0000 0.3022 0.0000 35.9153
#
#
#
# Elastic Compliance Matrix: (Units=1/GPa)
#
#
# Indices 1 2 3 4 5 6 
#
# 1 0.009992 -0.001511 -0.000444 0.000000 -0.005896 0.000000
# 2 -0.001511 0.009958 -0.003953 0.000000 0.002411 0.000000
# 3 -0.000444 -0.003953 0.017498 0.000000 -0.001506 0.000000
# 4 0.000000 0.000000 0.000000 0.029099 0.000000 -0.000245
# 5 -0.005896 0.002411 -0.001506 0.000000 0.037544 0.000000
# 6 0.000000 0.000000 0.000000 -0.000245 0.000000 0.027845
#
#
# Mechanical properties :
#
#
# Convention : Reuss Voigt Hill
#
# Bulk Modulus (GPa) = 39.01351 43.37699 41.19525
# Shear Modulus (GPa) = 32.83096 36.00471 34.41783
#
# Velocity S-wave (km/s) = 3.75320 3.93043 3.84283
# Velocity P-wave (km/s) = 5.95997 6.26171 6.11270
#
# Compressibility (1/GPa) = 0.02563215
#
# Stress axis : x y z
#
# Youngs Moduli (GPa) = 100.07531 100.42541 57.15078
#
# Poissons Ratio (x) = 0.15175 0.02538
# Poissons Ratio (y) = 0.15122 0.22589
# Poissons Ratio (z) = 0.04444 0.39694
#
# Static dielectric constant tensor:
#      x y z
#    x 1.908790 0.000000 0.053060 
#    y 0.000000 1.868510 0.000000 
#    z 0.053060 0.000000 1.969940 
# 
# From -- ./inp_files/10204.got.cif
#   From: 2010.05.17/outbox.cif.g08.bks.cpg/sg14_6_cif.got.tgz:10204.got - 2010.06.03 17:49:19.
