data_PCOD9253578
_publ_section_title
;
Structure prediction by ZEFSAII (Michael W. Deem and Ramdas Pophale) SiO2 
 PCOD9253578
Probable space group: P 21/C
;
_chemical_formula_sum "Si O2"
_cell_formula_units_Z 24
_cell_length_a 9.000000
_cell_length_b 9.000000
_cell_length_c 15.000000
_cell_angle_alpha 90.000000
_cell_angle_beta 100.000000
_cell_angle_gamma 90.000000
_cell_volume 1196.541420
_symmetry_space_group_name_H-M "P 21/C"
_symmetry_group_IT_number 14
_symmetry_cell_setting 'monoclinic'
loop_
_space_group_symop_operation_xyz
x,y,z
-x,1/2+y,1/2-z
-x,-y,-z
x,1/2-y,1/2+z
loop_
_atom_site_type_symbol
_atom_site_label
_atom_site_fract_x
_atom_site_fract_y
_atom_site_fract_z
Si Si1 0.135792 0.911232 0.296055
Si Si2 0.435517 0.344537 0.452933
Si Si3 0.056260 0.835264 0.481574
Si Si4 0.813448 0.731426 0.714115
Si Si5 0.260705 0.304527 0.600296
Si Si6 0.722185 0.159643 0.868345
O O1 0.147881 0.848666 0.397863
O O2 0.251624 0.840348 0.235873
O O3 0.968831 0.859738 0.245108
O O4 0.151635 0.092013 0.299951
O O5 0.500000 0.500000 0.500000
O O6 0.286192 0.341902 0.374664
O O7 0.382330 0.259420 0.537461
O O8 0.566178 0.289602 0.398979
O O9 0.151258 0.757652 0.569197
O O10 0.905636 0.741271 0.448602
O O11 0.000000 0.000000 0.500000
O O12 0.723940 0.734150 0.799598
O O13 0.261817 0.483611 0.608459
#
# Coordination Sequence:
#
# PCOD9253578 Si02
#       6
#     4   4   4   4   4   4
#     4  10  21  38  62  88 116 155 199 250 290 339
#     4  10  21  38  60  87 120 157 194 239 296 359
#     4  11  21  36  59  87 117 150 198 248 289 340
#     4  10  21  39  61  87 118 152 200 245 294 351
#     4   9  20  38  59  82 111 154 197 242 288 345
#     4  10  21  37  58  85 115 156 194 234 297 350
#
# _framework density 20.05781
#
# number of rings (size 3 to 8) (size 9 to 14) (size 15 to 20)
#    0.000    2.000    0.000    3.500    0.000    8.000 
#    0.000   16.667    0.000    0.000    0.000    0.000 
#    0.000    0.000    0.000    0.000    0.000    0.000 
#
# Total GULP energy -133901.138949 kJ/mol
# GULP energy per Si atom -5579.214123 kJ/mol
# Density = 2.001216 g / cm^3
# Si number density = 20.057810 Si / 1000 Ang^3
#
#
#
# Elastic Constant Matrix: (Units=GPa)
#
#
# Indices 1 2 3 4 5 6 
#
# 1 69.3818 7.3406 34.3560 0.0000 -36.3844 0.0000
# 2 7.3406 31.4976 14.0146 0.0000 -0.9265 0.0000
# 3 34.3560 14.0146 112.0435 0.0000 -30.5068 0.0000
# 4 0.0000 0.0000 0.0000 31.9170 0.0000 -1.1888
# 5 -36.3844 -0.9265 -30.5068 0.0000 52.6906 0.0000
# 6 0.0000 0.0000 0.0000 -1.1888 0.0000 21.1788
#
#
#
# Elastic Compliance Matrix: (Units=1/GPa)
#
#
# Indices 1 2 3 4 5 6 
#
# 1 0.024035 -0.003906 -0.002827 0.000000 0.014892 0.000000
# 2 -0.003906 0.034468 -0.004372 0.000000 -0.004622 0.000000
# 3 -0.002827 -0.004372 0.011618 0.000000 0.004698 0.000000
# 4 0.000000 0.000000 0.000000 0.031397 0.000000 0.001762
# 5 0.014892 -0.004622 0.004698 0.000000 0.031901 0.000000
# 6 0.000000 0.000000 0.000000 0.001762 0.000000 0.047316
#
#
# Mechanical properties :
#
#
# Convention : Reuss Voigt Hill
#
# Bulk Modulus (GPa) = 20.87168 36.03836 28.45502
# Shear Modulus (GPa) = 22.83992 31.63804 27.23898
#
# Velocity S-wave (km/s) = 3.37813 3.97589 3.68914
# Velocity P-wave (km/s) = 5.06399 6.25165 5.68890
#
# Compressibility (1/GPa) = 0.04791182
#
# Stress axis : x y z
#
# Youngs Moduli (GPa) = 41.60542 29.01226 86.07452
#
# Poissons Ratio (x) = 0.11331 0.24331
# Poissons Ratio (y) = 0.16250 0.37634
# Poissons Ratio (z) = 0.11761 0.12685
#
# Static dielectric constant tensor:
#      x y z
#    x 1.737160 0.000000 -0.048970 
#    y 0.000000 1.689780 0.000000 
#    z -0.048970 0.000000 1.742670 
# 
# From -- ./inp_files/38973.got.cif
#   From: 2010.05.17/outbox.ucp.g08.bks.cvg/sg14_20_cif.got.tgz:38973.got - 2010.06.11 12:31:08.
