data_PCOD9253266
_publ_section_title
;
Structure prediction by ZEFSAII (Michael W. Deem and Ramdas Pophale) SiO2 
 PCOD9253266
Probable space group: P 21/C
;
_chemical_formula_sum "Si O2"
_cell_formula_units_Z 16
_cell_length_a 5.042141
_cell_length_b 9.171297
_cell_length_c 16.267063
_cell_angle_alpha 90.000000
_cell_angle_beta 123.379191
_cell_angle_gamma 90.000000
_cell_volume 628.154094
_symmetry_space_group_name_H-M "P 21/C"
_symmetry_group_IT_number 14
_symmetry_cell_setting 'monoclinic'
loop_
_space_group_symop_operation_xyz
x,y,z
-x,1/2+y,1/2-z
-x,-y,-z
x,1/2-y,1/2+z
loop_
_atom_site_type_symbol
_atom_site_label
_atom_site_fract_x
_atom_site_fract_y
_atom_site_fract_z
Si Si1 0.015453 0.466745 0.175284
Si Si2 0.108782 0.198571 0.864731
Si Si3 0.342293 0.479886 0.669157
Si Si4 0.315392 0.687294 0.421507
O O1 0.057682 0.383944 0.269989
O O2 0.389532 0.488232 0.215941
O O3 0.891997 0.630448 0.151407
O O4 0.777316 0.357551 0.089923
O O5 0.434096 0.155547 0.964284
O O6 0.820043 0.138985 0.872915
O O7 0.516485 0.378056 0.631415
O O8 0.026620 0.388272 0.633056
#
# Coordination Sequence:
#
# PCOD9253266 Si02
#       4
#     4   4   4   4
#     4  12  26  50  75 114 152 203 251 318 378 453
#     4  12  26  48  78 110 157 197 258 312 381 455
#     4  12  25  50  75 107 152 200 250 313 380 451
#     4  12  28  49  77 112 149 203 256 313 379 454
#
# _framework density 25.471457000000001
#
# number of rings (size 3 to 8) (size 9 to 14) (size 15 to 20)
#    0.000    0.000    5.000    3.750    3.500    0.000 
#    0.000    2.500    0.000    0.000    0.000    0.000 
#    0.000    0.000    0.000    0.000    0.000    0.000 
#
# Total GULP energy -89395.924016 kJ/mol
# GULP energy per Si atom -5587.245251 kJ/mol
# Density = 2.541348 g / cm^3
# Si number density = 25.471457 Si / 1000 Ang^3
#
#
#
# Elastic Constant Matrix: (Units=GPa)
#
#
# Indices 1 2 3 4 5 6 
#
# 1 151.4384 40.2332 32.9531 0.0000 36.0252 0.0000
# 2 40.2332 222.8616 24.7055 0.0000 15.8182 0.0000
# 3 32.9531 24.7055 98.4326 0.0000 30.9519 0.0000
# 4 0.0000 0.0000 0.0000 48.8319 0.0000 19.8259
# 5 36.0252 15.8182 30.9519 0.0000 25.2743 0.0000
# 6 0.0000 0.0000 0.0000 19.8259 0.0000 28.7680
#
#
#
# Elastic Compliance Matrix: (Units=1/GPa)
#
#
# Indices 1 2 3 4 5 6 
#
# 1 0.010375 -0.000912 0.001994 0.000000 -0.016659 0.000000
# 2 -0.000912 0.004786 -0.000590 0.000000 -0.000974 0.000000
# 3 0.001994 -0.000590 0.016941 0.000000 -0.023220 0.000000
# 4 0.000000 0.000000 0.000000 0.028434 0.000000 -0.019596
# 5 -0.016659 -0.000974 -0.023220 0.000000 0.092357 0.000000
# 6 0.000000 0.000000 0.000000 -0.019596 0.000000 0.048266
#
#
# Mechanical properties :
#
#
# Convention : Reuss Voigt Hill
#
# Bulk Modulus (GPa) = 30.22336 74.27958 52.25147
# Shear Modulus (GPa) = 23.67395 45.56423 34.61909
#
# Velocity S-wave (km/s) = 3.05196 4.23405 3.69064
# Velocity P-wave (km/s) = 4.93058 7.28890 6.22249
#
# Compressibility (1/GPa) = 0.03308699
#
# Stress axis : x y z
#
# Youngs Moduli (GPa) = 96.38942 208.93576 59.02777
#
# Poissons Ratio (x) = 0.19046 -0.11770
# Poissons Ratio (y) = 0.08786 0.03482
# Poissons Ratio (z) = -0.19220 0.12325
#
# Static dielectric constant tensor:
#      x y z
#    x 2.184720 0.000000 -0.076030 
#    y 0.000000 2.074490 0.000000 
#    z -0.076030 0.000000 1.993200 
# 
# From -- ./inp_files/63174.got.cif
#   From: 2010.05.17/outbox.cif.g08.bks.cpg/sg14_32_cif.got.tgz:63174.got - 2010.06.03 17:49:19.
