data_PCOD9253731
_publ_section_title
;
Structure prediction by ZEFSAII (Michael W. Deem and Ramdas Pophale) SiO2 
 PCOD9253731
Probable space group: P 21/C
;
_chemical_formula_sum "Si O2"
_cell_formula_units_Z 32
_cell_length_a 24.000000
_cell_length_b 12.000000
_cell_length_c 30.000000
_cell_angle_alpha 90.000000
_cell_angle_beta 170.000000
_cell_angle_gamma 90.000000
_cell_volume 1500.320255
_symmetry_space_group_name_H-M "P 21/C"
_symmetry_group_IT_number 14
_symmetry_cell_setting 'monoclinic'
loop_
_space_group_symop_operation_xyz
x,y,z
-x,1/2+y,1/2-z
-x,-y,-z
x,1/2-y,1/2+z
loop_
_atom_site_type_symbol
_atom_site_label
_atom_site_fract_x
_atom_site_fract_y
_atom_site_fract_z
Si Si1 0.336392 0.290414 0.615646
Si Si2 0.118526 0.544826 0.963552
Si Si3 0.382919 0.897169 0.102652
Si Si4 0.189128 0.147200 0.699513
Si Si5 0.304861 0.983900 0.948370
Si Si6 0.669809 0.903033 0.571432
Si Si7 0.599438 0.354662 0.042017
Si Si8 0.471730 0.279065 0.616663
O O1 0.415732 0.196556 0.713940
O O2 0.381351 0.259816 0.598077
O O3 0.980369 0.335299 0.342459
O O4 0.615678 0.377165 0.848601
O O5 0.853511 0.612563 0.782242
O O6 0.949152 0.472298 0.792124
O O7 0.344332 0.491757 0.179590
O O8 0.267082 0.900268 0.960353
O O9 0.058467 0.911195 0.875693
O O10 0.847321 0.188919 0.413007
O O11 0.349585 0.044544 0.800290
O O12 0.432833 0.249669 0.888030
O O13 0.287311 0.110791 0.952814
O O14 0.543333 0.861749 0.520099
O O15 0.579709 0.822124 0.459045
O O16 0.540309 0.030090 0.468776
#
# Coordination Sequence:
#
# PCOD9253731 Si02
#       8
#     4   4   4   4   4   4   4   4
#     4  11  24  47  71 101 148 192 243 306 365 435
#     4  11  24  47  70 102 146 188 235 308 374 427
#     4  12  25  45  71 105 141 188 246 301 364 433
#     4  11  24  43  70 108 146 187 236 310 369 428
#     4  12  24  43  74 109 140 185 246 304 367 447
#     4  11  25  45  72 101 149 198 240 306 361 445
#     4  11  24  47  70 103 150 193 250 296 369 443
#     4  11  24  45  71 104 149 191 241 300 371 437
#
# _framework density 21.328779999999998
#
# number of rings (size 3 to 8) (size 9 to 14) (size 15 to 20)
#    0.000    0.750    3.750    4.500    5.250    0.500 
#    2.250    0.000    0.000    0.000    0.000    0.000 
#    0.000    0.000    0.000    0.000    0.000    0.000 
#
# Total GULP energy -178565.181897 kJ/mol
# GULP energy per Si atom -5580.161934 kJ/mol
# Density = 2.128023 g / cm^3
# Si number density = 21.328780 Si / 1000 Ang^3
#
#
#
# Elastic Constant Matrix: (Units=GPa)
#
#
# Indices 1 2 3 4 5 6 
#
# 1 109.5010 44.4068 51.3265 0.0000 -2.6481 0.0000
# 2 44.4068 95.2054 17.8058 0.0000 -7.5849 0.0000
# 3 51.3265 17.8058 100.1722 0.0000 7.8582 0.0000
# 4 0.0000 0.0000 0.0000 46.8753 0.0000 -10.7938
# 5 -2.6481 -7.5849 7.8582 0.0000 40.6676 0.0000
# 6 0.0000 0.0000 0.0000 -10.7938 0.0000 41.2726
#
#
#
# Elastic Compliance Matrix: (Units=1/GPa)
#
#
# Indices 1 2 3 4 5 6 
#
# 1 0.014407 -0.005407 -0.006514 0.000000 0.001188 0.000000
# 2 -0.005407 0.013137 0.000275 0.000000 0.002045 0.000000
# 3 -0.006514 0.000275 0.013506 0.000000 -0.002983 0.000000
# 4 0.000000 0.000000 0.000000 0.022700 0.000000 0.005937
# 5 0.001188 0.002045 -0.002983 0.000000 0.025625 0.000000
# 6 0.000000 0.000000 0.000000 0.005937 0.000000 0.025782
#
#
# Mechanical properties :
#
#
# Convention : Reuss Voigt Hill
#
# Bulk Modulus (GPa) = 56.31426 59.10629 57.71027
# Shear Modulus (GPa) = 34.63366 38.51907 36.57637
#
# Velocity S-wave (km/s) = 4.03401 4.25428 4.14561
# Velocity P-wave (km/s) = 6.93959 7.20444 7.07326
#
# Compressibility (1/GPa) = 0.01775749
#
# Stress axis : x y z
#
# Youngs Moduli (GPa) = 69.40981 76.12027 74.04310
#
# Poissons Ratio (x) = 0.41158 0.48233
# Poissons Ratio (y) = 0.37530 -0.02035
# Poissons Ratio (z) = 0.45214 -0.02092
#
# Static dielectric constant tensor:
#      x y z
#    x 1.769070 0.000000 0.015270 
#    y 0.000000 1.793180 0.000000 
#    z 0.015270 0.000000 1.721270 
# 
# From -- ./inp_files/80693.got.cif
#   From: 2010.05.17/outbox.ucp.g08.bks.cvg/sg14_41_cif.got.tgz:80693.got - 2010.06.11 12:31:08.
