data_PCOD9253121
_publ_section_title
;
Structure prediction by ZEFSAII (Michael W. Deem and Ramdas Pophale) SiO2 
 PCOD9253121
Probable space group: P 21/C
;
_chemical_formula_sum "Si O2"
_cell_formula_units_Z 22
_cell_length_a 6.559368
_cell_length_b 5.323134
_cell_length_c 22.482875
_cell_angle_alpha 90.000000
_cell_angle_beta 105.956852
_cell_angle_gamma 90.000000
_cell_volume 754.773297
_symmetry_space_group_name_H-M "P 21/C"
_symmetry_group_IT_number 14
_symmetry_cell_setting 'monoclinic'
loop_
_space_group_symop_operation_xyz
x,y,z
-x,1/2+y,1/2-z
-x,-y,-z
x,1/2-y,1/2+z
loop_
_atom_site_type_symbol
_atom_site_label
_atom_site_fract_x
_atom_site_fract_y
_atom_site_fract_z
Si Si1 0.301324 0.858268 0.673738
Si Si2 0.485240 0.860488 0.567941
Si Si3 0.000000 0.500000 0.000000
Si Si4 0.166086 0.137555 0.111886
Si Si5 0.627851 0.368870 0.589770
Si Si6 0.873751 0.252566 0.225846
O O1 0.497386 0.861334 0.642706
O O2 0.138209 0.638056 0.638181
O O3 0.325725 0.785812 0.744466
O O4 0.202814 0.135460 0.660880
O O5 0.633289 0.632705 0.556993
O O6 0.233106 0.898631 0.541576
O O7 0.601489 0.109110 0.554310
O O8 0.980197 0.747661 0.951406
O O9 0.395212 0.102127 0.099686
O O10 0.797275 0.324116 0.654193
O O11 0.961857 0.534464 0.240275
#
# Coordination Sequence:
#
# PCOD9253121 Si02
#       6
#     4   4   2   4   4   4
#     4   9  19  33  48  77 102 132 170 210 259 302
#     4   9  18  31  55  80 106 128 158 213 263 318
#     4   8  16  30  52  90 112 130 156 198 288 332
#     4   9  18  31  55  80 106 128 158 213 263 318
#     4   9  19  33  48  77 102 132 170 210 259 302
#     4  12  24  36  52  70 100 146 184 214 250 300
#
# _framework density 29.147824
#
# number of rings (size 3 to 8) (size 9 to 14) (size 15 to 20)
#    0.000    2.909    0.000    2.182    0.000   17.455 
#    0.000    0.000    0.000    0.000    0.000  134.909 
#    0.000    0.000    0.000    0.000    0.000    0.000 
#
# Total GULP energy -122578.918631 kJ/mol
# GULP energy per Si atom -5571.769029 kJ/mol
# Density = 2.908148 g / cm^3
# Si number density = 29.147824 Si / 1000 Ang^3
#
#
#
# Elastic Constant Matrix: (Units=GPa)
#
#
# Indices 1 2 3 4 5 6 
#
# 1 57.2017 6.1820 13.3714 0.0000 8.7223 0.0000
# 2 6.1820 255.4450 49.7935 0.0000 28.0880 0.0000
# 3 13.3714 49.7935 114.7990 0.0000 26.0996 0.0000
# 4 0.0000 0.0000 0.0000 38.0683 0.0000 -4.1498
# 5 8.7223 28.0880 26.0996 0.0000 53.5183 0.0000
# 6 0.0000 0.0000 0.0000 -4.1498 0.0000 20.1083
#
#
#
# Elastic Compliance Matrix: (Units=1/GPa)
#
#
# Indices 1 2 3 4 5 6 
#
# 1 0.018197 0.000129 -0.001671 0.000000 -0.002219 0.000000
# 2 0.000129 0.004388 -0.001563 0.000000 -0.001562 0.000000
# 3 -0.001671 -0.001563 0.010499 0.000000 -0.004027 0.000000
# 4 0.000000 0.000000 0.000000 0.026873 0.000000 0.005546
# 5 -0.002219 -0.001562 -0.004027 0.000000 0.021830 0.000000
# 6 0.000000 0.000000 0.000000 0.005546 0.000000 0.050875
#
#
# Mechanical properties :
#
#
# Convention : Reuss Voigt Hill
#
# Bulk Modulus (GPa) = 37.21087 62.90441 50.05764
# Shear Modulus (GPa) = 33.82233 46.21225 40.01729
#
# Velocity S-wave (km/s) = 3.41012 3.98608 3.70930
# Velocity P-wave (km/s) = 5.31970 6.54318 5.96290
#
# Compressibility (1/GPa) = 0.02687387
#
# Stress axis : x y z
#
# Youngs Moduli (GPa) = 54.95416 227.89122 95.24499
#
# Poissons Ratio (x) = -0.02947 0.15918
# Poissons Ratio (y) = -0.00711 0.14890
# Poissons Ratio (z) = 0.09184 0.35627
#
# Static dielectric constant tensor:
#      x y z
#    x 2.358370 0.000000 -0.097800 
#    y 0.000000 2.622370 0.000000 
#    z -0.097800 0.000000 2.304450 
# 
# From -- ./inp_files/75977.got.cif
#   From: 2010.05.17/outbox.cif.g08.bks.cpg/sg14_38_cif.got.tgz:75977.got - 2010.06.03 17:49:19.
