data_PCOD9253543
_publ_section_title
;
Structure prediction by ZEFSAII (Michael W. Deem and Ramdas Pophale) SiO2 
 PCOD9253543
Probable space group: P 21/C
;
_chemical_formula_sum "Si O2"
_cell_formula_units_Z 32
_cell_length_a 12.000000
_cell_length_b 15.000000
_cell_length_c 12.000000
_cell_angle_alpha 90.000000
_cell_angle_beta 130.000000
_cell_angle_gamma 90.000000
_cell_volume 1654.655997
_symmetry_space_group_name_H-M "P 21/C"
_symmetry_group_IT_number 14
_symmetry_cell_setting 'monoclinic'
loop_
_space_group_symop_operation_xyz
x,y,z
-x,1/2+y,1/2-z
-x,-y,-z
x,1/2-y,1/2+z
loop_
_atom_site_type_symbol
_atom_site_label
_atom_site_fract_x
_atom_site_fract_y
_atom_site_fract_z
Si Si1 0.017955 0.335568 0.123176
Si Si2 0.895709 0.990184 0.824520
Si Si3 0.607460 0.430186 0.510775
Si Si4 0.240569 0.668885 0.187197
Si Si5 0.842046 0.939922 0.109748
Si Si6 0.542922 0.259302 0.864758
Si Si7 0.210599 0.826554 0.322483
Si Si8 0.790717 0.819579 0.861906
O O1 0.143913 0.395074 0.260417
O O2 0.099639 0.255956 0.112106
O O3 0.912773 0.311223 0.161453
O O4 0.895135 0.376569 0.962988
O O5 0.798569 0.075745 0.736181
O O6 0.015602 0.997334 0.805462
O O7 0.807530 0.901077 0.785706
O O8 0.000000 0.000000 0.000000
O O9 0.500000 0.500000 0.500000
O O10 0.695481 0.388579 0.671371
O O11 0.709906 0.494075 0.504325
O O12 0.553163 0.346422 0.401920
O O13 0.365850 0.704247 0.183263
O O14 0.180271 0.757841 0.205356
O O15 0.834291 0.862598 0.010224
O O16 0.375052 0.285884 0.743821
O O17 0.632300 0.305934 0.023226
#
# Coordination Sequence:
#
# PCOD9253543 Si02
#       8
#     4   4   4   4   4   4   4   4
#     4  10  20  38  63  88 125 152 202 257 304 364
#     4   9  19  33  59  88 114 146 197 251 301 345
#     4  11  23  40  64  88 125 163 206 249 303 372
#     4  10  21  38  63  84 119 163 203 242 313 365
#     4  10  22  38  61  92 121 155 207 250 307 363
#     4  10  23  38  60  85 121 166 199 246 310 367
#     4   9  20  38  59  90 116 161 201 246 306 373
#     4  11  22  37  63  91 121 156 206 253 308 358
#
# _framework density 19.339366999999999
#
# number of rings (size 3 to 8) (size 9 to 14) (size 15 to 20)
#    0.000    2.000    0.000    3.750    8.750    2.000 
#    0.000    0.000   13.750    0.000    0.000    0.000 
#    0.000    0.000    0.000    0.000    0.000    0.000 
#
# Total GULP energy -178180.312510 kJ/mol
# GULP energy per Si atom -5568.134766 kJ/mol
# Density = 1.929535 g / cm^3
# Si number density = 19.339367 Si / 1000 Ang^3
#
#
#
# Elastic Constant Matrix: (Units=GPa)
#
#
# Indices 1 2 3 4 5 6 
#
# 1 46.6815 30.3551 28.3269 0.0000 7.1894 0.0000
# 2 30.3551 72.2994 21.0446 0.0000 7.7483 0.0000
# 3 28.3269 21.0446 75.3370 0.0000 7.3099 0.0000
# 4 0.0000 0.0000 0.0000 25.5099 0.0000 1.3233
# 5 7.1894 7.7483 7.3099 0.0000 28.3742 0.0000
# 6 0.0000 0.0000 0.0000 1.3233 0.0000 40.8500
#
#
#
# Elastic Compliance Matrix: (Units=1/GPa)
#
#
# Indices 1 2 3 4 5 6 
#
# 1 0.035442 -0.011693 -0.009742 0.000000 -0.003277 0.000000
# 2 -0.011693 0.019185 -0.000761 0.000000 -0.002080 0.000000
# 3 -0.009742 -0.000761 0.017322 0.000000 -0.001787 0.000000
# 4 0.000000 0.000000 0.000000 0.039266 0.000000 -0.001272
# 5 -0.003277 -0.002080 -0.001787 0.000000 0.037102 0.000000
# 6 0.000000 0.000000 0.000000 -0.001272 0.000000 0.024521
#
#
# Mechanical properties :
#
#
# Convention : Reuss Voigt Hill
#
# Bulk Modulus (GPa) = 36.28741 39.30790 37.79765
# Shear Modulus (GPa) = 22.08322 26.58624 24.33473
#
# Velocity S-wave (km/s) = 3.38284 3.71175 3.55110
# Velocity P-wave (km/s) = 5.83629 6.22405 6.03329
#
# Compressibility (1/GPa) = 0.02755777
#
# Stress axis : x y z
#
# Youngs Moduli (GPa) = 28.21538 52.12337 57.72864
#
# Poissons Ratio (x) = 0.60950 0.56238
# Poissons Ratio (y) = 0.32994 0.04391
# Poissons Ratio (z) = 0.27487 0.03964
#
# Static dielectric constant tensor:
#      x y z
#    x 1.748050 0.000000 -0.003960 
#    y 0.000000 1.868190 0.000000 
#    z -0.003960 0.000000 1.695870 
# 
# From -- ./inp_files/30036.got.cif
#   From: 2010.05.17/outbox.ucp.g08.bks.cvg/sg14_16_cif.got.tgz:30036.got - 2010.06.11 12:31:08.
