data_PCOD9253030
_publ_section_title
;
Structure prediction by ZEFSAII (Michael W. Deem and Ramdas Pophale) SiO2 
 PCOD9253030
Probable space group: P 21/C
;
_chemical_formula_sum "Si O2"
_cell_formula_units_Z 24
_cell_length_a 4.956395
_cell_length_b 19.123094
_cell_length_c 11.999965
_cell_angle_alpha 90.000000
_cell_angle_beta 66.506527
_cell_angle_gamma 90.000000
_cell_volume 1043.093752
_symmetry_space_group_name_H-M "P 21/C"
_symmetry_group_IT_number 14
_symmetry_cell_setting 'monoclinic'
loop_
_space_group_symop_operation_xyz
x,y,z
-x,1/2+y,1/2-z
-x,-y,-z
x,1/2-y,1/2+z
loop_
_atom_site_type_symbol
_atom_site_label
_atom_site_fract_x
_atom_site_fract_y
_atom_site_fract_z
Si Si1 0.548696 0.493945 0.859771
Si Si2 0.537249 0.417852 0.519304
Si Si3 0.737950 0.851728 0.328953
Si Si4 0.123033 0.161389 0.935536
Si Si5 0.089418 0.809900 0.478143
Si Si6 0.109799 0.408931 0.794773
O O1 0.664557 0.569143 0.805091
O O2 0.256912 0.470626 0.844331
O O3 0.798951 0.436028 0.799526
O O4 0.500000 0.500000 0.000000
O O5 0.500000 0.500000 0.500000
O O6 0.419355 0.370591 0.437055
O O7 0.333196 0.396701 0.657397
O O8 0.872971 0.397710 0.485825
O O9 0.840376 0.816356 0.198741
O O10 0.975401 0.850170 0.387541
O O11 0.439832 0.817860 0.425326
O O12 0.012348 0.230297 0.016516
O O13 0.949325 0.846255 0.609854
#
# Coordination Sequence:
#
# PCOD9253030 Si02
#       6
#     4   4   4   4   4   4
#     4  12  21  41  69 103 140 170 233 282 347 392
#     4  12  26  50  74 103 139 183 238 287 351 416
#     4  12  25  46  69 100 137 180 228 286 334 412
#     4  12  28  46  71 100 140 187 229 283 348 421
#     4  12  26  42  67 101 138 180 228 279 348 405
#     4  12  24  42  70 105 138 180 224 292 343 410
#
# _framework density 23.008476000000002
#
# number of rings (size 3 to 8) (size 9 to 14) (size 15 to 20)
#    0.000    0.000    3.333    7.000    4.667    0.000 
#    0.000    0.000    0.000    0.000    0.000    0.000 
#    0.000    0.000    0.000    0.000    0.000    0.000 
#
# Total GULP energy -134522.057296 kJ/mol
# GULP energy per Si atom -5605.085721 kJ/mol
# Density = 2.295611 g / cm^3
# Si number density = 23.008476 Si / 1000 Ang^3
#
#
#
# Elastic Constant Matrix: (Units=GPa)
#
#
# Indices 1 2 3 4 5 6 
#
# 1 63.9525 -7.7809 -6.4515 0.0000 2.4548 0.0000
# 2 -7.7809 94.7868 -21.7114 0.0000 8.5581 0.0000
# 3 -6.4515 -21.7114 115.2896 0.0000 -4.7841 0.0000
# 4 0.0000 0.0000 0.0000 21.7614 0.0000 4.2011
# 5 2.4548 8.5581 -4.7841 0.0000 25.5443 0.0000
# 6 0.0000 0.0000 0.0000 4.2011 0.0000 15.6274
#
#
#
# Elastic Compliance Matrix: (Units=1/GPa)
#
#
# Indices 1 2 3 4 5 6 
#
# 1 0.016039 0.001752 0.001148 0.000000 -0.001913 0.000000
# 2 0.001752 0.011506 0.002114 0.000000 -0.003627 0.000000
# 3 0.001148 0.002114 0.009174 0.000000 0.000899 0.000000
# 4 0.000000 0.000000 0.000000 0.048468 0.000000 -0.013030
# 5 -0.001913 -0.003627 0.000899 0.000000 0.040715 0.000000
# 6 0.000000 0.000000 0.000000 -0.013030 0.000000 0.067493
#
#
# Mechanical properties :
#
#
# Convention : Reuss Voigt Hill
#
# Bulk Modulus (GPa) = 21.39135 22.46013 21.92574
# Shear Modulus (GPa) = 25.13219 33.25146 29.19183
#
# Velocity S-wave (km/s) = 3.30858 3.80568 3.56581
# Velocity P-wave (km/s) = 4.89009 5.39387 5.14814
#
# Compressibility (1/GPa) = 0.04674786
#
# Stress axis : x y z
#
# Youngs Moduli (GPa) = 62.34770 86.91412 109.00908
#
# Poissons Ratio (x) = -0.15231 -0.12516
# Poissons Ratio (y) = -0.10926 -0.23048
# Poissons Ratio (z) = -0.07158 -0.18376
#
# Static dielectric constant tensor:
#      x y z
#    x 1.783720 0.000000 0.007810 
#    y 0.000000 1.862500 0.000000 
#    z 0.007810 0.000000 1.878600 
# 
# From -- ./inp_files/21167.got.cif
#   From: 2010.05.17/outbox.cif.g08.bks.cpg/sg14_11_cif.got.tgz:21167.got - 2010.06.03 17:49:19.
