data_PCOD9253200
_publ_section_title
;
Structure prediction by ZEFSAII (Michael W. Deem and Ramdas Pophale) SiO2 
 PCOD9253200
Probable space group: P 21/C
;
_chemical_formula_sum "Si O2"
_cell_formula_units_Z 18
_cell_length_a 14.513730
_cell_length_b 7.151436
_cell_length_c 12.307070
_cell_angle_alpha 90.000000
_cell_angle_beta 146.661581
_cell_angle_gamma 90.000000
_cell_volume 702.037586
_symmetry_space_group_name_H-M "P 21/C"
_symmetry_group_IT_number 14
_symmetry_cell_setting 'monoclinic'
loop_
_space_group_symop_operation_xyz
x,y,z
-x,1/2+y,1/2-z
-x,-y,-z
x,1/2-y,1/2+z
loop_
_atom_site_type_symbol
_atom_site_label
_atom_site_fract_x
_atom_site_fract_y
_atom_site_fract_z
Si Si1 0.000000 0.500000 0.000000
Si Si2 0.158832 0.155966 0.443817
Si Si3 0.371729 0.786654 0.661512
Si Si4 0.364240 0.014701 0.962147
Si Si5 0.099784 0.952742 0.988019
O O1 0.037835 0.419780 0.918528
O O2 0.193546 0.448090 0.231829
O O3 0.440203 0.316088 0.609684
O O4 0.042457 0.145934 0.223568
O O5 0.298533 0.994430 0.571330
O O6 0.357613 0.664367 0.537493
O O7 0.254050 0.692927 0.639342
O O8 0.177554 0.132270 0.004542
O O9 0.500000 0.000000 0.000000
O O10 0.000000 0.000000 0.000000
#
# Coordination Sequence:
#
# PCOD9253200 Si02
#       5
#     2   4   4   4   4
#     4  12  24  54  90 118 182 232 280 386 450 524
#     4  12  25  49  85 125 176 230 294 363 450 535
#     4  12  29  53  82 127 178 232 300 371 444 542
#     4  12  29  55  86 128 178 229 298 372 448 534
#     4  12  27  48  87 134 174 237 296 368 456 539
#
# _framework density 25.639655999999999
#
# number of rings (size 3 to 8) (size 9 to 14) (size 15 to 20)
#    0.000    0.000    6.667    1.333    6.222    0.000 
#    4.000    2.222    0.000    0.000    0.000    0.000 
#    0.000    0.000    0.000    0.000    0.000    0.000 
#
# Total GULP energy -100296.029483 kJ/mol
# GULP energy per Si atom -5572.001638 kJ/mol
# Density = 2.558130 g / cm^3
# Si number density = 25.639656 Si / 1000 Ang^3
#
#
#
# Elastic Constant Matrix: (Units=GPa)
#
#
# Indices 1 2 3 4 5 6 
#
# 1 139.3390 78.3920 49.2154 0.0000 -5.0240 0.0000
# 2 78.3920 179.0012 35.4139 0.0000 5.2752 0.0000
# 3 49.2154 35.4139 192.1684 0.0000 19.0592 0.0000
# 4 0.0000 0.0000 0.0000 36.3564 0.0000 13.2918
# 5 -5.0240 5.2752 19.0592 0.0000 37.9196 0.0000
# 6 0.0000 0.0000 0.0000 13.2918 0.0000 40.5337
#
#
#
# Elastic Compliance Matrix: (Units=1/GPa)
#
#
# Indices 1 2 3 4 5 6 
#
# 1 0.010445 -0.004229 -0.002201 0.000000 0.003078 0.000000
# 2 -0.004229 0.007513 -0.000150 0.000000 -0.001530 0.000000
# 3 -0.002201 -0.000150 0.006127 0.000000 -0.003350 0.000000
# 4 0.000000 0.000000 0.000000 0.031252 0.000000 -0.010248
# 5 0.003078 -0.001530 -0.003350 0.000000 0.028676 0.000000
# 6 0.000000 0.000000 0.000000 -0.010248 0.000000 0.028031
#
#
# Mechanical properties :
#
#
# Convention : Reuss Voigt Hill
#
# Bulk Modulus (GPa) = 91.52839 92.95013 92.23926
# Shear Modulus (GPa) = 38.80577 46.12776 42.46677
#
# Velocity S-wave (km/s) = 3.89460 4.24616 4.07417
# Velocity P-wave (km/s) = 7.48327 7.76988 7.62792
#
# Compressibility (1/GPa) = 0.01092557
#
# Stress axis : x y z
#
# Youngs Moduli (GPa) = 95.74403 133.09397 163.20430
#
# Poissons Ratio (x) = 0.56291 0.35918
# Poissons Ratio (y) = 0.40494 0.02443
# Poissons Ratio (z) = 0.21071 0.01992
#
# Static dielectric constant tensor:
#      x y z
#    x 2.098620 0.000000 0.066230 
#    y 0.000000 2.040860 0.000000 
#    z 0.066230 0.000000 2.021370 
# 
# From -- ./inp_files/27941.got.cif
#   From: 2010.05.17/outbox.cif.g08.bks.cpg/sg14_14_cif.got.tgz:27941.got - 2010.06.03 17:49:19.
