data_PCOD9253078
_publ_section_title
;
Structure prediction by ZEFSAII (Michael W. Deem and Ramdas Pophale) SiO2 
 PCOD9253078
Probable space group: P 21/C
;
_chemical_formula_sum "Si O2"
_cell_formula_units_Z 12
_cell_length_a 7.192389
_cell_length_b 11.752621
_cell_length_c 5.436800
_cell_angle_alpha 90.000000
_cell_angle_beta 89.999786
_cell_angle_gamma 90.000000
_cell_volume 459.569562
_symmetry_space_group_name_H-M "P 21/C"
_symmetry_group_IT_number 14
_symmetry_cell_setting 'monoclinic'
loop_
_space_group_symop_operation_xyz
x,y,z
-x,1/2+y,1/2-z
-x,-y,-z
x,1/2-y,1/2+z
loop_
_atom_site_type_symbol
_atom_site_label
_atom_site_fract_x
_atom_site_fract_y
_atom_site_fract_z
Si Si1 0.211442 0.457342 0.000002
Si Si2 0.622845 0.614885 0.500000
Si Si3 0.281427 0.787350 0.500003
O O1 0.257996 0.391600 0.749493
O O2 0.257994 0.391601 0.250513
O O3 0.319724 0.578939 0.000002
O O4 0.000000 0.500000 0.000000
O O5 0.500000 0.500000 0.500000
O O6 0.471416 0.714786 0.500003
O O7 0.180887 0.749999 0.250005
#
# Coordination Sequence:
#
# PCOD9253078 Si02
#       3
#     4   4   4
#     4  12  26  47  73 109 151 184 238 317 363 408
#     4  12  23  44  79 100 141 196 241 292 353 446
#     4  12  23  42  74 104 142 193 243 288 353 447
#
# _framework density 26.111391999999999
#
# number of rings (size 3 to 8) (size 9 to 14) (size 15 to 20)
#    0.000    0.000    6.667    4.000    0.000    0.000 
#    0.000   10.000    0.000    0.000    0.000    0.000 
#    0.000    0.000    0.000    0.000    0.000    0.000 
#
# Total GULP energy -67340.274496 kJ/mol
# GULP energy per Si atom -5611.689541 kJ/mol
# Density = 2.605196 g / cm^3
# Si number density = 26.111392 Si / 1000 Ang^3
#
#
#
# Elastic Constant Matrix: (Units=GPa)
#
#
# Indices 1 2 3 4 5 6 
#
# 1 128.1016 39.1694 50.3612 0.0000 -4.9273 0.0000
# 2 39.1694 153.9127 31.1122 0.0000 -0.6636 0.0000
# 3 50.3612 31.1122 287.0236 0.0000 18.0462 0.0000
# 4 0.0000 0.0000 0.0000 40.7385 0.0000 -0.3468
# 5 -4.9273 -0.6636 18.0462 0.0000 10.8991 0.0000
# 6 0.0000 0.0000 0.0000 -0.3468 0.0000 44.9456
#
#
#
# Elastic Compliance Matrix: (Units=1/GPa)
#
#
# Indices 1 2 3 4 5 6 
#
# 1 0.009441 -0.001987 -0.001900 0.000000 0.007293 0.000000
# 2 -0.001987 0.007092 -0.000436 0.000000 0.000256 0.000000
# 3 -0.001900 -0.000436 0.004376 0.000000 -0.008131 0.000000
# 4 0.000000 0.000000 0.000000 0.024548 0.000000 0.000189
# 5 0.007293 0.000256 -0.008131 0.000000 0.108525 0.000000
# 6 0.000000 0.000000 0.000000 0.000189 0.000000 0.022251
#
#
# Mechanical properties :
#
#
# Convention : Reuss Voigt Hill
#
# Bulk Modulus (GPa) = 81.54528 90.03595 85.79062
# Shear Modulus (GPa) = 26.45959 49.20964 37.83461
#
# Velocity S-wave (km/s) = 3.18675 4.34591 3.81066
# Velocity P-wave (km/s) = 6.69612 7.72910 7.23108
#
# Compressibility (1/GPa) = 0.01226313
#
# Stress axis : x y z
#
# Youngs Moduli (GPa) = 105.91782 141.00003 228.52798
#
# Poissons Ratio (x) = 0.28021 0.43413
# Poissons Ratio (y) = 0.21049 0.09967
# Poissons Ratio (z) = 0.20121 0.06150
#
# Static dielectric constant tensor:
#      x y z
#    x 2.056640 0.000000 0.007300 
#    y 0.000000 2.045240 0.000000 
#    z 0.007300 0.000000 2.145160 
# 
# From -- ./inp_files/797.got.cif
#   From: 2010.05.17/outbox.cif.g08.bks.cpg/sg14_1_cif.got.tgz:797.got - 2010.06.03 17:49:19.
