data_PCOD9253526
_publ_section_title
;
Structure prediction by ZEFSAII (Michael W. Deem and Ramdas Pophale) SiO2 
 PCOD9253526
Probable space group: P 21/C
;
_chemical_formula_sum "Si O2"
_cell_formula_units_Z 28
_cell_length_a 30.000000
_cell_length_b 9.000000
_cell_length_c 30.000000
_cell_angle_alpha 90.000000
_cell_angle_beta 10.000000
_cell_angle_gamma 90.000000
_cell_volume 1406.550239
_symmetry_space_group_name_H-M "P 21/C"
_symmetry_group_IT_number 14
_symmetry_cell_setting 'monoclinic'
loop_
_space_group_symop_operation_xyz
x,y,z
-x,1/2+y,1/2-z
-x,-y,-z
x,1/2-y,1/2+z
loop_
_atom_site_type_symbol
_atom_site_label
_atom_site_fract_x
_atom_site_fract_y
_atom_site_fract_z
Si Si1 0.746310 0.401700 0.746076
Si Si2 0.178747 0.806891 0.733812
Si Si3 0.335952 0.318081 0.413389
Si Si4 0.671653 0.488380 0.724786
Si Si5 0.811936 0.368285 0.420951
Si Si6 0.578210 0.309765 0.272297
Si Si7 0.899844 0.993865 0.737171
O O1 0.778660 0.287813 0.754670
O O2 0.709139 0.376399 0.730488
O O3 0.000000 0.500000 0.500000
O O4 0.500000 0.500000 0.000000
O O5 0.136710 0.644023 0.755196
O O6 0.427829 0.900661 0.471239
O O7 0.927159 0.909230 0.971204
O O8 0.258801 0.488922 0.478257
O O9 0.553103 0.232592 0.170144
O O10 0.491038 0.327659 0.307015
O O11 0.067204 0.226324 0.682654
O O12 0.624053 0.365596 0.734193
O O13 0.885617 0.444736 0.301685
O O14 0.336401 0.379356 0.537126
O O15 0.833080 0.405729 0.031245
#
# Coordination Sequence:
#
# PCOD9253526 Si02
#       7
#     4   4   4   4   4   4   4
#     4   8  16  32  54  80 112 140 178 230 272 306
#     4  10  20  36  59  85 109 146 190 227 265 324
#     4  11  23  40  59  81 110 146 184 228 276 326
#     4  10  20  36  59  85 109 146 190 227 265 324
#     4  11  23  40  59  81 110 146 184 228 276 326
#     4  11  23  40  56  81 118 148 175 227 287 327
#     4  11  23  40  56  81 118 148 175 227 287 327
#
# _framework density 19.906860999999999
#
# number of rings (size 3 to 8) (size 9 to 14) (size 15 to 20)
#    0.000    1.714    0.000    6.000    0.000    3.429 
#    0.000    1.429    0.000    0.000    0.000    0.000 
#    0.000    0.000    0.000    0.000    0.000    0.000 
#
# Total GULP energy -156108.195980 kJ/mol
# GULP energy per Si atom -5575.292714 kJ/mol
# Density = 1.986155 g / cm^3
# Si number density = 19.906861 Si / 1000 Ang^3
#
#
#
# Elastic Constant Matrix: (Units=GPa)
#
#
# Indices 1 2 3 4 5 6 
#
# 1 34.9991 -1.6939 2.0975 0.0000 -4.6300 0.0000
# 2 -1.6939 16.9406 9.7337 0.0000 5.2912 0.0000
# 3 2.0975 9.7337 160.7980 0.0000 -17.0488 0.0000
# 4 0.0000 0.0000 0.0000 43.2347 0.0000 -8.2855
# 5 -4.6300 5.2912 -17.0488 0.0000 17.8598 0.0000
# 6 0.0000 0.0000 0.0000 -8.2855 0.0000 25.9910
#
#
#
# Elastic Compliance Matrix: (Units=1/GPa)
#
#
# Indices 1 2 3 4 5 6 
#
# 1 0.029620 0.000181 0.000457 0.000000 0.008062 0.000000
# 2 0.000181 0.072148 -0.007378 0.000000 -0.028371 0.000000
# 3 0.000457 -0.007378 0.007681 0.000000 0.009637 0.000000
# 4 0.000000 0.000000 0.000000 0.024635 0.000000 0.007853
# 5 0.008062 -0.028371 0.009637 0.000000 0.075686 0.000000
# 6 0.000000 0.000000 0.000000 0.007853 0.000000 0.040978
#
#
# Mechanical properties :
#
#
# Convention : Reuss Voigt Hill
#
# Bulk Modulus (GPa) = 10.41985 25.89027 18.15506
# Shear Modulus (GPa) = 16.87948 30.92380 23.90164
#
# Velocity S-wave (km/s) = 2.91507 3.94563 3.46883
# Velocity P-wave (km/s) = 4.07134 5.81302 5.01832
#
# Compressibility (1/GPa) = 0.09597066
#
# Stress axis : x y z
#
# Youngs Moduli (GPa) = 33.76094 13.86035 130.18478
#
# Poissons Ratio (x) = -0.00251 -0.05955
# Poissons Ratio (y) = -0.00611 0.96048
# Poissons Ratio (z) = -0.01544 0.10226
#
# Static dielectric constant tensor:
#      x y z
#    x 1.812840 0.000000 0.044070 
#    y 0.000000 1.691450 0.000000 
#    z 0.044070 0.000000 1.710660 
# 
# From -- ./inp_files/80869.got.cif
#   From: 2010.05.17/outbox.ucp.g08.bks.cvg/sg14_41_cif.got.tgz:80869.got - 2010.06.11 12:31:08.
