data_PCOD9253839
_publ_section_title
;
Structure prediction by ZEFSAII (Michael W. Deem and Ramdas Pophale) SiO2 
 PCOD9253839
Probable space group: C 2/C
;
_chemical_formula_sum "Si O2"
_cell_formula_units_Z 56
_cell_length_a 22.565562
_cell_length_b 12.774196
_cell_length_c 8.640833
_cell_angle_alpha 90.000000
_cell_angle_beta 124.795208
_cell_angle_gamma 90.000000
_cell_volume 2045.420776
_symmetry_space_group_name_H-M "C 2/C"
_symmetry_group_IT_number 15
_symmetry_cell_setting 'monoclinic'
loop_
_space_group_symop_operation_xyz
x,y,z
-x,y,1/2-z
-x,-y,-z
x,-y,1/2+z
1/2+x,1/2+y,z
1/2-x,1/2+y,1/2-z
1/2-x,1/2-y,-z
1/2+x,1/2-y,1/2+z
loop_
_atom_site_type_symbol
_atom_site_label
_atom_site_fract_x
_atom_site_fract_y
_atom_site_fract_z
Si Si1 0.771023 0.318037 0.211466
Si Si2 0.000000 0.330660 0.750000
Si Si3 0.338798 0.843770 0.988841
Si Si4 0.653160 0.593104 0.208820
Si Si5 0.010879 0.829034 0.517058
Si Si6 0.500000 0.830197 0.250000
Si Si7 0.152077 0.349420 0.854881
Si Si8 0.368746 0.399573 0.172613
O O1 0.687168 0.280042 0.070496
O O2 0.803361 0.199370 0.249644
O O3 0.802522 0.367105 0.417368
O O4 0.798394 0.372590 0.093133
O O5 0.961871 0.250166 0.575683
O O6 0.931652 0.382716 0.732688
O O7 0.327113 0.884635 0.791288
O O8 0.421081 0.877813 0.158334
O O9 0.680641 0.485362 0.318783
O O10 0.580605 0.620688 0.193192
O O11 0.628272 0.566551 0.999356
O O12 0.976622 0.747035 0.579931
O O13 0.948994 0.901419 0.361684
O O14 0.154702 0.221494 0.849672
#
# Coordination Sequence:
#
# PCOD9253839 Si02
#       8
#     8   4   8   8   8   4   8   8
#     4  10  22  36  48  71 101 133 173 213 248 293
#     4  10  14  30  45  64  94 126 161 210 232 282
#     4  11  21  34  55  71  94 137 171 211 256 296
#     4  11  20  32  44  65 102 130 167 204 240 287
#     4  11  18  30  42  64  98 128 163 207 231 272
#     4  12  20  30  53  72  94 128 183 204 246 302
#     4  10  19  35  50  70  99 133 171 204 252 295
#     4  10  21  28  45  67  93 134 165 202 238 289
#
# _framework density 27.378229999999999
#
# number of rings (size 3 to 8) (size 9 to 14) (size 15 to 20)
#    0.000    1.429    8.571    0.857    4.000    0.000 
#    0.000    0.000    0.000    0.000    0.000    0.000 
#    0.000    4.571    0.000    0.000    0.000    0.000 
#
# Total GULP energy -155932.169596 kJ/mol
# GULP energy per Si atom -5569.006057 kJ/mol
# Density = 2.731592 g / cm^3
# Si number density = 27.378230 Si / 1000 Ang^3
#
#
#
# Elastic Constant Matrix: (Units=GPa)
#
#
# Indices 1 2 3 4 5 6 
#
# 1 137.5675 36.5925 67.9348 0.0000 -1.9071 0.0000
# 2 36.5925 79.9714 16.9604 0.0000 2.5123 0.0000
# 3 67.9348 16.9604 177.3109 0.0000 -5.8391 0.0000
# 4 0.0000 0.0000 0.0000 59.2445 0.0000 48.5497
# 5 -1.9071 2.5123 -5.8391 0.0000 51.7971 0.0000
# 6 0.0000 0.0000 0.0000 48.5497 0.0000 61.4478
#
#
#
# Elastic Compliance Matrix: (Units=1/GPa)
#
#
# Indices 1 2 3 4 5 6 
#
# 1 0.010003 -0.003849 -0.003459 0.000000 0.000165 0.000000
# 2 -0.003849 0.014274 0.000082 0.000000 -0.000825 0.000000
# 3 -0.003459 0.000082 0.006979 0.000000 0.000655 0.000000
# 4 0.000000 0.000000 0.000000 0.047880 0.000000 -0.037830
# 5 0.000165 -0.000825 0.000655 0.000000 0.019426 0.000000
# 6 0.000000 0.000000 0.000000 -0.037830 0.000000 0.046163
#
#
# Mechanical properties :
#
#
# Convention : Reuss Voigt Hill
#
# Bulk Modulus (GPa) = 59.50721 70.86947 65.18834
# Shear Modulus (GPa) = 30.34366 52.72203 41.53285
#
# Velocity S-wave (km/s) = 3.33275 4.39303 3.89910
# Velocity P-wave (km/s) = 6.04913 7.18840 6.64324
#
# Compressibility (1/GPa) = 0.01680469
#
# Stress axis : x y z
#
# Youngs Moduli (GPa) = 99.96564 70.05711 143.28975
#
# Poissons Ratio (x) = 0.26964 0.49566
# Poissons Ratio (y) = 0.38475 -0.01177
# Poissons Ratio (z) = 0.34579 -0.00575
#
# Static dielectric constant tensor:
#      x y z
#    x 2.585980 0.000000 -0.624030 
#    y 0.000000 2.172050 0.000000 
#    z -0.624030 0.000000 4.802700 
# 
# From -- ./inp_files/66759.got.cif
#   From: 2010.05.17/outbox.cif.g08.bks.cpg/sg15_34_cif.got.tgz:66759.got - 2010.06.03 18:47:42.
