data_PCOD9253423
_publ_section_title
;
Structure prediction by ZEFSAII (Michael W. Deem and Ramdas Pophale) SiO2 
 PCOD9253423
Probable space group: P 21/C
;
_chemical_formula_sum "Si O2"
_cell_formula_units_Z 12
_cell_length_a 4.770578
_cell_length_b 16.468172
_cell_length_c 5.181296
_cell_angle_alpha 90.000000
_cell_angle_beta 80.674914
_cell_angle_gamma 90.000000
_cell_volume 401.677291
_symmetry_space_group_name_H-M "P 21/C"
_symmetry_group_IT_number 14
_symmetry_cell_setting 'monoclinic'
loop_
_space_group_symop_operation_xyz
x,y,z
-x,1/2+y,1/2-z
-x,-y,-z
x,1/2-y,1/2+z
loop_
_atom_site_type_symbol
_atom_site_label
_atom_site_fract_x
_atom_site_fract_y
_atom_site_fract_z
Si Si1 0.190532 0.419893 0.430049
Si Si2 0.500000 0.191618 0.250000
Si Si3 0.809468 0.419893 0.069951
O O1 0.270326 0.372006 0.675807
O O2 0.500000 0.437290 0.250000
O O3 0.000000 0.500000 0.500000
O O4 1.000000 0.369973 0.250000
O O5 0.500000 0.250000 0.500001
O O6 0.729673 0.127994 0.324192
O O7 0.000000 0.500000 0.000000
#
# Coordination Sequence:
#
# PCOD9253423 Si02
#       3
#     4   4   4
#     4  12  31  55  97 141 187 249 328 397 473 576
#     4  12  30  62  92 140 196 254 312 400 494 576
#     4  12  31  55  97 141 187 249 328 397 473 576
#
# _framework density 29.874728999999999
#
# number of rings (size 3 to 8) (size 9 to 14) (size 15 to 20)
#    0.000    0.000    3.333    2.000   14.000    2.667 
#    0.000    0.000    0.000    4.000    0.000    0.000 
#    0.000    0.000    0.000    0.000    0.000    0.000 
#
# Total GULP energy -67135.252406 kJ/mol
# GULP energy per Si atom -5594.604367 kJ/mol
# Density = 2.980673 g / cm^3
# Si number density = 29.874729 Si / 1000 Ang^3
#
#
#
# Elastic Constant Matrix: (Units=GPa)
#
#
# Indices 1 2 3 4 5 6 
#
# 1 301.0593 104.5143 110.5883 0.0000 54.4604 0.0000
# 2 104.5143 217.6467 114.9177 0.0000 25.0050 0.0000
# 3 110.5883 114.9177 376.3549 0.0000 71.0996 0.0000
# 4 0.0000 0.0000 0.0000 71.9004 0.0000 11.7244
# 5 54.4604 25.0050 71.0996 0.0000 79.1191 0.0000
# 6 0.0000 0.0000 0.0000 11.7244 0.0000 19.5136
#
#
#
# Elastic Compliance Matrix: (Units=1/GPa)
#
#
# Indices 1 2 3 4 5 6 
#
# 1 0.004439 -0.001681 -0.000379 0.000000 -0.002184 0.000000
# 2 -0.001681 0.006119 -0.001479 0.000000 0.000552 0.000000
# 3 -0.000379 -0.001479 0.003713 0.000000 -0.002608 0.000000
# 4 0.000000 0.000000 0.000000 0.015419 0.000000 -0.009264
# 5 -0.002184 0.000552 -0.002608 0.000000 0.016312 0.000000
# 6 0.000000 0.000000 0.000000 -0.009264 0.000000 0.056812
#
#
# Mechanical properties :
#
#
# Convention : Reuss Voigt Hill
#
# Bulk Modulus (GPa) = 138.99459 172.78905 155.89182
# Shear Modulus (GPa) = 44.52781 71.77599 58.15190
#
# Velocity S-wave (km/s) = 3.86487 4.90691 4.41673
# Velocity P-wave (km/s) = 8.15739 9.49037 8.84902
#
# Compressibility (1/GPa) = 0.00719452
#
# Stress axis : x y z
#
# Youngs Moduli (GPa) = 225.25861 163.42021 269.35244
#
# Poissons Ratio (x) = 0.27470 0.10196
# Poissons Ratio (y) = 0.37865 0.39832
# Poissons Ratio (z) = 0.08527 0.24167
#
# Static dielectric constant tensor:
#      x y z
#    x 2.640870 0.000000 -0.351350 
#    y 0.000000 2.493030 0.000000 
#    z -0.351350 0.000000 2.862880 
# 
# From -- ./inp_files/99.got.cif
#   From: 2010.05.17/outbox.cif.g08.bks.cpg/sg14_1_cif.got.tgz:99.got - 2010.06.03 17:49:19.
