data_PCOD9253853
_publ_section_title
;
Structure prediction by ZEFSAII (Michael W. Deem and Ramdas Pophale) SiO2 
 PCOD9253853
Probable space group: C 2/C
;
_chemical_formula_sum "Si O2"
_cell_formula_units_Z 52
_cell_length_a 21.129311
_cell_length_b 7.877405
_cell_length_c 11.632208
_cell_angle_alpha 90.000000
_cell_angle_beta 88.787568
_cell_angle_gamma 90.000000
_cell_volume 1935.679393
_symmetry_space_group_name_H-M "C 2/C"
_symmetry_group_IT_number 15
_symmetry_cell_setting 'monoclinic'
loop_
_space_group_symop_operation_xyz
x,y,z
-x,y,1/2-z
-x,-y,-z
x,-y,1/2+z
1/2+x,1/2+y,z
1/2-x,1/2+y,1/2-z
1/2-x,1/2-y,-z
1/2+x,1/2-y,1/2+z
loop_
_atom_site_type_symbol
_atom_site_label
_atom_site_fract_x
_atom_site_fract_y
_atom_site_fract_z
Si Si1 0.795040 0.662453 0.089643
Si Si2 0.393980 0.595994 0.226294
Si Si3 0.000000 0.347779 0.250000
Si Si4 0.917892 0.758085 0.126115
Si Si5 0.105440 0.565607 0.133310
Si Si6 0.450273 0.376218 0.436141
Si Si7 0.785789 0.364896 0.254693
O O1 0.868289 0.664794 0.045831
O O2 0.779462 0.477960 0.140634
O O3 0.779983 0.792587 0.196392
O O4 0.750000 0.750000 0.000000
O O5 0.449176 0.727258 0.190977
O O6 0.394867 0.452699 0.129331
O O7 0.417040 0.501000 0.342607
O O8 0.329904 0.699333 0.237686
O O9 0.045429 0.436430 0.152828
O O10 0.903008 0.665453 0.244954
O O11 0.992089 0.756975 0.112698
O O12 0.099673 0.720016 0.041564
O O13 0.173783 0.477765 0.155116
O O14 0.500000 0.500000 0.500000
#
# Coordination Sequence:
#
# PCOD9253853 Si02
#       7
#     8   8   4   8   8   8   8
#     4  11  25  46  69  93 129 177 226 276 322 385
#     4  10  19  36  62  89 118 163 205 257 321 393
#     4  10  14  30  58  82 110 148 200 232 300 382
#     4  10  19  39  61  85 123 168 210 256 321 385
#     4   9  18  36  62  84 121 161 202 263 322 383
#     4  11  21  35  58  95 127 159 201 262 326 392
#     4  10  23  43  68  93 125 170 219 275 329 381
#
# _framework density 26.863954
#
# number of rings (size 3 to 8) (size 9 to 14) (size 15 to 20)
#    0.000    1.846    3.077    1.846    2.154    0.000 
#    2.769    4.615    0.000    0.000    0.000    0.000 
#    0.000    0.000    0.000    0.000    0.000    0.000 
#
# Total GULP energy -144942.942843 kJ/mol
# GULP energy per Si atom -5574.728571 kJ/mol
# Density = 2.680281 g / cm^3
# Si number density = 26.863954 Si / 1000 Ang^3
#
#
#
# Elastic Constant Matrix: (Units=GPa)
#
#
# Indices 1 2 3 4 5 6 
#
# 1 134.4879 14.2939 -10.7471 0.0000 -8.2698 0.0000
# 2 14.2939 76.6482 -21.2472 0.0000 -12.2179 0.0000
# 3 -10.7471 -21.2472 43.0938 0.0000 12.3838 0.0000
# 4 0.0000 0.0000 0.0000 29.6379 0.0000 6.2804
# 5 -8.2698 -12.2179 12.3838 0.0000 23.1141 0.0000
# 6 0.0000 0.0000 0.0000 6.2804 0.0000 41.3076
#
#
#
# Elastic Compliance Matrix: (Units=1/GPa)
#
#
# Indices 1 2 3 4 5 6 
#
# 1 0.007717 -0.000886 0.000980 0.000000 0.001768 0.000000
# 2 -0.000886 0.015663 0.006162 0.000000 0.004661 0.000000
# 3 0.000980 0.006162 0.030083 0.000000 -0.012509 0.000000
# 4 0.000000 0.000000 0.000000 0.034864 0.000000 -0.005301
# 5 0.001768 0.004661 -0.012509 0.000000 0.053062 0.000000
# 6 0.000000 0.000000 0.000000 -0.005301 0.000000 0.025015
#
#
# Mechanical properties :
#
#
# Convention : Reuss Voigt Hill
#
# Bulk Modulus (GPa) = 15.15722 24.31433 19.73578
# Shear Modulus (GPa) = 28.42821 36.94060 32.68440
#
# Velocity S-wave (km/s) = 3.25657 3.71226 3.49186
# Velocity P-wave (km/s) = 4.44914 5.23880 4.86003
#
# Compressibility (1/GPa) = 0.06597515
#
# Stress axis : x y z
#
# Youngs Moduli (GPa) = 129.58833 63.84485 33.24175
#
# Poissons Ratio (x) = 0.05655 -0.03257
# Poissons Ratio (y) = 0.11477 -0.20485
# Poissons Ratio (z) = -0.12697 -0.39343
#
# Static dielectric constant tensor:
#      x y z
#    x 2.082640 0.000000 -0.081040 
#    y 0.000000 2.313680 0.000000 
#    z -0.081040 0.000000 2.373030 
# 
# From -- ./inp_files/171419.got.cif
#   From: 2010.05.17/outbox.cif.g08.bks.cpg/sg15_86_cif.got.tgz:171419.got - 2010.06.03 18:47:42.
