data_PCOD9253313
_publ_section_title
;
Structure prediction by ZEFSAII (Michael W. Deem and Ramdas Pophale) SiO2 
 PCOD9253313
Probable space group: P 21/C
;
_chemical_formula_sum "Si O2"
_cell_formula_units_Z 18
_cell_length_a 6.960954
_cell_length_b 13.328496
_cell_length_c 10.960806
_cell_angle_alpha 90.000000
_cell_angle_beta 141.190500
_cell_angle_gamma 90.000000
_cell_volume 637.345581
_symmetry_space_group_name_H-M "P 21/C"
_symmetry_group_IT_number 14
_symmetry_cell_setting 'monoclinic'
loop_
_space_group_symop_operation_xyz
x,y,z
-x,1/2+y,1/2-z
-x,-y,-z
x,1/2-y,1/2+z
loop_
_atom_site_type_symbol
_atom_site_label
_atom_site_fract_x
_atom_site_fract_y
_atom_site_fract_z
Si Si1 0.500000 0.000000 0.500000
Si Si2 0.959607 0.163480 0.207551
Si Si3 0.466813 0.169171 0.173985
Si Si4 0.381416 0.546196 0.664715
Si Si5 0.074841 0.333765 0.111217
O O1 0.208986 0.080214 0.360535
O O2 0.623232 0.045847 0.692704
O O3 0.696472 0.178230 0.175774
O O4 0.103352 0.271711 0.249512
O O5 0.801360 0.128865 0.001925
O O6 0.291093 0.064656 0.076767
O O7 0.714494 0.151029 0.408208
O O8 0.252022 0.262182 0.101408
O O9 0.734023 0.564874 0.795767
#
# Coordination Sequence:
#
# PCOD9253313 Si02
#       5
#     2   4   4   4   4
#     4  12  26  48  84 114 158 218 258 336 408 474
#     4  12  28  51  81 117 162 214 265 342 397 490
#     4  12  28  51  79 117 159 215 267 342 403 480
#     4  12  27  52  77 121 161 209 274 331 406 480
#     4  12  27  50  77 121 159 208 277 326 405 483
#
# _framework density 28.242132000000002
#
# number of rings (size 3 to 8) (size 9 to 14) (size 15 to 20)
#    0.000    0.000    6.667    2.000    3.111    1.778 
#    0.000    0.000    0.000    0.000    0.000    0.000 
#    0.000    0.000    0.000    0.000    0.000    0.000 
#
# Total GULP energy -100586.499845 kJ/mol
# GULP energy per Si atom -5588.138880 kJ/mol
# Density = 2.817785 g / cm^3
# Si number density = 28.242132 Si / 1000 Ang^3
#
#
#
# Elastic Constant Matrix: (Units=GPa)
#
#
# Indices 1 2 3 4 5 6 
#
# 1 83.5496 -21.1558 14.3589 0.0000 -6.3420 0.0000
# 2 -21.1558 68.5478 6.6290 0.0000 12.7089 0.0000
# 3 14.3589 6.6290 147.1210 0.0000 20.2668 0.0000
# 4 0.0000 0.0000 0.0000 52.0639 0.0000 22.0070
# 5 -6.3420 12.7089 20.2668 0.0000 42.1079 0.0000
# 6 0.0000 0.0000 0.0000 22.0070 0.0000 43.3088
#
#
#
# Elastic Compliance Matrix: (Units=1/GPa)
#
#
# Indices 1 2 3 4 5 6 
#
# 1 0.013400 0.003998 -0.001713 0.000000 0.001636 0.000000
# 2 0.003998 0.016646 -0.000569 0.000000 -0.004148 0.000000
# 3 -0.001713 -0.000569 0.007499 0.000000 -0.003696 0.000000
# 4 0.000000 0.000000 0.000000 0.024461 0.000000 -0.012430
# 5 0.001636 -0.004148 -0.003696 0.000000 0.027026 0.000000
# 6 0.000000 0.000000 0.000000 -0.012430 0.000000 0.029406
#
#
# Mechanical properties :
#
#
# Convention : Reuss Voigt Hill
#
# Bulk Modulus (GPa) = 24.40398 33.20917 28.80657
# Shear Modulus (GPa) = 38.86042 47.45522 43.15782
#
# Velocity S-wave (km/s) = 3.71344 4.10359 3.91338
# Velocity P-wave (km/s) = 5.20057 5.85123 5.53547
#
# Compressibility (1/GPa) = 0.04097693
#
# Stress axis : x y z
#
# Youngs Moduli (GPa) = 74.62729 60.07324 133.34958
#
# Poissons Ratio (x) = -0.24017 0.22848
# Poissons Ratio (y) = -0.29836 0.07585
# Poissons Ratio (z) = 0.12786 0.03417
#
# Static dielectric constant tensor:
#      x y z
#    x 2.328390 0.000000 -0.044780 
#    y 0.000000 2.095560 0.000000 
#    z -0.044780 0.000000 2.215900 
# 
# From -- ./inp_files/5263.got.cif
#   From: 2010.05.17/outbox.cif.g08.bks.cpg/sg14_3_cif.got.tgz:5263.got - 2010.06.03 17:49:19.
