data_PCOD9253954
_publ_section_title
;
Structure prediction by ZEFSAII (Michael W. Deem and Ramdas Pophale) SiO2 
 PCOD9253954
Probable space group: C 2/C
;
_chemical_formula_sum "Si O2"
_cell_formula_units_Z 52
_cell_length_a 10.654414
_cell_length_b 22.098272
_cell_length_c 14.769811
_cell_angle_alpha 90.000000
_cell_angle_beta 44.076763
_cell_angle_gamma 90.000000
_cell_volume 2418.999698
_symmetry_space_group_name_H-M "C 2/C"
_symmetry_group_IT_number 15
_symmetry_cell_setting 'monoclinic'
loop_
_space_group_symop_operation_xyz
x,y,z
-x,y,1/2-z
-x,-y,-z
x,-y,1/2+z
1/2+x,1/2+y,z
1/2-x,1/2+y,1/2-z
1/2-x,1/2-y,-z
1/2+x,1/2-y,1/2+z
loop_
_atom_site_type_symbol
_atom_site_label
_atom_site_fract_x
_atom_site_fract_y
_atom_site_fract_z
Si Si1 0.000000 0.670186 0.250000
Si Si2 0.301129 0.469472 0.092362
Si Si3 0.699220 0.620338 0.605342
Si Si4 0.521181 0.362634 0.002971
Si Si5 0.287923 0.517300 0.388042
Si Si6 0.322800 0.922884 0.728666
Si Si7 0.680124 0.245766 0.932873
O O1 0.017299 0.621553 0.323208
O O2 0.157542 0.716608 0.196363
O O3 0.339224 0.401146 0.105354
O O4 0.257981 0.468791 0.008748
O O5 0.500000 0.500000 0.000000
O O6 0.177758 0.513418 0.216203
O O7 0.500000 0.630648 0.750000
O O8 0.647437 0.623464 0.524957
O O9 0.759825 0.553266 0.599159
O O10 0.819424 0.674801 0.582940
O O11 0.638743 0.388913 0.857981
O O12 0.510746 0.289835 0.005678
O O13 0.500000 0.521594 0.250000
O O14 0.186695 0.560308 0.370681
O O15 0.750000 0.250000 0.000000
#
# Coordination Sequence:
#
# PCOD9253954 Si02
#       7
#     4   8   8   8   8   8   8
#     4  10  20  36  48  70 108 136 168 192 268 306
#     4  10  15  28  46  71 100 125 160 211 247 290
#     4  10  16  25  42  72 102 120 159 205 248 295
#     4   9  16  28  45  67  98 128 156 204 254 287
#     4  11  17  26  48  77 100 123 167 200 251 301
#     4  10  19  31  47  68 104 138 157 208 248 305
#     4   9  18  30  49  70  98 135 164 208 251 293
#
# _framework density 21.496489
#
# number of rings (size 3 to 8) (size 9 to 14) (size 15 to 20)
#    0.000    2.154    6.923    0.923    0.000    0.000 
#    0.000    0.769    0.000    0.000    0.000    8.615 
#    4.615    0.000    0.000    0.000    0.000    0.000 
#
# Total GULP energy -144838.670641 kJ/mol
# GULP energy per Si atom -5570.718102 kJ/mol
# Density = 2.144756 g / cm^3
# Si number density = 21.496489 Si / 1000 Ang^3
#
#
#
# Elastic Constant Matrix: (Units=GPa)
#
#
# Indices 1 2 3 4 5 6 
#
# 1 50.8621 39.5721 31.3316 0.0000 12.8480 0.0001
# 2 39.5721 146.1318 13.0870 0.0000 13.2579 0.0000
# 3 31.3316 13.0870 51.4508 0.0000 24.0559 0.0001
# 4 0.0000 0.0000 0.0000 20.5403 0.0000 6.7288
# 5 12.8480 13.2579 24.0559 0.0000 34.4389 -0.0001
# 6 0.0001 0.0000 0.0001 6.7288 -0.0001 31.3210
#
#
#
# Elastic Compliance Matrix: (Units=1/GPa)
#
#
# Indices 1 2 3 4 5 6 
#
# 1 0.041173 -0.009416 -0.025528 0.000000 0.006096 0.000000
# 2 -0.009416 0.009266 0.005053 0.000000 -0.003584 0.000000
# 3 -0.025528 0.005053 0.044776 0.000000 -0.023698 0.000000
# 4 0.000000 0.000000 0.000000 0.052370 0.000000 -0.011251
# 5 0.006096 -0.003584 -0.023698 0.000000 0.044696 0.000000
# 6 0.000000 0.000000 0.000000 -0.011251 0.000000 0.034345
#
#
# Mechanical properties :
#
#
# Convention : Reuss Voigt Hill
#
# Bulk Modulus (GPa) = 28.22281 46.26954 37.24618
# Shear Modulus (GPa) = 16.76624 28.22366 22.49495
#
# Velocity S-wave (km/s) = 2.79579 3.62739 3.23839
# Velocity P-wave (km/s) = 4.85587 6.25419 5.59885
#
# Compressibility (1/GPa) = 0.03543233
#
# Stress axis : x y z
#
# Youngs Moduli (GPa) = 24.28800 107.92537 22.33319
#
# Poissons Ratio (x) = 1.01626 0.57011
# Poissons Ratio (y) = 0.22870 -0.11285
# Poissons Ratio (z) = 0.62002 -0.54533
#
# Static dielectric constant tensor:
#      x y z
#    x 2.358160 0.000000 -0.619080 
#    y 0.000000 1.879430 0.000000 
#    z -0.619080 0.000000 2.459960 
# 
# From -- ./inp_files/146383.got.cif
#   From: 2010.05.17/outbox.cif.g08.bks.cpg/sg15_74_cif.got.tgz:146383.got - 2010.06.03 18:47:42.
