data_PCOD9253690
_publ_section_title
;
Structure prediction by ZEFSAII (Michael W. Deem and Ramdas Pophale) SiO2 
 PCOD9253690
Probable space group: P 21/C
;
_chemical_formula_sum "Si O2"
_cell_formula_units_Z 32
_cell_length_a 12.000000
_cell_length_b 15.000000
_cell_length_c 18.000000
_cell_angle_alpha 90.000000
_cell_angle_beta 150.000000
_cell_angle_gamma 90.000000
_cell_volume 1620.000000
_symmetry_space_group_name_H-M "P 21/C"
_symmetry_group_IT_number 14
_symmetry_cell_setting 'monoclinic'
loop_
_space_group_symop_operation_xyz
x,y,z
-x,1/2+y,1/2-z
-x,-y,-z
x,1/2-y,1/2+z
loop_
_atom_site_type_symbol
_atom_site_label
_atom_site_fract_x
_atom_site_fract_y
_atom_site_fract_z
Si Si1 0.419252 0.314484 0.429906
Si Si2 0.862652 0.377242 0.744852
Si Si3 0.308293 0.313415 0.654919
Si Si4 0.173740 0.979983 0.352023
Si Si5 0.087010 0.182708 0.872628
Si Si6 0.727554 0.416960 0.835031
Si Si7 0.772067 0.616243 0.831451
Si Si8 0.610768 0.612605 0.142963
O O1 0.654848 0.363158 0.570676
O O2 0.297945 0.320706 0.439088
O O3 0.285862 0.362281 0.287065
O O4 0.440218 0.209807 0.421759
O O5 0.771190 0.391403 0.774659
O O6 0.005528 0.463046 0.804805
O O7 0.994273 0.283596 0.815899
O O8 0.146400 0.334485 0.492786
O O9 0.545744 0.351708 0.765279
O O10 0.298234 0.206560 0.664837
O O11 0.267050 0.364052 0.709191
O O12 0.380593 0.942018 0.519159
O O13 0.072415 0.894139 0.251731
O O14 0.253930 0.051310 0.336277
O O15 0.668404 0.522877 0.801215
O O16 0.964369 0.400002 0.010437
#
# Coordination Sequence:
#
# PCOD9253690 Si02
#       8
#     4   4   4   4   4   4   4   4
#     4  11  23  44  67  97 135 171 227 274 325 398
#     4  12  24  42  70 101 133 174 222 278 331 394
#     4  11  25  44  66  98 135 170 221 277 332 394
#     4  11  25  43  70  97 133 177 225 269 333 401
#     4  12  24  42  67 100 135 173 216 281 336 389
#     4  11  24  44  67 100 131 174 219 271 341 399
#     4  10  25  43  67  96 131 179 217 269 336 395
#     4  10  24  46  66  96 131 181 223 265 331 408
#
# _framework density 19.753086
#
# number of rings (size 3 to 8) (size 9 to 14) (size 15 to 20)
#    0.000    1.000    5.000    0.750    7.000    1.500 
#    2.250    0.000    0.000    0.000    0.000    0.000 
#    0.000    0.000    0.000    0.000    0.000    0.000 
#
# Total GULP energy -178771.676257 kJ/mol
# GULP energy per Si atom -5586.614883 kJ/mol
# Density = 1.970813 g / cm^3
# Si number density = 19.753086 Si / 1000 Ang^3
#
#
#
# Elastic Constant Matrix: (Units=GPa)
#
#
# Indices 1 2 3 4 5 6 
#
# 1 54.9231 18.4701 13.9334 0.0000 -7.5706 0.0000
# 2 18.4701 121.3674 30.4718 0.0000 8.1588 0.0000
# 3 13.9334 30.4718 78.5794 0.0000 -23.9602 0.0000
# 4 0.0000 0.0000 0.0000 36.0433 0.0000 5.7179
# 5 -7.5706 8.1588 -23.9602 0.0000 27.8866 0.0000
# 6 0.0000 0.0000 0.0000 5.7179 0.0000 31.9784
#
#
#
# Elastic Compliance Matrix: (Units=1/GPa)
#
#
# Indices 1 2 3 4 5 6 
#
# 1 0.020303 -0.003403 -0.000401 0.000000 0.006163 0.000000
# 2 -0.003403 0.011124 -0.006754 0.000000 -0.009981 0.000000
# 3 -0.000401 -0.006754 0.021660 0.000000 0.020477 0.000000
# 4 0.000000 0.000000 0.000000 0.028554 0.000000 -0.005106
# 5 0.006163 -0.009981 0.020477 0.000000 0.058047 0.000000
# 6 0.000000 0.000000 0.000000 -0.005106 0.000000 0.032184
#
#
# Mechanical properties :
#
#
# Convention : Reuss Voigt Hill
#
# Bulk Modulus (GPa) = 31.27866 42.29117 36.78492
# Shear Modulus (GPa) = 24.55246 31.98130 28.26688
#
# Velocity S-wave (km/s) = 3.52940 4.02811 3.78697
# Velocity P-wave (km/s) = 5.69895 6.56435 6.14690
#
# Compressibility (1/GPa) = 0.03197068
#
# Stress axis : x y z
#
# Youngs Moduli (GPa) = 49.25360 89.89551 46.16820
#
# Poissons Ratio (x) = 0.30595 0.01852
# Poissons Ratio (y) = 0.16763 0.31181
# Poissons Ratio (z) = 0.01975 0.60713
#
# Static dielectric constant tensor:
#      x y z
#    x 1.685530 0.000000 0.004570 
#    y 0.000000 1.662840 0.000000 
#    z 0.004570 0.000000 1.719060 
# 
# From -- ./inp_files/58036.got.cif
#   From: 2010.05.17/outbox.ucp.g08.bks.cvg/sg14_30_cif.got.tgz:58036.got - 2010.06.11 12:31:08.
