data_PCOD9253779
_publ_section_title
;
Structure prediction by ZEFSAII (Michael W. Deem and Ramdas Pophale) SiO2 
 PCOD9253779
Probable space group: C 2/C
;
_chemical_formula_sum "Si O2"
_cell_formula_units_Z 36
_cell_length_a 6.900454
_cell_length_b 12.597784
_cell_length_c 17.786590
_cell_angle_alpha 90.000000
_cell_angle_beta 61.251379
_cell_angle_gamma 90.000000
_cell_volume 1355.609213
_symmetry_space_group_name_H-M "C 2/C"
_symmetry_group_IT_number 15
_symmetry_cell_setting 'monoclinic'
loop_
_space_group_symop_operation_xyz
x,y,z
-x,y,1/2-z
-x,-y,-z
x,-y,1/2+z
1/2+x,1/2+y,z
1/2-x,1/2+y,1/2-z
1/2-x,1/2-y,-z
1/2+x,1/2-y,1/2+z
loop_
_atom_site_type_symbol
_atom_site_label
_atom_site_fract_x
_atom_site_fract_y
_atom_site_fract_z
Si Si1 0.042824 0.481525 0.365421
Si Si2 0.510477 0.740959 0.080763
Si Si3 0.171259 0.086910 0.503520
Si Si4 0.821240 0.928618 0.188424
Si Si5 0.500000 0.730817 0.250000
O O1 0.046747 0.361598 0.392238
O O2 0.929683 0.557385 0.447533
O O3 0.845721 0.483123 0.339802
O O4 0.265795 0.492206 0.275497
O O5 0.364260 0.687140 0.044032
O O6 0.512101 0.683425 0.162723
O O7 0.750000 0.750000 0.000000
O O8 0.060526 0.086944 0.606900
O O9 0.000000 0.000000 0.500000
O O10 0.714906 0.809651 0.214427
#
# Coordination Sequence:
#
# PCOD9253779 Si02
#       5
#     8   8   8   8   4
#     4   8  15  22  33  58  89 112 149 192 230 278
#     4  10  14  23  36  56  90 119 147 198 231 281
#     4  10  14  21  39  58  85 123 149 187 247 274
#     4   7  12  22  32  50  84 107 138 186 220 268
#     4   8  14  22  32  52  84 110 142 184 228 262
#
# _framework density 26.556324
#
# number of rings (size 3 to 8) (size 9 to 14) (size 15 to 20)
#    0.000    4.000    6.667    0.000    0.000    0.000 
#    0.000    0.000    0.000    0.000    0.000    1.556 
#    0.000  307.556    0.000    0.000    0.000   12.444 
#
# Total GULP energy -100319.592784 kJ/mol
# GULP energy per Si atom -5573.310710 kJ/mol
# Density = 2.649588 g / cm^3
# Si number density = 26.556324 Si / 1000 Ang^3
#
#
#
# Elastic Constant Matrix: (Units=GPa)
#
#
# Indices 1 2 3 4 5 6 
#
# 1 92.2626 26.1369 90.1574 0.0000 -0.1707 0.0001
# 2 26.1369 53.7061 56.4622 0.0000 -11.2149 0.0000
# 3 90.1574 56.4622 293.1607 0.0000 -28.4421 0.0000
# 4 0.0000 0.0000 0.0000 47.5818 0.0000 -3.6804
# 5 -0.1707 -11.2149 -28.4421 0.0000 54.2914 0.0000
# 6 0.0001 0.0000 0.0000 -3.6804 0.0000 17.2837
#
#
#
# Elastic Compliance Matrix: (Units=1/GPa)
#
#
# Indices 1 2 3 4 5 6 
#
# 1 0.016430 -0.003788 -0.004629 0.000000 -0.003156 0.000000
# 2 -0.003788 0.024574 -0.003241 0.000000 0.003366 0.000000
# 3 -0.004629 -0.003241 0.005681 0.000000 0.002292 0.000000
# 4 0.000000 0.000000 0.000000 0.021368 0.000000 0.004550
# 5 -0.003156 0.003366 0.002292 0.000000 0.020305 0.000000
# 6 0.000000 0.000000 0.000000 0.004550 0.000000 0.058827
#
#
# Mechanical properties :
#
#
# Convention : Reuss Voigt Hill
#
# Bulk Modulus (GPa) = 42.79389 87.18248 64.98819
# Shear Modulus (GPa) = 28.04386 41.58956 34.81671
#
# Velocity S-wave (km/s) = 3.25316 3.96168 3.62477
# Velocity P-wave (km/s) = 5.50092 7.33669 6.48410
#
# Compressibility (1/GPa) = 0.02336782
#
# Stress axis : x y z
#
# Youngs Moduli (GPa) = 60.86599 40.69346 176.01087
#
# Poissons Ratio (x) = 0.15414 0.81481
# Poissons Ratio (y) = 0.23055 0.57053
# Poissons Ratio (z) = 0.28177 0.13191
#
# Static dielectric constant tensor:
#      x y z
#    x 2.035370 0.000000 0.052140 
#    y 0.000000 2.210360 0.000000 
#    z 0.052140 0.000000 2.306620 
# 
# From -- ./inp_files/188309.got.cif
#   From: 2010.05.17/outbox.cif.g08.bks.cpg/sg15_95_cif.got.tgz:188309.got - 2010.06.03 18:47:42.
