data_PCOD9253046
_publ_section_title
;
Structure prediction by ZEFSAII (Michael W. Deem and Ramdas Pophale) SiO2 
 PCOD9253046
Probable space group: P 21/C
;
_chemical_formula_sum "Si O2"
_cell_formula_units_Z 24
_cell_length_a 28.754179
_cell_length_b 4.969584
_cell_length_c 14.815013
_cell_angle_alpha 90.000000
_cell_angle_beta 29.778668
_cell_angle_gamma 90.000000
_cell_volume 1051.415134
_symmetry_space_group_name_H-M "P 21/C"
_symmetry_group_IT_number 14
_symmetry_cell_setting 'monoclinic'
loop_
_space_group_symop_operation_xyz
x,y,z
-x,1/2+y,1/2-z
-x,-y,-z
x,1/2-y,1/2+z
loop_
_atom_site_type_symbol
_atom_site_label
_atom_site_fract_x
_atom_site_fract_y
_atom_site_fract_z
Si Si1 0.018032 0.574850 0.866611
Si Si2 0.323885 0.569636 0.908792
Si Si3 0.391347 0.428534 0.184718
Si Si4 0.817143 0.066806 0.629245
Si Si5 0.138652 0.423083 0.141609
Si Si6 0.701983 0.928011 0.355669
O O1 0.050087 0.881144 0.802412
O O2 0.102720 0.380177 0.694175
O O3 0.000000 0.500000 0.000000
O O4 0.923156 0.506489 0.974893
O O5 0.338577 0.860178 0.839560
O O6 0.376335 0.360879 0.755338
O O7 0.214029 0.483996 0.091643
O O8 0.353627 0.531163 0.962703
O O9 0.352578 0.437219 0.147575
O O10 0.500000 0.500000 0.000000
O O11 0.808903 0.006727 0.537540
O O12 0.789682 0.370179 0.695899
O O13 0.743376 0.869273 0.801419
#
# Coordination Sequence:
#
# PCOD9253046 Si02
#       6
#     4   4   4   4   4   4
#     4  12  24  38  59  96 132 174 228 269 314 382
#     4  12  25  45  72  99 134 178 218 270 337 396
#     4  12  26  47  71 101 134 168 218 280 335 404
#     4  12  23  42  65  96 135 178 225 269 324 385
#     4  12  22  41  63  91 133 177 220 269 324 382
#     4  12  24  45  70  99 135 177 220 271 332 397
#
# _framework density 22.826377999999998
#
# number of rings (size 3 to 8) (size 9 to 14) (size 15 to 20)
#    0.000    0.000    3.333    8.000    0.000    1.333 
#    0.000    0.000    0.000    0.000    0.000    0.000 
#    0.000    0.000    0.000    0.000    0.000    0.000 
#
# Total GULP energy -134442.808291 kJ/mol
# GULP energy per Si atom -5601.783679 kJ/mol
# Density = 2.277442 g / cm^3
# Si number density = 22.826378 Si / 1000 Ang^3
#
#
#
# Elastic Constant Matrix: (Units=GPa)
#
#
# Indices 1 2 3 4 5 6 
#
# 1 87.4845 -1.0558 36.3840 0.0000 23.2852 0.0000
# 2 -1.0558 61.6232 -8.7717 0.0000 -2.2520 0.0000
# 3 36.3840 -8.7717 48.8482 0.0000 -5.7641 0.0000
# 4 0.0000 0.0000 0.0000 23.7560 0.0000 -0.0883
# 5 23.2852 -2.2520 -5.7641 0.0000 52.0569 0.0000
# 6 0.0000 0.0000 0.0000 -0.0883 0.0000 22.2224
#
#
#
# Elastic Compliance Matrix: (Units=1/GPa)
#
#
# Indices 1 2 3 4 5 6 
#
# 1 0.022369 -0.002707 -0.018585 0.000000 -0.012181 0.000000
# 2 -0.002707 0.017040 0.005376 0.000000 0.002543 0.000000
# 3 -0.018585 0.005376 0.036769 0.000000 0.012617 0.000000
# 4 0.000000 0.000000 0.000000 0.042095 0.000000 0.000167
# 5 -0.012181 0.002543 0.012617 0.000000 0.026165 0.000000
# 6 0.000000 0.000000 0.000000 0.000167 0.000000 0.045000
#
#
# Mechanical properties :
#
#
# Convention : Reuss Voigt Hill
#
# Bulk Modulus (GPa) = 22.55009 27.89653 25.22331
# Shear Modulus (GPa) = 21.18176 31.03369 26.10772
#
# Velocity S-wave (km/s) = 3.04953 3.69121 3.38561
# Velocity P-wave (km/s) = 4.72228 5.51493 5.13393
#
# Compressibility (1/GPa) = 0.04434572
#
# Stress axis : x y z
#
# Youngs Moduli (GPa) = 44.70397 58.68706 27.19707
#
# Poissons Ratio (x) = 0.15889 0.50546
# Poissons Ratio (y) = 0.12103 -0.14622
# Poissons Ratio (z) = 0.83083 -0.31553
#
# Static dielectric constant tensor:
#      x y z
#    x 0.333330 0.000000 0.937010 
#    y 0.000000 1.830940 0.000000 
#    z 0.937010 0.000000 1.293760 
# 
# From -- ./inp_files/52112.got.cif
#   From: 2010.05.17/outbox.cif.g08.bks.cpg/sg14_27_cif.got.tgz:52112.got - 2010.06.03 17:49:19.
