data_PCOD9253807
_publ_section_title
;
Structure prediction by ZEFSAII (Michael W. Deem and Ramdas Pophale) SiO2 
 PCOD9253807
Probable space group: C 2/C
;
_chemical_formula_sum "Si O2"
_cell_formula_units_Z 60
_cell_length_a 7.520697
_cell_length_b 21.810689
_cell_length_c 17.743663
_cell_angle_alpha 90.000000
_cell_angle_beta 112.723122
_cell_angle_gamma 90.000000
_cell_volume 2684.613121
_symmetry_space_group_name_H-M "C 2/C"
_symmetry_group_IT_number 15
_symmetry_cell_setting 'monoclinic'
loop_
_space_group_symop_operation_xyz
x,y,z
-x,y,1/2-z
-x,-y,-z
x,-y,1/2+z
1/2+x,1/2+y,z
1/2-x,1/2+y,1/2-z
1/2-x,1/2-y,-z
1/2+x,1/2-y,1/2+z
loop_
_atom_site_type_symbol
_atom_site_label
_atom_site_fract_x
_atom_site_fract_y
_atom_site_fract_z
Si Si1 0.702878 0.630419 0.707675
Si Si2 0.775206 0.077038 0.948187
Si Si3 0.754116 0.939051 0.970990
Si Si4 0.693723 0.636135 0.159189
Si Si5 0.000000 0.955305 0.750000
Si Si6 0.786294 0.811893 0.552306
Si Si7 0.234695 0.226792 0.287597
Si Si8 0.284428 0.431753 0.145364
O O1 0.775114 0.605968 0.640022
O O2 0.705563 0.703225 0.711170
O O3 0.806691 0.600397 0.796738
O O4 0.484548 0.605711 0.671290
O O5 0.696456 0.008753 0.943708
O O6 0.714041 0.126682 0.000096
O O7 0.009842 0.067691 0.991512
O O8 0.695491 0.895807 0.891656
O O9 0.695316 0.927701 0.047918
O O10 0.602917 0.585481 0.202372
O O11 0.514822 0.674834 0.095985
O O12 0.797777 0.683998 0.229976
O O13 0.849628 0.999854 0.681490
O O14 0.750000 0.750000 0.500000
O O15 0.705468 0.801010 0.622400
O O16 0.000000 0.226170 0.250000
#
# Coordination Sequence:
#
# PCOD9253807 Si02
#       8
#     8   8   8   8   4   8   8   8
#     4   9  16  29  41  63  91 119 151 176 220 269
#     4   9  15  24  42  63  90 115 136 182 226 277
#     4   9  16  26  39  65  90 115 145 174 230 274
#     4  10  18  27  41  64  97 122 138 186 233 274
#     4  10  14  26  42  66  98 112 136 180 244 278
#     4  10  16  25  40  61  89 116 147 179 220 271
#     4  10  19  29  42  64  95 122 150 183 226 272
#     4   9  18  27  47  66  92 120 146 185 217 276
#
# _framework density 22.349589000000002
#
# number of rings (size 3 to 8) (size 9 to 14) (size 15 to 20)
#    0.000    2.667    3.333    4.000    0.000    0.000 
#    0.000    0.667    0.000    0.000    0.000    0.933 
#   36.000    0.000    0.000    0.000    0.000    0.000 
#
# Total GULP energy -167446.931690 kJ/mol
# GULP energy per Si atom -5581.564390 kJ/mol
# Density = 2.229872 g / cm^3
# Si number density = 22.349589 Si / 1000 Ang^3
#
#
#
# Elastic Constant Matrix: (Units=GPa)
#
#
# Indices 1 2 3 4 5 6 
#
# 1 42.4991 29.3861 4.9540 0.0000 23.1793 0.0000
# 2 29.3861 201.6394 116.8040 0.0000 -17.6334 0.0000
# 3 4.9540 116.8040 190.6250 0.0000 -31.2265 0.0000
# 4 0.0000 0.0000 0.0000 -104.8504 0.0000 -177.5536
# 5 23.1793 -17.6334 -31.2265 0.0000 -6.9818 0.0000
# 6 0.0000 0.0000 0.0000 -177.5536 0.0000 -158.5313
#
#
#
# Elastic Compliance Matrix: (Units=1/GPa)
#
#
# Indices 1 2 3 4 5 6 
#
# 1 0.011998 -0.002701 0.005186 0.000000 0.023460 0.000000
# 2 -0.002701 0.008285 -0.005716 0.000000 -0.004330 0.000000
# 3 0.005186 -0.005716 0.007964 0.000000 -0.003965 0.000000
# 4 0.000000 0.000000 0.000000 0.010637 0.000000 -0.011914
# 5 0.023460 -0.004330 -0.003965 0.000000 -0.036677 0.000000
# 6 0.000000 0.000000 0.000000 -0.011914 0.000000 0.007035
#
#
# Mechanical properties :
#
#
# Convention : Reuss Voigt Hill
#
# Bulk Modulus (GPa) = 45.90123 81.89463 63.89793
# Shear Modulus (GPa) = 217.70102 -35.16473 91.26814
#
# Velocity S-wave (km/s) = 9.88021 -3.97091 6.39729
# Velocity P-wave (km/s) = 12.27765 3.96207 9.12246
#
# Compressibility (1/GPa) = 0.02178591
#
# Stress axis : x y z
#
# Youngs Moduli (GPa) = 83.34618 120.69350 125.56503
#
# Poissons Ratio (x) = 0.32603 -0.65122
# Poissons Ratio (y) = 0.22514 0.71771
# Poissons Ratio (z) = -0.43226 0.68987
#
# Static dielectric constant tensor:
#      x y z
#    x 2.030850 0.000000 0.092430 
#    y 0.000000 1.773440 0.000000 
#    z 0.092430 0.000000 1.948730 
# 
# From -- ./inp_files/199260.got.cif
#   From: 2010.05.17/outbox.cif.g08.bks.cpg/sg15_100_cif.got.tgz:199260.got - 2010.06.03 18:47:42.
