data_PCOD9253319
_publ_section_title
;
Structure prediction by ZEFSAII (Michael W. Deem and Ramdas Pophale) SiO2 
 PCOD9253319
Probable space group: P 21/C
;
_chemical_formula_sum "Si O2"
_cell_formula_units_Z 16
_cell_length_a 8.007034
_cell_length_b 16.399965
_cell_length_c 8.745255
_cell_angle_alpha 90.000000
_cell_angle_beta 149.477850
_cell_angle_gamma 90.000000
_cell_volume 583.231333
_symmetry_space_group_name_H-M "P 21/C"
_symmetry_group_IT_number 14
_symmetry_cell_setting 'monoclinic'
loop_
_space_group_symop_operation_xyz
x,y,z
-x,1/2+y,1/2-z
-x,-y,-z
x,1/2-y,1/2+z
loop_
_atom_site_type_symbol
_atom_site_label
_atom_site_fract_x
_atom_site_fract_y
_atom_site_fract_z
Si Si1 0.897973 0.449023 0.768643
Si Si2 0.610568 0.807779 0.064736
Si Si3 0.398082 0.947837 0.270320
Si Si4 0.977778 0.295707 0.408880
O O1 0.600662 0.387845 0.568928
O O2 0.758850 0.492367 0.503300
O O3 0.000000 0.500000 0.000000
O O4 0.249132 0.410078 0.999392
O O5 0.749093 0.807586 0.003425
O O6 0.930313 0.781046 0.411831
O O7 0.372350 0.734539 0.929031
O O8 0.129297 0.878672 0.093067
O O9 0.500000 0.000000 0.500000
#
# Coordination Sequence:
#
# PCOD9253319 Si02
#       4
#     4   4   4   4
#     4  12  28  51  79 119 164 213 269 336 408 485
#     4  12  26  49  79 113 154 207 266 330 399 479
#     4  12  28  51  79 119 164 213 269 336 408 485
#     4  12  26  49  79 113 154 207 266 330 399 479
#
# _framework density 27.433368999999999
#
# number of rings (size 3 to 8) (size 9 to 14) (size 15 to 20)
#    0.000    0.000    0.000   10.500    0.000   10.000 
#    0.000    5.000    0.000    0.000    0.000    0.000 
#    0.000    0.000    0.000    0.000    0.000    0.000 
#
# Total GULP energy -89508.599301 kJ/mol
# GULP energy per Si atom -5594.287456 kJ/mol
# Density = 2.737093 g / cm^3
# Si number density = 27.433369 Si / 1000 Ang^3
#
#
#
# Elastic Constant Matrix: (Units=GPa)
#
#
# Indices 1 2 3 4 5 6 
#
# 1 226.3838 85.9649 81.9568 0.0000 14.1160 0.0000
# 2 85.9649 113.9186 46.8573 0.0000 -22.2294 0.0000
# 3 81.9568 46.8573 195.5755 0.0000 -41.7116 0.0000
# 4 0.0000 0.0000 0.0000 50.7022 0.0000 27.3436
# 5 14.1160 -22.2294 -41.7116 0.0000 69.6447 0.0000
# 6 0.0000 0.0000 0.0000 27.3436 0.0000 51.2685
#
#
#
# Elastic Compliance Matrix: (Units=1/GPa)
#
#
# Indices 1 2 3 4 5 6 
#
# 1 0.008138 -0.005902 -0.003152 0.000000 -0.005421 0.000000
# 2 -0.005902 0.014258 0.000324 0.000000 0.005942 0.000000
# 3 -0.003152 0.000324 0.007469 0.000000 0.005216 0.000000
# 4 0.000000 0.000000 0.000000 0.027686 0.000000 -0.014766
# 5 -0.005421 0.005942 0.005216 0.000000 0.020478 0.000000
# 6 0.000000 0.000000 0.000000 -0.014766 0.000000 0.027381
#
#
# Mechanical properties :
#
#
# Convention : Reuss Voigt Hill
#
# Bulk Modulus (GPa) = 80.61566 107.27063 93.94315
# Shear Modulus (GPa) = 39.36884 55.72968 47.54926
#
# Velocity S-wave (km/s) = 3.79234 4.51206 4.16776
# Velocity P-wave (km/s) = 6.97321 8.14445 7.58148
#
# Compressibility (1/GPa) = 0.01240454
#
# Stress axis : x y z
#
# Youngs Moduli (GPa) = 122.88399 70.13617 133.89125
#
# Poissons Ratio (x) = 0.41395 0.42207
# Poissons Ratio (y) = 0.72528 -0.04345
# Poissons Ratio (z) = 0.38737 -0.02276
#
# Static dielectric constant tensor:
#      x y z
#    x 2.102810 0.000000 -0.076400 
#    y 0.000000 2.160480 0.000000 
#    z -0.076400 0.000000 2.072830 
# 
# From -- ./inp_files/9597.got.cif
#   From: 2010.05.17/outbox.cif.g08.bks.cpg/sg14_5_cif.got.tgz:9597.got - 2010.06.03 17:49:19.
