data_PCOD9253619
_publ_section_title
;
Structure prediction by ZEFSAII (Michael W. Deem and Ramdas Pophale) SiO2 
 PCOD9253619
Probable space group: P 21/C
;
_chemical_formula_sum "Si O2"
_cell_formula_units_Z 28
_cell_length_a 9.000000
_cell_length_b 9.000000
_cell_length_c 21.000000
_cell_angle_alpha 90.000000
_cell_angle_beta 50.000000
_cell_angle_gamma 90.000000
_cell_volume 1303.041598
_symmetry_space_group_name_H-M "P 21/C"
_symmetry_group_IT_number 14
_symmetry_cell_setting 'monoclinic'
loop_
_space_group_symop_operation_xyz
x,y,z
-x,1/2+y,1/2-z
-x,-y,-z
x,1/2-y,1/2+z
loop_
_atom_site_type_symbol
_atom_site_label
_atom_site_fract_x
_atom_site_fract_y
_atom_site_fract_z
Si Si1 0.784241 0.668030 0.512837
Si Si2 0.995846 0.850381 0.266541
Si Si3 0.724381 0.526846 0.951043
Si Si4 0.905387 0.157179 0.505304
Si Si5 0.047813 0.553959 0.330412
Si Si6 0.609856 0.219444 0.191138
Si Si7 0.575495 0.051983 0.811421
O O1 0.890022 0.568951 0.430140
O O2 0.594660 0.589989 0.592189
O O3 0.933501 0.714898 0.528326
O O4 0.738772 0.825644 0.491337
O O5 0.213780 0.908548 0.219954
O O6 0.997059 0.679875 0.290591
O O7 0.944594 0.898696 0.208889
O O8 0.846480 0.934362 0.354675
O O9 0.816060 0.384480 0.961854
O O10 0.500000 0.500000 0.000000
O O11 0.736972 0.201335 0.601441
O O12 0.000000 0.000000 0.500000
O O13 0.245465 0.609847 0.309408
O O14 0.542499 0.341808 0.259628
O O15 0.446596 0.117380 0.204861
#
# Coordination Sequence:
#
# PCOD9253619 Si02
#       7
#     4   4   4   4   4   4   4
#     4   9  21  40  62  87 128 168 206 271 313 391
#     4  10  23  41  60  91 128 165 207 272 323 387
#     4  10  22  37  66  93 121 171 221 257 332 391
#     4   9  19  40  64  88 127 164 214 267 321 380
#     4   9  21  43  59  87 127 162 213 259 328 383
#     4  10  24  39  63  94 123 171 217 267 323 391
#     4  11  24  39  63  95 130 166 216 266 336 379
#
# _framework density 21.488185999999999
#
# number of rings (size 3 to 8) (size 9 to 14) (size 15 to 20)
#    0.000    2.286    0.000    2.571   10.000    6.286 
#    2.571    0.000    0.000    0.000    0.000    0.000 
#    0.000    0.000    0.000    0.000    0.000    0.000 
#
# Total GULP energy -156537.249905 kJ/mol
# GULP energy per Si atom -5590.616068 kJ/mol
# Density = 2.143928 g / cm^3
# Si number density = 21.488186 Si / 1000 Ang^3
#
#
#
# Elastic Constant Matrix: (Units=GPa)
#
#
# Indices 1 2 3 4 5 6 
#
# 1 43.5956 3.1060 21.9635 0.0000 -11.8473 0.0000
# 2 3.1060 37.6123 16.4288 0.0000 -4.3157 0.0000
# 3 21.9635 16.4288 73.9396 0.0000 -19.0652 0.0000
# 4 0.0000 0.0000 0.0000 31.1610 0.0000 12.3299
# 5 -11.8473 -4.3157 -19.0652 0.0000 19.4025 0.0000
# 6 0.0000 0.0000 0.0000 12.3299 0.0000 33.3996
#
#
#
# Elastic Compliance Matrix: (Units=1/GPa)
#
#
# Indices 1 2 3 4 5 6 
#
# 1 0.029125 0.001551 -0.005788 0.000000 0.012441 0.000000
# 2 0.001551 0.029528 -0.006809 0.000000 0.000824 0.000000
# 3 -0.005788 -0.006809 0.020699 0.000000 0.015291 0.000000
# 4 0.000000 0.000000 0.000000 0.037581 0.000000 -0.013874
# 5 0.012441 0.000824 0.015291 0.000000 0.074345 0.000000
# 6 0.000000 0.000000 0.000000 -0.013874 0.000000 0.035062
#
#
# Mechanical properties :
#
#
# Convention : Reuss Voigt Hill
#
# Bulk Modulus (GPa) = 17.46447 26.46046 21.96246
# Shear Modulus (GPa) = 18.69029 24.36924 21.52976
#
# Velocity S-wave (km/s) = 2.95243 3.37126 3.16877
# Velocity P-wave (km/s) = 4.44607 5.24352 4.86118
#
# Compressibility (1/GPa) = 0.05725911
#
# Stress axis : x y z
#
# Youngs Moduli (GPa) = 34.33532 33.86661 48.31037
#
# Poissons Ratio (x) = -0.05251 0.27962
# Poissons Ratio (y) = -0.05324 0.32894
# Poissons Ratio (z) = 0.19873 0.23059
#
# Static dielectric constant tensor:
#      x y z
#    x 1.837000 0.000000 0.010760 
#    y 0.000000 1.774720 0.000000 
#    z 0.010760 0.000000 1.737800 
# 
# From -- ./inp_files/64986.got.cif
#   From: 2010.05.17/outbox.ucp.g08.bks.cvg/sg14_33_cif.got.tgz:64986.got - 2010.06.11 12:31:08.
