data_PCOD9253415
_publ_section_title
;
Structure prediction by ZEFSAII (Michael W. Deem and Ramdas Pophale) SiO2 
 PCOD9253415
Probable space group: P 21/C
;
_chemical_formula_sum "Si O2"
_cell_formula_units_Z 20
_cell_length_a 10.551222
_cell_length_b 11.279522
_cell_length_c 7.825915
_cell_angle_alpha 90.000000
_cell_angle_beta 132.017457
_cell_angle_gamma 90.000000
_cell_volume 691.962982
_symmetry_space_group_name_H-M "P 21/C"
_symmetry_group_IT_number 14
_symmetry_cell_setting 'monoclinic'
loop_
_space_group_symop_operation_xyz
x,y,z
-x,1/2+y,1/2-z
-x,-y,-z
x,1/2-y,1/2+z
loop_
_atom_site_type_symbol
_atom_site_label
_atom_site_fract_x
_atom_site_fract_y
_atom_site_fract_z
Si Si1 0.749731 0.969663 0.757844
Si Si2 0.017633 0.167628 0.256001
Si Si3 0.749771 0.484276 0.656910
Si Si4 0.645646 0.727898 0.746444
Si Si5 0.689067 0.328921 0.919594
O O1 0.927233 0.906854 0.859700
O O2 0.636276 0.851704 0.636149
O O3 0.818060 0.767435 0.518449
O O4 0.709878 0.069982 0.583298
O O5 0.283735 0.507983 0.577480
O O6 0.941277 0.070388 0.316428
O O7 0.866279 0.257360 0.078835
O O8 0.307172 0.390074 0.316181
O O9 0.532719 0.259376 0.315056
O O10 0.666568 0.393091 0.717360
#
# Coordination Sequence:
#
# PCOD9253415 Si02
#       5
#     4   4   4   4   4
#     4  12  29  56  93 134 183 245 309 374 463 550
#     4  12  29  57  96 130 187 242 302 379 467 546
#     4  12  30  59  95 130 187 243 303 383 460 543
#     4  12  29  57  92 132 185 246 304 380 465 541
#     4  12  32  59  88 138 183 240 314 381 452 553
#
# _framework density 28.903279999999999
#
# number of rings (size 3 to 8) (size 9 to 14) (size 15 to 20)
#    0.000    0.000    2.000    4.200   11.200    6.400 
#    3.600    0.000    0.000    0.000    0.000    0.000 
#    0.000    0.000    0.000    0.000    0.000    0.000 
#
# Total GULP energy -112047.332226 kJ/mol
# GULP energy per Si atom -5602.366611 kJ/mol
# Density = 2.883749 g / cm^3
# Si number density = 28.903280 Si / 1000 Ang^3
#
#
#
# Elastic Constant Matrix: (Units=GPa)
#
#
# Indices 1 2 3 4 5 6 
#
# 1 268.0732 153.4070 112.3580 0.0000 -1.3974 0.0000
# 2 153.4070 227.2611 116.8194 0.0000 -16.9944 0.0000
# 3 112.3580 116.8194 178.4100 0.0000 4.6946 0.0000
# 4 0.0000 0.0000 0.0000 24.8205 0.0000 -21.3569
# 5 -1.3974 -16.9944 4.6946 0.0000 57.0310 0.0000
# 6 0.0000 0.0000 0.0000 -21.3569 0.0000 98.1607
#
#
#
# Elastic Compliance Matrix: (Units=1/GPa)
#
#
# Indices 1 2 3 4 5 6 
#
# 1 0.006480 -0.003531 -0.001749 0.000000 -0.000750 0.000000
# 2 -0.003531 0.008884 -0.003668 0.000000 0.002863 0.000000
# 3 -0.001749 -0.003668 0.009158 0.000000 -0.001890 0.000000
# 4 0.000000 0.000000 0.000000 0.049569 0.000000 0.010785
# 5 -0.000750 0.002863 -0.001890 0.000000 0.018525 0.000000
# 6 0.000000 0.000000 0.000000 0.010785 0.000000 0.012534
#
#
# Mechanical properties :
#
#
# Convention : Reuss Voigt Hill
#
# Bulk Modulus (GPa) = 150.94836 159.87923 155.41379
# Shear Modulus (GPa) = 39.91844 55.41311 47.66577
#
# Velocity S-wave (km/s) = 3.72035 4.38332 4.06538
# Velocity P-wave (km/s) = 8.41388 9.00297 8.71340
#
# Compressibility (1/GPa) = 0.00662478
#
# Stress axis : x y z
#
# Youngs Moduli (GPa) = 154.31148 112.56710 109.19097
#
# Poissons Ratio (x) = 0.39751 0.19100
# Poissons Ratio (y) = 0.54492 0.40053
# Poissons Ratio (z) = 0.26992 0.41292
#
# Static dielectric constant tensor:
#      x y z
#    x 2.328490 0.000000 0.044720 
#    y 0.000000 2.227730 0.000000 
#    z 0.044720 0.000000 2.344480 
# 
# From -- ./inp_files/12327.got.cif
#   From: 2010.05.17/outbox.cif.g08.bks.cpg/sg14_7_cif.got.tgz:12327.got - 2010.06.03 17:49:19.
