data_PCOD9253355
_publ_section_title
;
Structure prediction by ZEFSAII (Michael W. Deem and Ramdas Pophale) SiO2 
 PCOD9253355
Probable space group: P 21/C
;
_chemical_formula_sum "Si O2"
_cell_formula_units_Z 14
_cell_length_a 6.017414
_cell_length_b 9.037102
_cell_length_c 9.901768
_cell_angle_alpha 90.000000
_cell_angle_beta 79.696139
_cell_angle_gamma 90.000000
_cell_volume 529.774267
_symmetry_space_group_name_H-M "P 21/C"
_symmetry_group_IT_number 14
_symmetry_cell_setting 'monoclinic'
loop_
_space_group_symop_operation_xyz
x,y,z
-x,1/2+y,1/2-z
-x,-y,-z
x,1/2-y,1/2+z
loop_
_atom_site_type_symbol
_atom_site_label
_atom_site_fract_x
_atom_site_fract_y
_atom_site_fract_z
Si Si1 0.893942 0.699055 0.559917
Si Si2 0.500000 0.000000 0.000000
Si Si3 0.798203 0.247559 0.726970
Si Si4 0.414309 0.051001 0.304470
O O1 0.691149 0.583703 0.571794
O O2 0.778896 0.858231 0.597118
O O3 0.056292 0.671000 0.670649
O O4 0.047999 0.696948 0.410864
O O5 0.595583 0.915821 0.854527
O O6 0.652216 0.374261 0.817318
O O7 0.635933 0.122314 0.679899
#
# Coordination Sequence:
#
# PCOD9253355 Si02
#       4
#     4   2   4   4
#     4  12  28  53  85 120 165 226 274 349 414 490
#     4  12  26  56  82 120 168 218 282 336 416 502
#     4  12  29  50  86 118 173 218 276 340 425 478
#     4  12  27  52  79 126 161 218 282 338 399 517
#
# _framework density 26.426348000000001
#
# number of rings (size 3 to 8) (size 9 to 14) (size 15 to 20)
#    0.000    0.000    5.714    2.571    4.000    3.429 
#    0.000    0.000    0.000    0.000    0.000    0.000 
#    0.000    0.000    0.000    0.000    0.000    0.000 
#
# Total GULP energy -78023.731213 kJ/mol
# GULP energy per Si atom -5573.123658 kJ/mol
# Density = 2.636620 g / cm^3
# Si number density = 26.426348 Si / 1000 Ang^3
#
#
#
# Elastic Constant Matrix: (Units=GPa)
#
#
# Indices 1 2 3 4 5 6 
#
# 1 214.5409 98.4875 35.7346 0.0000 31.3641 0.0000
# 2 98.4875 135.7706 8.2384 0.0000 -4.7002 0.0000
# 3 35.7346 8.2384 82.7201 0.0000 -3.6604 0.0000
# 4 0.0000 0.0000 0.0000 27.2804 0.0000 -4.0205
# 5 31.3641 -4.7002 -3.6604 0.0000 72.5601 0.0000
# 6 0.0000 0.0000 0.0000 -4.0205 0.0000 61.5710
#
#
#
# Elastic Compliance Matrix: (Units=1/GPa)
#
#
# Indices 1 2 3 4 5 6 
#
# 1 0.008741 -0.006289 -0.003343 0.000000 -0.004355 0.000000
# 2 -0.006289 0.011949 0.001685 0.000000 0.003577 0.000000
# 3 -0.003343 0.001685 0.013464 0.000000 0.002233 0.000000
# 4 0.000000 0.000000 0.000000 0.037013 0.000000 0.002417
# 5 -0.004355 0.003577 0.002233 0.000000 0.016008 0.000000
# 6 0.000000 0.000000 0.000000 0.002417 0.000000 0.016399
#
#
# Mechanical properties :
#
#
# Convention : Reuss Voigt Hill
#
# Bulk Modulus (GPa) = 54.76049 79.77251 67.26650
# Shear Modulus (GPa) = 39.82329 51.65369 45.73849
#
# Velocity S-wave (km/s) = 3.88616 4.42591 4.16479
# Velocity P-wave (km/s) = 6.39557 7.50803 6.97402
#
# Compressibility (1/GPa) = 0.01826134
#
# Stress axis : x y z
#
# Youngs Moduli (GPa) = 114.39695 83.68933 74.27237
#
# Poissons Ratio (x) = 0.52632 0.24826
# Poissons Ratio (y) = 0.71944 -0.12515
# Poissons Ratio (z) = 0.38239 -0.14102
#
# Static dielectric constant tensor:
#      x y z
#    x 2.048200 0.000000 -0.056510 
#    y 0.000000 2.121140 0.000000 
#    z -0.056510 0.000000 1.974400 
# 
# From -- ./inp_files/12121.got.cif
#   From: 2010.05.17/outbox.cif.g08.bks.cpg/sg14_7_cif.got.tgz:12121.got - 2010.06.03 17:49:19.
