data_PCOD9253304
_publ_section_title
;
Structure prediction by ZEFSAII (Michael W. Deem and Ramdas Pophale) SiO2 
 PCOD9253304
Probable space group: P 21/C
;
_chemical_formula_sum "Si O2"
_cell_formula_units_Z 16
_cell_length_a 9.277431
_cell_length_b 4.767812
_cell_length_c 12.935604
_cell_angle_alpha 90.000000
_cell_angle_beta 72.677945
_cell_angle_gamma 90.000000
_cell_volume 546.230621
_symmetry_space_group_name_H-M "P 21/C"
_symmetry_group_IT_number 14
_symmetry_cell_setting 'monoclinic'
loop_
_space_group_symop_operation_xyz
x,y,z
-x,1/2+y,1/2-z
-x,-y,-z
x,1/2-y,1/2+z
loop_
_atom_site_type_symbol
_atom_site_label
_atom_site_fract_x
_atom_site_fract_y
_atom_site_fract_z
Si Si1 0.296402 0.552592 0.514542
Si Si2 0.816044 0.546273 0.855411
Si Si3 0.866555 0.298668 0.136456
Si Si4 0.422686 0.299871 0.816909
O O1 0.239101 0.362750 0.620658
O O2 0.167972 0.601511 0.454150
O O3 0.420914 0.385989 0.422068
O O4 0.307212 0.860958 0.557961
O O5 0.852919 0.402397 0.739535
O O6 0.972874 0.552992 0.886206
O O7 0.734350 0.533018 0.160125
O O8 0.540070 0.555823 0.774924
#
# Coordination Sequence:
#
# PCOD9253304 Si02
#       4
#     4   4   4   4
#     4  12  26  48  76 112 149 199 245 311 373 449
#     4  12  28  44  78 121 144 188 253 303 400 434
#     4  12  28  48  79 111 160 191 241 325 367 449
#     4  12  26  49  77 102 149 213 250 299 368 435
#
# _framework density 29.291651999999999
#
# number of rings (size 3 to 8) (size 9 to 14) (size 15 to 20)
#    0.000    0.000    5.000    3.000   10.500    0.000 
#    0.000    7.500    0.000    0.000    0.000    0.000 
#    0.000    0.000    0.000    0.000    0.000    0.000 
#
# Total GULP energy -89774.697924 kJ/mol
# GULP energy per Si atom -5610.918620 kJ/mol
# Density = 2.922498 g / cm^3
# Si number density = 29.291652 Si / 1000 Ang^3
#
#
#
# Elastic Constant Matrix: (Units=GPa)
#
#
# Indices 1 2 3 4 5 6 
#
# 1 121.7997 27.6148 5.6268 0.0000 -21.9477 0.0000
# 2 27.6148 194.4634 62.8964 0.0000 -0.0080 0.0000
# 3 5.6268 62.8964 125.5225 0.0000 23.9672 0.0000
# 4 0.0000 0.0000 0.0000 90.7403 0.0000 0.0013
# 5 -21.9477 -0.0080 23.9672 0.0000 54.8012 0.0000
# 6 0.0000 0.0000 0.0000 0.0013 0.0000 53.5991
#
#
#
# Elastic Compliance Matrix: (Units=1/GPa)
#
#
# Indices 1 2 3 4 5 6 
#
# 1 0.009202 -0.001109 -0.000612 0.000000 0.003953 0.000000
# 2 -0.001109 0.006381 -0.003342 0.000000 0.001019 0.000000
# 3 -0.000612 -0.003342 0.010601 0.000000 -0.004882 0.000000
# 4 0.000000 0.000000 0.000000 0.011020 0.000000 0.000000
# 5 0.003953 0.001019 -0.004882 0.000000 0.021966 0.000000
# 6 0.000000 0.000000 0.000000 0.000000 0.000000 0.018657
#
#
# Mechanical properties :
#
#
# Convention : Reuss Voigt Hill
#
# Bulk Modulus (GPa) = 62.27104 70.45128 66.36116
# Shear Modulus (GPa) = 53.58765 62.87127 58.22946
#
# Velocity S-wave (km/s) = 4.28185 4.63794 4.46345
# Velocity P-wave (km/s) = 6.76393 7.26530 7.01909
#
# Compressibility (1/GPa) = 0.01605883
#
# Stress axis : x y z
#
# Youngs Moduli (GPa) = 108.67074 156.72069 94.33215
#
# Poissons Ratio (x) = 0.17376 0.05770
# Poissons Ratio (y) = 0.12049 0.31526
# Poissons Ratio (z) = 0.06647 0.52377
#
# Static dielectric constant tensor:
#      x y z
#    x 2.344460 0.000000 0.037640 
#    y 0.000000 2.109040 0.000000 
#    z 0.037640 0.000000 2.276210 
# 
# From -- ./inp_files/42332.got.cif
#   From: 2010.05.17/outbox.cif.g08.bks.cpg/sg14_22_cif.got.tgz:42332.got - 2010.06.03 17:49:19.
