data_PCOD9253362
_publ_section_title
;
Structure prediction by ZEFSAII (Michael W. Deem and Ramdas Pophale) SiO2 
 PCOD9253362
Probable space group: P 21/C
;
_chemical_formula_sum "Si O2"
_cell_formula_units_Z 20
_cell_length_a 7.284532
_cell_length_b 10.852472
_cell_length_c 17.093082
_cell_angle_alpha 90.000000
_cell_angle_beta 41.452893
_cell_angle_gamma 90.000000
_cell_volume 894.563871
_symmetry_space_group_name_H-M "P 21/C"
_symmetry_group_IT_number 14
_symmetry_cell_setting 'monoclinic'
loop_
_space_group_symop_operation_xyz
x,y,z
-x,1/2+y,1/2-z
-x,-y,-z
x,1/2-y,1/2+z
loop_
_atom_site_type_symbol
_atom_site_label
_atom_site_fract_x
_atom_site_fract_y
_atom_site_fract_z
Si Si1 0.211074 0.012229 0.047938
Si Si2 0.789926 0.142756 0.296529
Si Si3 0.319248 0.544763 0.901383
Si Si4 0.557544 0.843893 0.169275
Si Si5 0.045592 0.769737 0.590279
O O1 0.092754 0.875128 0.084609
O O2 0.006328 0.096899 0.163211
O O3 0.500000 0.000000 0.000000
O O4 0.266493 0.072419 0.946022
O O5 0.675478 0.275643 0.307074
O O6 0.932472 0.158166 0.335244
O O7 0.532056 0.046649 0.377144
O O8 0.432030 0.576229 0.779448
O O9 0.283886 0.672585 0.959864
O O10 0.000000 0.500000 0.000000
O O11 0.744563 0.733273 0.145828
#
# Coordination Sequence:
#
# PCOD9253362 Si02
#       5
#     4   4   4   4   4
#     4  12  28  50  79 110 150 200 250 308 375 450
#     4  12  28  49  75 114 148 197 253 310 372 446
#     4  12  28  47  79 110 152 196 250 312 374 446
#     4  12  27  50  78 109 151 199 249 310 379 444
#     4  12  27  48  78 107 152 201 246 309 371 445
#
# _framework density 22.357263
#
# number of rings (size 3 to 8) (size 9 to 14) (size 15 to 20)
#    0.000    0.000    6.000    2.400    8.400    0.000 
#    0.000    0.000    0.000    0.000    0.000    0.000 
#    0.000    0.000    0.000    0.000    0.000    0.000 
#
# Total GULP energy -111976.368778 kJ/mol
# GULP energy per Si atom -5598.818439 kJ/mol
# Density = 2.230638 g / cm^3
# Si number density = 22.357263 Si / 1000 Ang^3
#
#
#
# Elastic Constant Matrix: (Units=GPa)
#
#
# Indices 1 2 3 4 5 6 
#
# 1 95.8167 1.7354 40.0473 0.0000 8.7490 0.0000
# 2 1.7354 63.3769 43.9293 0.0000 8.4936 0.0000
# 3 40.0473 43.9293 170.0579 0.0000 22.6215 0.0000
# 4 0.0000 0.0000 0.0000 46.5988 0.0000 5.0460
# 5 8.7490 8.4936 22.6215 0.0000 39.0514 0.0000
# 6 0.0000 0.0000 0.0000 5.0460 0.0000 27.9641
#
#
#
# Elastic Compliance Matrix: (Units=1/GPa)
#
#
# Indices 1 2 3 4 5 6 
#
# 1 0.011828 0.002022 -0.003139 0.000000 -0.001272 0.000000
# 2 0.002022 0.019638 -0.005331 0.000000 -0.001636 0.000000
# 3 -0.003139 -0.005331 0.008396 0.000000 -0.003001 0.000000
# 4 0.000000 0.000000 0.000000 0.021887 0.000000 -0.003950
# 5 -0.001272 -0.001636 -0.003001 0.000000 0.027986 0.000000
# 6 0.000000 0.000000 0.000000 -0.003950 0.000000 0.036473
#
#
# Mechanical properties :
#
#
# Convention : Reuss Voigt Hill
#
# Bulk Modulus (GPa) = 37.08416 55.63060 46.35738
# Shear Modulus (GPa) = 33.76267 38.95883 36.36075
#
# Velocity S-wave (km/s) = 3.89027 4.17892 4.03718
# Velocity P-wave (km/s) = 6.06647 6.94414 6.52009
#
# Compressibility (1/GPa) = 0.02696569
#
# Stress axis : x y z
#
# Youngs Moduli (GPa) = 84.54622 50.92192 119.10679
#
# Poissons Ratio (x) = -0.10296 0.37382
# Poissons Ratio (y) = -0.17095 0.63501
# Poissons Ratio (z) = 0.26535 0.27149
#
# Static dielectric constant tensor:
#      x y z
#    x 1.943070 0.000000 -0.033130 
#    y 0.000000 1.828680 0.000000 
#    z -0.033130 0.000000 1.774990 
# 
# From -- ./inp_files/55556.got.cif
#   From: 2010.05.17/outbox.cif.g08.bks.cpg/sg14_28_cif.got.tgz:55556.got - 2010.06.03 17:49:19.
