data_PCOD9253686
_publ_section_title
;
Structure prediction by ZEFSAII (Michael W. Deem and Ramdas Pophale) SiO2 
 PCOD9253686
Probable space group: P 21/C
;
_chemical_formula_sum "Si O2"
_cell_formula_units_Z 28
_cell_length_a 30.000000
_cell_length_b 9.000000
_cell_length_c 30.000000
_cell_angle_alpha 90.000000
_cell_angle_beta 10.000000
_cell_angle_gamma 90.000000
_cell_volume 1406.550239
_symmetry_space_group_name_H-M "P 21/C"
_symmetry_group_IT_number 14
_symmetry_cell_setting 'monoclinic'
loop_
_space_group_symop_operation_xyz
x,y,z
-x,1/2+y,1/2-z
-x,-y,-z
x,1/2-y,1/2+z
loop_
_atom_site_type_symbol
_atom_site_label
_atom_site_fract_x
_atom_site_fract_y
_atom_site_fract_z
Si Si1 0.069950 0.263511 0.309569
Si Si2 0.514185 0.578527 0.740408
Si Si3 0.767144 0.418716 0.357117
Si Si4 0.940904 0.668347 0.574593
Si Si5 0.703959 0.862050 0.611619
Si Si6 0.477266 0.691689 0.201461
Si Si7 0.579724 0.162020 0.941421
O O1 0.071660 0.323046 0.358849
O O2 0.785514 0.274150 0.567181
O O3 0.152973 0.090206 0.229358
O O4 0.289195 0.343017 0.062851
O O5 0.580638 0.712672 0.710422
O O6 0.280269 0.486614 0.944158
O O7 0.598075 0.438437 0.688840
O O8 0.588685 0.672956 0.622393
O O9 0.515142 0.407424 0.636722
O O10 0.679813 0.353453 0.394498
O O11 0.018974 0.349599 0.135637
O O12 0.673563 0.733804 0.816973
O O13 0.000000 0.500000 0.500000
O O14 0.179626 0.770093 0.322912
O O15 0.500000 0.000000 0.000000
#
# Coordination Sequence:
#
# PCOD9253686 Si02
#       7
#     4   4   4   4   4   4   4
#     4  12  24  44  70  97 138 178 229 279 355 414
#     4  10  24  44  66  98 136 175 230 275 348 407
#     4  12  24  43  70 100 135 172 239 279 348 409
#     4  12  28  48  73 107 146 185 238 303 367 426
#     4  11  25  42  67  99 134 179 222 289 335 419
#     4  11  25  42  69  97 135 181 222 283 343 412
#     4  12  26  46  77 104 138 190 241 294 353 438
#
# _framework density 19.906860999999999
#
# number of rings (size 3 to 8) (size 9 to 14) (size 15 to 20)
#    0.000    0.571    4.286    2.571    2.000   11.429 
#    0.000    0.000    0.000    0.000    0.000    0.000 
#    0.000    0.000    0.000    0.000    0.000    0.000 
#
# Total GULP energy -155885.575373 kJ/mol
# GULP energy per Si atom -5567.341978 kJ/mol
# Density = 1.986155 g / cm^3
# Si number density = 19.906861 Si / 1000 Ang^3
#
#
#
# Elastic Constant Matrix: (Units=GPa)
#
#
# Indices 1 2 3 4 5 6 
#
# 1 190.7073 46.6853 61.8668 0.0000 -20.8620 0.0000
# 2 46.6853 95.7719 20.3326 0.0000 -0.0182 0.0000
# 3 61.8668 20.3326 153.3423 0.0000 -16.0671 0.0000
# 4 0.0000 0.0000 0.0000 26.8563 0.0000 -2.6278
# 5 -20.8620 -0.0182 -16.0671 0.0000 38.6471 0.0000
# 6 0.0000 0.0000 0.0000 -2.6278 0.0000 44.0754
#
#
#
# Elastic Compliance Matrix: (Units=1/GPa)
#
#
# Indices 1 2 3 4 5 6 
#
# 1 0.006967 -0.002946 -0.002119 0.000000 0.002879 0.000000
# 2 -0.002946 0.012003 -0.000595 0.000000 -0.001832 0.000000
# 3 -0.002119 -0.000595 0.007669 0.000000 0.002044 0.000000
# 4 0.000000 0.000000 0.000000 0.037454 0.000000 0.002233
# 5 0.002879 -0.001832 0.002044 0.000000 0.028278 0.000000
# 6 0.000000 0.000000 0.000000 0.002233 0.000000 0.022822
#
#
# Mechanical properties :
#
#
# Convention : Reuss Voigt Hill
#
# Bulk Modulus (GPa) = 65.27133 77.51010 71.39072
# Shear Modulus (GPa) = 37.98846 42.64489 40.31668
#
# Velocity S-wave (km/s) = 4.37316 4.63343 4.50518
# Velocity P-wave (km/s) = 7.63930 8.22471 7.93740
#
# Compressibility (1/GPa) = 0.01532066
#
# Stress axis : x y z
#
# Youngs Moduli (GPa) = 143.53425 83.30948 130.39076
#
# Poissons Ratio (x) = 0.24541 0.27625
# Poissons Ratio (y) = 0.42283 0.07759
# Poissons Ratio (z) = 0.30410 0.04957
#
# Static dielectric constant tensor:
#      x y z
#    x 1.710880 0.000000 0.012160 
#    y 0.000000 1.750380 0.000000 
#    z 0.012160 0.000000 1.700230 
# 
# From -- ./inp_files/80947.got.cif
#   From: 2010.05.17/outbox.ucp.g08.bks.cvg/sg14_41_cif.got.tgz:80947.got - 2010.06.11 12:31:08.
