data_PCOD9253334
_publ_section_title
;
Structure prediction by ZEFSAII (Michael W. Deem and Ramdas Pophale) SiO2 
 PCOD9253334
Probable space group: P 21/C
;
_chemical_formula_sum "Si O2"
_cell_formula_units_Z 16
_cell_length_a 9.147371
_cell_length_b 15.375241
_cell_length_c 8.968194
_cell_angle_alpha 90.000000
_cell_angle_beta 31.385228
_cell_angle_gamma 90.000000
_cell_volume 656.879158
_symmetry_space_group_name_H-M "P 21/C"
_symmetry_group_IT_number 14
_symmetry_cell_setting 'monoclinic'
loop_
_space_group_symop_operation_xyz
x,y,z
-x,1/2+y,1/2-z
-x,-y,-z
x,1/2-y,1/2+z
loop_
_atom_site_type_symbol
_atom_site_label
_atom_site_fract_x
_atom_site_fract_y
_atom_site_fract_z
Si Si1 0.525338 0.307197 0.353244
Si Si2 0.774033 0.945682 0.293707
Si Si3 0.857230 0.754428 0.087375
Si Si4 0.292610 0.506327 0.822522
O O1 0.312223 0.262001 0.420864
O O2 0.314408 0.319181 0.674812
O O3 0.634162 0.395916 0.184286
O O4 0.808213 0.262644 0.178212
O O5 0.796835 0.847594 0.216705
O O6 0.500000 0.000000 0.500000
O O7 0.759481 0.947296 0.486233
O O8 0.000000 0.000000 0.000000
O O9 0.500000 0.500000 0.500000
O O10 0.000000 0.500000 0.000000
#
# Coordination Sequence:
#
# PCOD9253334 Si02
#       4
#     4   4   4   4
#     4  12  28  49  74 112 152 199 250 311 378 454
#     4  12  26  50  78 105 147 204 253 307 372 450
#     4  12  28  48  77 109 154 198 252 310 382 451
#     4  12  28  48  77 110 152 197 256 315 372 444
#
# _framework density 24.357600999999999
#
# number of rings (size 3 to 8) (size 9 to 14) (size 15 to 20)
#    0.000    0.000    2.500    6.000   14.000    0.000 
#    0.000    0.000    0.000    0.000    0.000    0.000 
#    0.000    0.000    0.000    0.000    0.000    0.000 
#
# Total GULP energy -89184.090434 kJ/mol
# GULP energy per Si atom -5574.005652 kJ/mol
# Density = 2.430216 g / cm^3
# Si number density = 24.357601 Si / 1000 Ang^3
#
#
#
# Elastic Constant Matrix: (Units=GPa)
#
#
# Indices 1 2 3 4 5 6 
#
# 1 197.5817 12.6756 77.7106 0.0000 -13.7952 0.0000
# 2 12.6756 97.3202 26.1443 0.0000 -3.0353 0.0000
# 3 77.7106 26.1443 209.4375 0.0000 -17.7982 0.0000
# 4 0.0000 0.0000 0.0000 45.1362 0.0000 3.6776
# 5 -13.7952 -3.0353 -17.7982 0.0000 49.1007 0.0000
# 6 0.0000 0.0000 0.0000 3.6776 0.0000 33.2628
#
#
#
# Elastic Compliance Matrix: (Units=1/GPa)
#
#
# Indices 1 2 3 4 5 6 
#
# 1 0.005967 -0.000181 -0.002115 0.000000 0.000899 0.000000
# 2 -0.000181 0.010639 -0.001248 0.000000 0.000155 0.000000
# 3 -0.002115 -0.001248 0.005838 0.000000 0.001445 0.000000
# 4 0.000000 0.000000 0.000000 0.022357 0.000000 -0.002472
# 5 0.000899 0.000155 0.001445 0.000000 0.021152 0.000000
# 6 0.000000 0.000000 0.000000 -0.002472 0.000000 0.030337
#
#
# Mechanical properties :
#
#
# Convention : Reuss Voigt Hill
#
# Bulk Modulus (GPa) = 65.11889 81.93339 73.52614
# Shear Modulus (GPa) = 46.08426 51.35387 48.71907
#
# Velocity S-wave (km/s) = 4.35442 4.59664 4.47717
# Velocity P-wave (km/s) = 7.21622 7.86656 7.54840
#
# Compressibility (1/GPa) = 0.01535653
#
# Stress axis : x y z
#
# Youngs Moduli (GPa) = 167.57442 93.99413 171.28905
#
# Poissons Ratio (x) = 0.01701 0.36232
# Poissons Ratio (y) = 0.03033 0.21373
# Poissons Ratio (z) = 0.35446 0.11729
#
# Static dielectric constant tensor:
#      x y z
#    x 4.021070 0.000000 0.864180 
#    y 0.000000 2.064420 0.000000 
#    z 0.864180 0.000000 2.193750 
# 
# From -- ./inp_files/5141.got.cif
#   From: 2010.05.17/outbox.cif.g08.bks.cpg/sg14_3_cif.got.tgz:5141.got - 2010.06.03 17:49:19.
