data_PCOD9253665
_publ_section_title
;
Structure prediction by ZEFSAII (Michael W. Deem and Ramdas Pophale) SiO2 
 PCOD9253665
Probable space group: P 21/C
;
_chemical_formula_sum "Si O2"
_cell_formula_units_Z 32
_cell_length_a 12.000000
_cell_length_b 24.000000
_cell_length_c 9.000000
_cell_angle_alpha 90.000000
_cell_angle_beta 140.000000
_cell_angle_gamma 90.000000
_cell_volume 1666.105484
_symmetry_space_group_name_H-M "P 21/C"
_symmetry_group_IT_number 14
_symmetry_cell_setting 'monoclinic'
loop_
_space_group_symop_operation_xyz
x,y,z
-x,1/2+y,1/2-z
-x,-y,-z
x,1/2-y,1/2+z
loop_
_atom_site_type_symbol
_atom_site_label
_atom_site_fract_x
_atom_site_fract_y
_atom_site_fract_z
Si Si1 0.376377 0.556789 0.528480
Si Si2 0.961939 0.293899 0.731353
Si Si3 0.321150 0.430917 0.398167
Si Si4 0.714533 0.788957 0.664802
Si Si5 0.789654 0.323267 0.084868
Si Si6 0.356020 0.645873 0.749862
Si Si7 0.606269 0.814270 0.885196
Si Si8 0.051828 0.615087 0.034004
O O1 0.355341 0.490325 0.509656
O O2 0.551111 0.570818 0.614272
O O3 0.375585 0.587048 0.686696
O O4 0.212582 0.582313 0.271542
O O5 0.913077 0.230780 0.729147
O O6 0.782201 0.317748 0.482518
O O7 0.114370 0.300611 0.762230
O O8 0.996491 0.332250 0.910349
O O9 0.367834 0.378739 0.550222
O O10 0.119325 0.422626 0.152792
O O11 0.545057 0.824921 0.442592
O O12 0.706355 0.798545 0.834523
O O13 0.675066 0.724720 0.586829
O O14 0.732328 0.354654 0.177358
O O15 0.882120 0.361884 0.057165
O O16 0.599679 0.303360 0.835538
#
# Coordination Sequence:
#
# PCOD9253665 Si02
#       8
#     4   4   4   4   4   4   4   4
#     4  10  23  44  69  88 121 167 216 261 312 363
#     4  11  23  37  61  92 124 167 202 252 311 376
#     4  11  23  43  68  92 121 165 217 263 305 370
#     4  11  25  39  62  94 126 165 206 250 315 380
#     4  11  22  39  60  94 129 165 199 257 318 377
#     4  10  23  41  61  89 129 160 206 261 313 367
#     4  11  25  40  63  90 130 163 203 253 313 374
#     4  11  23  39  68  90 124 163 217 253 310 373
#
# _framework density 19.206467
#
# number of rings (size 3 to 8) (size 9 to 14) (size 15 to 20)
#    0.000    1.250    2.500    2.625   10.500    0.000 
#    0.000    3.125    2.750    0.000    0.000    0.000 
#    0.000    0.000    0.000    0.000    0.000    0.000 
#
# Total GULP energy -178760.472492 kJ/mol
# GULP energy per Si atom -5586.264765 kJ/mol
# Density = 1.916275 g / cm^3
# Si number density = 19.206467 Si / 1000 Ang^3
#
#
#
# Elastic Constant Matrix: (Units=GPa)
#
#
# Indices 1 2 3 4 5 6 
#
# 1 153.8198 68.1787 24.4838 0.0000 5.9408 0.0000
# 2 68.1787 135.1562 26.0474 0.0000 -16.1297 0.0000
# 3 24.4838 26.0474 47.3549 0.0000 10.4380 0.0000
# 4 0.0000 0.0000 0.0000 26.8982 0.0000 1.1499
# 5 5.9408 -16.1297 10.4380 0.0000 42.2618 0.0000
# 6 0.0000 0.0000 0.0000 1.1499 0.0000 32.5004
#
#
#
# Elastic Compliance Matrix: (Units=1/GPa)
#
#
# Indices 1 2 3 4 5 6 
#
# 1 0.008822 -0.004458 -0.001545 0.000000 -0.002560 0.000000
# 2 -0.004458 0.011439 -0.005380 0.000000 0.006321 0.000000
# 3 -0.001545 -0.005380 0.026736 0.000000 -0.008440 0.000000
# 4 0.000000 0.000000 0.000000 0.037234 0.000000 -0.001317
# 5 -0.002560 0.006321 -0.008440 0.000000 0.028519 0.000000
# 6 0.000000 0.000000 0.000000 -0.001317 0.000000 0.030815
#
#
# Mechanical properties :
#
#
# Convention : Reuss Voigt Hill
#
# Bulk Modulus (GPa) = 41.27103 63.75009 52.51056
# Shear Modulus (GPa) = 28.66854 34.84014 31.75434
#
# Velocity S-wave (km/s) = 3.86767 4.26370 4.07051
# Velocity P-wave (km/s) = 6.44049 7.58307 7.03502
#
# Compressibility (1/GPa) = 0.02423007
#
# Stress axis : x y z
#
# Youngs Moduli (GPa) = 113.35598 87.42092 37.40328
#
# Poissons Ratio (x) = 0.38971 0.05778
# Poissons Ratio (y) = 0.50533 0.20125
# Poissons Ratio (z) = 0.17511 0.47036
#
# Static dielectric constant tensor:
#      x y z
#    x 1.636900 0.000000 -0.009750 
#    y 0.000000 1.652360 0.000000 
#    z -0.009750 0.000000 1.736680 
# 
# From -- ./inp_files/14541.got.cif
#   From: 2010.05.17/outbox.ucp.g08.bks.cvg/sg14_8_cif.got.tgz:14541.got - 2010.06.11 12:31:08.
