data_PCOD9253101
_publ_section_title
;
Structure prediction by ZEFSAII (Michael W. Deem and Ramdas Pophale) SiO2 
 PCOD9253101
Probable space group: P 21/C
;
_chemical_formula_sum "Si O2"
_cell_formula_units_Z 24
_cell_length_a 16.696302
_cell_length_b 5.006971
_cell_length_c 16.460541
_cell_angle_alpha 90.000000
_cell_angle_beta 54.703055
_cell_angle_gamma 90.000000
_cell_volume 1123.102124
_symmetry_space_group_name_H-M "P 21/C"
_symmetry_group_IT_number 14
_symmetry_cell_setting 'monoclinic'
loop_
_space_group_symop_operation_xyz
x,y,z
-x,1/2+y,1/2-z
-x,-y,-z
x,1/2-y,1/2+z
loop_
_atom_site_type_symbol
_atom_site_label
_atom_site_fract_x
_atom_site_fract_y
_atom_site_fract_z
Si Si1 0.755443 0.358206 0.956152
Si Si2 0.755467 0.636021 0.569564
Si Si3 0.544154 0.566393 0.757410
Si Si4 0.538605 0.249810 0.526483
Si Si5 0.940442 0.748033 0.568441
Si Si6 0.943378 0.915863 0.253387
O O1 0.841552 0.462033 0.846791
O O2 0.730342 0.612435 0.027134
O O3 0.656095 0.260954 0.970392
O O4 0.789705 0.112700 0.993462
O O5 0.658780 0.543199 0.673522
O O6 0.835333 0.733846 0.587021
O O7 0.498644 0.271879 0.784371
O O8 0.512426 0.719845 0.856628
O O9 0.500000 0.500000 0.500000
O O10 0.500000 0.000000 0.500000
O O11 0.934324 0.711437 0.669087
O O12 0.000000 0.500000 0.500000
O O13 0.000000 0.000000 0.500000
O O14 0.982983 0.670796 0.285758
#
# Coordination Sequence:
#
# PCOD9253101 Si02
#       6
#     4   4   4   4   4   4
#     4  12  25  46  71 102 139 187 229 285 355 408
#     4  12  24  45  73 100 138 185 235 285 341 419
#     4  12  23  46  70 101 138 189 234 278 348 416
#     4  12  26  44  69 103 146 181 232 293 344 414
#     4  12  26  46  71 103 136 180 234 288 342 412
#     4  12  26  47  72 104 143 184 229 289 354 417
#
# _framework density 21.369382999999999
#
# number of rings (size 3 to 8) (size 9 to 14) (size 15 to 20)
#    0.000    0.000    3.333    8.000    2.333    0.000 
#    3.000    0.000    0.000    0.000    0.000    0.000 
#    0.000    0.000    0.000    0.000    0.000    0.000 
#
# Total GULP energy -134333.903457 kJ/mol
# GULP energy per Si atom -5597.245977 kJ/mol
# Density = 2.132075 g / cm^3
# Si number density = 21.369383 Si / 1000 Ang^3
#
#
#
# Elastic Constant Matrix: (Units=GPa)
#
#
# Indices 1 2 3 4 5 6 
#
# 1 137.8650 46.1765 71.1777 0.0000 -5.6797 0.0000
# 2 46.1765 163.8918 41.7763 0.0000 8.1352 0.0000
# 3 71.1777 41.7763 132.6959 0.0000 -10.6107 0.0000
# 4 0.0000 0.0000 0.0000 -30.9946 0.0000 12.1808
# 5 -5.6797 8.1352 -10.6107 0.0000 36.5633 0.0000
# 6 0.0000 0.0000 0.0000 12.1808 0.0000 41.4805
#
#
#
# Elastic Compliance Matrix: (Units=1/GPa)
#
#
# Indices 1 2 3 4 5 6 
#
# 1 0.010433 -0.001686 -0.005023 0.000000 0.000538 0.000000
# 2 -0.001686 0.007073 -0.001504 0.000000 -0.002272 0.000000
# 3 -0.005023 -0.001504 0.010921 0.000000 0.002724 0.000000
# 4 0.000000 0.000000 0.000000 -0.028926 0.000000 0.008494
# 5 0.000538 -0.002272 0.002724 0.000000 0.028729 0.000000
# 6 0.000000 0.000000 0.000000 0.008494 0.000000 0.021613
#
#
# Mechanical properties :
#
#
# Convention : Reuss Voigt Hill
#
# Bulk Modulus (GPa) = 83.31695 83.63486 83.47590
# Shear Modulus (GPa) = 71.15288 27.76464 49.45876
#
# Velocity S-wave (km/s) = 5.77658 3.60845 4.81611
# Velocity P-wave (km/s) = 9.14142 7.52223 8.37106
#
# Compressibility (1/GPa) = 0.01200236
#
# Stress axis : x y z
#
# Youngs Moduli (GPa) = 95.84512 141.38703 91.56295
#
# Poissons Ratio (x) = 0.23839 0.45989
# Poissons Ratio (y) = 0.16160 0.13771
# Poissons Ratio (z) = 0.48139 0.21264
#
# Static dielectric constant tensor:
#      x y z
#    x 1.794850 0.000000 0.006650 
#    y 0.000000 1.738030 0.000000 
#    z 0.006650 0.000000 1.737880 
# 
# From -- ./inp_files/45802.got.cif
#   From: 2010.05.17/outbox.cif.g08.bks.cpg/sg14_23_cif.got.tgz:45802.got - 2010.06.03 17:49:19.
