data_PCOD9253424
_publ_section_title
;
Structure prediction by ZEFSAII (Michael W. Deem and Ramdas Pophale) SiO2 
 PCOD9253424
Probable space group: P 21/C
;
_chemical_formula_sum "Si O2"
_cell_formula_units_Z 14
_cell_length_a 5.116878
_cell_length_b 8.661237
_cell_length_c 10.666350
_cell_angle_alpha 90.000000
_cell_angle_beta 83.813064
_cell_angle_gamma 90.000000
_cell_volume 469.963251
_symmetry_space_group_name_H-M "P 21/C"
_symmetry_group_IT_number 14
_symmetry_cell_setting 'monoclinic'
loop_
_space_group_symop_operation_xyz
x,y,z
-x,1/2+y,1/2-z
-x,-y,-z
x,1/2-y,1/2+z
loop_
_atom_site_type_symbol
_atom_site_label
_atom_site_fract_x
_atom_site_fract_y
_atom_site_fract_z
Si Si1 0.000000 0.500000 0.000000
Si Si2 0.535015 0.311692 0.899182
Si Si3 0.042715 0.012756 0.737992
Si Si4 0.493252 0.393410 0.639973
O O1 0.698434 0.566266 0.064471
O O2 0.996984 0.631672 0.872234
O O3 0.528398 0.186263 0.006406
O O4 0.835302 0.388854 0.879484
O O5 0.496631 0.272144 0.755476
O O6 0.265746 0.001283 0.829459
O O7 0.782268 0.977044 0.825283
#
# Coordination Sequence:
#
# PCOD9253424 Si02
#       4
#     2   4   4   4
#     4   6  16  32  48  68  94 118 166 178 234 264
#     4   8  18  30  49  71  90 125 151 200 216 287
#     4   8  18  29  47  71  87 125 150 200 212 284
#     4   9  18  27  49  68  96 114 161 184 240 257
#
# _framework density 29.789566000000001
#
# number of rings (size 3 to 8) (size 9 to 14) (size 15 to 20)
#    3.429    0.000    0.000    0.000    4.000    4.571 
#    0.000    0.000    0.000    8.571    0.000    0.000 
#    0.000    0.000    0.000    0.000    0.000    0.000 
#
# Total GULP energy -77962.261092 kJ/mol
# GULP energy per Si atom -5568.732935 kJ/mol
# Density = 2.972176 g / cm^3
# Si number density = 29.789566 Si / 1000 Ang^3
#
#
#
# Elastic Constant Matrix: (Units=GPa)
#
#
# Indices 1 2 3 4 5 6 
#
# 1 283.4008 46.2531 94.5854 0.0000 -10.7633 0.0000
# 2 46.2531 51.9751 54.9721 0.0000 -1.5467 0.0000
# 3 94.5854 54.9721 280.7821 0.0000 12.4034 0.0000
# 4 0.0000 0.0000 0.0000 72.9821 0.0000 -9.0407
# 5 -10.7633 -1.5467 12.4034 0.0000 71.7180 0.0000
# 6 0.0000 0.0000 0.0000 -9.0407 0.0000 28.7521
#
#
#
# Elastic Compliance Matrix: (Units=1/GPa)
#
#
# Indices 1 2 3 4 5 6 
#
# 1 0.004334 -0.002844 -0.000936 0.000000 0.000751 0.000000
# 2 -0.002844 0.026262 -0.004222 0.000000 0.000870 0.000000
# 3 -0.000936 -0.004222 0.004750 0.000000 -0.001053 0.000000
# 4 0.000000 0.000000 0.000000 0.014257 0.000000 0.004483
# 5 0.000751 0.000870 -0.001053 0.000000 0.014257 0.000000
# 6 0.000000 0.000000 0.000000 0.004483 0.000000 0.036190
#
#
# Mechanical properties :
#
#
# Convention : Reuss Voigt Hill
#
# Bulk Modulus (GPa) = 51.70270 111.97548 81.83909
# Shear Modulus (GPa) = 40.81569 62.71362 51.76466
#
# Velocity S-wave (km/s) = 3.70555 4.59325 4.17307
# Velocity P-wave (km/s) = 5.97510 8.11178 7.12400
#
# Compressibility (1/GPa) = 0.01934135
#
# Stress axis : x y z
#
# Youngs Moduli (GPa) = 230.74784 38.07735 210.52692
#
# Poissons Ratio (x) = 0.10829 0.19710
# Poissons Ratio (y) = 0.65626 0.88886
# Poissons Ratio (z) = 0.21603 0.16076
#
# Static dielectric constant tensor:
#      x y z
#    x 2.500770 0.000000 0.180820 
#    y 0.000000 2.697450 0.000000 
#    z 0.180820 0.000000 2.354880 
# 
# From -- ./inp_files/4930.got.cif
#   From: 2010.05.17/outbox.cif.g08.bks.cpg/sg14_3_cif.got.tgz:4930.got - 2010.06.03 17:49:19.
