data_PCOD9253739
_publ_section_title
;
Structure prediction by ZEFSAII (Michael W. Deem and Ramdas Pophale) SiO2 
 PCOD9253739
Probable space group: P 21/C
;
_chemical_formula_sum "Si O2"
_cell_formula_units_Z 28
_cell_length_a 15.000000
_cell_length_b 15.000000
_cell_length_c 9.000000
_cell_angle_alpha 90.000000
_cell_angle_beta 140.000000
_cell_angle_gamma 90.000000
_cell_volume 1301.644910
_symmetry_space_group_name_H-M "P 21/C"
_symmetry_group_IT_number 14
_symmetry_cell_setting 'monoclinic'
loop_
_space_group_symop_operation_xyz
x,y,z
-x,1/2+y,1/2-z
-x,-y,-z
x,1/2-y,1/2+z
loop_
_atom_site_type_symbol
_atom_site_label
_atom_site_fract_x
_atom_site_fract_y
_atom_site_fract_z
Si Si1 0.354508 0.525107 0.889749
Si Si2 0.119274 0.865852 0.975922
Si Si3 0.305526 0.696028 0.308831
Si Si4 0.962029 0.103148 0.456465
Si Si5 0.788685 0.695831 0.541174
Si Si6 0.163664 0.129880 0.233787
Si Si7 0.468781 0.814448 0.725727
O O1 0.237652 0.558187 0.624048
O O2 0.274692 0.449074 0.877986
O O3 0.500000 0.500000 0.000000
O O4 0.389711 0.606471 0.041446
O O5 0.052110 0.857605 0.728028
O O6 0.998174 0.890852 0.939045
O O7 0.200624 0.776731 0.128073
O O8 0.392763 0.725446 0.564983
O O9 0.424910 0.682398 0.340007
O O10 0.194094 0.617080 0.180010
O O11 0.085059 0.150711 0.705520
O O12 0.000000 0.000000 0.500000
O O13 0.813039 0.672275 0.400112
O O14 0.800047 0.799474 0.593332
O O15 0.631287 0.674308 0.394367
#
# Coordination Sequence:
#
# PCOD9253739 Si02
#       7
#     4   4   4   4   4   4   4
#     4  11  25  45  72 102 139 187 235 287 342 424
#     4  11  25  46  72 102 138 184 233 288 348 411
#     4  11  24  46  71  99 136 183 237 279 348 420
#     4  12  27  45  71 104 147 180 231 297 347 417
#     4  12  26  45  70 103 141 179 231 291 351 416
#     4  12  25  44  72 102 138 180 238 285 351 415
#     4  11  25  46  71 100 138 185 231 288 349 415
#
# _framework density 21.511243
#
# number of rings (size 3 to 8) (size 9 to 14) (size 15 to 20)
#    0.000    0.571    4.286    3.000    8.000    0.000 
#    0.000    0.714    0.000    0.000    0.000    0.000 
#    0.000    0.000    0.000    0.000    0.000    0.000 
#
# Total GULP energy -156472.050906 kJ/mol
# GULP energy per Si atom -5588.287532 kJ/mol
# Density = 2.146228 g / cm^3
# Si number density = 21.511243 Si / 1000 Ang^3
#
#
#
# Elastic Constant Matrix: (Units=GPa)
#
#
# Indices 1 2 3 4 5 6 
#
# 1 157.7401 -6.3528 36.2274 0.0000 32.8674 0.0000
# 2 -6.3528 28.3108 -2.5334 0.0000 10.7850 0.0000
# 3 36.2274 -2.5334 77.2965 0.0000 21.6490 0.0000
# 4 0.0000 0.0000 0.0000 28.0025 0.0000 11.5889
# 5 32.8674 10.7850 21.6490 0.0000 34.2790 0.0000
# 6 0.0000 0.0000 0.0000 11.5889 0.0000 32.9609
#
#
#
# Elastic Compliance Matrix: (Units=1/GPa)
#
#
# Indices 1 2 3 4 5 6 
#
# 1 0.008800 0.005390 -0.001348 0.000000 -0.009283 0.000000
# 2 0.005390 0.045773 0.005412 0.000000 -0.022988 0.000000
# 3 -0.001348 0.005412 0.016840 0.000000 -0.011046 0.000000
# 4 0.000000 0.000000 0.000000 0.041792 0.000000 -0.014694
# 5 -0.009283 -0.022988 -0.011046 0.000000 0.052281 0.000000
# 6 0.000000 0.000000 0.000000 -0.014694 0.000000 0.035505
#
#
# Mechanical properties :
#
#
# Convention : Reuss Voigt Hill
#
# Bulk Modulus (GPa) = 11.07142 35.33667 23.20405
# Shear Modulus (GPa) = 23.56368 34.78222 29.17295
#
# Velocity S-wave (km/s) = 3.31329 4.02547 3.68662
# Velocity P-wave (km/s) = 4.44918 6.16998 5.37884
#
# Compressibility (1/GPa) = 0.09032262
#
# Stress axis : x y z
#
# Youngs Moduli (GPa) = 113.63131 21.84681 59.38235
#
# Poissons Ratio (x) = -0.11776 0.08005
# Poissons Ratio (y) = -0.61251 -0.32139
# Poissons Ratio (z) = 0.15318 -0.11824
#
# Static dielectric constant tensor:
#      x y z
#    x 1.804200 0.000000 -0.010350 
#    y 0.000000 1.848500 0.000000 
#    z -0.010350 0.000000 1.798570 
# 
# From -- ./inp_files/16441.got.cif
#   From: 2010.05.17/outbox.ucp.g08.bks.cvg/sg14_9_cif.got.tgz:16441.got - 2010.06.11 12:31:08.
