data_PCOD9253746
_publ_section_title
;
Structure prediction by ZEFSAII (Michael W. Deem and Ramdas Pophale) SiO2 
 PCOD9253746
Probable space group: P 21/C
;
_chemical_formula_sum "Si O2"
_cell_formula_units_Z 32
_cell_length_a 18.000000
_cell_length_b 12.000000
_cell_length_c 15.000000
_cell_angle_alpha 90.000000
_cell_angle_beta 30.000000
_cell_angle_gamma 90.000000
_cell_volume 1620.000000
_symmetry_space_group_name_H-M "P 21/C"
_symmetry_group_IT_number 14
_symmetry_cell_setting 'monoclinic'
loop_
_space_group_symop_operation_xyz
x,y,z
-x,1/2+y,1/2-z
-x,-y,-z
x,1/2-y,1/2+z
loop_
_atom_site_type_symbol
_atom_site_label
_atom_site_fract_x
_atom_site_fract_y
_atom_site_fract_z
Si Si1 0.806741 0.690873 0.829337
Si Si2 0.627269 0.019426 0.591629
Si Si3 0.148447 0.774661 0.910475
Si Si4 0.337105 0.930410 0.237296
Si Si5 0.815309 0.239080 0.342235
Si Si6 0.646833 0.672994 0.339987
Si Si7 0.169598 0.311276 0.507465
Si Si8 0.713216 0.063443 0.089704
O O1 0.705535 0.755050 0.862164
O O2 0.976611 0.693681 0.613416
O O3 0.740216 0.570240 0.927984
O O4 0.799057 0.759718 0.928596
O O5 0.619790 0.027383 0.707853
O O6 0.696439 0.141071 0.492270
O O7 0.460150 0.976403 0.738698
O O8 0.198481 0.652849 0.893131
O O9 0.181358 0.763131 0.770139
O O10 0.250236 0.862306 0.860167
O O11 0.294252 0.045321 0.231074
O O12 0.471080 0.861029 0.046318
O O13 0.766145 0.352857 0.450775
O O14 0.991488 0.212108 0.178254
O O15 0.718866 0.746198 0.180606
O O16 0.200852 0.444767 0.484081
#
# Coordination Sequence:
#
# PCOD9253746 Si02
#       8
#     4   4   4   4   4   4   4   4
#     4  12  25  46  74 108 148 195 250 309 375 446
#     4  12  27  49  78 105 154 197 250 314 374 446
#     4  12  27  47  75 106 150 198 251 306 379 448
#     4  11  25  49  74 111 153 196 254 315 370 454
#     4  12  29  50  74 111 155 197 253 312 377 451
#     4  11  26  45  76 112 149 198 250 312 377 450
#     4  12  26  48  77 109 151 199 248 311 380 443
#     4  12  29  48  76 112 148 200 253 310 383 446
#
# _framework density 19.753086
#
# number of rings (size 3 to 8) (size 9 to 14) (size 15 to 20)
#    0.000    0.250    5.000    2.250   10.500    3.000 
#    0.000    0.000    0.000    0.000    0.000    0.000 
#    0.000    0.000    0.000    0.000    0.000    0.000 
#
# Total GULP energy -178379.896841 kJ/mol
# GULP energy per Si atom -5574.371776 kJ/mol
# Density = 1.970813 g / cm^3
# Si number density = 19.753086 Si / 1000 Ang^3
#
#
#
# Elastic Constant Matrix: (Units=GPa)
#
#
# Indices 1 2 3 4 5 6 
#
# 1 103.6307 41.5974 36.8203 0.0000 25.8003 0.0000
# 2 41.5974 165.3111 56.2544 0.0000 -2.0806 0.0000
# 3 36.8203 56.2544 145.5960 0.0000 3.0631 0.0000
# 4 0.0000 0.0000 0.0000 55.8663 0.0000 4.7524
# 5 25.8003 -2.0806 3.0631 0.0000 44.8127 0.0000
# 6 0.0000 0.0000 0.0000 4.7524 0.0000 40.6137
#
#
#
# Elastic Compliance Matrix: (Units=1/GPa)
#
#
# Indices 1 2 3 4 5 6 
#
# 1 0.013445 -0.002739 -0.002180 0.000000 -0.007719 0.000000
# 2 -0.002739 0.007534 -0.002262 0.000000 0.002081 0.000000
# 3 -0.002180 -0.002262 0.008281 0.000000 0.000584 0.000000
# 4 0.000000 0.000000 0.000000 0.018080 0.000000 -0.002116
# 5 -0.007719 0.002081 0.000584 0.000000 0.026816 0.000000
# 6 0.000000 0.000000 0.000000 -0.002116 0.000000 0.024870
#
#
# Mechanical properties :
#
#
# Convention : Reuss Voigt Hill
#
# Bulk Modulus (GPa) = 67.11542 75.98687 71.55115
# Shear Modulus (GPa) = 42.24611 46.91628 44.58119
#
# Velocity S-wave (km/s) = 4.62964 4.87882 4.75586
# Velocity P-wave (km/s) = 7.91385 8.38386 8.15224
#
# Compressibility (1/GPa) = 0.01489970
#
# Stress axis : x y z
#
# Youngs Moduli (GPa) = 74.37628 132.72531 120.75337
#
# Poissons Ratio (x) = 0.36349 0.26320
# Poissons Ratio (y) = 0.20369 0.27318
# Poissons Ratio (z) = 0.16211 0.30026
#
# Static dielectric constant tensor:
#      x y z
#    x 1.749160 0.000000 -0.003710 
#    y 0.000000 1.707540 0.000000 
#    z -0.003710 0.000000 1.718980 
# 
# From -- ./inp_files/48980.got.cif
#   From: 2010.05.17/outbox.ucp.g08.bks.cvg/sg14_25_cif.got.tgz:48980.got - 2010.06.11 12:31:08.
