data_PCOD9253087
_publ_section_title
;
Structure prediction by ZEFSAII (Michael W. Deem and Ramdas Pophale) SiO2 
 PCOD9253087
Probable space group: P 21/C
;
_chemical_formula_sum "Si O2"
_cell_formula_units_Z 28
_cell_length_a 9.347634
_cell_length_b 11.046264
_cell_length_c 27.945696
_cell_angle_alpha 90.000000
_cell_angle_beta 152.374614
_cell_angle_gamma 90.000000
_cell_volume 1338.007364
_symmetry_space_group_name_H-M "P 21/C"
_symmetry_group_IT_number 14
_symmetry_cell_setting 'monoclinic'
loop_
_space_group_symop_operation_xyz
x,y,z
-x,1/2+y,1/2-z
-x,-y,-z
x,1/2-y,1/2+z
loop_
_atom_site_type_symbol
_atom_site_label
_atom_site_fract_x
_atom_site_fract_y
_atom_site_fract_z
Si Si1 0.782786 0.577164 0.105046
Si Si2 0.255496 0.894965 0.247648
Si Si3 0.899309 0.620765 0.736539
Si Si4 0.861958 0.280119 0.866729
Si Si5 0.936419 0.857937 0.473854
Si Si6 0.366444 0.781755 0.028776
Si Si7 0.817551 0.825613 0.792854
O O1 0.615951 0.694551 0.077478
O O2 0.967687 0.497616 0.198255
O O3 0.018133 0.614357 0.132878
O O4 0.500000 0.500000 0.000000
O O5 0.101288 0.839720 0.154479
O O6 0.608210 0.852672 0.351192
O O7 0.121771 0.848992 0.258209
O O8 0.222452 0.039079 0.238620
O O9 0.560214 0.612761 0.612185
O O10 0.880266 0.727700 0.769952
O O11 0.506721 0.295044 0.777398
O O12 0.056877 0.291530 0.973008
O O13 0.196220 0.798371 0.518237
O O14 0.000000 0.000000 0.500000
O O15 0.106018 0.822271 0.914488
#
# Coordination Sequence:
#
# PCOD9253087 Si02
#       7
#     4   4   4   4   4   4   4
#     4  12  25  46  77 102 139 197 246 299 357 437
#     4  12  27  47  70 106 148 192 241 302 375 435
#     4  12  25  47  73 106 147 190 251 299 362 436
#     4  12  26  45  72 109 145 186 250 297 369 434
#     4  12  23  43  75 103 139 191 241 296 359 438
#     4  12  25  47  69 110 143 190 242 300 369 430
#     4  12  27  47  74 108 152 188 241 316 360 437
#
# _framework density 20.926641
#
# number of rings (size 3 to 8) (size 9 to 14) (size 15 to 20)
#    0.000    0.000    7.143    3.429    2.000    0.571 
#    2.571    1.429    0.000    0.000    0.000    0.000 
#    0.000    0.000    0.000    0.000    0.000    0.000 
#
# Total GULP energy -156606.896838 kJ/mol
# GULP energy per Si atom -5593.103458 kJ/mol
# Density = 2.087901 g / cm^3
# Si number density = 20.926641 Si / 1000 Ang^3
#
#
#
# Elastic Constant Matrix: (Units=GPa)
#
#
# Indices 1 2 3 4 5 6 
#
# 1 122.4202 35.1329 20.9888 0.0000 1.5297 0.0000
# 2 35.1329 50.2292 33.7942 0.0000 4.8949 0.0000
# 3 20.9888 33.7942 96.9036 0.0000 -14.4839 0.0000
# 4 0.0000 0.0000 0.0000 45.0342 0.0000 -7.8356
# 5 1.5297 4.8949 -14.4839 0.0000 36.3750 0.0000
# 6 0.0000 0.0000 0.0000 -7.8356 0.0000 39.7896
#
#
#
# Elastic Compliance Matrix: (Units=1/GPa)
#
#
# Indices 1 2 3 4 5 6 
#
# 1 0.010251 -0.007629 0.000562 0.000000 0.000819 0.000000
# 2 -0.007629 0.033805 -0.011450 0.000000 -0.008787 0.000000
# 3 0.000562 -0.011450 0.015330 0.000000 0.007621 0.000000
# 4 0.000000 0.000000 0.000000 0.022993 0.000000 0.004528
# 5 0.000819 -0.008787 0.007621 0.000000 0.031674 0.000000
# 6 0.000000 0.000000 0.000000 0.004528 0.000000 0.026024
#
#
# Mechanical properties :
#
#
# Convention : Reuss Voigt Hill
#
# Bulk Modulus (GPa) = 44.73602 49.93165 47.33384
# Shear Modulus (GPa) = 27.09142 36.21556 31.65349
#
# Velocity S-wave (km/s) = 3.60194 4.16456 3.89343
# Velocity P-wave (km/s) = 6.22275 6.85834 6.54826
#
# Compressibility (1/GPa) = 0.02235335
#
# Stress axis : x y z
#
# Youngs Moduli (GPa) = 97.54971 29.58184 65.23177
#
# Poissons Ratio (x) = 0.22567 -0.03669
# Poissons Ratio (y) = 0.74416 0.74691
# Poissons Ratio (z) = -0.05487 0.33872
#
# Static dielectric constant tensor:
#      x y z
#    x 1.737990 0.000000 -0.015940 
#    y 0.000000 1.748820 0.000000 
#    z -0.015940 0.000000 1.773410 
# 
# From -- ./inp_files/76662.got.cif
#   From: 2010.05.17/outbox.cif.g08.bks.cpg/sg14_39_cif.got.tgz:76662.got - 2010.06.03 17:49:19.
