data_PCOD9253593
_publ_section_title
;
Structure prediction by ZEFSAII (Michael W. Deem and Ramdas Pophale) SiO2 
 PCOD9253593
Probable space group: P 21/C
;
_chemical_formula_sum "Si O2"
_cell_formula_units_Z 28
_cell_length_a 12.000000
_cell_length_b 15.000000
_cell_length_c 9.000000
_cell_angle_alpha 90.000000
_cell_angle_beta 60.000000
_cell_angle_gamma 90.000000
_cell_volume 1402.961154
_symmetry_space_group_name_H-M "P 21/C"
_symmetry_group_IT_number 14
_symmetry_cell_setting 'monoclinic'
loop_
_space_group_symop_operation_xyz
x,y,z
-x,1/2+y,1/2-z
-x,-y,-z
x,1/2-y,1/2+z
loop_
_atom_site_type_symbol
_atom_site_label
_atom_site_fract_x
_atom_site_fract_y
_atom_site_fract_z
Si Si1 0.919880 0.870558 0.667364
Si Si2 0.620637 0.339607 0.485586
Si Si3 0.514862 0.693253 0.724581
Si Si4 0.305457 0.048195 0.552629
Si Si5 0.427331 0.987285 0.739936
Si Si6 0.816969 0.060706 0.639181
Si Si7 0.205694 0.231432 0.523797
O O1 0.870717 0.811413 0.841023
O O2 0.869691 0.812086 0.562652
O O3 0.068847 0.888826 0.525626
O O4 0.863159 0.972340 0.701289
O O5 0.592298 0.255265 0.618379
O O6 0.519164 0.315821 0.425935
O O7 0.597388 0.429370 0.597005
O O8 0.743570 0.370295 0.299264
O O9 0.529132 0.589896 0.764684
O O10 0.656685 0.736465 0.632561
O O11 0.456129 0.064615 0.417964
O O12 0.234285 0.143242 0.606123
O O13 0.307250 0.995062 0.706783
O O14 0.261115 0.987652 0.443015
#
# Coordination Sequence:
#
# PCOD9253593 Si02
#       7
#     4   4   4   4   4   4   4
#     4  10  23  42  68  90 124 176 228 267 313 389
#     4  12  25  39  63  96 136 169 211 270 339 391
#     4  12  24  37  64 101 129 170 217 266 336 399
#     4  10  21  39  64  94 134 166 214 267 322 394
#     4  11  22  39  63  97 136 171 200 270 337 388
#     4  10  23  44  63  93 131 175 217 269 330 384
#     4  11  21  40  66  94 124 167 226 268 311 396
#
# _framework density 19.957787
#
# number of rings (size 3 to 8) (size 9 to 14) (size 15 to 20)
#    0.000    1.143    2.857    3.857    4.000    1.143 
#    0.000    1.429    0.000    6.000    0.000    0.000 
#    0.000    0.000    0.000    0.000    0.000    0.000 
#
# Total GULP energy -155968.951294 kJ/mol
# GULP energy per Si atom -5570.319689 kJ/mol
# Density = 1.991236 g / cm^3
# Si number density = 19.957787 Si / 1000 Ang^3
#
#
#
# Elastic Constant Matrix: (Units=GPa)
#
#
# Indices 1 2 3 4 5 6 
#
# 1 35.7911 12.5514 21.4439 0.0000 -2.2190 0.0000
# 2 12.5514 100.7143 43.7055 0.0000 -7.5375 0.0000
# 3 21.4439 43.7055 95.2800 0.0000 -2.7733 0.0000
# 4 0.0000 0.0000 0.0000 61.9506 0.0000 2.2272
# 5 -2.2190 -7.5375 -2.7733 0.0000 36.0312 0.0000
# 6 0.0000 0.0000 0.0000 2.2272 0.0000 26.1416
#
#
#
# Elastic Compliance Matrix: (Units=1/GPa)
#
#
# Indices 1 2 3 4 5 6 
#
# 1 0.032447 -0.000994 -0.006810 0.000000 0.001266 0.000000
# 2 -0.000994 0.012597 -0.005492 0.000000 0.002151 0.000000
# 3 -0.006810 -0.005492 0.014534 0.000000 -0.000450 0.000000
# 4 0.000000 0.000000 0.000000 0.016191 0.000000 -0.001380
# 5 0.001266 0.002151 -0.000450 0.000000 0.028247 0.000000
# 6 0.000000 0.000000 0.000000 -0.001380 0.000000 0.038371
#
#
# Mechanical properties :
#
#
# Convention : Reuss Voigt Hill
#
# Bulk Modulus (GPa) = 30.31504 43.02077 36.66791
# Shear Modulus (GPa) = 27.78160 35.09698 31.43929
#
# Velocity S-wave (km/s) = 3.73502 4.19807 3.97330
# Velocity P-wave (km/s) = 5.81576 6.71573 6.28188
#
# Compressibility (1/GPa) = 0.03298693
#
# Stress axis : x y z
#
# Youngs Moduli (GPa) = 30.81947 79.38218 68.80302
#
# Poissons Ratio (x) = 0.07888 0.46854
# Poissons Ratio (y) = 0.03063 0.37788
# Poissons Ratio (z) = 0.20988 0.43598
#
# Static dielectric constant tensor:
#      x y z
#    x 1.783890 0.000000 0.019830 
#    y 0.000000 1.720460 0.000000 
#    z 0.019830 0.000000 1.737830 
# 
# From -- ./inp_files/13226.got.cif
#   From: 2010.05.17/outbox.ucp.g08.bks.cvg/sg14_7_cif.got.tgz:13226.got - 2010.06.11 12:31:08.
