data_PCOD9253336
_publ_section_title
;
Structure prediction by ZEFSAII (Michael W. Deem and Ramdas Pophale) SiO2 
 PCOD9253336
Probable space group: P 21/C
;
_chemical_formula_sum "Si O2"
_cell_formula_units_Z 18
_cell_length_a 4.985928
_cell_length_b 15.967222
_cell_length_c 8.981266
_cell_angle_alpha 90.000000
_cell_angle_beta 99.410908
_cell_angle_gamma 90.000000
_cell_volume 705.388031
_symmetry_space_group_name_H-M "P 21/C"
_symmetry_group_IT_number 14
_symmetry_cell_setting 'monoclinic'
loop_
_space_group_symop_operation_xyz
x,y,z
-x,1/2+y,1/2-z
-x,-y,-z
x,1/2-y,1/2+z
loop_
_atom_site_type_symbol
_atom_site_label
_atom_site_fract_x
_atom_site_fract_y
_atom_site_fract_z
Si Si1 0.500000 0.500000 0.500000
Si Si2 0.943543 0.885436 0.879023
Si Si3 0.235952 0.442725 0.962496
Si Si4 0.637645 0.126511 0.847982
Si Si5 0.860851 0.805361 0.303367
O O1 0.250746 0.432581 0.525582
O O2 0.512758 0.538287 0.680727
O O3 0.863337 0.914166 0.709066
O O4 0.936979 0.785124 0.872623
O O5 0.246306 0.903996 0.975100
O O6 0.239294 0.360914 0.067475
O O7 0.500000 0.500000 0.000000
O O8 0.000000 0.500000 0.000000
O O9 0.412145 0.198289 0.822725
O O10 0.886125 0.153937 0.765425
#
# Coordination Sequence:
#
# PCOD9253336 Si02
#       5
#     2   4   4   4   4
#     4  12  26  50  80 116 152 218 260 326 384 508
#     4  12  29  50  85 114 163 211 272 324 408 478
#     4  12  29  49  76 116 159 205 257 333 397 465
#     4  12  28  50  82 111 157 211 267 323 395 492
#     4  12  28  52  78 120 158 206 268 337 399 479
#
# _framework density 25.517868
#
# number of rings (size 3 to 8) (size 9 to 14) (size 15 to 20)
#    0.000    0.000    2.222    6.000    9.333    1.778 
#    0.000    0.000    0.000    0.000    0.000    0.000 
#    0.000    0.000    0.000    0.000    0.000    0.000 
#
# Total GULP energy -100380.050264 kJ/mol
# GULP energy per Si atom -5576.669459 kJ/mol
# Density = 2.545979 g / cm^3
# Si number density = 25.517868 Si / 1000 Ang^3
#
#
#
# Elastic Constant Matrix: (Units=GPa)
#
#
# Indices 1 2 3 4 5 6 
#
# 1 205.6278 51.1048 57.4913 0.0000 -14.1440 0.0000
# 2 51.1048 168.6767 70.0336 0.0000 -14.3905 0.0000
# 3 57.4913 70.0336 153.3699 0.0000 3.8303 0.0000
# 4 0.0000 0.0000 0.0000 56.9454 0.0000 6.3793
# 5 -14.1440 -14.3905 3.8303 0.0000 37.0760 0.0000
# 6 0.0000 0.0000 0.0000 6.3793 0.0000 29.5955
#
#
#
# Elastic Compliance Matrix: (Units=1/GPa)
#
#
# Indices 1 2 3 4 5 6 
#
# 1 0.005714 -0.000796 -0.001830 0.000000 0.002060 0.000000
# 2 -0.000796 0.007824 -0.003351 0.000000 0.003079 0.000000
# 3 -0.001830 -0.003351 0.008809 0.000000 -0.002909 0.000000
# 4 0.000000 0.000000 0.000000 0.017995 0.000000 -0.003879
# 5 0.002060 0.003079 -0.002909 0.000000 0.029253 0.000000
# 6 0.000000 0.000000 0.000000 -0.003879 0.000000 0.034625
#
#
# Mechanical properties :
#
#
# Convention : Reuss Voigt Hill
#
# Bulk Modulus (GPa) = 96.21763 98.32596 97.27179
# Shear Modulus (GPa) = 41.79238 47.99301 44.89270
#
# Velocity S-wave (km/s) = 4.05133 4.34148 4.19891
# Velocity P-wave (km/s) = 7.72478 7.98418 7.85555
#
# Compressibility (1/GPa) = 0.01039311
#
# Stress axis : x y z
#
# Youngs Moduli (GPa) = 174.99948 127.81730 113.51850
#
# Poissons Ratio (x) = 0.10170 0.20776
# Poissons Ratio (y) = 0.13924 0.38042
# Poissons Ratio (z) = 0.32028 0.42834
#
# Static dielectric constant tensor:
#      x y z
#    x 2.322770 0.000000 0.079920 
#    y 0.000000 2.195250 0.000000 
#    z 0.079920 0.000000 2.250150 
# 
# From -- ./inp_files/5321.got.cif
#   From: 2010.05.17/outbox.cif.g08.bks.cpg/sg14_3_cif.got.tgz:5321.got - 2010.06.03 17:49:19.
