data_PCOD9253383
_publ_section_title
;
Structure prediction by ZEFSAII (Michael W. Deem and Ramdas Pophale) SiO2 
 PCOD9253383
Probable space group: P 21/C
;
_chemical_formula_sum "Si O2"
_cell_formula_units_Z 28
_cell_length_a 14.395166
_cell_length_b 9.071975
_cell_length_c 16.542133
_cell_angle_alpha 90.000000
_cell_angle_beta 151.740048
_cell_angle_gamma 90.000000
_cell_volume 1022.833498
_symmetry_space_group_name_H-M "P 21/C"
_symmetry_group_IT_number 14
_symmetry_cell_setting 'monoclinic'
loop_
_space_group_symop_operation_xyz
x,y,z
-x,1/2+y,1/2-z
-x,-y,-z
x,1/2-y,1/2+z
loop_
_atom_site_type_symbol
_atom_site_label
_atom_site_fract_x
_atom_site_fract_y
_atom_site_fract_z
Si Si1 0.482650 0.125962 0.197830
Si Si2 0.604983 0.618531 0.662665
Si Si3 0.972563 0.911015 0.807482
Si Si4 0.089523 0.065240 0.739017
Si Si5 0.306707 0.596382 0.678739
Si Si6 0.136376 0.310589 0.993290
Si Si7 0.286507 0.657166 0.848682
O O1 0.649182 0.247977 0.329874
O O2 0.523492 0.015990 0.154765
O O3 0.449106 0.023494 0.249063
O O4 0.289220 0.231359 0.050690
O O5 0.723686 0.555531 0.677147
O O6 0.445706 0.739565 0.513516
O O7 0.767125 0.698131 0.844312
O O8 0.945483 0.738088 0.777053
O O9 0.772141 0.003635 0.654117
O O10 0.099205 0.977579 0.831017
O O11 0.089121 0.941953 0.980302
O O12 0.907174 0.981937 0.556857
O O13 0.340270 0.618987 0.798149
O O14 0.922379 0.240996 0.818849
#
# Coordination Sequence:
#
# PCOD9253383 Si02
#       7
#     4   4   4   4   4   4   4
#     4  12  28  51  90 125 182 227 301 362 455 518
#     4  12  30  57  89 135 176 234 298 376 437 549
#     4  12  29  52  88 131 177 240 297 375 437 551
#     4  12  30  53  88 126 183 234 304 365 458 517
#     4  12  28  52  85 126 175 238 290 377 438 544
#     4  12  27  54  86 127 174 240 288 371 445 538
#     4  12  30  53  91 122 179 228 301 361 457 524
#
# _framework density 27.374932999999999
#
# number of rings (size 3 to 8) (size 9 to 14) (size 15 to 20)
#    0.000    0.000    2.857    4.286    8.000    2.857 
#    0.000    0.000    3.143    0.857    0.000    0.000 
#    0.000    0.000    0.000    0.000    0.000    0.000 
#
# Total GULP energy -157271.905191 kJ/mol
# GULP energy per Si atom -5616.853757 kJ/mol
# Density = 2.731263 g / cm^3
# Si number density = 27.374933 Si / 1000 Ang^3
#
#
#
# Elastic Constant Matrix: (Units=GPa)
#
#
# Indices 1 2 3 4 5 6 
#
# 1 99.1672 81.8562 35.3321 0.0000 3.0455 0.0000
# 2 81.8562 237.8376 66.3615 0.0000 20.4941 0.0000
# 3 35.3321 66.3615 161.5383 0.0000 -13.7536 0.0000
# 4 0.0000 0.0000 0.0000 64.6011 0.0000 6.5107
# 5 3.0455 20.4941 -13.7536 0.0000 49.7593 0.0000
# 6 0.0000 0.0000 0.0000 6.5107 0.0000 58.6894
#
#
#
# Elastic Compliance Matrix: (Units=1/GPa)
#
#
# Indices 1 2 3 4 5 6 
#
# 1 0.014329 -0.004673 -0.001152 0.000000 0.000729 0.000000
# 2 -0.004673 0.006613 -0.001948 0.000000 -0.002976 0.000000
# 3 -0.001152 -0.001948 0.007493 0.000000 0.002944 0.000000
# 4 0.000000 0.000000 0.000000 0.015655 0.000000 -0.001737
# 5 0.000729 -0.002976 0.002944 0.000000 0.022092 0.000000
# 6 0.000000 0.000000 0.000000 -0.001737 0.000000 0.017232
#
#
# Mechanical properties :
#
#
# Convention : Reuss Voigt Hill
#
# Bulk Modulus (GPa) = 77.58508 96.18249 86.88379
# Shear Modulus (GPa) = 48.42321 55.60951 52.01636
#
# Velocity S-wave (km/s) = 4.21038 4.51200 4.36379
# Velocity P-wave (km/s) = 7.21384 7.89656 7.56291
#
# Compressibility (1/GPa) = 0.01288908
#
# Stress axis : x y z
#
# Youngs Moduli (GPa) = 69.78631 151.22205 133.45083
#
# Poissons Ratio (x) = 0.70667 0.15378
# Poissons Ratio (y) = 0.32611 0.25995
# Poissons Ratio (z) = 0.08042 0.29456
#
# Static dielectric constant tensor:
#      x y z
#    x 2.106530 0.000000 -0.027590 
#    y 0.000000 2.142150 0.000000 
#    z -0.027590 0.000000 2.221420 
# 
# From -- ./inp_files/68256.got.cif
#   From: 2010.05.17/outbox.cif.g08.bks.cpg/sg14_35_cif.got.tgz:68256.got - 2010.06.03 17:49:19.
