data_PCOD9253327
_publ_section_title
;
Structure prediction by ZEFSAII (Michael W. Deem and Ramdas Pophale) SiO2 
 PCOD9253327
Probable space group: P 21/C
;
_chemical_formula_sum "Si O2"
_cell_formula_units_Z 16
_cell_length_a 8.391121
_cell_length_b 5.042628
_cell_length_c 17.692408
_cell_angle_alpha 90.000000
_cell_angle_beta 101.562649
_cell_angle_gamma 90.000000
_cell_volume 733.431711
_symmetry_space_group_name_H-M "P 21/C"
_symmetry_group_IT_number 14
_symmetry_cell_setting 'monoclinic'
loop_
_space_group_symop_operation_xyz
x,y,z
-x,1/2+y,1/2-z
-x,-y,-z
x,1/2-y,1/2+z
loop_
_atom_site_type_symbol
_atom_site_label
_atom_site_fract_x
_atom_site_fract_y
_atom_site_fract_z
Si Si1 0.579295 0.249714 0.047706
Si Si2 0.039113 0.750403 0.451990
Si Si3 0.569483 0.376598 0.719609
Si Si4 0.918703 0.855351 0.276571
O O1 0.772672 0.248781 0.054267
O O2 0.542676 0.230546 0.132933
O O3 0.500000 0.500000 0.000000
O O4 0.448733 0.881470 0.229054
O O5 0.000000 0.500000 0.500000
O O6 0.936820 0.767591 0.365017
O O7 0.000000 0.000000 0.500000
O O8 0.500000 0.500000 0.500000
O O9 0.745246 0.514108 0.743131
O O10 0.954886 0.593976 0.230169
#
# Coordination Sequence:
#
# PCOD9253327 Si02
#       4
#     4   4   4   4
#     4  12  28  50  72 107 154 192 241 305 371 439
#     4  12  28  48  74 110 146 196 246 300 370 434
#     4  12  28  48  77 110 145 196 248 301 370 436
#     4  12  26  50  77 103 149 195 250 306 358 436
#
# _framework density 21.815253999999999
#
# number of rings (size 3 to 8) (size 9 to 14) (size 15 to 20)
#    0.000    0.000    2.500    6.000   14.000    0.000 
#    0.000    0.000    0.000    0.000    0.000    0.000 
#    0.000    0.000    0.000    0.000    0.000    0.000 
#
# Total GULP energy -89701.345502 kJ/mol
# GULP energy per Si atom -5606.334094 kJ/mol
# Density = 2.176560 g / cm^3
# Si number density = 21.815254 Si / 1000 Ang^3
#
#
#
# Elastic Constant Matrix: (Units=GPa)
#
#
# Indices 1 2 3 4 5 6 
#
# 1 57.9921 33.1240 33.2387 0.0000 -15.2457 0.0000
# 2 33.1240 199.1714 74.8003 0.0000 -25.8452 0.0000
# 3 33.2387 74.8003 170.5143 0.0000 -18.1237 0.0000
# 4 0.0000 0.0000 0.0000 50.1224 0.0000 -8.0921
# 5 -15.2457 -25.8452 -18.1237 0.0000 37.3743 0.0000
# 6 0.0000 0.0000 0.0000 -8.0921 0.0000 56.4837
#
#
#
# Elastic Compliance Matrix: (Units=1/GPa)
#
#
# Indices 1 2 3 4 5 6 
#
# 1 0.021446 -0.001722 -0.002764 0.000000 0.006217 0.000000
# 2 -0.001722 0.006495 -0.002225 0.000000 0.002710 0.000000
# 3 -0.002764 -0.002225 0.007482 0.000000 0.000962 0.000000
# 4 0.000000 0.000000 0.000000 0.020424 0.000000 0.002926
# 5 0.006217 0.002710 0.000962 0.000000 0.031633 0.000000
# 6 0.000000 0.000000 0.000000 0.002926 0.000000 0.018123
#
#
# Mechanical properties :
#
#
# Convention : Reuss Voigt Hill
#
# Bulk Modulus (GPa) = 45.45574 78.88933 62.17253
# Shear Modulus (GPa) = 39.57009 47.89707 43.73358
#
# Velocity S-wave (km/s) = 4.26358 4.69078 4.48227
# Velocity P-wave (km/s) = 6.71710 8.09808 7.43970
#
# Compressibility (1/GPa) = 0.02199942
#
# Stress axis : x y z
#
# Youngs Moduli (GPa) = 46.62867 153.97641 133.65582
#
# Poissons Ratio (x) = 0.26510 0.36948
# Poissons Ratio (y) = 0.08028 0.29743
# Poissons Ratio (z) = 0.12890 0.34265
#
# Static dielectric constant tensor:
#      x y z
#    x 1.820250 0.000000 -0.000160 
#    y 0.000000 1.731170 0.000000 
#    z -0.000160 0.000000 1.732940 
# 
# From -- ./inp_files/53898.got.cif
#   From: 2010.05.17/outbox.cif.g08.bks.cpg/sg14_27_cif.got.tgz:53898.got - 2010.06.03 17:49:19.
