data_PCOD9253801
_publ_section_title
;
Structure prediction by ZEFSAII (Michael W. Deem and Ramdas Pophale) SiO2 
 PCOD9253801
Probable space group: C 2/C
;
_chemical_formula_sum "Si O2"
_cell_formula_units_Z 64
_cell_length_a 7.547993
_cell_length_b 22.595953
_cell_length_c 13.283276
_cell_angle_alpha 90.000000
_cell_angle_beta 88.124734
_cell_angle_gamma 90.000000
_cell_volume 2264.303787
_symmetry_space_group_name_H-M "C 2/C"
_symmetry_group_IT_number 15
_symmetry_cell_setting 'monoclinic'
loop_
_space_group_symop_operation_xyz
x,y,z
-x,y,1/2-z
-x,-y,-z
x,-y,1/2+z
1/2+x,1/2+y,z
1/2-x,1/2+y,1/2-z
1/2-x,1/2-y,-z
1/2+x,1/2-y,1/2+z
loop_
_atom_site_type_symbol
_atom_site_label
_atom_site_fract_x
_atom_site_fract_y
_atom_site_fract_z
Si Si1 0.667297 0.323034 0.120443
Si Si2 0.636311 0.455997 0.116579
Si Si3 0.667629 0.170764 0.673597
Si Si4 0.220855 0.418132 0.671632
Si Si5 0.550857 0.294591 0.629383
Si Si6 0.137243 0.083345 0.105719
Si Si7 0.143328 0.695698 0.069371
Si Si8 0.273998 0.043242 0.826632
O O1 0.610599 0.387932 0.082591
O O2 0.685023 0.326853 0.240347
O O3 0.569631 0.259930 0.101658
O O4 0.849461 0.319157 0.049212
O O5 0.677896 0.518230 0.058039
O O6 0.435837 0.466737 0.156172
O O7 0.780264 0.450172 0.204195
O O8 0.500000 0.169999 0.750000
O O9 0.657049 0.233538 0.619466
O O10 0.678512 0.105752 0.624756
O O11 0.261672 0.419371 0.789158
O O12 0.422411 0.415299 0.624781
O O13 0.106830 0.362775 0.634728
O O14 0.138659 0.481479 0.644532
O O15 0.500000 0.304179 0.750000
O O16 0.663733 0.347709 0.577761
O O17 0.354102 0.294965 0.588046
#
# Coordination Sequence:
#
# PCOD9253801 Si02
#       8
#     8   8   8   8   8   8   8   8
#     4  10  18  27  41  69  94 111 135 183 222 253
#     4   8  15  26  41  65  88 113 139 169 218 262
#     4  10  17  28  45  70  87 107 147 184 212 244
#     4   8  12  23  39  61  81 109 144 168 209 258
#     4  10  14  25  42  65  87 106 142 180 214 257
#     4   8  11  21  41  59  83 105 136 176 209 253
#     4  10  17  26  43  68  90 112 141 177 226 251
#     4   8  15  26  44  63  84 113 145 175 209 255
#
# _framework density 28.264756999999999
#
# number of rings (size 3 to 8) (size 9 to 14) (size 15 to 20)
#    0.000    3.000    5.000    1.500    0.000    0.000 
#    0.000    5.625    0.000    1.500   16.250    0.000 
#    0.000    0.000    0.000    0.000    0.000    0.000 
#
# Total GULP energy -178245.489216 kJ/mol
# GULP energy per Si atom -5570.171538 kJ/mol
# Density = 2.820043 g / cm^3
# Si number density = 28.264757 Si / 1000 Ang^3
#
#
#
# Elastic Constant Matrix: (Units=GPa)
#
#
# Indices 1 2 3 4 5 6 
#
# 1 64.3355 35.3038 3.5863 0.0000 -2.9558 0.0000
# 2 35.3038 355.1953 45.4791 0.0000 1.4392 0.0000
# 3 3.5863 45.4791 66.4561 0.0000 19.2218 0.0000
# 4 0.0000 0.0000 0.0000 28.4133 0.0000 -1.5983
# 5 -2.9558 1.4392 19.2218 0.0000 14.7987 0.0000
# 6 0.0000 0.0000 0.0000 -1.5983 0.0000 21.4617
#
#
#
# Elastic Compliance Matrix: (Units=1/GPa)
#
#
# Indices 1 2 3 4 5 6 
#
# 1 0.016689 -0.001500 -0.001411 0.000000 0.005312 0.000000
# 2 -0.001500 0.003369 -0.003273 0.000000 0.003623 0.000000
# 3 -0.001411 -0.003273 0.027795 0.000000 -0.036066 0.000000
# 4 0.000000 0.000000 0.000000 0.035343 0.000000 0.002632
# 5 0.005312 0.003623 -0.036066 0.000000 0.115128 0.000000
# 6 0.000000 0.000000 0.000000 0.002632 0.000000 0.046791
#
#
# Mechanical properties :
#
#
# Convention : Reuss Voigt Hill
#
# Bulk Modulus (GPa) = 28.17914 72.74725 50.46319
# Shear Modulus (GPa) = 18.56600 39.70925 29.13762
#
# Velocity S-wave (km/s) = 2.56571 3.75227 3.21422
# Velocity P-wave (km/s) = 4.33226 6.67581 5.62738
#
# Compressibility (1/GPa) = 0.03548725
#
# Stress axis : x y z
#
# Youngs Moduli (GPa) = 59.91925 296.84685 35.97761
#
# Poissons Ratio (x) = 0.44518 0.05075
# Poissons Ratio (y) = 0.08986 0.11774
# Poissons Ratio (z) = 0.08452 0.97144
#
# Static dielectric constant tensor:
#      x y z
#    x 2.220360 0.000000 -0.000890 
#    y 0.000000 2.368070 0.000000 
#    z -0.000890 0.000000 2.362700 
# 
# From -- ./inp_files/199982.got.cif
#   From: 2010.05.17/outbox.cif.g08.bks.cpg/sg15_100_cif.got.tgz:199982.got - 2010.06.03 18:47:42.
