data_PCOD9253537
_publ_section_title
;
Structure prediction by ZEFSAII (Michael W. Deem and Ramdas Pophale) SiO2 
 PCOD9253537
Probable space group: P 21/C
;
_chemical_formula_sum "Si O2"
_cell_formula_units_Z 28
_cell_length_a 18.000000
_cell_length_b 12.000000
_cell_length_c 21.000000
_cell_angle_alpha 90.000000
_cell_angle_beta 160.000000
_cell_angle_gamma 90.000000
_cell_volume 1551.403370
_symmetry_space_group_name_H-M "P 21/C"
_symmetry_group_IT_number 14
_symmetry_cell_setting 'monoclinic'
loop_
_space_group_symop_operation_xyz
x,y,z
-x,1/2+y,1/2-z
-x,-y,-z
x,1/2-y,1/2+z
loop_
_atom_site_type_symbol
_atom_site_label
_atom_site_fract_x
_atom_site_fract_y
_atom_site_fract_z
Si Si1 0.901598 0.443156 0.827362
Si Si2 0.783726 0.442060 0.137134
Si Si3 0.356089 0.037392 0.761322
Si Si4 0.794715 0.581149 0.614593
Si Si5 0.349792 0.203427 0.291050
Si Si6 0.387883 0.188491 0.475319
Si Si7 0.885495 0.186299 0.846480
O O1 0.724152 0.482292 0.736797
O O2 0.851744 0.505681 0.722055
O O3 0.894943 0.309000 0.821392
O O4 0.143770 0.475379 0.045874
O O5 0.714868 0.572038 0.083657
O O6 0.857650 0.403286 0.267594
O O7 0.992018 0.419885 0.258980
O O8 0.560422 0.372249 0.941941
O O9 0.391481 0.168718 0.803127
O O10 0.573057 0.977841 0.910391
O O11 0.721124 0.705061 0.577773
O O12 0.343708 0.198721 0.363399
O O13 0.110860 0.172263 0.068399
O O14 0.652761 0.185467 0.696346
#
# Coordination Sequence:
#
# PCOD9253537 Si02
#       7
#     4   4   4   4   4   4   4
#     4  10  20  37  63  91 113 152 205 246 289 342
#     4  11  27  38  58  91 124 160 196 233 310 365
#     4  10  20  37  63  91 113 152 205 246 289 342
#     4  12  23  38  61  86 130 155 188 251 302 351
#     4  10  21  42  66  87 116 154 205 252 287 344
#     4  11  23  39  61  90 114 161 204 237 293 358
#     4  10  21  42  66  87 116 154 205 252 287 344
#
# _framework density 18.048175000000001
#
# number of rings (size 3 to 8) (size 9 to 14) (size 15 to 20)
#    0.000    1.429    2.857    3.857    4.000    3.429 
#    0.000    0.000    0.000    0.000    0.000    0.000 
#    0.000    0.000    0.000    0.000    0.000    0.000 
#
# Total GULP energy -156331.705410 kJ/mol
# GULP energy per Si atom -5583.275193 kJ/mol
# Density = 1.800710 g / cm^3
# Si number density = 18.048175 Si / 1000 Ang^3
#
#
#
# Elastic Constant Matrix: (Units=GPa)
#
#
# Indices 1 2 3 4 5 6 
#
# 1 66.5596 29.4098 43.3677 0.0000 35.8662 0.0000
# 2 29.4098 120.9063 52.4436 0.0000 21.9709 0.0000
# 3 43.3677 52.4436 154.3634 0.0000 28.3152 0.0000
# 4 0.0000 0.0000 0.0000 36.7154 0.0000 6.6048
# 5 35.8662 21.9709 28.3152 0.0000 38.2203 0.0000
# 6 0.0000 0.0000 0.0000 6.6048 0.0000 23.2622
#
#
#
# Elastic Compliance Matrix: (Units=1/GPa)
#
#
# Indices 1 2 3 4 5 6 
#
# 1 0.032674 -0.001406 -0.003733 0.000000 -0.027088 0.000000
# 2 -0.001406 0.010216 -0.002593 0.000000 -0.002632 0.000000
# 3 -0.003733 -0.002593 0.008670 0.000000 -0.001429 0.000000
# 4 0.000000 0.000000 0.000000 0.028703 0.000000 -0.008149
# 5 -0.027088 -0.002632 -0.001429 0.000000 0.054156 0.000000
# 6 0.000000 0.000000 0.000000 -0.008149 0.000000 0.045302
#
#
# Mechanical properties :
#
#
# Convention : Reuss Voigt Hill
#
# Bulk Modulus (GPa) = 27.70400 65.80793 46.75596
# Shear Modulus (GPa) = 24.12929 34.08014 29.10471
#
# Velocity S-wave (km/s) = 3.66038 4.35016 4.02009
# Velocity P-wave (km/s) = 5.76610 7.85960 6.89279
#
# Compressibility (1/GPa) = 0.03609587
#
# Stress axis : x y z
#
# Youngs Moduli (GPa) = 30.60499 97.88674 115.33817
#
# Poissons Ratio (x) = 0.13765 0.43058
# Poissons Ratio (y) = 0.04304 0.29906
# Poissons Ratio (z) = 0.11425 0.25381
#
# Static dielectric constant tensor:
#      x y z
#    x 1.602880 0.000000 -0.006380 
#    y 0.000000 1.627250 0.000000 
#    z -0.006380 0.000000 1.635010 
# 
# From -- ./inp_files/69317.got.cif
#   From: 2010.05.17/outbox.ucp.g08.bks.cvg/sg14_35_cif.got.tgz:69317.got - 2010.06.11 12:31:08.
