data_PCOD9253860
_publ_section_title
;
Structure prediction by ZEFSAII (Michael W. Deem and Ramdas Pophale) SiO2 
 PCOD9253860
Probable space group: C 2/C
;
_chemical_formula_sum "Si O2"
_cell_formula_units_Z 44
_cell_length_a 14.798576
_cell_length_b 10.772885
_cell_length_c 11.245221
_cell_angle_alpha 90.000000
_cell_angle_beta 117.154269
_cell_angle_gamma 90.000000
_cell_volume 1595.155543
_symmetry_space_group_name_H-M "C 2/C"
_symmetry_group_IT_number 15
_symmetry_cell_setting 'monoclinic'
loop_
_space_group_symop_operation_xyz
x,y,z
-x,y,1/2-z
-x,-y,-z
x,-y,1/2+z
1/2+x,1/2+y,z
1/2-x,1/2+y,1/2-z
1/2-x,1/2-y,-z
1/2+x,1/2-y,1/2+z
loop_
_atom_site_type_symbol
_atom_site_label
_atom_site_fract_x
_atom_site_fract_y
_atom_site_fract_z
Si Si1 0.851357 0.970317 0.609676
Si Si2 0.363424 0.423776 0.876247
Si Si3 0.128777 0.462563 0.719614
Si Si4 0.654996 0.807322 0.530231
Si Si5 0.000000 0.320338 0.250000
Si Si6 0.287670 0.272349 0.181901
O O1 0.904315 0.005560 0.516082
O O2 0.804588 0.106557 0.616118
O O3 0.904807 0.932952 0.766991
O O4 0.756074 0.873436 0.537675
O O5 0.249853 0.479218 0.787940
O O6 0.327097 0.283210 0.887040
O O7 0.099780 0.419136 0.570197
O O8 0.131469 0.338485 0.804876
O O9 0.076187 0.583378 0.733225
O O10 0.571952 0.755301 0.389875
O O11 0.684608 0.723170 0.660735
#
# Coordination Sequence:
#
# PCOD9253860 Si02
#       6
#     8   8   8   8   4   8
#     4  10  14  31  43  58  96 115 148 184 210 266
#     4   8  17  25  42  65  81 120 148 168 226 253
#     4   7  17  24  37  64  83 120 145 165 221 255
#     4   8  18  25  39  69  81 124 142 166 234 249
#     4  12  12  26  44  54 104 110 142 184 204 286
#     4   7  16  28  40  60  89 116 150 179 210 269
#
# _framework density 27.583515999999999
#
# number of rings (size 3 to 8) (size 9 to 14) (size 15 to 20)
#    2.182    1.455    1.818    1.091    0.000    0.000 
#    0.000    3.636    0.000    0.000    0.000    0.000 
#    0.000   27.636    0.000    0.000    0.000    0.000 
#
# Total GULP energy -122525.453538 kJ/mol
# GULP energy per Si atom -5569.338797 kJ/mol
# Density = 2.752074 g / cm^3
# Si number density = 27.583516 Si / 1000 Ang^3
#
#
#
# Elastic Constant Matrix: (Units=GPa)
#
#
# Indices 1 2 3 4 5 6 
#
# 1 79.1901 21.0417 50.6151 0.0000 -7.1485 0.0000
# 2 21.0417 94.3511 45.4903 0.0000 -0.6313 0.0000
# 3 50.6151 45.4903 213.5716 0.0000 -5.6573 0.0000
# 4 0.0000 0.0000 0.0000 45.2590 0.0000 0.8507
# 5 -7.1485 -0.6313 -5.6573 0.0000 53.2752 0.0000
# 6 0.0000 0.0000 0.0000 0.8507 0.0000 23.0601
#
#
#
# Elastic Compliance Matrix: (Units=1/GPa)
#
#
# Indices 1 2 3 4 5 6 
#
# 1 0.015314 -0.001867 -0.003187 0.000000 0.001694 0.000000
# 2 -0.001867 0.012040 -0.002131 0.000000 -0.000334 0.000000
# 3 -0.003187 -0.002131 0.005896 0.000000 0.000173 0.000000
# 4 0.000000 0.000000 0.000000 0.022110 0.000000 -0.000816
# 5 0.001694 -0.000334 0.000173 0.000000 0.019012 0.000000
# 6 0.000000 0.000000 0.000000 -0.000816 0.000000 0.043395
#
#
# Mechanical properties :
#
#
# Convention : Reuss Voigt Hill
#
# Bulk Modulus (GPa) = 52.96567 69.04521 61.00544
# Shear Modulus (GPa) = 36.11913 42.31659 39.21786
#
# Velocity S-wave (km/s) = 3.62255 3.92104 3.77475
# Velocity P-wave (km/s) = 6.06142 6.75167 6.41584
#
# Compressibility (1/GPa) = 0.01888015
#
# Stress axis : x y z
#
# Youngs Moduli (GPa) = 65.30084 83.05443 169.60854
#
# Poissons Ratio (x) = 0.15510 0.54048
# Poissons Ratio (y) = 0.12195 0.36141
# Poissons Ratio (z) = 0.20809 0.17697
#
# Static dielectric constant tensor:
#      x y z
#    x 2.169480 0.000000 -0.093570 
#    y 0.000000 2.357160 0.000000 
#    z -0.093570 0.000000 2.160750 
# 
# From -- ./inp_files/110710.got.cif
#   From: 2010.05.17/outbox.cif.g08.bks.cpg/sg15_56_cif.got.tgz:110710.got - 2010.06.03 18:47:42.
