data_PCOD9253367
_publ_section_title
;
Structure prediction by ZEFSAII (Michael W. Deem and Ramdas Pophale) SiO2 
 PCOD9253367
Probable space group: P 21/C
;
_chemical_formula_sum "Si O2"
_cell_formula_units_Z 20
_cell_length_a 8.824330
_cell_length_b 10.123656
_cell_length_c 9.460063
_cell_angle_alpha 90.000000
_cell_angle_beta 82.953760
_cell_angle_gamma 90.000000
_cell_volume 838.727109
_symmetry_space_group_name_H-M "P 21/C"
_symmetry_group_IT_number 14
_symmetry_cell_setting 'monoclinic'
loop_
_space_group_symop_operation_xyz
x,y,z
-x,1/2+y,1/2-z
-x,-y,-z
x,1/2-y,1/2+z
loop_
_atom_site_type_symbol
_atom_site_label
_atom_site_fract_x
_atom_site_fract_y
_atom_site_fract_z
Si Si1 0.571640 0.462850 0.643040
Si Si2 0.106892 0.631764 0.500359
Si Si3 0.248561 0.354720 0.176464
Si Si4 0.711059 0.624612 0.145285
Si Si5 0.927147 0.115270 0.674734
O O1 0.500000 0.500000 0.500000
O O2 0.728759 0.389923 0.589345
O O3 0.625582 0.583169 0.736036
O O4 0.446586 0.389387 0.751852
O O5 0.129878 0.655464 0.663856
O O6 0.043319 0.761792 0.431959
O O7 0.000000 0.500000 0.500000
O O8 0.195048 0.225906 0.268270
O O9 0.097099 0.444235 0.177787
O O10 0.310351 0.328331 0.012776
O O11 0.803953 0.487947 0.131975
#
# Coordination Sequence:
#
# PCOD9253367 Si02
#       5
#     4   4   4   4   4
#     4  12  27  49  78 109 164 204 259 324 395 465
#     4  12  27  51  77 113 156 208 260 322 390 468
#     4  12  27  49  78 110 164 204 264 324 388 471
#     4  12  28  49  78 120 155 210 263 325 401 459
#     4  12  27  48  82 112 155 205 267 320 390 468
#
# _framework density 23.845659000000001
#
# number of rings (size 3 to 8) (size 9 to 14) (size 15 to 20)
#    0.000    0.000    4.000    4.800    5.600    1.600 
#    0.000    0.000    0.000    0.000    0.000    0.000 
#    0.000    0.000    0.000    0.000    0.000    0.000 
#
# Total GULP energy -111973.651620 kJ/mol
# GULP energy per Si atom -5598.682581 kJ/mol
# Density = 2.379139 g / cm^3
# Si number density = 23.845659 Si / 1000 Ang^3
#
#
#
# Elastic Constant Matrix: (Units=GPa)
#
#
# Indices 1 2 3 4 5 6 
#
# 1 108.3339 14.8492 37.8619 0.0000 -9.4675 0.0000
# 2 14.8492 75.3158 51.9280 0.0000 15.6973 0.0000
# 3 37.8619 51.9280 241.4070 0.0000 2.6833 0.0000
# 4 0.0000 0.0000 0.0000 44.1715 0.0000 -0.1349
# 5 -9.4675 15.6973 2.6833 0.0000 47.0881 0.0000
# 6 0.0000 0.0000 0.0000 -0.1349 0.0000 31.1807
#
#
#
# Elastic Compliance Matrix: (Units=1/GPa)
#
#
# Indices 1 2 3 4 5 6 
#
# 1 0.010135 -0.001689 -0.001256 0.000000 0.002672 0.000000
# 2 -0.001689 0.017149 -0.003359 0.000000 -0.005865 0.000000
# 3 -0.001256 -0.003359 0.005055 0.000000 0.000579 0.000000
# 4 0.000000 0.000000 0.000000 0.022639 0.000000 0.000098
# 5 0.002672 -0.005865 0.000579 0.000000 0.023696 0.000000
# 6 0.000000 0.000000 0.000000 0.000098 0.000000 0.032072
#
#
# Mechanical properties :
#
#
# Convention : Reuss Voigt Hill
#
# Bulk Modulus (GPa) = 50.68127 70.48165 60.58146
# Shear Modulus (GPa) = 38.48219 45.84922 42.16571
#
# Velocity S-wave (km/s) = 4.02157 4.38967 4.20965
# Velocity P-wave (km/s) = 6.54707 7.43733 7.00635
#
# Compressibility (1/GPa) = 0.01973116
#
# Stress axis : x y z
#
# Youngs Moduli (GPa) = 98.67071 58.31409 197.80953
#
# Poissons Ratio (x) = 0.09851 0.24842
# Poissons Ratio (y) = 0.16668 0.66437
# Poissons Ratio (z) = 0.12392 0.19585
#
# Static dielectric constant tensor:
#      x y z
#    x 1.938610 0.000000 0.007410 
#    y 0.000000 2.042780 0.000000 
#    z 0.007410 0.000000 1.879820 
# 
# From -- ./inp_files/7885.got.cif
#   From: 2010.05.17/outbox.cif.g08.bks.cpg/sg14_4_cif.got.tgz:7885.got - 2010.06.03 17:49:19.
