data_PCOD9253964
_publ_section_title
;
Structure prediction by ZEFSAII (Michael W. Deem and Ramdas Pophale) SiO2 
 PCOD9253964
Probable space group: C 2/C
;
_chemical_formula_sum "Si O2"
_cell_formula_units_Z 40
_cell_length_a 25.087472
_cell_length_b 7.898015
_cell_length_c 13.120921
_cell_angle_alpha 90.000000
_cell_angle_beta 140.462186
_cell_angle_gamma 90.000000
_cell_volume 1654.996850
_symmetry_space_group_name_H-M "C 2/C"
_symmetry_group_IT_number 15
_symmetry_cell_setting 'monoclinic'
loop_
_space_group_symop_operation_xyz
x,y,z
-x,y,1/2-z
-x,-y,-z
x,-y,1/2+z
1/2+x,1/2+y,z
1/2-x,1/2+y,1/2-z
1/2-x,1/2-y,-z
1/2+x,1/2-y,1/2+z
loop_
_atom_site_type_symbol
_atom_site_label
_atom_site_fract_x
_atom_site_fract_y
_atom_site_fract_z
Si Si1 0.940559 0.334359 0.405075
Si Si2 0.052543 0.213901 0.730069
Si Si3 0.184218 0.992682 0.519866
Si Si4 0.333034 0.965620 0.091957
Si Si5 0.782869 0.639361 0.824382
O O1 0.901941 0.332483 0.234434
O O2 0.858220 0.353422 0.354212
O O3 0.000000 0.500000 0.500000
O O4 0.995469 0.195890 0.546275
O O5 0.124337 0.353396 0.815387
O O6 0.000000 0.283936 0.750000
O O7 0.096260 0.047994 0.839116
O O8 0.247466 0.054748 0.527095
O O9 0.216733 0.811185 0.610917
O O10 0.196776 0.108033 0.637435
O O11 0.307083 0.988373 0.937239
#
# Coordination Sequence:
#
# PCOD9253964 Si02
#       5
#     8   8   8   8   8
#     4   9  17  27  49  81 101 130 179 228 258 308
#     4  10  15  28  51  76  99 133 180 217 261 311
#     4  10  20  32  55  80 107 143 184 222 275 323
#     4   9  18  31  52  79 106 138 183 224 265 317
#     4  10  18  34  51  82 105 144 179 230 266 325
#
# _framework density 24.169231
#
# number of rings (size 3 to 8) (size 9 to 14) (size 15 to 20)
#    0.000    2.400    4.000    2.400    0.000    0.000 
#    0.000    4.000    0.000    4.800   31.200    0.000 
#    0.000    0.000    0.000    0.000    0.000    0.000 
#
# Total GULP energy -111547.686133 kJ/mol
# GULP energy per Si atom -5577.384307 kJ/mol
# Density = 2.411422 g / cm^3
# Si number density = 24.169231 Si / 1000 Ang^3
#
#
#
# Elastic Constant Matrix: (Units=GPa)
#
#
# Indices 1 2 3 4 5 6 
#
# 1 34.1093 10.0404 -19.5876 0.0000 10.7935 0.0000
# 2 10.0404 75.1707 59.7637 0.0000 -22.1838 0.0000
# 3 -19.5876 59.7637 -23.7656 0.0000 22.5040 0.0000
# 4 0.0000 0.0000 0.0000 17.1242 0.0000 -4.7859
# 5 10.7935 -22.1838 22.5040 0.0000 15.6583 0.0000
# 6 0.0000 0.0000 0.0000 -4.7859 0.0000 11.9677
#
#
#
# Elastic Compliance Matrix: (Units=1/GPa)
#
#
# Indices 1 2 3 4 5 6 
#
# 1 0.023077 0.003818 -0.008201 0.000000 0.001287 0.000000
# 2 0.003818 0.005801 0.007087 0.000000 -0.004599 0.000000
# 3 -0.008201 0.007087 -0.001116 0.000000 0.017298 0.000000
# 4 0.000000 0.000000 0.000000 0.065745 0.000000 0.026291
# 5 0.001287 -0.004599 0.017298 0.000000 0.031601 0.000000
# 6 0.000000 0.000000 0.000000 0.026291 0.000000 0.094072
#
#
# Mechanical properties :
#
#
# Convention : Reuss Voigt Hill
#
# Bulk Modulus (GPa) = 30.14718 20.66082 25.40400
# Shear Modulus (GPa) = 22.23916 11.30323 16.77120
#
# Velocity S-wave (km/s) = 3.03668 2.16492 2.63707
# Velocity P-wave (km/s) = 4.97952 3.84917 4.45038
#
# Compressibility (1/GPa) = 0.03317060
#
# Stress axis : x y z
#
# Youngs Moduli (GPa) = 43.33318 172.37706 -896.09277
#
# Poissons Ratio (x) = -0.65806 -7.34872
# Poissons Ratio (y) = -0.16543 6.35099
# Poissons Ratio (z) = 0.35537 -1.22171
#
# Static dielectric constant tensor:
#      x y z
#    x 1.864800 0.000000 -0.028460 
#    y 0.000000 2.059260 0.000000 
#    z -0.028460 0.000000 2.016670 
# 
# From -- ./inp_files/117752.got.cif
#   From: 2010.05.17/outbox.cif.g08.bks.cpg/sg15_59_cif.got.tgz:117752.got - 2010.06.03 18:47:42.
