data_PCOD9253437
_publ_section_title
;
Structure prediction by ZEFSAII (Michael W. Deem and Ramdas Pophale) SiO2 
 PCOD9253437
Probable space group: P 21/C
;
_chemical_formula_sum "Si O2"
_cell_formula_units_Z 20
_cell_length_a 12.564301
_cell_length_b 14.716285
_cell_length_c 7.935578
_cell_angle_alpha 90.000000
_cell_angle_beta 141.358197
_cell_angle_gamma 90.000000
_cell_volume 916.246857
_symmetry_space_group_name_H-M "P 21/C"
_symmetry_group_IT_number 14
_symmetry_cell_setting 'monoclinic'
loop_
_space_group_symop_operation_xyz
x,y,z
-x,1/2+y,1/2-z
-x,-y,-z
x,1/2-y,1/2+z
loop_
_atom_site_type_symbol
_atom_site_label
_atom_site_fract_x
_atom_site_fract_y
_atom_site_fract_z
Si Si1 0.065386 0.296773 0.224079
Si Si2 0.615724 0.089541 0.620001
Si Si3 0.074960 0.881885 0.758777
Si Si4 0.709160 0.827289 0.699060
Si Si5 0.843749 0.993088 0.675129
O O1 0.154588 0.349916 0.485563
O O2 0.220733 0.264585 0.295730
O O3 0.982349 0.206197 0.200247
O O4 0.933629 0.349202 0.943617
O O5 0.480756 0.171160 0.463783
O O6 0.500000 0.000000 0.500000
O O7 0.724677 0.077841 0.581772
O O8 0.746051 0.091885 0.937505
O O9 0.936783 0.961963 0.619978
O O10 0.731129 0.905132 0.586542
O O11 0.000000 0.000000 0.000000
#
# Coordination Sequence:
#
# PCOD9253437 Si02
#       5
#     4   4   4   4   4
#     4   9  18  31  47  70  93 121 150 187 232 274
#     4   9  17  30  48  68  90 122 154 187 226 266
#     4   9  17  31  50  68  92 121 154 186 226 278
#     4   9  17  30  48  68  93 117 151 191 228 267
#     4   8  15  30  48  64  88 123 152 179 221 273
#
# _framework density 21.82818
#
# number of rings (size 3 to 8) (size 9 to 14) (size 15 to 20)
#    0.000    3.200    0.000    0.000    0.000    1.600 
#    0.000   10.000    0.000    0.000    0.000    0.000 
#    0.000    0.000    0.000    0.000    0.000    0.000 
#
# Total GULP energy -111356.929286 kJ/mol
# GULP energy per Si atom -5567.846464 kJ/mol
# Density = 2.177850 g / cm^3
# Si number density = 21.828180 Si / 1000 Ang^3
#
#
#
# Elastic Constant Matrix: (Units=GPa)
#
#
# Indices 1 2 3 4 5 6 
#
# 1 49.4474 21.9230 35.1335 0.0000 4.1381 0.0000
# 2 21.9230 49.3132 22.6249 0.0000 2.6009 0.0000
# 3 35.1335 22.6249 85.1041 0.0000 10.6982 0.0000
# 4 0.0000 0.0000 0.0000 34.3366 0.0000 1.8312
# 5 4.1381 2.6009 10.6982 0.0000 34.8870 0.0000
# 6 0.0000 0.0000 0.0000 1.8312 0.0000 42.7299
#
#
#
# Elastic Compliance Matrix: (Units=1/GPa)
#
#
# Indices 1 2 3 4 5 6 
#
# 1 0.031964 -0.009288 -0.010751 0.000000 0.000198 0.000000
# 2 -0.009288 0.025795 -0.003037 0.000000 0.000110 0.000000
# 3 -0.010751 -0.003037 0.017481 0.000000 -0.003859 0.000000
# 4 0.000000 0.000000 0.000000 0.029190 0.000000 -0.001251
# 5 0.000198 0.000110 -0.003859 0.000000 0.029816 0.000000
# 6 0.000000 0.000000 0.000000 -0.001251 0.000000 0.023456
#
#
# Mechanical properties :
#
#
# Convention : Reuss Voigt Hill
#
# Bulk Modulus (GPa) = 34.37873 38.13639 36.25756
# Shear Modulus (GPa) = 23.41354 29.33623 26.37488
#
# Velocity S-wave (km/s) = 3.27865 3.66998 3.47982
# Velocity P-wave (km/s) = 5.48786 5.95546 5.72644
#
# Compressibility (1/GPa) = 0.02908775
#
# Stress axis : x y z
#
# Youngs Moduli (GPa) = 31.28525 38.76679 57.20381
#
# Poissons Ratio (x) = 0.36006 0.61502
# Poissons Ratio (y) = 0.29057 0.17374
# Poissons Ratio (z) = 0.33636 0.11774
#
# Static dielectric constant tensor:
#      x y z
#    x 1.896610 0.000000 0.021070 
#    y 0.000000 1.908280 0.000000 
#    z 0.021070 0.000000 1.771560 
# 
# From -- ./inp_files/5684.got.cif
#   From: 2010.05.17/outbox.cif.g08.bks.cpg/sg14_3_cif.got.tgz:5684.got - 2010.06.03 17:49:19.
