data_PCOD9253001
_publ_section_title
;
Structure prediction by ZEFSAII (Michael W. Deem and Ramdas Pophale) SiO2 
 PCOD9253001
Probable space group: P 21/C
;
_chemical_formula_sum "Si O2"
_cell_formula_units_Z 20
_cell_length_a 17.706831
_cell_length_b 8.821357
_cell_length_c 11.556572
_cell_angle_alpha 90.000000
_cell_angle_beta 29.301343
_cell_angle_gamma 90.000000
_cell_volume 883.429306
_symmetry_space_group_name_H-M "P 21/C"
_symmetry_group_IT_number 14
_symmetry_cell_setting 'monoclinic'
loop_
_space_group_symop_operation_xyz
x,y,z
-x,1/2+y,1/2-z
-x,-y,-z
x,1/2-y,1/2+z
loop_
_atom_site_type_symbol
_atom_site_label
_atom_site_fract_x
_atom_site_fract_y
_atom_site_fract_z
Si Si1 0.684569 0.463580 0.770503
Si Si2 0.611374 0.827764 0.550774
Si Si3 0.181463 0.428773 0.641519
Si Si4 0.409411 0.569786 0.729622
Si Si5 0.828404 0.144200 0.622687
O O1 0.780015 0.479431 0.525373
O O2 0.735080 0.303076 0.759379
O O3 0.500000 0.500000 0.000000
O O4 0.724722 0.601553 0.803554
O O5 0.697258 0.706511 0.514171
O O6 0.473912 0.735185 0.674200
O O7 0.564711 0.965612 0.694425
O O8 0.202136 0.534110 0.727306
O O9 0.012460 0.353978 0.868359
O O10 0.500000 0.500000 0.500000
O O11 0.237099 0.577614 0.910573
#
# Coordination Sequence:
#
# PCOD9253001 Si02
#       5
#     4   4   4   4   4
#     4  12  27  46  78 109 147 201 253 307 375 450
#     4  12  27  44  74 108 144 192 253 301 372 443
#     4  11  28  50  71 113 152 192 251 309 375 447
#     4  12  26  47  73 106 147 194 245 310 368 451
#     4  11  28  49  75 104 152 197 244 310 379 443
#
# _framework density 22.639049
#
# number of rings (size 3 to 8) (size 9 to 14) (size 15 to 20)
#    0.000    0.400    4.000    2.400    8.400    2.400 
#    0.000    0.000    0.000    0.000    0.000    0.000 
#    0.000    0.000    0.000    0.000    0.000    0.000 
#
# Total GULP energy -111859.292061 kJ/mol
# GULP energy per Si atom -5592.964603 kJ/mol
# Density = 2.258752 g / cm^3
# Si number density = 22.639049 Si / 1000 Ang^3
#
#
#
# Elastic Constant Matrix: (Units=GPa)
#
#
# Indices 1 2 3 4 5 6 
#
# 1 112.8627 51.2841 29.3238 0.0000 -5.4789 0.0000
# 2 51.2841 138.2419 31.2958 0.0000 -3.4116 0.0000
# 3 29.3238 31.2958 75.0565 0.0000 -8.2089 0.0000
# 4 0.0000 0.0000 0.0000 38.3480 0.0000 8.1653
# 5 -5.4789 -3.4116 -8.2089 0.0000 44.8415 0.0000
# 6 0.0000 0.0000 0.0000 8.1653 0.0000 44.9487
#
#
#
# Elastic Compliance Matrix: (Units=1/GPa)
#
#
# Indices 1 2 3 4 5 6 
#
# 1 0.011223 -0.003501 -0.002861 0.000000 0.000581 0.000000
# 2 -0.003501 0.009080 -0.002438 0.000000 -0.000183 0.000000
# 3 -0.002861 -0.002438 0.015714 0.000000 0.002342 0.000000
# 4 0.000000 0.000000 0.000000 0.027126 0.000000 -0.004928
# 5 0.000581 -0.000183 0.002342 0.000000 0.022786 0.000000
# 6 0.000000 0.000000 0.000000 -0.004928 0.000000 0.023143
#
#
# Mechanical properties :
#
#
# Convention : Reuss Voigt Hill
#
# Bulk Modulus (GPa) = 54.30231 61.10763 57.70497
# Shear Modulus (GPa) = 37.64718 39.91146 38.77932
#
# Velocity S-wave (km/s) = 4.08233 4.20330 4.14326
# Velocity P-wave (km/s) = 6.80138 7.11391 6.95940
#
# Compressibility (1/GPa) = 0.01841542
#
# Stress axis : x y z
#
# Youngs Moduli (GPa) = 89.10348 110.13175 63.63812
#
# Poissons Ratio (x) = 0.38561 0.18208
# Poissons Ratio (y) = 0.31198 0.15516
# Poissons Ratio (z) = 0.25494 0.26852
#
# Static dielectric constant tensor:
#      x y z
#    x 1.879880 0.000000 -0.022860 
#    y 0.000000 1.832430 0.000000 
#    z -0.022860 0.000000 1.818440 
# 
# From -- ./inp_files/33654.got.cif
#   From: 2010.05.17/outbox.cif.g08.bks.cpg/sg14_17_cif.got.tgz:33654.got - 2010.06.03 17:49:19.
