data_PCOD9253792
_publ_section_title
;
Structure prediction by ZEFSAII (Michael W. Deem and Ramdas Pophale) SiO2 
 PCOD9253792
Probable space group: C 2/C
;
_chemical_formula_sum "Si O2"
_cell_formula_units_Z 64
_cell_length_a 22.153599
_cell_length_b 7.005559
_cell_length_c 24.157824
_cell_angle_alpha 90.000000
_cell_angle_beta 140.102308
_cell_angle_gamma 90.000000
_cell_volume 2404.841924
_symmetry_space_group_name_H-M "C 2/C"
_symmetry_group_IT_number 15
_symmetry_cell_setting 'monoclinic'
loop_
_space_group_symop_operation_xyz
x,y,z
-x,y,1/2-z
-x,-y,-z
x,-y,1/2+z
1/2+x,1/2+y,z
1/2-x,1/2+y,1/2-z
1/2-x,1/2-y,-z
1/2+x,1/2-y,1/2+z
loop_
_atom_site_type_symbol
_atom_site_label
_atom_site_fract_x
_atom_site_fract_y
_atom_site_fract_z
Si Si1 0.032574 0.112607 0.215612
Si Si2 0.732696 0.392523 0.907904
Si Si3 0.401592 0.113385 0.316551
Si Si4 0.228929 0.016694 0.019441
Si Si5 0.811370 0.329722 0.859775
Si Si6 0.947753 0.470703 0.657728
Si Si7 0.881888 0.166700 0.329865
Si Si8 0.295047 0.613132 0.378865
O O1 0.140104 0.163427 0.308142
O O2 0.968264 0.301608 0.166828
O O3 0.047043 0.051607 0.161068
O O4 0.000000 0.010452 0.250000
O O5 0.778038 0.205277 0.967287
O O6 0.806896 0.455921 0.912479
O O7 0.697060 0.523420 0.933300
O O8 0.499180 0.137578 0.353659
O O9 0.392892 0.884577 0.318570
O O10 0.311032 0.177635 0.215320
O O11 0.394777 0.184996 0.374547
O O12 0.338894 0.058443 0.088919
O O13 0.191865 0.133465 0.045945
O O14 0.723730 0.400001 0.760581
O O15 0.794568 0.115599 0.868239
O O16 0.000000 0.415544 0.750000
O O17 0.875725 0.175042 0.392051
#
# Coordination Sequence:
#
# PCOD9253792 Si02
#       8
#     8   8   8   8   8   8   8   8
#     4   9  14  25  42  63  85 105 143 184 211 242
#     4   9  16  25  39  63  87 110 138 177 218 253
#     4   9  15  25  43  64  83 111 144 179 210 250
#     4  10  16  24  41  64  87 109 138 179 220 249
#     4   8  15  26  40  61  87 110 140 177 213 250
#     4  10  14  24  40  64  86 103 140 184 212 240
#     4   8  15  24  42  65  84 107 142 179 214 248
#     4   9  15  26  41  64  88 110 139 179 216 251
#
# _framework density 26.612976
#
# number of rings (size 3 to 8) (size 9 to 14) (size 15 to 20)
#    0.000    3.000    3.750    1.500    0.000    0.000 
#    0.000    0.625    0.000    2.250    3.250    0.000 
#    0.000    0.000    0.000    0.000    0.000    0.000 
#
# Total GULP energy -178449.393801 kJ/mol
# GULP energy per Si atom -5576.543556 kJ/mol
# Density = 2.655240 g / cm^3
# Si number density = 26.612976 Si / 1000 Ang^3
#
#
#
# Elastic Constant Matrix: (Units=GPa)
#
#
# Indices 1 2 3 4 5 6 
#
# 1 240.6038 7.6316 33.8989 0.0000 -59.0688 0.0003
# 2 7.6316 57.0640 20.6127 -0.0002 -1.2554 0.0009
# 3 33.8989 20.6127 60.9542 0.0000 -13.9286 -0.0001
# 4 0.0000 -0.0002 0.0000 26.9353 0.0000 -0.9961
# 5 -59.0688 -1.2554 -13.9286 0.0000 43.9359 -0.0002
# 6 0.0003 0.0009 -0.0001 -0.9961 -0.0002 33.0986
#
#
#
# Elastic Compliance Matrix: (Units=1/GPa)
#
#
# Indices 1 2 3 4 5 6 
#
# 1 0.006365 -0.000066 -0.001684 0.000000 0.008021 0.000000
# 2 -0.000066 0.020081 -0.007162 0.000000 -0.001786 -0.000001
# 3 -0.001684 -0.007162 0.020700 0.000000 0.004093 0.000000
# 4 0.000000 0.000000 0.000000 0.037167 0.000000 0.001119
# 5 0.008021 -0.001786 0.004093 0.000000 0.034791 0.000000
# 6 0.000000 -0.000001 0.000000 0.001119 0.000000 0.030246
#
#
# Mechanical properties :
#
#
# Convention : Reuss Voigt Hill
#
# Bulk Modulus (GPa) = 34.10618 53.65652 43.88135
# Shear Modulus (GPa) = 28.25678 40.55922 34.40800
#
# Velocity S-wave (km/s) = 3.26201 3.90813 3.59960
# Velocity P-wave (km/s) = 5.19914 6.36947 5.81383
#
# Compressibility (1/GPa) = 0.02932020
#
# Stress axis : x y z
#
# Youngs Moduli (GPa) = 157.11248 49.79887 48.30983
#
# Poissons Ratio (x) = 0.00330 0.08137
# Poissons Ratio (y) = 0.01042 0.34599
# Poissons Ratio (z) = 0.26464 0.35665
#
# Static dielectric constant tensor:
#      x y z
#    x 2.268930 0.000000 0.093500 
#    y 0.000000 2.204830 0.000000 
#    z 0.093500 0.000000 2.469420 
# 
# From -- ./inp_files/279803.got.cif
#   From: 2010.05.17/outbox.cif.g08.bks.cpg/sg15_140_cif.got.tgz:279803.got - 2010.06.03 18:47:42.
