data_PCOD9253065
_publ_section_title
;
Structure prediction by ZEFSAII (Michael W. Deem and Ramdas Pophale) SiO2 
 PCOD9253065
Probable space group: P 21/C
;
_chemical_formula_sum "Si O2"
_cell_formula_units_Z 26
_cell_length_a 13.548163
_cell_length_b 8.166062
_cell_length_c 13.766282
_cell_angle_alpha 90.000000
_cell_angle_beta 137.618231
_cell_angle_gamma 90.000000
_cell_volume 1026.627896
_symmetry_space_group_name_H-M "P 21/C"
_symmetry_group_IT_number 14
_symmetry_cell_setting 'monoclinic'
loop_
_space_group_symop_operation_xyz
x,y,z
-x,1/2+y,1/2-z
-x,-y,-z
x,1/2-y,1/2+z
loop_
_atom_site_type_symbol
_atom_site_label
_atom_site_fract_x
_atom_site_fract_y
_atom_site_fract_z
Si Si1 0.864397 0.419297 0.956641
Si Si2 0.970219 0.671344 0.287003
Si Si3 0.189970 0.679048 0.284187
Si Si4 0.472217 0.678039 0.018947
Si Si5 0.723542 0.768001 0.857036
Si Si6 0.322553 0.151844 0.960454
Si Si7 0.000000 0.000000 0.000000
O O1 0.815549 0.290248 0.835738
O O2 0.758147 0.573224 0.897723
O O3 0.930231 0.313688 0.091164
O O4 0.000000 0.500000 0.000000
O O5 0.036665 0.660325 0.227489
O O6 0.801424 0.715976 0.156384
O O7 0.994212 0.519910 0.376287
O O8 0.301281 0.803901 0.414936
O O9 0.267968 0.507158 0.364278
O O10 0.581597 0.719363 0.185312
O O11 0.521297 0.796856 0.966816
O O12 0.500000 0.500000 0.000000
O O13 0.682945 0.857255 0.928136
O O14 0.862484 0.862883 0.910813
#
# Coordination Sequence:
#
# PCOD9253065 Si02
#       7
#     4   4   4   4   4   4   2
#     4  12  23  46  72 110 146 189 242 305 378 445
#     4  12  27  43  78 117 140 194 249 312 377 453
#     4  12  27  47  77 104 154 198 240 312 385 441
#     4  12  30  50  70 107 149 199 253 307 376 448
#     4  12  27  45  76 106 149 191 247 310 369 457
#     4  12  26  48  75 107 148 194 249 305 380 448
#     4  12  22  46  72 108 152 176 252 310 372 434
#
# _framework density 25.325631999999999
#
# number of rings (size 3 to 8) (size 9 to 14) (size 15 to 20)
#    0.000    0.000    7.692    1.385    4.308    2.462 
#    0.000    0.000    0.000    0.000    0.000    0.000 
#    0.000    0.000    0.000    0.000    0.000    0.000 
#
# Total GULP energy -145186.653637 kJ/mol
# GULP energy per Si atom -5584.102063 kJ/mol
# Density = 2.526799 g / cm^3
# Si number density = 25.325632 Si / 1000 Ang^3
#
#
#
# Elastic Constant Matrix: (Units=GPa)
#
#
# Indices 1 2 3 4 5 6 
#
# 1 101.3452 -8.3250 23.2480 0.0000 -11.6092 0.0000
# 2 -8.3250 36.4414 1.5263 0.0000 1.5574 0.0000
# 3 23.2480 1.5263 116.6816 0.0000 -4.9161 0.0000
# 4 0.0000 0.0000 0.0000 44.1130 0.0000 1.7063
# 5 -11.6092 1.5574 -4.9161 0.0000 40.6898 0.0000
# 6 0.0000 0.0000 0.0000 1.7063 0.0000 22.8678
#
#
#
# Elastic Compliance Matrix: (Units=1/GPa)
#
#
# Indices 1 2 3 4 5 6 
#
# 1 0.010861 0.002451 -0.002080 0.000000 0.002754 0.000000
# 2 0.002451 0.028058 -0.000876 0.000000 -0.000480 0.000000
# 3 -0.002080 -0.000876 0.009019 0.000000 0.000530 0.000000
# 4 0.000000 0.000000 0.000000 0.022735 0.000000 -0.001696
# 5 0.002754 -0.000480 0.000530 0.000000 0.025444 0.000000
# 6 0.000000 0.000000 0.000000 -0.001696 0.000000 0.043856
#
#
# Mechanical properties :
#
#
# Convention : Reuss Voigt Hill
#
# Bulk Modulus (GPa) = 21.30917 31.92966 26.61941
# Shear Modulus (GPa) = 31.92321 37.40202 34.66261
#
# Velocity S-wave (km/s) = 3.55422 3.84714 3.70358
# Velocity P-wave (km/s) = 5.02749 5.68938 5.36864
#
# Compressibility (1/GPa) = 0.04692816
#
# Stress axis : x y z
#
# Youngs Moduli (GPa) = 92.07114 35.64002 110.88272
#
# Poissons Ratio (x) = -0.08734 0.23064
# Poissons Ratio (y) = -0.22564 0.09708
# Poissons Ratio (z) = 0.19151 0.03120
#
# Static dielectric constant tensor:
#      x y z
#    x 1.977300 0.000000 -0.012980 
#    y 0.000000 2.033880 0.000000 
#    z -0.012980 0.000000 2.172870 
# 
# From -- ./inp_files/46651.got.cif
#   From: 2010.05.17/outbox.cif.g08.bks.cpg/sg14_24_cif.got.tgz:46651.got - 2010.06.03 17:49:19.
