data_PCOD9253911
_publ_section_title
;
Structure prediction by ZEFSAII (Michael W. Deem and Ramdas Pophale) SiO2 
 PCOD9253911
Probable space group: C 2/C
;
_chemical_formula_sum "Si O2"
_cell_formula_units_Z 32
_cell_length_a 7.054659
_cell_length_b 12.177625
_cell_length_c 14.421670
_cell_angle_alpha 90.000000
_cell_angle_beta 76.610644
_cell_angle_gamma 90.000000
_cell_volume 1205.275092
_symmetry_space_group_name_H-M "C 2/C"
_symmetry_group_IT_number 15
_symmetry_cell_setting 'monoclinic'
loop_
_space_group_symop_operation_xyz
x,y,z
-x,y,1/2-z
-x,-y,-z
x,-y,1/2+z
1/2+x,1/2+y,z
1/2-x,1/2+y,1/2-z
1/2-x,1/2-y,-z
1/2+x,1/2-y,1/2+z
loop_
_atom_site_type_symbol
_atom_site_label
_atom_site_fract_x
_atom_site_fract_y
_atom_site_fract_z
Si Si1 0.211244 0.283297 0.373364
Si Si2 0.472845 0.557435 0.602870
Si Si3 0.718532 0.902997 0.762325
Si Si4 0.936982 0.702455 0.057224
O O1 0.333558 0.394750 0.367852
O O2 0.217075 0.220465 0.276542
O O3 0.346732 0.198305 0.418358
O O4 0.004129 0.301649 0.443751
O O5 0.500000 0.500000 0.500000
O O6 0.357461 0.482205 0.687980
O O7 0.374650 0.673792 0.587459
O O8 0.500000 0.926458 0.750000
O O9 0.695162 0.886127 0.876300
#
# Coordination Sequence:
#
# PCOD9253911 Si02
#       4
#     8   8   8   8
#     4   8  15  27  42  72 102 121 167 208 231 295
#     4  10  15  25  45  71  97 132 165 197 252 289
#     4  10  16  27  46  73 102 125 163 209 237 293
#     4   8  15  26  42  72  99 121 170 204 231 297
#
# _framework density 26.549956000000002
#
# number of rings (size 3 to 8) (size 9 to 14) (size 15 to 20)
#    1.500    1.500    2.500    1.500    0.000    0.000 
#    0.000    0.000    0.000    1.500    6.500    3.500 
#    0.000    0.000    0.000    0.000    0.000    0.000 
#
# Total GULP energy -89211.314559 kJ/mol
# GULP energy per Si atom -5575.707160 kJ/mol
# Density = 2.648953 g / cm^3
# Si number density = 26.549956 Si / 1000 Ang^3
#
#
#
# Elastic Constant Matrix: (Units=GPa)
#
#
# Indices 1 2 3 4 5 6 
#
# 1 60.0701 55.3177 52.9025 0.0000 14.3633 0.0000
# 2 55.3177 151.5461 85.0729 0.0000 -68.1214 0.0000
# 3 52.9025 85.0729 204.6199 0.0000 -55.2483 0.0000
# 4 0.0000 0.0000 0.0000 80.0183 0.0000 -46.9566
# 5 14.3633 -68.1214 -55.2483 0.0000 -11.2495 0.0000
# 6 0.0000 0.0000 0.0000 -46.9566 0.0000 65.2478
#
#
#
# Elastic Compliance Matrix: (Units=1/GPa)
#
#
# Indices 1 2 3 4 5 6 
#
# 1 0.013086 0.001086 -0.000473 0.000000 0.012452 0.000000
# 2 0.001086 0.005243 -0.004582 0.000000 -0.007857 0.000000
# 3 -0.000473 -0.004582 0.006123 0.000000 -0.002930 0.000000
# 4 0.000000 0.000000 0.000000 0.021633 0.000000 0.015569
# 5 0.012452 -0.007857 -0.002930 0.000000 -0.011026 0.000000
# 6 0.000000 0.000000 0.000000 0.015569 0.000000 0.026530
#
#
# Mechanical properties :
#
#
# Convention : Reuss Voigt Hill
#
# Bulk Modulus (GPa) = 60.55196 89.20247 74.87722
# Shear Modulus (GPa) = 66.63961 41.66619 54.15290
#
# Velocity S-wave (km/s) = 5.01540 3.96580 4.52116
# Velocity P-wave (km/s) = 7.50968 7.39196 7.45105
#
# Compressibility (1/GPa) = 0.01651474
#
# Stress axis : x y z
#
# Youngs Moduli (GPa) = 76.41858 190.74866 163.31437
#
# Poissons Ratio (x) = -0.20717 0.07718
# Poissons Ratio (y) = -0.08300 0.74828
# Poissons Ratio (z) = 0.03612 0.87398
#
# Static dielectric constant tensor:
#      x y z
#    x 2.254260 0.000000 0.094970 
#    y 0.000000 2.069010 0.000000 
#    z 0.094970 0.000000 2.109680 
# 
# From -- ./inp_files/85168.got.cif
#   From: 2010.05.17/outbox.cif.g08.bks.cpg/sg15_43_cif.got.tgz:85168.got - 2010.06.03 18:47:42.
