data_PCOD9253314
_publ_section_title
;
Structure prediction by ZEFSAII (Michael W. Deem and Ramdas Pophale) SiO2 
 PCOD9253314
Probable space group: P 21/C
;
_chemical_formula_sum "Si O2"
_cell_formula_units_Z 20
_cell_length_a 8.663302
_cell_length_b 5.013323
_cell_length_c 17.584912
_cell_angle_alpha 90.000000
_cell_angle_beta 74.295516
_cell_angle_gamma 90.000000
_cell_volume 735.236456
_symmetry_space_group_name_H-M "P 21/C"
_symmetry_group_IT_number 14
_symmetry_cell_setting 'monoclinic'
loop_
_space_group_symop_operation_xyz
x,y,z
-x,1/2+y,1/2-z
-x,-y,-z
x,1/2-y,1/2+z
loop_
_atom_site_type_symbol
_atom_site_label
_atom_site_fract_x
_atom_site_fract_y
_atom_site_fract_z
Si Si1 0.206025 0.192179 0.846393
Si Si2 0.900667 0.131031 0.446490
Si Si3 0.285683 0.490972 0.164535
Si Si4 0.614698 0.399725 0.248832
Si Si5 0.581898 0.139620 0.061080
O O1 0.330626 0.065555 0.890734
O O2 0.247913 0.509032 0.828101
O O3 0.221700 0.097985 0.756299
O O4 0.026463 0.150759 0.898796
O O5 0.849295 0.959185 0.380303
O O6 0.732375 0.212240 0.504084
O O7 0.000000 0.000000 0.500000
O O8 0.318905 0.807206 0.178253
O O9 0.447649 0.344259 0.113482
O O10 0.496542 0.649614 0.256324
O O11 0.500000 0.000000 0.000000
#
# Coordination Sequence:
#
# PCOD9253314 Si02
#       5
#     4   4   4   4   4
#     4  12  29  52  88 127 170 228 298 369 433 525
#     4  12  32  51  81 125 185 225 282 371 466 514
#     4  12  29  52  92 124 167 235 304 358 425 543
#     4  12  26  48  86 134 165 219 303 373 419 506
#     4  12  30  57  91 126 179 236 291 362 453 536
#
# _framework density 27.202135999999999
#
# number of rings (size 3 to 8) (size 9 to 14) (size 15 to 20)
#    0.000    0.000    2.000    4.800   14.000    0.000 
#    0.000    0.000    0.000    0.000    0.000    0.000 
#    0.000    0.000    0.000    0.000    0.000    0.000 
#
# Total GULP energy -111842.675470 kJ/mol
# GULP energy per Si atom -5592.133773 kJ/mol
# Density = 2.714022 g / cm^3
# Si number density = 27.202136 Si / 1000 Ang^3
#
#
#
# Elastic Constant Matrix: (Units=GPa)
#
#
# Indices 1 2 3 4 5 6 
#
# 1 184.6138 37.0156 85.5386 0.0000 39.6046 0.0000
# 2 37.0156 116.7723 51.6244 0.0000 17.9654 0.0000
# 3 85.5386 51.6244 211.0018 0.0000 37.2975 0.0000
# 4 0.0000 0.0000 0.0000 48.8465 0.0000 6.3970
# 5 39.6046 17.9654 37.2975 0.0000 48.8705 0.0000
# 6 0.0000 0.0000 0.0000 6.3970 0.0000 44.3343
#
#
#
# Elastic Compliance Matrix: (Units=1/GPa)
#
#
# Indices 1 2 3 4 5 6 
#
# 1 0.007430 -0.000797 -0.002086 0.000000 -0.004137 0.000000
# 2 -0.000797 0.009861 -0.001807 0.000000 -0.001601 0.000000
# 3 -0.002086 -0.001807 0.006486 0.000000 -0.002595 0.000000
# 4 0.000000 0.000000 0.000000 0.020867 0.000000 -0.003011
# 5 -0.004137 -0.001601 -0.002595 0.000000 0.026383 0.000000
# 6 0.000000 0.000000 0.000000 -0.003011 0.000000 0.022990
#
#
# Mechanical properties :
#
#
# Convention : Reuss Voigt Hill
#
# Bulk Modulus (GPa) = 69.45291 95.63837 82.54564
# Shear Modulus (GPa) = 46.21222 50.95755 48.58488
#
# Velocity S-wave (km/s) = 4.12618 4.33285 4.23078
# Velocity P-wave (km/s) = 6.94896 7.76313 7.36730
#
# Compressibility (1/GPa) = 0.01439825
#
# Stress axis : x y z
#
# Youngs Moduli (GPa) = 134.58136 101.40718 154.18370
#
# Poissons Ratio (x) = 0.08079 0.32165
# Poissons Ratio (y) = 0.10722 0.27858
# Poissons Ratio (z) = 0.28075 0.18322
#
# Static dielectric constant tensor:
#      x y z
#    x 2.163390 0.000000 -0.038990 
#    y 0.000000 2.564160 0.000000 
#    z -0.038990 0.000000 2.299410 
# 
# From -- ./inp_files/71462.got.cif
#   From: 2010.05.17/outbox.cif.g08.bks.cpg/sg14_36_cif.got.tgz:71462.got - 2010.06.03 17:49:19.
