data_PCOD9253701
_publ_section_title
;
Structure prediction by ZEFSAII (Michael W. Deem and Ramdas Pophale) SiO2 
 PCOD9253701
Probable space group: P 21/C
;
_chemical_formula_sum "Si O2"
_cell_formula_units_Z 32
_cell_length_a 24.000000
_cell_length_b 15.000000
_cell_length_c 27.000000
_cell_angle_alpha 90.000000
_cell_angle_beta 10.000000
_cell_angle_gamma 90.000000
_cell_volume 1687.860287
_symmetry_space_group_name_H-M "P 21/C"
_symmetry_group_IT_number 14
_symmetry_cell_setting 'monoclinic'
loop_
_space_group_symop_operation_xyz
x,y,z
-x,1/2+y,1/2-z
-x,-y,-z
x,1/2-y,1/2+z
loop_
_atom_site_type_symbol
_atom_site_label
_atom_site_fract_x
_atom_site_fract_y
_atom_site_fract_z
Si Si1 0.532616 0.426350 0.720510
Si Si2 0.142952 0.192277 0.485037
Si Si3 0.733160 0.895580 0.438020
Si Si4 0.343725 0.810018 0.523838
Si Si5 0.200671 0.900690 0.466601
Si Si6 0.116918 0.988647 0.340648
Si Si7 0.609304 0.507833 0.845674
Si Si8 0.155329 0.309095 0.631647
O O1 0.371936 0.345942 0.829086
O O2 0.357852 0.513199 0.853721
O O3 0.908676 0.435807 0.379616
O O4 0.458251 0.420161 0.844115
O O5 0.862321 0.250237 0.756856
O O6 0.001301 0.106663 0.579007
O O7 0.359622 0.253416 0.259031
O O8 0.808377 0.791370 0.380152
O O9 0.542131 0.929218 0.556582
O O10 0.474089 0.900111 0.437492
O O11 0.103018 0.823758 0.686987
O O12 0.960768 0.862845 0.718144
O O13 0.495968 0.836691 0.194184
O O14 0.033798 0.934681 0.562464
O O15 0.000000 0.000000 0.500000
O O16 0.500000 0.000000 0.000000
O O17 0.000000 0.500000 0.500000
O O18 0.500000 0.500000 0.000000
#
# Coordination Sequence:
#
# PCOD9253701 Si02
#       8
#     4   4   4   4   4   4   4   4
#     4  11  20  41  68 101 132 164 210 280 364 386
#     4  11  22  41  69 101 130 170 221 288 331 404
#     4  12  24  44  69  97 138 170 224 291 329 400
#     4  12  23  44  73  98 134 173 238 280 328 406
#     4  11  24  39  65 100 137 166 209 276 338 411
#     4  11  24  45  64  95 138 178 223 257 335 414
#     4  12  28  50  66  97 139 197 234 267 333 412
#     4  12  23  42  68 109 128 164 223 289 356 375
#
# _framework density 18.958915000000001
#
# number of rings (size 3 to 8) (size 9 to 14) (size 15 to 20)
#    0.000    0.500    2.500    6.750    0.000    4.000 
#   13.500    0.000    0.000    0.000    0.000    0.000 
#    0.000    0.000    0.000    0.000    0.000    0.000 
#
# Total GULP energy -178839.974813 kJ/mol
# GULP energy per Si atom -5588.749213 kJ/mol
# Density = 1.891576 g / cm^3
# Si number density = 18.958915 Si / 1000 Ang^3
#
#
#
# Elastic Constant Matrix: (Units=GPa)
#
#
# Indices 1 2 3 4 5 6 
#
# 1 166.1102 49.3405 44.7290 0.0000 6.2075 0.0000
# 2 49.3405 76.6422 19.6741 0.0000 -6.4564 0.0000
# 3 44.7290 19.6741 108.6173 0.0000 5.1268 0.0000
# 4 0.0000 0.0000 0.0000 36.3064 0.0000 1.9343
# 5 6.2075 -6.4564 5.1268 0.0000 50.1321 0.0000
# 6 0.0000 0.0000 0.0000 1.9343 0.0000 40.8508
#
#
#
# Elastic Compliance Matrix: (Units=1/GPa)
#
#
# Indices 1 2 3 4 5 6 
#
# 1 0.008128 -0.004725 -0.002427 0.000000 -0.001367 0.000000
# 2 -0.004725 0.016638 -0.001203 0.000000 0.002851 0.000000
# 3 -0.002427 -0.001203 0.010467 0.000000 -0.000925 0.000000
# 4 0.000000 0.000000 0.000000 0.027613 0.000000 -0.001308
# 5 -0.001367 0.002851 -0.000925 0.000000 0.020578 0.000000
# 6 0.000000 0.000000 0.000000 -0.001308 0.000000 0.024541
#
#
# Mechanical properties :
#
#
# Convention : Reuss Voigt Hill
#
# Bulk Modulus (GPa) = 53.98025 64.31746 59.14885
# Shear Modulus (GPa) = 38.21169 41.29960 39.75564
#
# Velocity S-wave (km/s) = 4.49430 4.67237 4.58420
# Velocity P-wave (km/s) = 7.44753 7.94395 7.69974
#
# Compressibility (1/GPa) = 0.01852529
#
# Stress axis : x y z
#
# Youngs Moduli (GPa) = 123.02987 60.10250 95.53381
#
# Poissons Ratio (x) = 0.28398 0.23185
# Poissons Ratio (y) = 0.58130 0.11489
# Poissons Ratio (z) = 0.29857 0.07228
#
# Static dielectric constant tensor:
#      x y z
#    x 1.646970 0.000000 0.000430 
#    y 0.000000 1.691810 0.000000 
#    z 0.000430 0.000000 1.686720 
# 
# From -- ./inp_files/78180.got.cif
#   From: 2010.05.17/outbox.ucp.g08.bks.cvg/sg14_40_cif.got.tgz:78180.got - 2010.06.11 12:31:08.
