data_PCOD9253638
_publ_section_title
;
Structure prediction by ZEFSAII (Michael W. Deem and Ramdas Pophale) SiO2 
 PCOD9253638
Probable space group: P 21/C
;
_chemical_formula_sum "Si O2"
_cell_formula_units_Z 32
_cell_length_a 9.000000
_cell_length_b 24.000000
_cell_length_c 12.000000
_cell_angle_alpha 90.000000
_cell_angle_beta 40.000000
_cell_angle_gamma 90.000000
_cell_volume 1666.105484
_symmetry_space_group_name_H-M "P 21/C"
_symmetry_group_IT_number 14
_symmetry_cell_setting 'monoclinic'
loop_
_space_group_symop_operation_xyz
x,y,z
-x,1/2+y,1/2-z
-x,-y,-z
x,1/2-y,1/2+z
loop_
_atom_site_type_symbol
_atom_site_label
_atom_site_fract_x
_atom_site_fract_y
_atom_site_fract_z
Si Si1 0.795504 0.812336 0.100372
Si Si2 0.295623 0.865504 0.424911
Si Si3 0.135976 0.481619 0.234084
Si Si4 0.554734 0.011871 0.658193
Si Si5 0.920594 0.683906 0.972843
Si Si6 0.098026 0.893151 0.783821
Si Si7 0.476396 0.607156 0.266101
Si Si8 0.084474 0.859405 0.142380
O O1 0.530416 0.829644 0.276864
O O2 0.936179 0.828254 0.131893
O O3 0.841790 0.748001 0.039073
O O4 0.900829 0.852335 0.943240
O O5 0.346709 0.929378 0.355495
O O6 0.099314 0.835972 0.464931
O O7 0.208910 0.873254 0.602855
O O8 0.310199 0.475020 0.238716
O O9 0.016775 0.542158 0.319368
O O10 0.997115 0.424283 0.304141
O O11 0.284997 0.490048 0.035965
O O12 0.532709 0.958533 0.751314
O O13 0.040601 0.671944 0.783941
O O14 0.699200 0.643214 0.107604
O O15 0.299880 0.892785 0.761959
O O16 0.344161 0.635374 0.445678
#
# Coordination Sequence:
#
# PCOD9253638 Si02
#       8
#     4   4   4   4   4   4   4   4
#     4  11  26  42  68  88 122 174 220 261 309 382
#     4  11  24  43  65  94 131 168 206 268 321 376
#     4   9  16  35  69  99 124 160 211 273 306 370
#     4   9  17  36  66  97 129 161 212 261 318 374
#     4  12  28  43  60  95 134 169 213 260 326 384
#     4   9  22  41  69  99 124 163 220 262 314 368
#     4  10  22  40  69  95 127 173 209 265 316 377
#     4  11  23  44  67  94 126 167 216 267 318 373
#
# _framework density 19.206467
#
# number of rings (size 3 to 8) (size 9 to 14) (size 15 to 20)
#    0.000    1.750    2.500    1.500    7.000    3.000 
#    0.000    0.625    0.000    0.000    0.000    0.000 
#    0.000    0.000    0.000    0.000    0.000    0.000 
#
# Total GULP energy -178759.483326 kJ/mol
# GULP energy per Si atom -5586.233854 kJ/mol
# Density = 1.916275 g / cm^3
# Si number density = 19.206467 Si / 1000 Ang^3
#
#
#
# Elastic Constant Matrix: (Units=GPa)
#
#
# Indices 1 2 3 4 5 6 
#
# 1 33.7429 28.5489 25.0337 0.0000 7.5477 0.0000
# 2 28.5489 135.4517 33.0587 0.0000 12.6412 0.0000
# 3 25.0337 33.0587 98.8160 0.0000 19.9210 0.0000
# 4 0.0000 0.0000 0.0000 37.9731 0.0000 5.6128
# 5 7.5477 12.6412 19.9210 0.0000 22.3470 0.0000
# 6 0.0000 0.0000 0.0000 5.6128 0.0000 21.8240
#
#
#
# Elastic Compliance Matrix: (Units=1/GPa)
#
#
# Indices 1 2 3 4 5 6 
#
# 1 0.041668 -0.006588 -0.007639 0.000000 -0.003537 0.000000
# 2 -0.006588 0.009209 -0.000988 0.000000 -0.002104 0.000000
# 3 -0.007639 -0.000988 0.014328 0.000000 -0.009633 0.000000
# 4 0.000000 0.000000 0.000000 0.027375 0.000000 -0.007040
# 5 -0.003537 -0.002104 -0.009633 0.000000 0.055721 0.000000
# 6 0.000000 0.000000 0.000000 -0.007040 0.000000 0.047632
#
#
# Mechanical properties :
#
#
# Convention : Reuss Voigt Hill
#
# Bulk Modulus (GPa) = 28.75618 49.03259 38.89439
# Shear Modulus (GPa) = 21.01255 28.52010 24.76633
#
# Velocity S-wave (km/s) = 3.31121 3.85765 3.59483
# Velocity P-wave (km/s) = 5.44274 6.73992 6.12577
#
# Compressibility (1/GPa) = 0.03477513
#
# Stress axis : x y z
#
# Youngs Moduli (GPa) = 23.99916 108.59424 69.79547
#
# Poissons Ratio (x) = 0.71540 0.53317
# Poissons Ratio (y) = 0.15810 0.06894
# Poissons Ratio (z) = 0.18333 0.10726
#
# Static dielectric constant tensor:
#      x y z
#    x 1.650840 0.000000 -0.005780 
#    y 0.000000 1.667620 0.000000 
#    z -0.005780 0.000000 1.692160 
# 
# From -- ./inp_files/27012.got.cif
#   From: 2010.05.17/outbox.ucp.g08.bks.cvg/sg14_14_cif.got.tgz:27012.got - 2010.06.11 12:31:08.
