data_PCOD9253601
_publ_section_title
;
Structure prediction by ZEFSAII (Michael W. Deem and Ramdas Pophale) SiO2 
 PCOD9253601
Probable space group: P 21/C
;
_chemical_formula_sum "Si O2"
_cell_formula_units_Z 28
_cell_length_a 30.000000
_cell_length_b 12.000000
_cell_length_c 24.000000
_cell_angle_alpha 90.000000
_cell_angle_beta 170.000000
_cell_angle_gamma 90.000000
_cell_volume 1500.320255
_symmetry_space_group_name_H-M "P 21/C"
_symmetry_group_IT_number 14
_symmetry_cell_setting 'monoclinic'
loop_
_space_group_symop_operation_xyz
x,y,z
-x,1/2+y,1/2-z
-x,-y,-z
x,1/2-y,1/2+z
loop_
_atom_site_type_symbol
_atom_site_label
_atom_site_fract_x
_atom_site_fract_y
_atom_site_fract_z
Si Si1 0.540606 0.258204 0.341622
Si Si2 0.885642 0.058767 0.204046
Si Si3 0.382050 0.178225 0.772099
Si Si4 0.576134 0.396530 0.056113
Si Si5 0.115565 0.196379 0.228110
Si Si6 0.597622 0.025480 0.455737
Si Si7 0.070233 0.581009 0.035860
O O1 0.735633 0.346342 0.554703
O O2 0.441285 0.294134 0.280436
O O3 0.664319 0.135954 0.502006
O O4 0.297564 0.260100 0.001188
O O5 0.122413 0.112844 0.463161
O O6 0.982954 0.971875 0.370091
O O7 0.689479 0.004282 0.918506
O O8 0.381799 0.294001 0.806542
O O9 0.627461 0.106174 0.093152
O O10 0.831342 0.340757 0.395725
O O11 0.500000 0.500000 0.000000
O O12 0.625073 0.442182 0.053908
O O13 0.240750 0.085099 0.357363
O O14 0.070351 0.299331 0.130535
O O15 0.000000 0.500000 0.000000
#
# Coordination Sequence:
#
# PCOD9253601 Si02
#       7
#     4   4   4   4   4   4   4
#     4  10  21  41  62  90 126 163 204 261 306 366
#     4  11  22  39  65  90 127 164 211 250 316 365
#     4  10  23  39  62  93 122 166 206 256 308 371
#     4  10  23  39  60  92 125 160 207 258 309 366
#     4  10  22  39  64  89 125 166 204 256 312 368
#     4  10  22  41  63  90 126 163 211 257 308 372
#     4  11  21  41  63  93 127 163 210 254 309 370
#
# _framework density 18.662682
#
# number of rings (size 3 to 8) (size 9 to 14) (size 15 to 20)
#    0.000    1.714    2.857    0.857    4.000    1.143 
#    0.000    5.714    0.000    0.000    0.000    0.000 
#    0.000    0.000    0.000    0.000    0.000    0.000 
#
# Total GULP energy -156216.822155 kJ/mol
# GULP energy per Si atom -5579.172220 kJ/mol
# Density = 1.862021 g / cm^3
# Si number density = 18.662682 Si / 1000 Ang^3
#
#
#
# Elastic Constant Matrix: (Units=GPa)
#
#
# Indices 1 2 3 4 5 6 
#
# 1 39.9807 17.0867 12.6110 0.0000 -2.2491 0.0000
# 2 17.0867 101.8475 14.2181 0.0000 5.7588 0.0000
# 3 12.6110 14.2181 46.0495 0.0000 -2.6476 0.0000
# 4 0.0000 0.0000 0.0000 32.3275 0.0000 -4.2534
# 5 -2.2491 5.7588 -2.6476 0.0000 17.3617 0.0000
# 6 0.0000 0.0000 0.0000 -4.2534 0.0000 39.6584
#
#
#
# Elastic Compliance Matrix: (Units=1/GPa)
#
#
# Indices 1 2 3 4 5 6 
#
# 1 0.029075 -0.004218 -0.006419 0.000000 0.004187 0.000000
# 2 -0.004218 0.011145 -0.002552 0.000000 -0.004632 0.000000
# 3 -0.006419 -0.002552 0.024477 0.000000 0.003748 0.000000
# 4 0.000000 0.000000 0.000000 0.031376 0.000000 0.003365
# 5 0.004187 -0.004632 0.003748 0.000000 0.060248 0.000000
# 6 0.000000 0.000000 0.000000 0.003365 0.000000 0.025576
#
#
# Mechanical properties :
#
#
# Convention : Reuss Voigt Hill
#
# Bulk Modulus (GPa) = 26.09782 30.63437 28.36610
# Shear Modulus (GPa) = 22.61936 27.46699 25.04317
#
# Velocity S-wave (km/s) = 3.48517 3.84051 3.66715
# Velocity P-wave (km/s) = 5.49632 6.00970 5.75873
#
# Compressibility (1/GPa) = 0.03831738
#
# Stress axis : x y z
#
# Youngs Moduli (GPa) = 34.39349 89.73029 40.85440
#
# Poissons Ratio (x) = 0.37853 0.26226
# Poissons Ratio (y) = 0.14509 0.10426
# Poissons Ratio (z) = 0.22078 0.22899
#
# Static dielectric constant tensor:
#      x y z
#    x 1.604340 0.000000 -0.013810 
#    y 0.000000 1.670950 0.000000 
#    z -0.013810 0.000000 1.653140 
# 
# From -- ./inp_files/39758.got.cif
#   From: 2010.05.17/outbox.ucp.g08.bks.cvg/sg14_20_cif.got.tgz:39758.got - 2010.06.11 12:31:08.
