data_PCOD9253956
_publ_section_title
;
Structure prediction by ZEFSAII (Michael W. Deem and Ramdas Pophale) SiO2 
 PCOD9253956
Probable space group: C 2/C
;
_chemical_formula_sum "Si O2"
_cell_formula_units_Z 56
_cell_length_a 6.880347
_cell_length_b 21.934101
_cell_length_c 16.122252
_cell_angle_alpha 90.000000
_cell_angle_beta 101.102165
_cell_angle_gamma 90.000000
_cell_volume 2387.543088
_symmetry_space_group_name_H-M "C 2/C"
_symmetry_group_IT_number 15
_symmetry_cell_setting 'monoclinic'
loop_
_space_group_symop_operation_xyz
x,y,z
-x,y,1/2-z
-x,-y,-z
x,-y,1/2+z
1/2+x,1/2+y,z
1/2-x,1/2+y,1/2-z
1/2-x,1/2-y,-z
1/2+x,1/2-y,1/2+z
loop_
_atom_site_type_symbol
_atom_site_label
_atom_site_fract_x
_atom_site_fract_y
_atom_site_fract_z
Si Si1 0.271754 0.106069 0.567953
Si Si2 0.232195 0.327193 0.271918
Si Si3 0.764783 0.687124 0.235654
Si Si4 0.483132 0.997670 0.348663
Si Si5 0.727673 0.114441 0.605651
Si Si6 0.183017 0.376140 0.607023
Si Si7 0.781608 0.685949 0.048660
O O1 0.182615 0.141399 0.638682
O O2 0.495285 0.133685 0.580548
O O3 0.199819 0.112666 0.468413
O O4 0.322443 0.036611 0.599108
O O5 0.238174 0.254761 0.269731
O O6 0.314359 0.349481 0.190497
O O7 0.000000 0.347190 0.250000
O O8 0.694992 0.641171 0.301422
O O9 0.694094 0.685314 0.134604
O O10 0.000000 0.673957 0.250000
O O11 0.500000 0.998287 0.250000
O O12 0.445541 0.063667 0.382732
O O13 0.300487 0.955391 0.367179
O O14 0.798251 0.133426 0.520467
O O15 0.017915 0.323838 0.579901
O O16 0.750000 0.750000 0.000000
#
# Coordination Sequence:
#
# PCOD9253956 Si02
#       7
#     8   8   8   8   8   8   8
#     4   8  16  27  45  67  91 131 157 195 240 297
#     4  10  16  32  50  70  97 131 174 199 237 306
#     4  10  21  32  45  73 106 131 156 214 258 288
#     4  10  15  28  47  71 103 128 160 208 258 293
#     4   8  15  26  45  69  89 125 162 200 231 292
#     4  10  20  30  42  73 111 126 154 210 268 285
#     4  10  17  28  45  63  97 134 161 192 239 309
#
# _framework density 23.455075000000001
#
# number of rings (size 3 to 8) (size 9 to 14) (size 15 to 20)
#    0.857    1.714    2.857    1.714    0.000    0.571 
#    0.000    0.000    0.000    0.000    0.000    1.000 
#    0.000    6.857    0.000    0.000    0.000    0.000 
#
# Total GULP energy -155987.617410 kJ/mol
# GULP energy per Si atom -5570.986336 kJ/mol
# Density = 2.340169 g / cm^3
# Si number density = 23.455075 Si / 1000 Ang^3
#
#
#
# Elastic Constant Matrix: (Units=GPa)
#
#
# Indices 1 2 3 4 5 6 
#
# 1 67.2603 12.1602 44.2653 0.0000 -15.2109 0.0000
# 2 12.1602 101.8039 70.0790 0.0000 -19.9448 0.0000
# 3 44.2653 70.0790 229.7979 0.0000 -34.7734 0.0000
# 4 0.0000 0.0000 0.0000 33.6321 0.0000 -0.1685
# 5 -15.2109 -19.9448 -34.7734 0.0000 39.9175 0.0000
# 6 0.0000 0.0000 0.0000 -0.1685 0.0000 22.3122
#
#
#
# Elastic Compliance Matrix: (Units=1/GPa)
#
#
# Indices 1 2 3 4 5 6 
#
# 1 0.017708 0.000826 -0.002971 0.000000 0.004572 0.000000
# 2 0.000826 0.012873 -0.003529 0.000000 0.003672 0.000000
# 3 -0.002971 -0.003529 0.006407 0.000000 0.002686 0.000000
# 4 0.000000 0.000000 0.000000 0.029735 0.000000 0.000224
# 5 0.004572 0.003672 0.002686 0.000000 0.030968 0.000000
# 6 0.000000 0.000000 0.000000 0.000224 0.000000 0.044820
#
#
# Mechanical properties :
#
#
# Convention : Reuss Voigt Hill
#
# Bulk Modulus (GPa) = 39.00389 72.43012 55.71700
# Shear Modulus (GPa) = 30.78727 37.32954 34.05841
#
# Velocity S-wave (km/s) = 3.62692 3.99373 3.81474
# Velocity P-wave (km/s) = 5.84848 7.22592 6.57338
#
# Compressibility (1/GPa) = 0.02563847
#
# Stress axis : x y z
#
# Youngs Moduli (GPa) = 56.47318 77.68224 156.09079
#
# Poissons Ratio (x) = -0.06414 0.46373
# Poissons Ratio (y) = -0.04663 0.55086
# Poissons Ratio (z) = 0.16778 0.27415
#
# Static dielectric constant tensor:
#      x y z
#    x 1.964620 0.000000 -0.005820 
#    y 0.000000 1.855520 0.000000 
#    z -0.005820 0.000000 1.971420 
# 
# From -- ./inp_files/137475.got.cif
#   From: 2010.05.17/outbox.cif.g08.bks.cpg/sg15_69_cif.got.tgz:137475.got - 2010.06.03 18:47:42.
