data_PCOD9253696
_publ_section_title
;
Structure prediction by ZEFSAII (Michael W. Deem and Ramdas Pophale) SiO2 
 PCOD9253696
Probable space group: P 21/C
;
_chemical_formula_sum "Si O2"
_cell_formula_units_Z 32
_cell_length_a 9.000000
_cell_length_b 15.000000
_cell_length_c 27.000000
_cell_angle_alpha 90.000000
_cell_angle_beta 30.000000
_cell_angle_gamma 90.000000
_cell_volume 1822.500000
_symmetry_space_group_name_H-M "P 21/C"
_symmetry_group_IT_number 14
_symmetry_cell_setting 'monoclinic'
loop_
_space_group_symop_operation_xyz
x,y,z
-x,1/2+y,1/2-z
-x,-y,-z
x,1/2-y,1/2+z
loop_
_atom_site_type_symbol
_atom_site_label
_atom_site_fract_x
_atom_site_fract_y
_atom_site_fract_z
Si Si1 0.939131 0.073251 0.325667
Si Si2 0.278638 0.255782 0.706848
Si Si3 0.171575 0.007769 0.154319
Si Si4 0.604637 0.174769 0.019825
Si Si5 0.792919 0.099878 0.701206
Si Si6 0.668883 0.323741 0.342704
Si Si7 0.219599 0.104272 0.802580
Si Si8 0.622200 0.805379 0.501987
O O1 0.610205 0.112065 0.428749
O O2 0.166617 0.155747 0.267428
O O3 0.988060 0.043293 0.254649
O O4 0.036336 0.989186 0.330154
O O5 0.530236 0.282574 0.594880
O O6 0.333295 0.175682 0.728884
O O7 0.988169 0.222726 0.760268
O O8 0.408522 0.084014 0.072512
O O9 0.330294 0.916013 0.126242
O O10 0.943829 0.977906 0.177565
O O11 0.489380 0.243171 0.011242
O O12 0.949306 0.151374 0.910813
O O13 0.664610 0.149949 0.786825
O O14 0.506253 0.078115 0.751135
O O15 0.044365 0.160916 0.602839
O O16 0.430293 0.255400 0.434072
#
# Coordination Sequence:
#
# PCOD9253696 Si02
#       8
#     4   4   4   4   4   4   4   4
#     4   9  19  39  59  82 111 153 197 227 272 348
#     4   9  18  37  60  85 111 154 196 233 272 341
#     4   9  19  36  61  83 109 150 194 235 274 346
#     4  11  19  35  66  85 106 155 201 228 281 343
#     4  11  23  37  56  89 120 150 183 246 292 328
#     4   9  18  36  58  84 114 147 202 234 270 341
#     4  11  22  38  56  89 124 143 187 243 296 326
#     4  11  20  36  64  84 108 157 202 224 276 353
#
# _framework density 17.558299000000002
#
# number of rings (size 3 to 8) (size 9 to 14) (size 15 to 20)
#    0.000    2.000    5.000    0.750    0.000    1.000 
#    2.250    6.250    0.000    0.000    0.000    0.000 
#    0.000    0.000    0.000    0.000    0.000    0.000 
#
# Total GULP energy -178484.896631 kJ/mol
# GULP energy per Si atom -5577.653020 kJ/mol
# Density = 1.751834 g / cm^3
# Si number density = 17.558299 Si / 1000 Ang^3
#
#
#
# Elastic Constant Matrix: (Units=GPa)
#
#
# Indices 1 2 3 4 5 6 
#
# 1 68.3633 30.9297 47.5874 0.0000 -2.5100 0.0000
# 2 30.9297 90.5407 44.7384 0.0000 2.7567 0.0000
# 3 47.5874 44.7384 112.1907 0.0000 -1.0576 0.0000
# 4 0.0000 0.0000 0.0000 31.0807 0.0000 8.0994
# 5 -2.5100 2.7567 -1.0576 0.0000 18.9736 0.0000
# 6 0.0000 0.0000 0.0000 8.0994 0.0000 13.6683
#
#
#
# Elastic Compliance Matrix: (Units=1/GPa)
#
#
# Indices 1 2 3 4 5 6 
#
# 1 0.021806 -0.003716 -0.007739 0.000000 0.002993 0.000000
# 2 -0.003716 0.014490 -0.004229 0.000000 -0.002833 0.000000
# 3 -0.007739 -0.004229 0.013886 0.000000 0.000365 0.000000
# 4 0.000000 0.000000 0.000000 0.038050 0.000000 -0.022547
# 5 0.002993 -0.002833 0.000365 0.000000 0.053533 0.000000
# 6 0.000000 0.000000 0.000000 -0.022547 0.000000 0.086523
#
#
# Mechanical properties :
#
#
# Convention : Reuss Voigt Hill
#
# Bulk Modulus (GPa) = 53.15249 57.51175 55.33212
# Shear Modulus (GPa) = 18.80215 22.60046 20.70131
#
# Velocity S-wave (km/s) = 3.27592 3.59160 3.43739
# Velocity P-wave (km/s) = 6.68181 7.07286 6.88011
#
# Compressibility (1/GPa) = 0.01881379
#
# Stress axis : x y z
#
# Youngs Moduli (GPa) = 45.85838 69.01338 72.01587
#
# Poissons Ratio (x) = 0.25647 0.55735
# Poissons Ratio (y) = 0.17042 0.30453
# Poissons Ratio (z) = 0.35491 0.29183
#
# Static dielectric constant tensor:
#      x y z
#    x 1.588270 0.000000 0.038140 
#    y 0.000000 1.615430 0.000000 
#    z 0.038140 0.000000 1.593330 
# 
# From -- ./inp_files/50646.got.cif
#   From: 2010.05.17/outbox.ucp.g08.bks.cvg/sg14_26_cif.got.tgz:50646.got - 2010.06.11 12:31:08.
