data_PCOD9253825
_publ_section_title
;
Structure prediction by ZEFSAII (Michael W. Deem and Ramdas Pophale) SiO2 
 PCOD9253825
Probable space group: C 2/C
;
_chemical_formula_sum "Si O2"
_cell_formula_units_Z 44
_cell_length_a 12.881631
_cell_length_b 20.648798
_cell_length_c 21.912951
_cell_angle_alpha 90.000000
_cell_angle_beta 159.307584
_cell_angle_gamma 90.000000
_cell_volume 2059.552405
_symmetry_space_group_name_H-M "C 2/C"
_symmetry_group_IT_number 15
_symmetry_cell_setting 'monoclinic'
loop_
_space_group_symop_operation_xyz
x,y,z
-x,y,1/2-z
-x,-y,-z
x,-y,1/2+z
1/2+x,1/2+y,z
1/2-x,1/2+y,1/2-z
1/2-x,1/2-y,-z
1/2+x,1/2-y,1/2+z
loop_
_atom_site_type_symbol
_atom_site_label
_atom_site_fract_x
_atom_site_fract_y
_atom_site_fract_z
Si Si1 0.435395 0.050658 0.106707
Si Si2 0.500000 0.847617 0.750000
Si Si3 0.777565 0.245211 0.781844
Si Si4 0.423326 0.454502 0.516803
Si Si5 0.656832 0.339005 0.399794
Si Si6 0.095018 0.194476 0.524243
O O1 0.420619 0.104803 0.151775
O O2 0.776516 0.046166 0.279082
O O3 0.229939 0.084583 0.944643
O O4 0.323668 0.986127 0.077327
O O5 0.223573 0.806508 0.617069
O O6 0.497232 0.269371 0.588684
O O7 0.938131 0.187830 0.832050
O O8 0.029506 0.301348 0.922737
O O9 0.706251 0.223817 0.812154
O O10 0.500000 0.500000 0.500000
O O11 0.346375 0.381522 0.455367
O O12 0.500000 0.326203 0.250000
#
# Coordination Sequence:
#
# PCOD9253825 Si02
#       6
#     8   4   8   8   8   8
#     4  11  20  33  53  80 112 140 186 226 270 322
#     4  10  14  28  46  76 104 130 166 218 262 314
#     4  11  18  28  47  79 116 142 169 230 290 328
#     4  11  19  34  54  81 111 141 185 233 267 325
#     4  11  19  29  49  77 116 145 174 226 290 329
#     4  11  19  29  50  79 115 139 176 228 290 321
#
# _framework density 21.363864
#
# number of rings (size 3 to 8) (size 9 to 14) (size 15 to 20)
#    0.000    1.091   10.909    1.091    0.000    0.000 
#    0.000    0.909    0.000    0.000    0.000   11.455 
#    0.000    0.000    0.000    0.000    0.000    0.000 
#
# Total GULP energy -122829.628239 kJ/mol
# GULP energy per Si atom -5583.164920 kJ/mol
# Density = 2.131524 g / cm^3
# Si number density = 21.363864 Si / 1000 Ang^3
#
#
#
# Elastic Constant Matrix: (Units=GPa)
#
#
# Indices 1 2 3 4 5 6 
#
# 1 72.7295 25.1515 35.1065 0.0123 -19.6265 0.0142
# 2 25.1515 97.7682 37.0378 -0.0171 -15.7269 -0.0053
# 3 35.1065 37.0378 112.4491 -0.0188 -27.1319 -0.0126
# 4 0.0123 -0.0171 -0.0188 27.5676 -0.0088 -4.1860
# 5 -19.6265 -15.7269 -27.1319 -0.0088 34.7845 0.0120
# 6 0.0142 -0.0053 -0.0126 -4.1860 0.0120 23.3698
#
#
#
# Elastic Compliance Matrix: (Units=1/GPa)
#
#
# Indices 1 2 3 4 5 6 
#
# 1 0.017875 -0.002322 -0.003246 -0.000012 0.006503 -0.000019
# 2 -0.002322 0.012216 -0.002811 0.000008 0.002020 0.000003
# 3 -0.003246 -0.002811 0.012421 0.000011 0.006586 0.000007
# 4 -0.000012 0.000008 0.000011 0.037289 0.000012 0.006679
# 5 0.006503 0.002020 0.006586 0.000012 0.038468 -0.000017
# 6 -0.000019 0.000003 0.000007 0.006679 -0.000017 0.043987
#
#
# Mechanical properties :
#
#
# Convention : Reuss Voigt Hill
#
# Bulk Modulus (GPa) = 38.83209 53.05986 45.94597
# Shear Modulus (GPa) = 26.65260 29.52111 28.08686
#
# Velocity S-wave (km/s) = 3.53591 3.72132 3.62980
# Velocity P-wave (km/s) = 5.90645 6.58441 6.25463
#
# Compressibility (1/GPa) = 0.02575190
#
# Stress axis : x y z
#
# Youngs Moduli (GPa) = 55.94487 81.86266 80.50613
#
# Poissons Ratio (x) = 0.19012 0.26136
# Poissons Ratio (y) = 0.12993 0.22631
# Poissons Ratio (z) = 0.18162 0.23012
#
# Static dielectric constant tensor:
#      x y z
#    x 1.818280 0.000010 -0.043980 
#    y 0.000010 1.783870 -0.000050 
#    z -0.043980 -0.000050 1.891390 
# 
# From -- ./inp_files/274982.got.cif
#   From: 2010.05.17/outbox.cif.g08.bks.cpg/sg15_138_cif.got.tgz:274982.got - 2010.06.03 18:47:42.
