data_PCOD9253658
_publ_section_title
;
Structure prediction by ZEFSAII (Michael W. Deem and Ramdas Pophale) SiO2 
 PCOD9253658
Probable space group: P 21/C
;
_chemical_formula_sum "Si O2"
_cell_formula_units_Z 28
_cell_length_a 15.000000
_cell_length_b 12.000000
_cell_length_c 9.000000
_cell_angle_alpha 90.000000
_cell_angle_beta 60.000000
_cell_angle_gamma 90.000000
_cell_volume 1402.961154
_symmetry_space_group_name_H-M "P 21/C"
_symmetry_group_IT_number 14
_symmetry_cell_setting 'monoclinic'
loop_
_space_group_symop_operation_xyz
x,y,z
-x,1/2+y,1/2-z
-x,-y,-z
x,1/2-y,1/2+z
loop_
_atom_site_type_symbol
_atom_site_label
_atom_site_fract_x
_atom_site_fract_y
_atom_site_fract_z
Si Si1 0.879213 0.716442 0.859553
Si Si2 0.297597 0.057363 0.614905
Si Si3 0.041686 0.740107 0.978388
Si Si4 0.194361 0.669715 0.107314
Si Si5 0.521456 0.770660 0.608710
Si Si6 0.704257 0.594907 0.534476
Si Si7 0.628976 0.351915 0.507621
O O1 0.789434 0.629625 0.896998
O O2 0.949174 0.693290 0.948042
O O3 0.967736 0.704763 0.661831
O O4 0.811716 0.834335 0.912082
O O5 0.406329 0.124851 0.506449
O O6 0.282702 0.057385 0.805204
O O7 0.272532 0.934124 0.570493
O O8 0.111707 0.816670 0.811393
O O9 0.125143 0.670713 0.011852
O O10 0.268315 0.777788 0.054587
O O11 0.608257 0.682192 0.595404
O O12 0.446387 0.827675 0.790887
O O13 0.442980 0.699927 0.566253
O O14 0.668955 0.481954 0.473321
#
# Coordination Sequence:
#
# PCOD9253658 Si02
#       7
#     4   4   4   4   4   4   4
#     4  10  22  44  71  97 136 172 230 274 343 401
#     4  11  23  43  71 101 132 179 227 281 330 416
#     4  10  22  47  65  99 135 177 220 278 342 402
#     4  11  25  44  67 100 136 174 231 278 336 399
#     4  11  25  44  70  99 136 179 227 274 347 398
#     4  11  23  43  69 102 132 179 226 278 337 404
#     4  12  25  45  67  97 140 178 224 284 331 410
#
# _framework density 19.957787
#
# number of rings (size 3 to 8) (size 9 to 14) (size 15 to 20)
#    0.000    1.143    2.857    3.000    2.000    2.286 
#   18.000    0.000    0.000    0.000    0.000    0.000 
#    0.000    0.000    0.000    0.000    0.000    0.000 
#
# Total GULP energy -155890.744322 kJ/mol
# GULP energy per Si atom -5567.526583 kJ/mol
# Density = 1.991236 g / cm^3
# Si number density = 19.957787 Si / 1000 Ang^3
#
#
#
# Elastic Constant Matrix: (Units=GPa)
#
#
# Indices 1 2 3 4 5 6 
#
# 1 145.6226 18.9300 12.5249 0.0000 6.1063 0.0000
# 2 18.9300 111.8961 6.5780 0.0000 -8.8331 0.0000
# 3 12.5249 6.5780 73.7548 0.0000 -3.9718 0.0000
# 4 0.0000 0.0000 0.0000 17.3251 0.0000 -1.7199
# 5 6.1063 -8.8331 -3.9718 0.0000 49.5962 0.0000
# 6 0.0000 0.0000 0.0000 -1.7199 0.0000 37.2619
#
#
#
# Elastic Compliance Matrix: (Units=1/GPa)
#
#
# Indices 1 2 3 4 5 6 
#
# 1 0.007179 -0.001240 -0.001173 0.000000 -0.001199 0.000000
# 2 -0.001240 0.009317 -0.000525 0.000000 0.001770 0.000000
# 3 -0.001173 -0.000525 0.013867 0.000000 0.001161 0.000000
# 4 0.000000 0.000000 0.000000 0.057985 0.000000 0.002676
# 5 -0.001199 0.001770 0.001161 0.000000 0.020719 0.000000
# 6 0.000000 0.000000 0.000000 0.002676 0.000000 0.026961
#
#
# Mechanical properties :
#
#
# Convention : Reuss Voigt Hill
#
# Bulk Modulus (GPa) = 40.83820 45.25994 43.04907
# Shear Modulus (GPa) = 33.31829 40.38601 36.85215
#
# Velocity S-wave (km/s) = 4.09031 4.50329 4.30176
# Velocity P-wave (km/s) = 6.54326 7.05454 6.80370
#
# Compressibility (1/GPa) = 0.02448688
#
# Stress axis : x y z
#
# Youngs Moduli (GPa) = 139.28630 107.32755 72.11347
#
# Poissons Ratio (x) = 0.13311 0.08460
# Poissons Ratio (y) = 0.17275 0.03786
# Poissons Ratio (z) = 0.16340 0.05635
#
# Static dielectric constant tensor:
#      x y z
#    x 1.714240 0.000000 0.043130 
#    y 0.000000 1.726410 0.000000 
#    z 0.043130 0.000000 1.749710 
# 
# From -- ./inp_files/15469.got.cif
#   From: 2010.05.17/outbox.ucp.g08.bks.cvg/sg14_8_cif.got.tgz:15469.got - 2010.06.11 12:31:08.
