data_PCOD9253138
_publ_section_title
;
Structure prediction by ZEFSAII (Michael W. Deem and Ramdas Pophale) SiO2 
 PCOD9253138
Probable space group: P 21/C
;
_chemical_formula_sum "Si O2"
_cell_formula_units_Z 26
_cell_length_a 11.663697
_cell_length_b 5.654157
_cell_length_c 18.928071
_cell_angle_alpha 90.000000
_cell_angle_beta 124.236307
_cell_angle_gamma 90.000000
_cell_volume 1031.979606
_symmetry_space_group_name_H-M "P 21/C"
_symmetry_group_IT_number 14
_symmetry_cell_setting 'monoclinic'
loop_
_space_group_symop_operation_xyz
x,y,z
-x,1/2+y,1/2-z
-x,-y,-z
x,1/2-y,1/2+z
loop_
_atom_site_type_symbol
_atom_site_label
_atom_site_fract_x
_atom_site_fract_y
_atom_site_fract_z
Si Si1 0.218070 0.524966 0.965305
Si Si2 0.833067 0.424088 0.436121
Si Si3 0.500000 0.500000 0.000000
Si Si4 0.406642 0.084412 0.900093
Si Si5 0.118170 0.874936 0.823405
Si Si6 0.463501 0.390994 0.696952
Si Si7 0.966854 0.222528 0.856227
O O1 0.366807 0.420746 0.002461
O O2 0.184070 0.641035 0.877502
O O3 0.100060 0.336671 0.939738
O O4 0.209133 0.743044 0.016603
O O5 0.703316 0.601314 0.379586
O O6 0.000000 0.500000 0.500000
O O7 0.841029 0.278744 0.365572
O O8 0.439454 0.358019 0.909769
O O9 0.452166 0.943255 0.846582
O O10 0.247531 0.048514 0.863412
O O11 0.500000 0.000000 0.000000
O O12 0.061405 0.856540 0.725857
O O13 0.006012 0.963951 0.840660
O O14 0.502545 0.134645 0.745271
#
# Coordination Sequence:
#
# PCOD9253138 Si02
#       7
#     4   4   2   4   4   4   4
#     4  12  25  47  73 114 143 201 264 326 401 489
#     4  12  27  50  79 115 160 213 270 335 411 503
#     4  12  24  42  80 104 144 194 268 334 396 474
#     4  12  26  46  78 112 150 202 275 333 398 491
#     4  12  24  44  71 106 145 195 248 320 390 482
#     4  12  31  55  83 121 171 220 276 347 429 500
#     4  12  26  43  74 107 153 194 252 323 409 476
#
# _framework density 25.194295
#
# number of rings (size 3 to 8) (size 9 to 14) (size 15 to 20)
#    0.000    0.000    7.692    1.385    2.154    6.154 
#    0.000    0.000    0.000    0.000    0.000    0.000 
#    0.000    0.000    0.000    0.000    0.000    0.000 
#
# Total GULP energy -144796.046656 kJ/mol
# GULP energy per Si atom -5569.078718 kJ/mol
# Density = 2.513695 g / cm^3
# Si number density = 25.194295 Si / 1000 Ang^3
#
#
#
# Elastic Constant Matrix: (Units=GPa)
#
#
# Indices 1 2 3 4 5 6 
#
# 1 93.6981 18.5303 27.7256 0.0000 -3.8949 0.0000
# 2 18.5303 75.8961 37.5066 0.0000 12.2548 0.0000
# 3 27.7256 37.5066 100.8325 0.0000 -13.7213 0.0000
# 4 0.0000 0.0000 0.0000 49.4080 0.0000 -2.5734
# 5 -3.8949 12.2548 -13.7213 0.0000 29.4089 0.0000
# 6 0.0000 0.0000 0.0000 -2.5734 0.0000 37.0735
#
#
#
# Elastic Compliance Matrix: (Units=1/GPa)
#
#
# Indices 1 2 3 4 5 6 
#
# 1 0.011803 -0.001919 -0.002360 0.000000 0.001262 0.000000
# 2 -0.001919 0.019918 -0.008591 0.000000 -0.012562 0.000000
# 3 -0.002360 -0.008591 0.015170 0.000000 0.010345 0.000000
# 4 0.000000 0.000000 0.000000 0.020313 0.000000 0.001410
# 5 0.001262 -0.012562 0.010345 0.000000 0.044232 0.000000
# 6 0.000000 0.000000 0.000000 0.001410 0.000000 0.027071
#
#
# Mechanical properties :
#
#
# Convention : Reuss Voigt Hill
#
# Bulk Modulus (GPa) = 47.27890 48.66130 47.97010
# Shear Modulus (GPa) = 29.18904 35.62235 32.40569
#
# Velocity S-wave (km/s) = 3.40745 3.76427 3.59030
# Velocity P-wave (km/s) = 5.85555 6.18460 6.02232
#
# Compressibility (1/GPa) = 0.02115108
#
# Stress axis : x y z
#
# Youngs Moduli (GPa) = 84.72517 50.20491 65.92164
#
# Poissons Ratio (x) = 0.09636 0.15556
# Poissons Ratio (y) = 0.16262 0.56632
# Poissons Ratio (z) = 0.19993 0.43130
#
# Static dielectric constant tensor:
#      x y z
#    x 1.955820 0.000000 0.010630 
#    y 0.000000 2.357440 0.000000 
#    z 0.010630 0.000000 2.083550 
# 
# From -- ./inp_files/66544.got.cif
#   From: 2010.05.17/outbox.cif.g08.bks.cpg/sg14_34_cif.got.tgz:66544.got - 2010.06.03 17:49:19.
