data_PCOD9253822
_publ_section_title
;
Structure prediction by ZEFSAII (Michael W. Deem and Ramdas Pophale) SiO2 
 PCOD9253822
Probable space group: C 2/C
;
_chemical_formula_sum "Si O2"
_cell_formula_units_Z 60
_cell_length_a 17.933644
_cell_length_b 23.565246
_cell_length_c 9.590650
_cell_angle_alpha 90.000000
_cell_angle_beta 127.494870
_cell_angle_gamma 90.000000
_cell_volume 3215.770549
_symmetry_space_group_name_H-M "C 2/C"
_symmetry_group_IT_number 15
_symmetry_cell_setting 'monoclinic'
loop_
_space_group_symop_operation_xyz
x,y,z
-x,y,1/2-z
-x,-y,-z
x,-y,1/2+z
1/2+x,1/2+y,z
1/2-x,1/2+y,1/2-z
1/2-x,1/2-y,-z
1/2+x,1/2-y,1/2+z
loop_
_atom_site_type_symbol
_atom_site_label
_atom_site_fract_x
_atom_site_fract_y
_atom_site_fract_z
Si Si1 0.499295 0.783663 0.003250
Si Si2 0.694917 0.828228 0.151622
Si Si3 0.000000 0.626924 0.750000
Si Si4 0.567388 0.030071 0.191487
Si Si5 0.181614 0.574092 0.862119
Si Si6 0.141436 0.229736 0.480819
Si Si7 0.234294 0.162821 0.366612
Si Si8 0.833793 0.348915 0.696134
O O1 0.456184 0.733399 0.048479
O O2 0.413590 0.800209 0.804032
O O3 0.602706 0.787525 0.056799
O O4 0.503348 0.834665 0.118988
O O5 0.680073 0.886873 0.221633
O O6 0.781477 0.797117 0.326200
O O7 0.708115 0.843772 0.005621
O O8 0.090198 0.588262 0.849820
O O9 0.500000 0.033786 0.250000
O O10 0.607899 0.093004 0.214766
O O11 0.661737 0.991142 0.309269
O O12 0.500000 0.000000 0.000000
O O13 0.260674 0.602264 0.049514
O O14 0.149619 0.195837 0.345518
O O15 0.178659 0.294151 0.491653
O O16 0.254505 0.156863 0.226131
#
# Coordination Sequence:
#
# PCOD9253822 Si02
#       8
#     8   8   4   8   8   8   8   8
#     4  10  19  30  49  66  92 119 164 196 237 280
#     4  10  21  31  48  67  99 128 156 196 254 285
#     4  10  14  28  44  68  84 118 162 200 226 258
#     4  12  21  28  43  64  92 131 169 198 227 265
#     4  10  17  30  43  63  88 126 166 197 220 267
#     4   9  18  34  50  67  84 124 166 201 243 283
#     4   9  18  31  47  62  84 116 164 202 230 266
#     4  11  20  33  41  67  99 127 161 200 230 286
#
# _framework density 18.658048999999998
#
# number of rings (size 3 to 8) (size 9 to 14) (size 15 to 20)
#    0.000    1.867    3.333    4.400    1.867    2.133 
#    0.000    0.000    0.000    0.000    0.000    0.000 
#    0.000    0.000    0.000   50.400    0.000    6.533 
#
# Total GULP energy -167058.150869 kJ/mol
# GULP energy per Si atom -5568.605029 kJ/mol
# Density = 1.861558 g / cm^3
# Si number density = 18.658049 Si / 1000 Ang^3
#
#
#
# Elastic Constant Matrix: (Units=GPa)
#
#
# Indices 1 2 3 4 5 6 
#
# 1 92.5638 38.1693 41.8001 0.0000 -18.2992 0.0000
# 2 38.1693 68.4903 20.3026 0.0000 -6.8878 0.0000
# 3 41.8001 20.3026 101.5892 0.0000 -30.6551 0.0000
# 4 0.0000 0.0000 0.0000 17.7437 0.0000 0.0153
# 5 -18.2992 -6.8878 -30.6551 0.0000 33.4803 0.0000
# 6 0.0000 0.0000 0.0000 0.0153 0.0000 19.7577
#
#
#
# Elastic Compliance Matrix: (Units=1/GPa)
#
#
# Indices 1 2 3 4 5 6 
#
# 1 0.016558 -0.007619 -0.004190 0.000000 0.003646 0.000000
# 2 -0.007619 0.019032 -0.001028 0.000000 -0.001190 0.000000
# 3 -0.004190 -0.001028 0.015225 0.000000 0.011438 0.000000
# 4 0.000000 0.000000 0.000000 0.056358 0.000000 -0.000044
# 5 0.003646 -0.001190 0.011438 0.000000 0.042089 0.000000
# 6 0.000000 0.000000 0.000000 -0.000044 0.000000 0.050613
#
#
# Mechanical properties :
#
#
# Convention : Reuss Voigt Hill
#
# Bulk Modulus (GPa) = 39.77592 51.46525 45.62058
# Shear Modulus (GPa) = 21.37404 25.02110 23.19757
#
# Velocity S-wave (km/s) = 3.38829 3.66599 3.52987
# Velocity P-wave (km/s) = 6.05574 6.75001 6.41228
#
# Compressibility (1/GPa) = 0.02514084
#
# Stress axis : x y z
#
# Youngs Moduli (GPa) = 60.39346 52.54427 65.68327
#
# Poissons Ratio (x) = 0.40033 0.27522
# Poissons Ratio (y) = 0.46014 0.06749
# Poissons Ratio (z) = 0.25306 0.05399
#
# Static dielectric constant tensor:
#      x y z
#    x 1.682300 0.000000 0.006050 
#    y 0.000000 1.710950 0.000000 
#    z 0.006050 0.000000 1.747330 
# 
# From -- ./inp_files/51295.got.cif
#   From: 2010.05.17/outbox.cif.g08.bks.cpg/sg15_26_cif.got.tgz:51295.got - 2010.06.03 18:47:42.
