data_PCOD9253766
_publ_section_title
;
Structure prediction by ZEFSAII (Michael W. Deem and Ramdas Pophale) SiO2 
 PCOD9253766
Probable space group: C 2/C
;
_chemical_formula_sum "Si O2"
_cell_formula_units_Z 44
_cell_length_a 30.023908
_cell_length_b 15.459582
_cell_length_c 8.183164
_cell_angle_alpha 90.000000
_cell_angle_beta 149.123485
_cell_angle_gamma 90.000000
_cell_volume 1949.234016
_symmetry_space_group_name_H-M "C 2/C"
_symmetry_group_IT_number 15
_symmetry_cell_setting 'monoclinic'
loop_
_space_group_symop_operation_xyz
x,y,z
-x,y,1/2-z
-x,-y,-z
x,-y,1/2+z
1/2+x,1/2+y,z
1/2-x,1/2+y,1/2-z
1/2-x,1/2-y,-z
1/2+x,1/2-y,1/2+z
loop_
_atom_site_type_symbol
_atom_site_label
_atom_site_fract_x
_atom_site_fract_y
_atom_site_fract_z
Si Si1 0.374481 0.623891 0.509573
Si Si2 0.500000 0.855414 0.250000
Si Si3 0.365958 0.443765 0.355032
Si Si4 0.727238 0.767903 0.655150
Si Si5 0.547912 0.705611 0.148961
Si Si6 0.310974 0.875120 0.630333
O O1 0.392625 0.542755 0.451579
O O2 0.369989 0.586149 0.681564
O O3 0.282077 0.672826 0.205778
O O4 0.460058 0.681075 0.784196
O O5 0.522500 0.789268 0.175411
O O6 0.589785 0.905533 0.565218
O O7 0.419920 0.373745 0.631814
O O8 0.267352 0.442612 0.114197
O O9 0.633556 0.729496 0.315587
O O10 0.705423 0.822974 0.751682
O O11 0.790523 0.692463 0.921073
#
# Coordination Sequence:
#
# PCOD9253766 Si02
#       6
#     8   4   8   8   8   8
#     4  11  18  32  48  78 105 129 155 203 255 300
#     4  10  12  24  50  70  98 112 170 220 234 258
#     4  10  20  29  47  74 110 127 156 198 259 302
#     4   8  15  26  44  69  99 122 165 205 242 276
#     4  10  16  27  48  76  97 124 165 216 242 274
#     4   8  14  25  42  70  93 126 157 209 236 274
#
# _framework density 22.572970999999999
#
# number of rings (size 3 to 8) (size 9 to 14) (size 15 to 20)
#    0.000    2.545    3.636    2.727    0.000    0.000 
#    0.000    0.000    0.000   14.182    4.727    0.000 
#    0.000    0.000    0.000    0.000    0.000    0.000 
#
# Total GULP energy -122878.863438 kJ/mol
# GULP energy per Si atom -5585.402884 kJ/mol
# Density = 2.252159 g / cm^3
# Si number density = 22.572971 Si / 1000 Ang^3
#
#
#
# Elastic Constant Matrix: (Units=GPa)
#
#
# Indices 1 2 3 4 5 6 
#
# 1 90.5397 2.8724 19.1287 0.0000 21.5991 0.0000
# 2 2.8724 34.3706 17.0980 0.0000 4.8172 0.0000
# 3 19.1287 17.0980 139.0893 0.0000 40.7315 0.0000
# 4 0.0000 0.0000 0.0000 9.2294 0.0000 -10.3742
# 5 21.5991 4.8172 40.7315 0.0000 35.5422 0.0000
# 6 0.0000 0.0000 0.0000 -10.3742 0.0000 1.5131
#
#
#
# Elastic Compliance Matrix: (Units=1/GPa)
#
#
# Indices 1 2 3 4 5 6 
#
# 1 0.012977 -0.000261 0.000822 0.000000 -0.008793 0.000000
# 2 -0.000261 0.030996 -0.003899 0.000000 0.000426 0.000000
# 3 0.000822 -0.003899 0.011360 0.000000 -0.012990 0.000000
# 4 0.000000 0.000000 0.000000 -0.016155 0.000000 -0.110765
# 5 -0.008793 0.000426 -0.012990 0.000000 0.048308 0.000000
# 6 0.000000 0.000000 0.000000 -0.110765 0.000000 -0.098543
#
#
# Mechanical properties :
#
#
# Convention : Reuss Voigt Hill
#
# Bulk Modulus (GPa) = 20.55186 38.02200 29.28693
# Shear Modulus (GPa) = 422.34096 24.25029 223.29563
#
# Velocity S-wave (km/s) = 13.69330 3.28122 9.95673
# Velocity P-wave (km/s) = 16.09761 5.58890 12.04925
#
# Compressibility (1/GPa) = 0.04865740
#
# Stress axis : x y z
#
# Youngs Moduli (GPa) = 77.05850 32.26173 88.02980
#
# Poissons Ratio (x) = 0.00843 -0.07240
# Poissons Ratio (y) = 0.02013 0.34325
# Poissons Ratio (z) = -0.06338 0.12580
#
# Static dielectric constant tensor:
#      x y z
#    x 1.899010 0.000000 -0.037350 
#    y 0.000000 1.863490 0.000000 
#    z -0.037350 0.000000 1.888690 
# 
# From -- ./inp_files/39084.got.cif
#   From: 2010.05.17/outbox.cif.g08.bks.cpg/sg15_20_cif.got.tgz:39084.got - 2010.06.03 18:47:42.
