data_PCOD9253098
_publ_section_title
;
Structure prediction by ZEFSAII (Michael W. Deem and Ramdas Pophale) SiO2 
 PCOD9253098
Probable space group: P 21/C
;
_chemical_formula_sum "Si O2"
_cell_formula_units_Z 28
_cell_length_a 8.172436
_cell_length_b 18.802997
_cell_length_c 9.206893
_cell_angle_alpha 90.000000
_cell_angle_beta 130.381492
_cell_angle_gamma 90.000000
_cell_volume 1077.712229
_symmetry_space_group_name_H-M "P 21/C"
_symmetry_group_IT_number 14
_symmetry_cell_setting 'monoclinic'
loop_
_space_group_symop_operation_xyz
x,y,z
-x,1/2+y,1/2-z
-x,-y,-z
x,1/2-y,1/2+z
loop_
_atom_site_type_symbol
_atom_site_label
_atom_site_fract_x
_atom_site_fract_y
_atom_site_fract_z
Si Si1 0.108898 0.935339 0.979428
Si Si2 0.474245 0.861309 0.740371
Si Si3 0.901818 0.670644 0.668136
Si Si4 0.119378 0.473202 0.213487
Si Si5 0.735620 0.864219 0.628218
Si Si6 0.453564 0.467214 0.188828
Si Si7 0.982336 0.289539 0.953556
O O1 0.930822 0.877264 0.850887
O O2 0.673301 0.942135 0.526459
O O3 0.165466 0.964275 0.851072
O O4 0.000000 0.000000 0.000000
O O5 0.544105 0.835274 0.618402
O O6 0.477020 0.947834 0.723745
O O7 0.327989 0.923315 0.187413
O O8 0.665548 0.838658 0.960589
O O9 0.984401 0.591951 0.759556
O O10 0.051261 0.714837 0.645394
O O11 0.242804 0.667991 0.157960
O O12 0.334318 0.442793 0.266471
O O13 0.000000 0.500000 0.000000
O O14 0.838848 0.824784 0.550282
O O15 0.911903 0.712200 0.826789
#
# Coordination Sequence:
#
# PCOD9253098 Si02
#       7
#     4   4   4   4   4   4   4
#     4  12  24  40  70 118 159 204 254 332 413 482
#     4  12  28  49  83 119 161 214 272 333 417 491
#     4  12  27  54  77 116 160 216 284 335 396 507
#     4  12  23  45  79 114 163 206 264 345 420 489
#     4  12  26  48  75 124 163 203 270 331 406 497
#     4  12  24  43  80 120 163 204 258 338 421 482
#     4  12  30  51  83 106 160 222 274 336 402 487
#
# _framework density 25.980961000000001
#
# number of rings (size 3 to 8) (size 9 to 14) (size 15 to 20)
#    0.000    0.000    5.714    3.429    2.000    3.429 
#    0.000    0.000    0.000    0.000    0.000    0.000 
#    0.000    0.000    0.000    0.000    0.000    0.000 
#
# Total GULP energy -156754.679958 kJ/mol
# GULP energy per Si atom -5598.381427 kJ/mol
# Density = 2.592183 g / cm^3
# Si number density = 25.980961 Si / 1000 Ang^3
#
#
#
# Elastic Constant Matrix: (Units=GPa)
#
#
# Indices 1 2 3 4 5 6 
#
# 1 132.2347 42.8756 67.0104 0.0000 -21.5219 0.0000
# 2 42.8756 112.6682 54.7278 0.0000 -6.4364 0.0000
# 3 67.0104 54.7278 163.1709 0.0000 -10.5873 0.0000
# 4 0.0000 0.0000 0.0000 54.3001 0.0000 -17.3525
# 5 -21.5219 -6.4364 -10.5873 0.0000 48.0609 0.0000
# 6 0.0000 0.0000 0.0000 -17.3525 0.0000 46.0342
#
#
#
# Elastic Compliance Matrix: (Units=1/GPa)
#
#
# Indices 1 2 3 4 5 6 
#
# 1 0.010581 -0.002175 -0.003375 0.000000 0.003703 0.000000
# 2 -0.002175 0.011070 -0.002827 0.000000 -0.000114 0.000000
# 3 -0.003375 -0.002827 0.008461 0.000000 -0.000026 0.000000
# 4 0.000000 0.000000 0.000000 0.020938 0.000000 0.007893
# 5 0.003703 -0.000114 -0.000026 0.000000 0.022444 0.000000
# 6 0.000000 0.000000 0.000000 0.007893 0.000000 0.024698
#
#
# Mechanical properties :
#
#
# Convention : Reuss Voigt Hill
#
# Bulk Modulus (GPa) = 74.86897 81.92237 78.39567
# Shear Modulus (GPa) = 41.87582 45.90971 43.89277
#
# Velocity S-wave (km/s) = 4.01906 4.20819 4.11472
# Velocity P-wave (km/s) = 7.10046 7.43048 7.26734
#
# Compressibility (1/GPa) = 0.01335667
#
# Stress axis : x y z
#
# Youngs Moduli (GPa) = 94.51015 90.33339 118.18642
#
# Poissons Ratio (x) = 0.19651 0.39893
# Poissons Ratio (y) = 0.20560 0.33411
# Poissons Ratio (z) = 0.31901 0.25537
#
# Static dielectric constant tensor:
#      x y z
#    x 2.128200 0.000000 0.019880 
#    y 0.000000 2.139800 0.000000 
#    z 0.019880 0.000000 1.998110 
# 
# From -- ./inp_files/13991.got.cif
#   From: 2010.05.17/outbox.cif.g08.bks.cpg/sg14_7_cif.got.tgz:13991.got - 2010.06.03 17:49:19.
