data_PCOD9253041
_publ_section_title
;
Structure prediction by ZEFSAII (Michael W. Deem and Ramdas Pophale) SiO2 
 PCOD9253041
Probable space group: P 21/C
;
_chemical_formula_sum "Si O2"
_cell_formula_units_Z 26
_cell_length_a 27.079297
_cell_length_b 6.993018
_cell_length_c 18.688801
_cell_angle_alpha 90.000000
_cell_angle_beta 166.088228
_cell_angle_gamma 90.000000
_cell_volume 850.878554
_symmetry_space_group_name_H-M "P 21/C"
_symmetry_group_IT_number 14
_symmetry_cell_setting 'monoclinic'
loop_
_space_group_symop_operation_xyz
x,y,z
-x,1/2+y,1/2-z
-x,-y,-z
x,1/2-y,1/2+z
loop_
_atom_site_type_symbol
_atom_site_label
_atom_site_fract_x
_atom_site_fract_y
_atom_site_fract_z
Si Si1 0.426559 0.327870 0.986157
Si Si2 0.220169 0.792562 0.364927
Si Si3 0.003312 0.894106 0.189465
Si Si4 0.500000 0.000000 0.000000
Si Si5 0.002274 0.836572 0.353177
Si Si6 0.567923 0.222754 0.975063
Si Si7 0.782389 0.756003 0.671778
O O1 0.456488 0.552711 0.041164
O O2 0.390734 0.223799 0.012121
O O3 0.207719 0.306901 0.637668
O O4 0.561282 0.211259 0.120024
O O5 0.174690 0.775366 0.385575
O O6 0.393697 0.706667 0.555987
O O7 0.236505 0.019722 0.372691
O O8 0.003898 0.735979 0.022663
O O9 0.990827 0.910227 0.257061
O O10 0.995500 0.108154 0.148827
O O11 0.407071 0.103617 0.794721
O O12 0.227059 0.880351 0.701938
O O13 0.818019 0.871056 0.150876
#
# Coordination Sequence:
#
# PCOD9253041 Si02
#       7
#     4   4   4   2   4   4   4
#     4   9  19  35  52  76 104 136 173 215 253 297
#     4   7  12  28  50  71 100 129 163 207 264 306
#     4   9  17  30  52  81 106 130 158 213 275 313
#     4  12  22  32  54  78 100 140 188 210 234 302
#     4   9  17  30  52  81 106 130 158 213 275 313
#     4   9  19  35  52  76 104 136 173 215 253 297
#     4   7  12  28  50  71 100 129 163 207 264 306
#
# _framework density 30.556652
#
# number of rings (size 3 to 8) (size 9 to 14) (size 15 to 20)
#    0.000    3.385    0.000    4.154    2.154    0.000 
#    2.769    2.308    0.000    1.846    0.000    0.000 
#    0.000    0.000    0.000    0.000    0.000    0.000 
#
# Total GULP energy -145244.224350 kJ/mol
# GULP energy per Si atom -5586.316321 kJ/mol
# Density = 3.048710 g / cm^3
# Si number density = 30.556652 Si / 1000 Ang^3
#
#
#
# Elastic Constant Matrix: (Units=GPa)
#
#
# Indices 1 2 3 4 5 6 
#
# 1 243.0533 54.2267 29.8175 0.0000 -4.1575 0.0000
# 2 54.2267 152.2543 6.1639 0.0000 7.9199 0.0000
# 3 29.8175 6.1639 102.3344 0.0000 6.0567 0.0000
# 4 0.0000 0.0000 0.0000 1.2202 0.0000 -1.5093
# 5 -4.1575 7.9199 6.0567 0.0000 57.4612 0.0000
# 6 0.0000 0.0000 0.0000 -1.5093 0.0000 52.8312
#
#
#
# Elastic Compliance Matrix: (Units=1/GPa)
#
#
# Indices 1 2 3 4 5 6 
#
# 1 0.004652 -0.001641 -0.001298 0.000000 0.000699 0.000000
# 2 -0.001641 0.007206 0.000110 0.000000 -0.001124 0.000000
# 3 -0.001298 0.000110 0.010214 0.000000 -0.001186 0.000000
# 4 0.000000 0.000000 0.000000 0.849552 0.000000 0.024270
# 5 0.000699 -0.001124 -0.001186 0.000000 0.017734 0.000000
# 6 0.000000 0.000000 0.000000 0.024270 0.000000 0.019622
#
#
# Mechanical properties :
#
#
# Convention : Reuss Voigt Hill
#
# Bulk Modulus (GPa) = 60.91855 75.33979 68.12917
# Shear Modulus (GPa) = 5.43416 49.46478 27.44947
#
# Velocity S-wave (km/s) = 1.33501 4.02778 3.00044
# Velocity P-wave (km/s) = 4.72820 6.80735 5.86071
#
# Compressibility (1/GPa) = 0.01641536
#
# Stress axis : x y z
#
# Youngs Moduli (GPa) = 214.98321 138.76903 97.90879
#
# Poissons Ratio (x) = 0.22765 0.12708
# Poissons Ratio (y) = 0.35268 -0.01081
# Poissons Ratio (z) = 0.27903 -0.01533
#
# Static dielectric constant tensor:
#      x y z
#    x 4.477960 0.000000 2.956130 
#    y 0.000000 2.266270 0.000000 
#    z 2.956130 0.000000 7.025120 
# 
# From -- ./inp_files/69036.got.cif
#   From: 2010.05.17/outbox.cif.g08.bks.cpg/sg14_35_cif.got.tgz:69036.got - 2010.06.03 17:49:19.
