data_PCOD9253368
_publ_section_title
;
Structure prediction by ZEFSAII (Michael W. Deem and Ramdas Pophale) SiO2 
 PCOD9253368
Probable space group: P 21/C
;
_chemical_formula_sum "Si O2"
_cell_formula_units_Z 18
_cell_length_a 9.839922
_cell_length_b 8.676232
_cell_length_c 9.810060
_cell_angle_alpha 90.000000
_cell_angle_beta 57.271866
_cell_angle_gamma 90.000000
_cell_volume 704.558699
_symmetry_space_group_name_H-M "P 21/C"
_symmetry_group_IT_number 14
_symmetry_cell_setting 'monoclinic'
loop_
_space_group_symop_operation_xyz
x,y,z
-x,1/2+y,1/2-z
-x,-y,-z
x,1/2-y,1/2+z
loop_
_atom_site_type_symbol
_atom_site_label
_atom_site_fract_x
_atom_site_fract_y
_atom_site_fract_z
Si Si1 0.641824 0.242129 0.249488
Si Si2 0.001620 0.323069 0.558369
Si Si3 0.536311 0.571784 0.837353
Si Si4 0.803080 0.683863 0.270638
Si Si5 0.500000 0.000000 0.000000
O O1 0.818999 0.209891 0.204442
O O2 0.624018 0.349180 0.128560
O O3 0.517076 0.324061 0.420659
O O4 0.578988 0.076576 0.221920
O O5 0.000000 0.500000 0.500000
O O6 0.050219 0.199448 0.415819
O O7 0.120566 0.299175 0.621185
O O8 0.688768 0.681583 0.769506
O O9 0.500000 0.500000 0.000000
O O10 0.685588 0.537662 0.346439
#
# Coordination Sequence:
#
# PCOD9253368 Si02
#       5
#     4   4   4   4   2
#     4  12  29  50  84 118 165 208 276 337 412 480
#     4  12  31  53  83 125 169 211 275 348 419 486
#     4  12  27  48  82 117 154 216 269 330 400 496
#     4  12  29  52  84 123 162 218 277 336 417 491
#     4  12  28  50  84 116 162 218 274 330 404 500
#
# _framework density 25.547906999999999
#
# number of rings (size 3 to 8) (size 9 to 14) (size 15 to 20)
#    0.000    0.000    4.444    2.667   12.444    0.889 
#    0.000    0.000    0.000    0.000    0.000    0.000 
#    0.000    0.000    0.000    0.000    0.000    0.000 
#
# Total GULP energy -100287.550486 kJ/mol
# GULP energy per Si atom -5571.530583 kJ/mol
# Density = 2.548976 g / cm^3
# Si number density = 25.547907 Si / 1000 Ang^3
#
#
#
# Elastic Constant Matrix: (Units=GPa)
#
#
# Indices 1 2 3 4 5 6 
#
# 1 154.7777 38.8904 17.6178 0.0000 4.2868 0.0000
# 2 38.8904 129.8693 16.3637 0.0000 -8.4072 0.0000
# 3 17.6178 16.3637 78.8592 0.0000 -1.5443 0.0000
# 4 0.0000 0.0000 0.0000 47.1890 0.0000 -5.9983
# 5 4.2868 -8.4072 -1.5443 0.0000 45.9859 0.0000
# 6 0.0000 0.0000 0.0000 -5.9983 0.0000 50.2916
#
#
#
# Elastic Compliance Matrix: (Units=1/GPa)
#
#
# Indices 1 2 3 4 5 6 
#
# 1 0.007144 -0.002059 -0.001190 0.000000 -0.001082 0.000000
# 2 -0.002059 0.008590 -0.001289 0.000000 0.001719 0.000000
# 3 -0.001190 -0.001289 0.013220 0.000000 0.000319 0.000000
# 4 0.000000 0.000000 0.000000 0.021518 0.000000 0.002566
# 5 -0.001082 0.001719 0.000319 0.000000 0.022172 0.000000
# 6 0.000000 0.000000 0.000000 0.002566 0.000000 0.020190
#
#
# Mechanical properties :
#
#
# Convention : Reuss Voigt Hill
#
# Bulk Modulus (GPa) = 50.30575 56.58331 53.44453
# Shear Modulus (GPa) = 46.06757 48.06893 47.06825
#
# Velocity S-wave (km/s) = 4.25100 4.34236 4.29692
# Velocity P-wave (km/s) = 6.62028 6.88022 6.75150
#
# Compressibility (1/GPa) = 0.01987844
#
# Stress axis : x y z
#
# Youngs Moduli (GPa) = 139.98253 116.40843 75.64105
#
# Poissons Ratio (x) = 0.23973 0.09000
# Poissons Ratio (y) = 0.28828 0.09749
# Poissons Ratio (z) = 0.16656 0.15003
#
# Static dielectric constant tensor:
#      x y z
#    x 1.916160 0.000000 0.002250 
#    y 0.000000 2.223740 0.000000 
#    z 0.002250 0.000000 2.160240 
# 
# From -- ./inp_files/22961.got.cif
#   From: 2010.05.17/outbox.cif.g08.bks.cpg/sg14_12_cif.got.tgz:22961.got - 2010.06.03 17:49:19.
