data_PCOD9253055
_publ_section_title
;
Structure prediction by ZEFSAII (Michael W. Deem and Ramdas Pophale) SiO2 
 PCOD9253055
Probable space group: P 21/C
;
_chemical_formula_sum "Si O2"
_cell_formula_units_Z 24
_cell_length_a 8.697971
_cell_length_b 16.627645
_cell_length_c 8.850017
_cell_angle_alpha 90.000000
_cell_angle_beta 89.211779
_cell_angle_gamma 90.000000
_cell_volume 1279.828291
_symmetry_space_group_name_H-M "P 21/C"
_symmetry_group_IT_number 14
_symmetry_cell_setting 'monoclinic'
loop_
_space_group_symop_operation_xyz
x,y,z
-x,1/2+y,1/2-z
-x,-y,-z
x,1/2-y,1/2+z
loop_
_atom_site_type_symbol
_atom_site_label
_atom_site_fract_x
_atom_site_fract_y
_atom_site_fract_z
Si Si1 0.467229 0.419523 0.906503
Si Si2 0.342857 0.487404 0.597058
Si Si3 0.176993 0.345154 0.436529
Si Si4 0.813225 0.156247 0.919989
Si Si5 0.340973 0.798017 0.766800
Si Si6 0.659230 0.714343 0.867841
O O1 0.379879 0.444721 0.755007
O O2 0.616635 0.371081 0.845541
O O3 0.500000 0.500000 0.000000
O O4 0.377992 0.355900 0.012336
O O5 0.500000 0.500000 0.500000
O O6 0.234074 0.430051 0.500322
O O7 0.263703 0.572621 0.627772
O O8 0.224985 0.277534 0.557785
O O9 0.270303 0.323087 0.284190
O O10 0.996334 0.345952 0.409158
O O11 0.745593 0.227972 0.820516
O O12 0.758127 0.171524 0.091867
O O13 0.501762 0.761372 0.828004
#
# Coordination Sequence:
#
# PCOD9253055 Si02
#       6
#     4   4   4   4   4   4
#     4  12  24  40  69 100 125 166 232 277 312 382
#     4  12  23  44  68  97 130 179 225 271 323 403
#     4  12  24  43  65  99 137 176 213 282 340 381
#     4  12  26  41  66 100 136 166 220 281 339 386
#     4  12  22  43  68  95 127 175 226 269 317 406
#     4  12  22  44  69  94 129 179 227 264 322 409
#
# _framework density 18.752516
#
# number of rings (size 3 to 8) (size 9 to 14) (size 15 to 20)
#    0.000    0.000    6.667    4.500    0.000    0.000 
#    0.000    0.833    0.000    0.000    0.000    0.000 
#    0.000    0.000    0.000    0.000    0.000    0.000 
#
# Total GULP energy -134320.427400 kJ/mol
# GULP energy per Si atom -5596.684475 kJ/mol
# Density = 1.870983 g / cm^3
# Si number density = 18.752516 Si / 1000 Ang^3
#
#
#
# Elastic Constant Matrix: (Units=GPa)
#
#
# Indices 1 2 3 4 5 6 
#
# 1 73.6991 15.6904 1.6027 0.0000 5.5181 0.0000
# 2 15.6904 113.9522 18.3264 0.0000 9.3022 0.0000
# 3 1.6027 18.3264 83.1551 0.0000 -2.2165 0.0000
# 4 0.0000 0.0000 0.0000 51.2821 0.0000 11.1546
# 5 5.5181 9.3022 -2.2165 0.0000 27.4730 0.0000
# 6 0.0000 0.0000 0.0000 11.1546 0.0000 32.2641
#
#
#
# Elastic Compliance Matrix: (Units=1/GPa)
#
#
# Indices 1 2 3 4 5 6 
#
# 1 0.014111 -0.001770 0.000059 0.000000 -0.002230 0.000000
# 2 -0.001770 0.009619 -0.002168 0.000000 -0.003076 0.000000
# 3 0.000059 -0.002168 0.012549 0.000000 0.001735 0.000000
# 4 0.000000 0.000000 0.000000 0.021086 0.000000 -0.007290
# 5 -0.002230 -0.003076 0.001735 0.000000 0.038029 0.000000
# 6 0.000000 0.000000 0.000000 -0.007290 0.000000 0.033514
#
#
# Mechanical properties :
#
#
# Convention : Reuss Voigt Hill
#
# Bulk Modulus (GPa) = 35.06302 38.00504 36.53403
# Shear Modulus (GPa) = 34.20587 37.88298 36.04442
#
# Velocity S-wave (km/s) = 4.27554 4.49949 4.38895
# Velocity P-wave (km/s) = 6.56598 6.87783 6.72371
#
# Compressibility (1/GPa) = 0.02852008
#
# Stress axis : x y z
#
# Youngs Moduli (GPa) = 70.86514 103.95933 79.69027
#
# Poissons Ratio (x) = 0.18405 -0.00468
# Poissons Ratio (y) = 0.12546 0.17275
# Poissons Ratio (z) = -0.00416 0.22537
#
# Static dielectric constant tensor:
#      x y z
#    x 1.613750 0.000000 0.006030 
#    y 0.000000 1.636420 0.000000 
#    z 0.006030 0.000000 1.633000 
# 
# From -- ./inp_files/8403.got.cif
#   From: 2010.05.17/outbox.cif.g08.bks.cpg/sg14_5_cif.got.tgz:8403.got - 2010.06.03 17:49:19.
