data_PCOD9253876
_publ_section_title
;
Structure prediction by ZEFSAII (Michael W. Deem and Ramdas Pophale) SiO2 
 PCOD9253876
Probable space group: C 2/C
;
_chemical_formula_sum "Si O2"
_cell_formula_units_Z 60
_cell_length_a 8.850989
_cell_length_b 15.940495
_cell_length_c 25.342771
_cell_angle_alpha 90.000000
_cell_angle_beta 117.915256
_cell_angle_gamma 90.000000
_cell_volume 3159.537864
_symmetry_space_group_name_H-M "C 2/C"
_symmetry_group_IT_number 15
_symmetry_cell_setting 'monoclinic'
loop_
_space_group_symop_operation_xyz
x,y,z
-x,y,1/2-z
-x,-y,-z
x,-y,1/2+z
1/2+x,1/2+y,z
1/2-x,1/2+y,1/2-z
1/2-x,1/2-y,-z
1/2+x,1/2-y,1/2+z
loop_
_atom_site_type_symbol
_atom_site_label
_atom_site_fract_x
_atom_site_fract_y
_atom_site_fract_z
Si Si1 0.391462 0.595695 0.048277
Si Si2 0.387005 0.254341 0.628555
Si Si3 0.908406 0.424984 0.084707
Si Si4 0.887375 0.330370 0.852530
Si Si5 0.760468 0.004458 0.622858
Si Si6 0.500000 0.494097 0.250000
Si Si7 0.195652 0.862399 0.718944
Si Si8 0.778559 0.592879 0.112854
O O1 0.369232 0.684408 0.074981
O O2 0.363518 0.522717 0.087722
O O3 0.585717 0.593137 0.059745
O O4 0.247587 0.585078 0.981168
O O5 0.430258 0.161062 0.619269
O O6 0.210638 0.258167 0.632276
O O7 0.539949 0.296877 0.686859
O O8 0.862586 0.502540 0.115520
O O9 0.085807 0.446272 0.084174
O O10 0.800606 0.415023 0.862408
O O11 0.835186 0.328896 0.782665
O O12 0.089681 0.340805 0.890993
O O13 0.875064 0.048698 0.686937
O O14 0.385465 0.554635 0.268109
O O15 0.262651 0.885501 0.672098
#
# Coordination Sequence:
#
# PCOD9253876 Si02
#       8
#     8   8   8   8   8   4   8   8
#     4  10  19  38  58  76 111 156 189 221 280 347
#     4  10  19  35  56  79 108 148 190 225 281 337
#     4  11  22  34  53  89 115 138 188 244 278 325
#     4   9  17  33  55  79 104 148 189 224 269 352
#     4   9  18  33  59  80 106 145 190 230 276 331
#     4  10  14  34  62  76 102 140 196 220 272 348
#     4  10  16  34  59  75 104 146 186 223 272 347
#     4  10  20  33  55  83 108 141 194 231 280 327
#
# _framework density 18.990119
#
# number of rings (size 3 to 8) (size 9 to 14) (size 15 to 20)
#    0.000    2.133    5.333    1.600    0.000    0.000 
#    0.000   11.333    5.867    0.000    0.000    0.000 
#    0.000    0.000    0.000    0.000    0.000    0.000 
#
# Total GULP energy -167225.664383 kJ/mol
# GULP energy per Si atom -5574.188813 kJ/mol
# Density = 1.894690 g / cm^3
# Si number density = 18.990119 Si / 1000 Ang^3
#
#
#
# Elastic Constant Matrix: (Units=GPa)
#
#
# Indices 1 2 3 4 5 6 
#
# 1 91.8637 6.1648 18.0626 0.0000 29.4007 0.0000
# 2 6.1648 36.8992 6.2825 0.0000 7.3270 0.0000
# 3 18.0626 6.2825 50.1940 0.0000 23.5615 0.0000
# 4 0.0000 0.0000 0.0000 -0.7573 0.0000 -11.5079
# 5 29.4007 7.3270 23.5615 0.0000 26.2121 0.0000
# 6 0.0000 0.0000 0.0000 -11.5079 0.0000 -1.7473
#
#
#
# Elastic Compliance Matrix: (Units=1/GPa)
#
#
# Indices 1 2 3 4 5 6 
#
# 1 0.017748 0.001090 0.005128 0.000000 -0.024822 0.000000
# 2 0.001090 0.028763 0.000615 0.000000 -0.009816 0.000000
# 3 0.005128 0.000615 0.035950 0.000000 -0.038239 0.000000
# 4 0.000000 0.000000 0.000000 0.013327 0.000000 -0.087774
# 5 -0.024822 -0.009816 -0.038239 0.000000 0.103107 0.000000
# 6 0.000000 0.000000 0.000000 -0.087774 0.000000 0.005776
#
#
# Mechanical properties :
#
#
# Convention : Reuss Voigt Hill
#
# Bulk Modulus (GPa) = 10.40267 26.66406 18.53337
# Shear Modulus (GPa) = 22.41690 14.63800 18.52745
#
# Velocity S-wave (km/s) = 3.43950 2.77938 3.12691
# Velocity P-wave (km/s) = 4.61122 4.93674 4.77675
#
# Compressibility (1/GPa) = 0.09612915
#
# Stress axis : x y z
#
# Youngs Moduli (GPa) = 56.34344 34.76677 27.81657
#
# Poissons Ratio (x) = -0.03791 -0.14265
# Poissons Ratio (y) = -0.06144 -0.01712
# Poissons Ratio (z) = -0.28894 -0.02139
#
# Static dielectric constant tensor:
#      x y z
#    x 1.690080 0.000000 0.018140 
#    y 0.000000 1.635500 0.000000 
#    z 0.018140 0.000000 1.685240 
# 
# From -- ./inp_files/289433.got.cif
#   From: 2010.05.17/outbox.cif.g08.bks.cpg/sg15_145_cif.got.tgz:289433.got - 2010.06.03 18:47:42.
