data_PCOD9253596
_publ_section_title
;
Structure prediction by ZEFSAII (Michael W. Deem and Ramdas Pophale) SiO2 
 PCOD9253596
Probable space group: P 21/C
;
_chemical_formula_sum "Si O2"
_cell_formula_units_Z 28
_cell_length_a 9.000000
_cell_length_b 27.000000
_cell_length_c 9.000000
_cell_angle_alpha 90.000000
_cell_angle_beta 140.000000
_cell_angle_gamma 90.000000
_cell_volume 1405.776502
_symmetry_space_group_name_H-M "P 21/C"
_symmetry_group_IT_number 14
_symmetry_cell_setting 'monoclinic'
loop_
_space_group_symop_operation_xyz
x,y,z
-x,1/2+y,1/2-z
-x,-y,-z
x,1/2-y,1/2+z
loop_
_atom_site_type_symbol
_atom_site_label
_atom_site_fract_x
_atom_site_fract_y
_atom_site_fract_z
Si Si1 0.293302 0.801085 0.435625
Si Si2 0.252775 0.058991 0.138332
Si Si3 0.447783 0.384147 0.051529
Si Si4 0.840513 0.859897 0.178491
Si Si5 0.386378 0.696495 0.356284
Si Si6 0.206308 0.949865 0.014253
Si Si7 0.986262 0.388031 0.877599
O O1 0.444259 0.836983 0.446872
O O2 0.310287 0.747101 0.376147
O O3 0.379219 0.798216 0.671718
O O4 0.041578 0.826664 0.258313
O O5 0.420344 0.074813 0.400313
O O6 0.001498 0.056432 0.025311
O O7 0.254883 0.101929 0.016788
O O8 0.299654 0.005372 0.104523
O O9 0.607921 0.408677 0.298491
O O10 0.202384 0.372952 0.939273
O O11 0.936407 0.891055 0.391984
O O12 0.642668 0.823237 0.087441
O O13 0.207380 0.654259 0.268279
O O14 0.112558 0.936886 0.778694
#
# Coordination Sequence:
#
# PCOD9253596 Si02
#       7
#     4   4   4   4   4   4   4
#     4  11  26  40  68  91 124 171 210 262 322 377
#     4  10  21  39  68  95 130 169 218 261 327 372
#     4  11  21  42  65  95 129 171 213 268 313 384
#     4  11  23  45  63  94 134 165 208 271 316 386
#     4  11  26  43  63  96 127 168 213 264 320 387
#     4  10  21  40  66  98 127 172 216 265 311 392
#     4  10  25  41  63  95 133 168 211 262 321 376
#
# _framework density 19.917818
#
# number of rings (size 3 to 8) (size 9 to 14) (size 15 to 20)
#    0.000    1.429    2.857    1.286    6.000    1.714 
#    0.000    2.857    0.000    0.000    0.000    0.000 
#    0.000    0.000    0.000    0.000    0.000    0.000 
#
# Total GULP energy -156422.115468 kJ/mol
# GULP energy per Si atom -5586.504124 kJ/mol
# Density = 1.987248 g / cm^3
# Si number density = 19.917818 Si / 1000 Ang^3
#
#
#
# Elastic Constant Matrix: (Units=GPa)
#
#
# Indices 1 2 3 4 5 6 
#
# 1 46.0962 4.0584 5.7672 0.0000 -10.1583 0.0000
# 2 4.0584 47.8808 -0.4348 0.0000 -21.8980 0.0000
# 3 5.7672 -0.4348 60.3438 0.0000 -18.2857 0.0000
# 4 0.0000 0.0000 0.0000 18.0209 0.0000 -7.2453
# 5 -10.1583 -21.8980 -18.2857 0.0000 21.8502 0.0000
# 6 0.0000 0.0000 0.0000 -7.2453 0.0000 24.4543
#
#
#
# Elastic Compliance Matrix: (Units=1/GPa)
#
#
# Indices 1 2 3 4 5 6 
#
# 1 0.026111 0.010462 0.005943 0.000000 0.027598 0.000000
# 2 0.010462 0.059378 0.025367 0.000000 0.085601 0.000000
# 3 0.005943 0.025367 0.033129 0.000000 0.055910 0.000000
# 4 0.000000 0.000000 0.000000 0.062995 0.000000 0.018664
# 5 0.027598 0.085601 0.055910 0.000000 0.191174 0.000000
# 6 0.000000 0.000000 0.000000 0.018664 0.000000 0.046423
#
#
# Mechanical properties :
#
#
# Convention : Reuss Voigt Hill
#
# Bulk Modulus (GPa) = 4.94653 19.23360 12.09007
# Shear Modulus (GPa) = 12.40537 22.52707 17.46622
#
# Velocity S-wave (km/s) = 2.49836 3.36668 2.96449
# Velocity P-wave (km/s) = 3.28805 4.97897 4.21909
#
# Compressibility (1/GPa) = 0.20216183
#
# Stress axis : x y z
#
# Youngs Moduli (GPa) = 38.29824 16.84133 30.18542
#
# Poissons Ratio (x) = -0.17620 -0.17938
# Poissons Ratio (y) = -0.40070 -0.76572
# Poissons Ratio (z) = -0.22760 -0.42722
#
# Static dielectric constant tensor:
#      x y z
#    x 1.659470 0.000000 0.011650 
#    y 0.000000 1.660630 0.000000 
#    z 0.011650 0.000000 1.733490 
# 
# From -- ./inp_files/6527.got.cif
#   From: 2010.05.17/outbox.ucp.g08.bks.cvg/sg14_4_cif.got.tgz:6527.got - 2010.06.11 12:31:08.
