data_PCOD9253141
_publ_section_title
;
Structure prediction by ZEFSAII (Michael W. Deem and Ramdas Pophale) SiO2 
 PCOD9253141
Probable space group: P 21/C
;
_chemical_formula_sum "Si O2"
_cell_formula_units_Z 24
_cell_length_a 14.523725
_cell_length_b 7.804941
_cell_length_c 9.414128
_cell_angle_alpha 90.000000
_cell_angle_beta 84.411964
_cell_angle_gamma 90.000000
_cell_volume 1062.084197
_symmetry_space_group_name_H-M "P 21/C"
_symmetry_group_IT_number 14
_symmetry_cell_setting 'monoclinic'
loop_
_space_group_symop_operation_xyz
x,y,z
-x,1/2+y,1/2-z
-x,-y,-z
x,1/2-y,1/2+z
loop_
_atom_site_type_symbol
_atom_site_label
_atom_site_fract_x
_atom_site_fract_y
_atom_site_fract_z
Si Si1 0.696873 0.331371 0.873726
Si Si2 0.864383 0.805148 0.712773
Si Si3 0.395155 0.038386 0.058656
Si Si4 0.184600 0.663708 0.868846
Si Si5 0.988628 0.694913 0.451711
Si Si6 0.334421 0.159892 0.760653
O O1 0.773836 0.308256 0.738949
O O2 0.635269 0.489112 0.828824
O O3 0.743702 0.373882 0.016608
O O4 0.648971 0.146122 0.896676
O O5 0.904038 0.774075 0.551246
O O6 0.953763 0.783896 0.797020
O O7 0.774623 0.691651 0.754106
O O8 0.831130 0.999708 0.727166
O O9 0.348241 0.124065 0.925726
O O10 0.384923 0.173046 0.189424
O O11 0.500000 0.000000 0.000000
O O12 0.087092 0.715397 0.951544
O O13 0.000000 0.500000 0.500000
#
# Coordination Sequence:
#
# PCOD9253141 Si02
#       6
#     4   4   4   4   4   4
#     4  12  25  48  74 107 149 196 242 299 372 436
#     4  12  24  44  68 102 145 197 244 296 365 424
#     4  12  30  51  79 113 146 188 246 308 375 451
#     4  12  24  43  69 102 149 195 248 302 359 429
#     4  12  25  40  65 103 146 194 250 298 349 428
#     4  12  27  50  79 109 150 196 240 305 375 443
#
# _framework density 22.597079000000001
#
# number of rings (size 3 to 8) (size 9 to 14) (size 15 to 20)
#    0.000    0.000    3.333    7.500    2.333    0.667 
#    0.000    0.000    0.000    0.000    0.000    0.000 
#    0.000    0.000    0.000    0.000    0.000    0.000 
#
# Total GULP energy -134336.355260 kJ/mol
# GULP energy per Si atom -5597.348136 kJ/mol
# Density = 2.254565 g / cm^3
# Si number density = 22.597079 Si / 1000 Ang^3
#
#
#
# Elastic Constant Matrix: (Units=GPa)
#
#
# Indices 1 2 3 4 5 6 
#
# 1 58.1643 20.7563 -2.7005 0.0000 -23.1410 0.0000
# 2 20.7563 119.0592 -1.4566 0.0000 -14.6643 0.0000
# 3 -2.7005 -1.4566 48.0242 0.0000 0.4406 0.0000
# 4 0.0000 0.0000 0.0000 43.2218 0.0000 -6.8493
# 5 -23.1410 -14.6643 0.4406 0.0000 36.0990 0.0000
# 6 0.0000 0.0000 0.0000 -6.8493 0.0000 9.8245
#
#
#
# Elastic Compliance Matrix: (Units=1/GPa)
#
#
# Indices 1 2 3 4 5 6 
#
# 1 0.023764 -0.002373 0.001134 0.000000 0.014256 0.000000
# 2 -0.002373 0.009081 0.000122 0.000000 0.002166 0.000000
# 3 0.001134 0.000122 0.020885 0.000000 0.000521 0.000000
# 4 0.000000 0.000000 0.000000 0.026010 0.000000 0.018133
# 5 0.014256 0.002166 0.000521 0.000000 0.037714 0.000000
# 6 0.000000 0.000000 0.000000 0.018133 0.000000 0.114428
#
#
# Mechanical properties :
#
#
# Convention : Reuss Voigt Hill
#
# Bulk Modulus (GPa) = 19.41915 28.71623 24.06769
# Shear Modulus (GPa) = 19.89792 31.73898 25.81845
#
# Velocity S-wave (km/s) = 2.97063 3.75181 3.38384
# Velocity P-wave (km/s) = 4.51426 5.61281 5.09324
#
# Compressibility (1/GPa) = 0.05149556
#
# Stress axis : x y z
#
# Youngs Moduli (GPa) = 42.08052 110.11737 47.88016
#
# Poissons Ratio (x) = 0.26133 -0.05427
# Poissons Ratio (y) = 0.09986 -0.00585
# Poissons Ratio (z) = -0.04770 -0.01345
#
# Static dielectric constant tensor:
#      x y z
#    x 1.614930 0.000000 0.167440 
#    y 0.000000 2.017830 0.000000 
#    z 0.167440 0.000000 1.644680 
# 
# From -- ./inp_files/15043.got.cif
#   From: 2010.05.17/outbox.cif.g08.bks.cpg/sg14_8_cif.got.tgz:15043.got - 2010.06.03 17:49:19.
