data_PCOD9253212
_publ_section_title
;
Structure prediction by ZEFSAII (Michael W. Deem and Ramdas Pophale) SiO2 
 PCOD9253212
Probable space group: P 21/C
;
_chemical_formula_sum "Si O2"
_cell_formula_units_Z 20
_cell_length_a 31.221542
_cell_length_b 4.878710
_cell_length_c 18.791673
_cell_angle_alpha 90.000000
_cell_angle_beta 17.084113
_cell_angle_gamma 90.000000
_cell_volume 840.891697
_symmetry_space_group_name_H-M "P 21/C"
_symmetry_group_IT_number 14
_symmetry_cell_setting 'monoclinic'
loop_
_space_group_symop_operation_xyz
x,y,z
-x,1/2+y,1/2-z
-x,-y,-z
x,1/2-y,1/2+z
loop_
_atom_site_type_symbol
_atom_site_label
_atom_site_fract_x
_atom_site_fract_y
_atom_site_fract_z
Si Si1 0.439828 0.378993 0.805846
Si Si2 0.949988 0.311278 0.217379
Si Si3 0.879395 0.847309 0.240099
Si Si4 0.600867 0.481286 0.408256
Si Si5 0.811975 0.527768 0.579460
O O1 0.467148 0.611227 0.821340
O O2 0.502688 0.512131 0.634039
O O3 0.271290 0.294999 0.062128
O O4 0.943071 0.569815 0.174722
O O5 0.912478 0.432599 0.354227
O O6 0.842549 0.077645 0.358400
O O7 0.095119 0.130412 0.000570
O O8 0.000000 0.000000 0.000000
O O9 0.500000 0.500000 0.500000
O O10 0.695026 0.210656 0.273409
O O11 0.719676 0.710769 0.206200
#
# Coordination Sequence:
#
# PCOD9253212 Si02
#       5
#     4   4   4   4   4
#     4  12  28  49  75 111 154 201 258 314 387 468
#     4  12  25  47  72 112 150 191 259 313 386 448
#     4  12  28  48  76 105 155 204 256 310 383 465
#     4  12  26  46  76 108 152 199 258 311 396 461
#     4  12  25  44  77 109 146 196 249 326 380 458
#
# _framework density 23.784274
#
# number of rings (size 3 to 8) (size 9 to 14) (size 15 to 20)
#    0.000    0.000    0.000   10.800    8.400    0.000 
#    0.000    0.000    0.000    0.000    0.000    0.000 
#    0.000    0.000    0.000    0.000    0.000    0.000 
#
# Total GULP energy -111936.618676 kJ/mol
# GULP energy per Si atom -5596.830934 kJ/mol
# Density = 2.373014 g / cm^3
# Si number density = 23.784274 Si / 1000 Ang^3
#
#
#
# Elastic Constant Matrix: (Units=GPa)
#
#
# Indices 1 2 3 4 5 6 
#
# 1 155.2761 54.0550 54.0908 0.0000 -21.0513 0.0000
# 2 54.0550 162.5369 25.7244 0.0000 -18.8276 0.0000
# 3 54.0908 25.7244 80.8437 0.0000 -13.0968 0.0000
# 4 0.0000 0.0000 0.0000 46.8646 0.0000 -6.6451
# 5 -21.0513 -18.8276 -13.0968 0.0000 50.4347 0.0000
# 6 0.0000 0.0000 0.0000 -6.6451 0.0000 63.5017
#
#
#
# Elastic Compliance Matrix: (Units=1/GPa)
#
#
# Indices 1 2 3 4 5 6 
#
# 1 0.009204 -0.002033 -0.005232 0.000000 0.001724 0.000000
# 2 -0.002033 0.007120 -0.000639 0.000000 0.001643 0.000000
# 3 -0.005232 -0.000639 0.016370 0.000000 0.001828 0.000000
# 4 0.000000 0.000000 0.000000 0.021659 0.000000 0.002267
# 5 0.001724 0.001643 0.001828 0.000000 0.021636 0.000000
# 6 0.000000 0.000000 0.000000 0.002267 0.000000 0.015985
#
#
# Mechanical properties :
#
#
# Convention : Reuss Voigt Hill
#
# Bulk Modulus (GPa) = 59.22232 74.04413 66.63323
# Shear Modulus (GPa) = 44.08729 49.81263 46.94996
#
# Velocity S-wave (km/s) = 4.31005 4.58137 4.44778
# Velocity P-wave (km/s) = 7.05142 7.69314 7.37926
#
# Compressibility (1/GPa) = 0.01688552
#
# Stress axis : x y z
#
# Youngs Moduli (GPa) = 108.64424 140.44634 61.08817
#
# Poissons Ratio (x) = 0.28557 0.31962
# Poissons Ratio (y) = 0.22091 0.03903
# Poissons Ratio (z) = 0.56844 0.08974
#
# Static dielectric constant tensor:
#      x y z
#    x 1.968810 0.000000 0.010530 
#    y 0.000000 1.851660 0.000000 
#    z 0.010530 0.000000 1.889740 
# 
# From -- ./inp_files/62400.got.cif
#   From: 2010.05.17/outbox.cif.g08.bks.cpg/sg14_32_cif.got.tgz:62400.got - 2010.06.03 17:49:19.
