data_PCOD9253333
_publ_section_title
;
Structure prediction by ZEFSAII (Michael W. Deem and Ramdas Pophale) SiO2 
 PCOD9253333
Probable space group: P 21/C
;
_chemical_formula_sum "Si O2"
_cell_formula_units_Z 16
_cell_length_a 8.407536
_cell_length_b 15.314139
_cell_length_c 8.222470
_cell_angle_alpha 90.000000
_cell_angle_beta 34.144325
_cell_angle_gamma 90.000000
_cell_volume 594.213813
_symmetry_space_group_name_H-M "P 21/C"
_symmetry_group_IT_number 14
_symmetry_cell_setting 'monoclinic'
loop_
_space_group_symop_operation_xyz
x,y,z
-x,1/2+y,1/2-z
-x,-y,-z
x,1/2-y,1/2+z
loop_
_atom_site_type_symbol
_atom_site_label
_atom_site_fract_x
_atom_site_fract_y
_atom_site_fract_z
Si Si1 0.049847 0.071508 0.598334
Si Si2 0.922617 0.257437 0.558105
Si Si3 0.382724 0.510906 0.283313
Si Si4 0.528407 0.323313 0.124042
O O1 0.937375 0.165082 0.639619
O O2 0.000000 0.000000 0.500000
O O3 0.385793 0.073669 0.332407
O O4 0.910888 0.040870 0.887088
O O5 0.706545 0.236594 0.596305
O O6 0.252544 0.283831 0.266912
O O7 0.771083 0.335641 0.783270
O O8 0.429388 0.409990 0.300034
O O9 0.500000 0.500000 0.000000
#
# Coordination Sequence:
#
# PCOD9253333 Si02
#       4
#     4   4   4   4
#     4  12  26  50  78 105 146 203 253 307 370 450
#     4  12  28  47  76 109 152 198 250 309 382 448
#     4  12  28  48  77 110 151 195 257 313 371 442
#     4  12  28  48  75 111 152 198 250 310 377 453
#
# _framework density 26.926335000000002
#
# number of rings (size 3 to 8) (size 9 to 14) (size 15 to 20)
#    0.000    0.000    2.500    6.000   14.000    0.000 
#    0.000    0.000    0.000    0.000    0.000    0.000 
#    0.000    0.000    0.000    0.000    0.000    0.000 
#
# Total GULP energy -89490.146086 kJ/mol
# GULP energy per Si atom -5593.134130 kJ/mol
# Density = 2.686505 g / cm^3
# Si number density = 26.926335 Si / 1000 Ang^3
#
#
#
# Elastic Constant Matrix: (Units=GPa)
#
#
# Indices 1 2 3 4 5 6 
#
# 1 69.9130 16.8409 45.5780 0.0000 -38.2656 0.0000
# 2 16.8409 116.2431 31.4949 0.0000 -1.5344 0.0000
# 3 45.5780 31.4949 160.7607 0.0000 -23.7157 0.0000
# 4 0.0000 0.0000 0.0000 47.9930 0.0000 2.6270
# 5 -38.2656 -1.5344 -23.7157 0.0000 54.7567 0.0000
# 6 0.0000 0.0000 0.0000 2.6270 0.0000 28.8370
#
#
#
# Elastic Compliance Matrix: (Units=1/GPa)
#
#
# Indices 1 2 3 4 5 6 
#
# 1 0.027246 -0.002436 -0.004752 0.000000 0.016914 0.000000
# 2 -0.002436 0.009318 -0.001439 0.000000 -0.002065 0.000000
# 3 -0.004752 -0.001439 0.007856 0.000000 0.000041 0.000000
# 4 0.000000 0.000000 0.000000 0.020941 0.000000 -0.001908
# 5 0.016914 -0.002065 0.000041 0.000000 0.030042 0.000000
# 6 0.000000 0.000000 0.000000 -0.001908 0.000000 0.034851
#
#
# Mechanical properties :
#
#
# Convention : Reuss Voigt Hill
#
# Bulk Modulus (GPa) = 36.81344 59.41603 48.11473
# Shear Modulus (GPa) = 31.93552 43.18420 37.55986
#
# Velocity S-wave (km/s) = 3.44762 4.00908 3.73890
# Velocity P-wave (km/s) = 5.43596 6.59881 6.04541
#
# Compressibility (1/GPa) = 0.02716400
#
# Stress axis : x y z
#
# Youngs Moduli (GPa) = 36.70279 107.31468 127.29453
#
# Poissons Ratio (x) = 0.26147 0.60492
# Poissons Ratio (y) = 0.08943 0.18323
# Poissons Ratio (z) = 0.17442 0.15447
#
# Static dielectric constant tensor:
#      x y z
#    x 2.207520 0.000000 0.126740 
#    y 0.000000 2.161200 0.000000 
#    z 0.126740 0.000000 2.005060 
# 
# From -- ./inp_files/5102.got.cif
#   From: 2010.05.17/outbox.cif.g08.bks.cpg/sg14_3_cif.got.tgz:5102.got - 2010.06.03 17:49:19.
