data_PCOD9253567
_publ_section_title
;
Structure prediction by ZEFSAII (Michael W. Deem and Ramdas Pophale) SiO2 
 PCOD9253567
Probable space group: P 21/C
;
_chemical_formula_sum "Si O2"
_cell_formula_units_Z 32
_cell_length_a 12.000000
_cell_length_b 12.000000
_cell_length_c 24.000000
_cell_angle_alpha 90.000000
_cell_angle_beta 150.000000
_cell_angle_gamma 90.000000
_cell_volume 1728.000000
_symmetry_space_group_name_H-M "P 21/C"
_symmetry_group_IT_number 14
_symmetry_cell_setting 'monoclinic'
loop_
_space_group_symop_operation_xyz
x,y,z
-x,1/2+y,1/2-z
-x,-y,-z
x,1/2-y,1/2+z
loop_
_atom_site_type_symbol
_atom_site_label
_atom_site_fract_x
_atom_site_fract_y
_atom_site_fract_z
Si Si1 0.431415 0.497265 0.579492
Si Si2 0.750467 0.857793 0.412828
Si Si3 0.268578 0.265705 0.478475
Si Si4 0.563413 0.690583 0.710618
Si Si5 0.911637 0.403682 0.769680
Si Si6 0.969425 0.362387 0.137305
Si Si7 0.654945 0.178036 0.054970
Si Si8 0.216211 0.888829 0.563808
O O1 0.254198 0.397152 0.491278
O O2 0.424535 0.581512 0.629180
O O3 0.666025 0.430605 0.689064
O O4 0.428285 0.581542 0.524203
O O5 0.680717 0.800301 0.441157
O O6 0.645587 0.810217 0.310370
O O7 0.021621 0.854059 0.523127
O O8 0.691732 0.988746 0.384314
O O9 0.457974 0.275275 0.510930
O O10 0.059859 0.194842 0.361898
O O11 0.404796 0.796920 0.637718
O O12 0.782244 0.689883 0.764541
O O13 0.843654 0.372116 0.677613
O O14 0.026545 0.525066 0.824254
O O15 0.784047 0.275754 0.078053
O O16 0.907723 0.401374 0.048756
#
# Coordination Sequence:
#
# PCOD9253567 Si02
#       8
#     4   4   4   4   4   4   4   4
#     4  10  23  43  63  91 126 168 211 253 320 375
#     4  10  23  39  64  93 123 162 215 255 315 376
#     4  11  23  40  61  95 125 166 210 256 313 380
#     4  10  22  40  69  85 122 173 204 259 318 365
#     4  10  22  37  62  86 124 168 201 251 316 363
#     4  10  21  41  61  94 119 163 215 250 313 376
#     4  11  24  40  66  91 132 164 206 261 313 382
#     4  10  20  42  65  87 124 164 209 265 307 373
#
# _framework density 18.518519000000001
#
# number of rings (size 3 to 8) (size 9 to 14) (size 15 to 20)
#    0.000    1.750    2.500    1.500    8.750    1.500 
#    2.250    1.875    0.000    0.000    0.000    0.000 
#    0.000    0.000    0.000    0.000    0.000    0.000 
#
# Total GULP energy -178227.503736 kJ/mol
# GULP energy per Si atom -5569.609492 kJ/mol
# Density = 1.847637 g / cm^3
# Si number density = 18.518519 Si / 1000 Ang^3
#
#
#
# Elastic Constant Matrix: (Units=GPa)
#
#
# Indices 1 2 3 4 5 6 
#
# 1 75.4396 36.3814 25.2887 0.0000 -6.9675 0.0000
# 2 36.3814 111.6692 45.6852 0.0000 9.5281 0.0000
# 3 25.2887 45.6852 91.3154 0.0000 -10.7842 0.0000
# 4 0.0000 0.0000 0.0000 47.8273 0.0000 -3.5531
# 5 -6.9675 9.5281 -10.7842 0.0000 27.8657 0.0000
# 6 0.0000 0.0000 0.0000 -3.5531 0.0000 37.1063
#
#
#
# Elastic Compliance Matrix: (Units=1/GPa)
#
#
# Indices 1 2 3 4 5 6 
#
# 1 0.016818 -0.005428 -0.001285 0.000000 0.005564 0.000000
# 2 -0.005428 0.014184 -0.006629 0.000000 -0.008773 0.000000
# 3 -0.001285 -0.006629 0.015564 0.000000 0.007969 0.000000
# 4 0.000000 0.000000 0.000000 0.021058 0.000000 0.002016
# 5 0.005564 -0.008773 0.007969 0.000000 0.043361 0.000000
# 6 0.000000 0.000000 0.000000 0.002016 0.000000 0.027143
#
#
# Mechanical properties :
#
#
# Convention : Reuss Voigt Hill
#
# Bulk Modulus (GPa) = 50.29552 54.79274 52.54413
# Shear Modulus (GPa) = 29.16461 33.96447 31.56454
#
# Velocity S-wave (km/s) = 3.97279 4.28726 4.13302
# Velocity P-wave (km/s) = 6.94713 7.35934 7.15620
#
# Compressibility (1/GPa) = 0.01988249
#
# Stress axis : x y z
#
# Youngs Moduli (GPa) = 59.45982 70.50127 64.24903
#
# Poissons Ratio (x) = 0.38272 0.08253
# Poissons Ratio (y) = 0.32278 0.42591
# Poissons Ratio (z) = 0.07638 0.46736
#
# Static dielectric constant tensor:
#      x y z
#    x 1.647760 0.000000 -0.002530 
#    y 0.000000 1.646460 0.000000 
#    z -0.002530 0.000000 1.679740 
# 
# From -- ./inp_files/73315.got.cif
#   From: 2010.05.17/outbox.ucp.g08.bks.cvg/sg14_37_cif.got.tgz:73315.got - 2010.06.11 12:31:08.
