data_PCOD9253726
_publ_section_title
;
Structure prediction by ZEFSAII (Michael W. Deem and Ramdas Pophale) SiO2 
 PCOD9253726
Probable space group: P 21/C
;
_chemical_formula_sum "Si O2"
_cell_formula_units_Z 24
_cell_length_a 9.000000
_cell_length_b 15.000000
_cell_length_c 18.000000
_cell_angle_alpha 90.000000
_cell_angle_beta 150.000000
_cell_angle_gamma 90.000000
_cell_volume 1215.000000
_symmetry_space_group_name_H-M "P 21/C"
_symmetry_group_IT_number 14
_symmetry_cell_setting 'monoclinic'
loop_
_space_group_symop_operation_xyz
x,y,z
-x,1/2+y,1/2-z
-x,-y,-z
x,1/2-y,1/2+z
loop_
_atom_site_type_symbol
_atom_site_label
_atom_site_fract_x
_atom_site_fract_y
_atom_site_fract_z
Si Si1 0.465971 0.155644 0.301143
Si Si2 0.773830 0.158699 0.952529
Si Si3 0.912052 0.368341 0.854336
Si Si4 0.930690 0.156864 0.850777
Si Si5 0.535371 0.521761 0.428825
Si Si6 0.502957 0.474228 0.088514
O O1 0.592703 0.249191 0.390113
O O2 0.691220 0.135582 0.329871
O O3 0.466400 0.068007 0.353821
O O4 0.122916 0.168752 0.126312
O O5 0.771183 0.146912 0.861968
O O6 0.640246 0.069370 0.932827
O O7 0.954175 0.263996 0.848193
O O8 0.765338 0.434799 0.731351
O O9 0.223862 0.418230 0.000572
O O10 0.762429 0.097599 0.716723
O O11 0.238274 0.103235 0.989191
O O12 0.500000 0.500000 0.500000
O O13 0.500000 0.500000 0.000000
#
# Coordination Sequence:
#
# PCOD9253726 Si02
#       6
#     4   4   4   4   4   4
#     4  11  25  45  70 101 135 177 231 279 330 394
#     4  11  25  44  72 100 134 179 227 282 330 393
#     4  11  25  41  71 100 128 182 228 274 337 395
#     4  11  23  46  70  94 137 175 230 277 334 397
#     4  12  24  44  67 100 134 179 222 274 343 404
#     4  12  26  45  66 102 142 177 222 279 339 403
#
# _framework density 19.753086
#
# number of rings (size 3 to 8) (size 9 to 14) (size 15 to 20)
#    0.000    0.667    3.333    4.000    9.333    2.667 
#    0.000    0.000    0.000    0.000    0.000    0.000 
#    0.000    0.000    0.000    0.000    0.000    0.000 
#
# Total GULP energy -134018.859257 kJ/mol
# GULP energy per Si atom -5584.119136 kJ/mol
# Density = 1.970813 g / cm^3
# Si number density = 19.753086 Si / 1000 Ang^3
#
#
#
# Elastic Constant Matrix: (Units=GPa)
#
#
# Indices 1 2 3 4 5 6 
#
# 1 56.0998 42.8046 -2.9490 0.0000 -21.4401 0.0000
# 2 42.8046 175.3640 41.9178 0.0000 -6.2831 0.0000
# 3 -2.9490 41.9178 83.9915 0.0000 -2.2305 0.0000
# 4 0.0000 0.0000 0.0000 50.6016 0.0000 1.6524
# 5 -21.4401 -6.2831 -2.2305 0.0000 24.7696 0.0000
# 6 0.0000 0.0000 0.0000 1.6524 0.0000 21.7718
#
#
#
# Elastic Compliance Matrix: (Units=1/GPa)
#
#
# Indices 1 2 3 4 5 6 
#
# 1 0.037117 -0.009626 0.006912 0.000000 0.030308 0.000000
# 2 -0.009626 0.009017 -0.005011 0.000000 -0.006496 0.000000
# 3 0.006912 -0.005011 0.014810 0.000000 0.006046 0.000000
# 4 0.000000 0.000000 0.000000 0.019811 0.000000 -0.001504
# 5 0.030308 -0.006496 0.006046 0.000000 0.065503 0.000000
# 6 0.000000 0.000000 0.000000 -0.001504 0.000000 0.046045
#
#
# Mechanical properties :
#
#
# Convention : Reuss Voigt Hill
#
# Bulk Modulus (GPa) = 21.98072 53.22248 37.60160
# Shear Modulus (GPa) = 22.42986 35.00738 28.71862
#
# Velocity S-wave (km/s) = 3.37339 4.21438 3.81711
# Velocity P-wave (km/s) = 5.13078 7.11924 6.20518
#
# Compressibility (1/GPa) = 0.04549442
#
# Stress axis : x y z
#
# Youngs Moduli (GPa) = 26.94204 110.90117 67.52249
#
# Poissons Ratio (x) = 1.06755 -0.46673
# Poissons Ratio (y) = 0.25935 0.33833
# Poissons Ratio (z) = -0.18623 0.55569
#
# Static dielectric constant tensor:
#      x y z
#    x 1.672730 0.000000 0.009210 
#    y 0.000000 1.649720 0.000000 
#    z 0.009210 0.000000 1.794020 
# 
# From -- ./inp_files/8410.got.cif
#   From: 2010.05.17/outbox.ucp.g08.bks.cvg/sg14_5_cif.got.tgz:8410.got - 2010.06.11 12:31:08.
