data_PCOD9253738
_publ_section_title
;
Structure prediction by ZEFSAII (Michael W. Deem and Ramdas Pophale) SiO2 
 PCOD9253738
Probable space group: P 21/C
;
_chemical_formula_sum "Si O2"
_cell_formula_units_Z 28
_cell_length_a 15.000000
_cell_length_b 9.000000
_cell_length_c 21.000000
_cell_angle_alpha 90.000000
_cell_angle_beta 30.000000
_cell_angle_gamma 90.000000
_cell_volume 1417.500000
_symmetry_space_group_name_H-M "P 21/C"
_symmetry_group_IT_number 14
_symmetry_cell_setting 'monoclinic'
loop_
_space_group_symop_operation_xyz
x,y,z
-x,1/2+y,1/2-z
-x,-y,-z
x,1/2-y,1/2+z
loop_
_atom_site_type_symbol
_atom_site_label
_atom_site_fract_x
_atom_site_fract_y
_atom_site_fract_z
Si Si1 0.123411 0.528514 0.860280
Si Si2 0.053120 0.652725 0.132800
Si Si3 0.569692 0.261890 0.138092
Si Si4 0.940613 0.364910 0.623518
Si Si5 0.517178 0.020459 0.068225
Si Si6 0.935033 0.007063 0.829171
Si Si7 0.708070 0.015080 0.154269
O O1 0.049373 0.687291 0.883217
O O2 0.341494 0.544797 0.714735
O O3 0.079014 0.388226 0.842692
O O4 0.000000 0.500000 0.000000
O O5 0.010298 0.535720 0.214121
O O6 0.042247 0.819529 0.167184
O O7 0.251215 0.643382 0.982562
O O8 0.418997 0.375313 0.253659
O O9 0.524001 0.183616 0.098316
O O10 0.617622 0.135035 0.161742
O O11 0.777664 0.411228 0.677411
O O12 0.947096 0.419112 0.692069
O O13 0.114947 0.447727 0.487738
O O14 0.720925 0.966799 0.959907
O O15 0.500000 0.000000 0.000000
#
# Coordination Sequence:
#
# PCOD9253738 Si02
#       7
#     4   4   4   4   4   4   4
#     4  12  26  42  74 104 140 188 245 287 365 430
#     4  11  24  46  68 103 139 190 238 292 357 429
#     4  11  26  44  71 105 144 183 242 295 359 429
#     4  11  25  43  70 101 142 184 231 297 357 421
#     4  11  24  46  69 101 141 186 236 295 351 421
#     4  11  24  46  72  97 143 186 238 297 356 427
#     4  11  25  46  69 104 147 182 232 301 364 419
#
# _framework density 19.753086
#
# number of rings (size 3 to 8) (size 9 to 14) (size 15 to 20)
#    0.000    0.857    4.286    2.571   12.000    0.000 
#    2.571    0.714    0.000    0.000    0.000    0.000 
#    0.000    0.000    0.000    0.000    0.000    0.000 
#
# Total GULP energy -156057.159862 kJ/mol
# GULP energy per Si atom -5573.469995 kJ/mol
# Density = 1.970813 g / cm^3
# Si number density = 19.753086 Si / 1000 Ang^3
#
#
#
# Elastic Constant Matrix: (Units=GPa)
#
#
# Indices 1 2 3 4 5 6 
#
# 1 124.3941 40.7369 38.7185 0.0000 4.5282 0.0000
# 2 40.7369 80.2275 34.2431 0.0000 -5.4689 0.0000
# 3 38.7185 34.2431 78.0252 0.0000 6.6927 0.0000
# 4 0.0000 0.0000 0.0000 45.2270 0.0000 -0.2553
# 5 4.5282 -5.4689 6.6927 0.0000 27.8357 0.0000
# 6 0.0000 0.0000 0.0000 -0.2553 0.0000 41.0354
#
#
#
# Elastic Compliance Matrix: (Units=1/GPa)
#
#
# Indices 1 2 3 4 5 6 
#
# 1 0.010434 -0.004019 -0.003268 0.000000 -0.001701 0.000000
# 2 -0.004019 0.017521 -0.006174 0.000000 0.005581 0.000000
# 3 -0.003268 -0.006174 0.017568 0.000000 -0.004905 0.000000
# 4 0.000000 0.000000 0.000000 0.022111 0.000000 0.000138
# 5 -0.001701 0.005581 -0.004905 0.000000 0.038478 0.000000
# 6 0.000000 0.000000 0.000000 0.000138 0.000000 0.024370
#
#
# Mechanical properties :
#
#
# Convention : Reuss Voigt Hill
#
# Bulk Modulus (GPa) = 53.75851 56.67154 55.21503
# Shear Modulus (GPa) = 30.56141 34.08282 32.32212
#
# Velocity S-wave (km/s) = 3.93768 4.15835 4.04952
# Velocity P-wave (km/s) = 6.92445 7.19778 7.06244
#
# Compressibility (1/GPa) = 0.01860170
#
# Stress axis : x y z
#
# Youngs Moduli (GPa) = 95.83749 57.07467 56.92103
#
# Poissons Ratio (x) = 0.22940 0.18601
# Poissons Ratio (y) = 0.38521 0.35141
# Poissons Ratio (z) = 0.31319 0.35236
#
# Static dielectric constant tensor:
#      x y z
#    x 1.753580 0.000000 -0.000490 
#    y 0.000000 1.669800 0.000000 
#    z -0.000490 0.000000 1.724870 
# 
# From -- ./inp_files/68293.got.cif
#   From: 2010.05.17/outbox.ucp.g08.bks.cvg/sg14_35_cif.got.tgz:68293.got - 2010.06.11 12:31:08.
