data_PCOD9253826
_publ_section_title
;
Structure prediction by ZEFSAII (Michael W. Deem and Ramdas Pophale) SiO2 
 PCOD9253826
Probable space group: C 2/C
;
_chemical_formula_sum "Si O2"
_cell_formula_units_Z 44
_cell_length_a 19.003793
_cell_length_b 7.410446
_cell_length_c 18.537654
_cell_angle_alpha 90.000000
_cell_angle_beta 45.092721
_cell_angle_gamma 90.000000
_cell_volume 1848.953926
_symmetry_space_group_name_H-M "C 2/C"
_symmetry_group_IT_number 15
_symmetry_cell_setting 'monoclinic'
loop_
_space_group_symop_operation_xyz
x,y,z
-x,y,1/2-z
-x,-y,-z
x,-y,1/2+z
1/2+x,1/2+y,z
1/2-x,1/2+y,1/2-z
1/2-x,1/2-y,-z
1/2+x,1/2-y,1/2+z
loop_
_atom_site_type_symbol
_atom_site_label
_atom_site_fract_x
_atom_site_fract_y
_atom_site_fract_z
Si Si1 0.939238 0.153637 0.186267
Si Si2 0.697979 0.649193 0.675566
Si Si3 0.694747 0.958243 0.537403
Si Si4 0.000000 0.470035 0.250000
Si Si5 0.346254 0.672426 0.523827
Si Si6 0.269312 0.157748 0.218976
O O1 0.896960 0.982855 0.262312
O O2 0.952423 0.328341 0.227214
O O3 0.849629 0.185694 0.195788
O O4 0.041858 0.113748 0.072879
O O5 0.750783 0.667340 0.561084
O O6 0.681981 0.821024 0.738209
O O7 0.771338 0.531782 0.674932
O O8 0.588160 0.914677 0.650139
O O9 0.669654 0.137553 0.506432
O O10 0.770141 0.037111 0.541710
O O11 0.321050 0.704281 0.625583
#
# Coordination Sequence:
#
# PCOD9253826 Si02
#       6
#     8   8   8   4   8   8
#     4   9  17  26  49  72  92 122 159 196 238 271
#     4   9  18  31  47  70 102 125 158 189 240 282
#     4   9  15  26  47  71  97 119 155 207 238 269
#     4  10  14  28  48  76  96 112 162 212 244 256
#     4   9  15  28  46  72  95 119 160 202 237 265
#     4   9  18  32  45  72 100 127 155 194 236 287
#
# _framework density 23.797239999999999
#
# number of rings (size 3 to 8) (size 9 to 14) (size 15 to 20)
#    1.091    1.818    1.818    2.182    0.000    0.727 
#    0.000    8.182    0.000    1.091    0.000    1.273 
#    0.000    0.000    0.000    0.000    0.000    0.000 
#
# Total GULP energy -122782.711772 kJ/mol
# GULP energy per Si atom -5581.032353 kJ/mol
# Density = 2.374308 g / cm^3
# Si number density = 23.797240 Si / 1000 Ang^3
#
#
#
# Elastic Constant Matrix: (Units=GPa)
#
#
# Indices 1 2 3 4 5 6 
#
# 1 68.1735 12.2747 66.0096 0.0000 0.4835 0.0000
# 2 12.2747 33.4172 25.9482 -0.0001 -3.6561 0.0002
# 3 66.0096 25.9482 206.2630 -0.0001 -9.3248 0.0000
# 4 0.0000 -0.0001 -0.0001 29.3568 0.0000 11.3392
# 5 0.4835 -3.6561 -9.3248 0.0000 45.0146 0.0000
# 6 0.0000 0.0002 0.0000 11.3392 0.0000 4.2485
#
#
#
# Elastic Compliance Matrix: (Units=1/GPa)
#
#
# Indices 1 2 3 4 5 6 
#
# 1 0.021644 -0.003003 -0.006633 0.000003 -0.001850 -0.000007
# 2 -0.003003 0.033734 -0.003187 -0.000018 0.002112 0.000048
# 3 -0.006633 -0.003187 0.007433 0.000001 0.001352 -0.000003
# 4 0.000003 -0.000018 0.000001 -1.102054 0.000000 2.941370
# 5 -0.001850 0.002112 0.001352 0.000000 0.022686 0.000001
# 6 -0.000007 0.000048 -0.000003 2.941370 0.000001 -7.615104
#
#
# Mechanical properties :
#
#
# Convention : Reuss Voigt Hill
#
# Bulk Modulus (GPa) = 26.90654 57.36876 42.13765
# Shear Modulus (GPa) = -0.58183 29.29873 14.35845
#
# Velocity S-wave (km/s) = -0.49500 3.51263 2.45902
# Velocity P-wave (km/s) = 3.31729 6.37268 5.08013
#
# Compressibility (1/GPa) = 0.03716569
#
# Stress axis : x y z
#
# Youngs Moduli (GPa) = 46.20142 29.64402 134.53661
#
# Poissons Ratio (x) = 0.08901 0.89234
# Poissons Ratio (y) = 0.13872 0.42882
# Poissons Ratio (z) = 0.30644 0.09449
#
# Static dielectric constant tensor:
#      x y z
#    x 1.874440 0.000000 0.041290 
#    y 0.000000 2.069470 0.000000 
#    z 0.041290 0.000000 1.918840 
# 
# From -- ./inp_files/181316.got.cif
#   From: 2010.05.17/outbox.cif.g08.bks.cpg/sg15_91_cif.got.tgz:181316.got - 2010.06.03 18:47:42.
