data_PCOD9253069
_publ_section_title
;
Structure prediction by ZEFSAII (Michael W. Deem and Ramdas Pophale) SiO2 
 PCOD9253069
Probable space group: P 21/C
;
_chemical_formula_sum "Si O2"
_cell_formula_units_Z 20
_cell_length_a 12.381901
_cell_length_b 15.693160
_cell_length_c 9.469847
_cell_angle_alpha 90.000000
_cell_angle_beta 23.978562
_cell_angle_gamma 90.000000
_cell_volume 747.805808
_symmetry_space_group_name_H-M "P 21/C"
_symmetry_group_IT_number 14
_symmetry_cell_setting 'monoclinic'
loop_
_space_group_symop_operation_xyz
x,y,z
-x,1/2+y,1/2-z
-x,-y,-z
x,1/2-y,1/2+z
loop_
_atom_site_type_symbol
_atom_site_label
_atom_site_fract_x
_atom_site_fract_y
_atom_site_fract_z
Si Si1 0.973511 0.306654 0.520659
Si Si2 0.274925 0.343559 0.594052
Si Si3 0.121531 0.633047 0.722796
Si Si4 0.453789 0.402457 0.088382
Si Si5 0.593093 0.580549 0.298554
O O1 0.878768 0.235135 0.750552
O O2 0.719401 0.345298 0.744411
O O3 0.165349 0.249576 0.191256
O O4 0.174677 0.370368 0.357434
O O5 0.011827 0.393255 0.962829
O O6 0.432962 0.342627 0.554244
O O7 0.423377 0.388668 0.293226
O O8 0.901954 0.587142 0.889547
O O9 0.411488 0.595744 0.381692
O O10 0.500000 0.500000 0.000000
O O11 0.500000 0.500000 0.500000
#
# Coordination Sequence:
#
# PCOD9253069 Si02
#       5
#     4   4   4   4   4
#     4   9  22  41  60  85 121 165 210 237 314 373
#     4   8  23  37  64  82 126 159 206 249 302 372
#     4   8  18  34  58  78 114 160 199 241 293 361
#     4  12  23  40  66  95 124 160 207 266 311 359
#     4   9  16  31  57  83 118 155 195 250 304 350
#
# _framework density 26.744913
#
# number of rings (size 3 to 8) (size 9 to 14) (size 15 to 20)
#    2.400    0.000    0.000    3.600    2.800    0.000 
#    0.000    8.000    0.000    0.000    0.000    0.000 
#    0.000    0.000    0.000    0.000    0.000    0.000 
#
# Total GULP energy -111629.090297 kJ/mol
# GULP energy per Si atom -5581.454515 kJ/mol
# Density = 2.668404 g / cm^3
# Si number density = 26.744913 Si / 1000 Ang^3
#
#
#
# Elastic Constant Matrix: (Units=GPa)
#
#
# Indices 1 2 3 4 5 6 
#
# 1 106.2169 27.7687 22.7473 0.0000 -48.2268 0.0000
# 2 27.7687 135.1515 30.6217 0.0000 -31.9654 0.0000
# 3 22.7473 30.6217 79.1558 0.0000 -40.6946 0.0000
# 4 0.0000 0.0000 0.0000 38.2903 0.0000 -2.7714
# 5 -48.2268 -31.9654 -40.6946 0.0000 75.1069 0.0000
# 6 0.0000 0.0000 0.0000 -2.7714 0.0000 37.2497
#
#
#
# Elastic Compliance Matrix: (Units=1/GPa)
#
#
# Indices 1 2 3 4 5 6 
#
# 1 0.013422 -0.000910 0.001007 0.000000 0.008777 0.000000
# 2 -0.000910 0.008504 -0.002035 0.000000 0.001932 0.000000
# 3 0.001007 -0.002035 0.018045 0.000000 0.009558 0.000000
# 4 0.000000 0.000000 0.000000 0.026258 0.000000 0.001954
# 5 0.008777 0.001932 0.009558 0.000000 0.024951 0.000000
# 6 0.000000 0.000000 0.000000 0.001954 0.000000 0.026991
#
#
# Mechanical properties :
#
#
# Convention : Reuss Voigt Hill
#
# Bulk Modulus (GPa) = 27.70444 53.64439 40.67442
# Shear Modulus (GPa) = 37.29168 46.08846 41.69007
#
# Velocity S-wave (km/s) = 3.73815 4.15572 3.95245
# Velocity P-wave (km/s) = 5.38636 6.56719 6.00587
#
# Compressibility (1/GPa) = 0.03609530
#
# Stress axis : x y z
#
# Youngs Moduli (GPa) = 74.50507 117.58906 55.41764
#
# Poissons Ratio (x) = 0.10701 -0.05581
# Poissons Ratio (y) = 0.06781 0.11277
# Poissons Ratio (z) = -0.07504 0.23928
#
# Static dielectric constant tensor:
#      x y z
#    x 2.245040 0.000000 0.001800 
#    y 0.000000 2.070400 0.000000 
#    z 0.001800 0.000000 2.249420 
# 
# From -- ./inp_files/32891.got.cif
#   From: 2010.05.17/outbox.cif.g08.bks.cpg/sg14_17_cif.got.tgz:32891.got - 2010.06.03 17:49:19.
