data_PCOD9253256
_publ_section_title
;
Structure prediction by ZEFSAII (Michael W. Deem and Ramdas Pophale) SiO2 
 PCOD9253256
Probable space group: P 21/C
;
_chemical_formula_sum "Si O2"
_cell_formula_units_Z 28
_cell_length_a 17.023237
_cell_length_b 4.875727
_cell_length_c 15.154888
_cell_angle_alpha 90.000000
_cell_angle_beta 119.555128
_cell_angle_gamma 90.000000
_cell_volume 1094.194059
_symmetry_space_group_name_H-M "P 21/C"
_symmetry_group_IT_number 14
_symmetry_cell_setting 'monoclinic'
loop_
_space_group_symop_operation_xyz
x,y,z
-x,1/2+y,1/2-z
-x,-y,-z
x,1/2-y,1/2+z
loop_
_atom_site_type_symbol
_atom_site_label
_atom_site_fract_x
_atom_site_fract_y
_atom_site_fract_z
Si Si1 0.086046 0.684574 0.570244
Si Si2 0.687274 0.584540 0.713152
Si Si3 0.941593 0.237020 0.744779
Si Si4 0.185178 0.329082 0.067690
Si Si5 0.585256 0.192433 0.524159
Si Si6 0.768726 0.886625 0.598837
Si Si7 0.485784 0.283011 0.303532
O O1 0.076519 0.795515 0.663282
O O2 0.162844 0.452604 0.604535
O O3 0.000000 0.500000 0.500000
O O4 0.104451 0.947304 0.519301
O O5 0.743037 0.511498 0.831112
O O6 0.625282 0.366385 0.627204
O O7 0.756437 0.695017 0.677537
O O8 0.611746 0.792031 0.709267
O O9 0.979519 0.507369 0.719088
O O10 0.849568 0.102322 0.658165
O O11 0.213450 0.250341 0.985246
O O12 0.550239 0.365766 0.420811
O O13 0.500000 0.000000 0.500000
O O14 0.670991 0.023990 0.538680
O O15 0.475337 0.528932 0.228992
#
# Coordination Sequence:
#
# PCOD9253256 Si02
#       7
#     4   4   4   4   4   4   4
#     4  12  25  49  74 112 160 195 263 333 391 468
#     4  12  28  48  78 109 164 202 266 327 398 465
#     4  12  26  48  78 113 151 206 261 318 396 469
#     4  12  28  47  76 115 152 209 259 323 399 474
#     4  12  27  50  78 114 159 213 266 329 399 470
#     4  12  28  48  79 110 156 205 263 321 399 470
#     4  12  28  49  78 115 156 205 265 322 392 475
#
# _framework density 25.589607999999998
#
# number of rings (size 3 to 8) (size 9 to 14) (size 15 to 20)
#    0.000    0.000    2.857    6.000    8.000    0.000 
#    0.000    0.000    0.000    0.000    0.000    0.000 
#    0.000    0.000    0.000    0.000    0.000    0.000 
#
# Total GULP energy -156924.874354 kJ/mol
# GULP energy per Si atom -5604.459798 kJ/mol
# Density = 2.553137 g / cm^3
# Si number density = 25.589608 Si / 1000 Ang^3
#
#
#
# Elastic Constant Matrix: (Units=GPa)
#
#
# Indices 1 2 3 4 5 6 
#
# 1 135.2406 35.7560 48.1414 0.0000 -16.0000 0.0000
# 2 35.7560 95.5522 7.6537 0.0000 -6.8640 0.0000
# 3 48.1414 7.6537 116.9874 0.0000 -4.1754 0.0000
# 4 0.0000 0.0000 0.0000 38.6331 0.0000 9.7065
# 5 -16.0000 -6.8640 -4.1754 0.0000 45.7464 0.0000
# 6 0.0000 0.0000 0.0000 9.7065 0.0000 28.1302
#
#
#
# Elastic Compliance Matrix: (Units=1/GPa)
#
#
# Indices 1 2 3 4 5 6 
#
# 1 0.009897 -0.003212 -0.003768 0.000000 0.002635 0.000000
# 2 -0.003212 0.011670 0.000583 0.000000 0.000681 0.000000
# 3 -0.003768 0.000583 0.010049 0.000000 -0.000313 0.000000
# 4 0.000000 0.000000 0.000000 0.028342 0.000000 -0.009779
# 5 0.002635 0.000681 -0.000313 0.000000 0.022855 0.000000
# 6 0.000000 0.000000 0.000000 -0.009779 0.000000 0.038923
#
#
# Mechanical properties :
#
#
# Convention : Reuss Voigt Hill
#
# Bulk Modulus (GPa) = 53.13503 58.98692 56.06098
# Shear Modulus (GPa) = 35.51010 39.58389 37.54699
#
# Velocity S-wave (km/s) = 3.72919 3.93730 3.83466
# Velocity P-wave (km/s) = 6.27311 6.61596 6.44681
#
# Compressibility (1/GPa) = 0.01881998
#
# Stress axis : x y z
#
# Youngs Moduli (GPa) = 101.04353 85.69173 99.50892
#
# Poissons Ratio (x) = 0.27526 0.37499
# Poissons Ratio (y) = 0.32457 -0.05798
# Poissons Ratio (z) = 0.38077 -0.04993
#
# Static dielectric constant tensor:
#      x y z
#    x 2.059400 0.000000 0.053340 
#    y 0.000000 2.045540 0.000000 
#    z 0.053340 0.000000 2.017310 
# 
# From -- ./inp_files/48213.got.cif
#   From: 2010.05.17/outbox.cif.g08.bks.cpg/sg14_25_cif.got.tgz:48213.got - 2010.06.03 17:49:19.
