data_PCOD9253214
_publ_section_title
;
Structure prediction by ZEFSAII (Michael W. Deem and Ramdas Pophale) SiO2 
 PCOD9253214
Probable space group: P 21/C
;
_chemical_formula_sum "Si O2"
_cell_formula_units_Z 28
_cell_length_a 9.180009
_cell_length_b 5.051630
_cell_length_c 30.326310
_cell_angle_alpha 90.000000
_cell_angle_beta 50.615313
_cell_angle_gamma 90.000000
_cell_volume 1086.974380
_symmetry_space_group_name_H-M "P 21/C"
_symmetry_group_IT_number 14
_symmetry_cell_setting 'monoclinic'
loop_
_space_group_symop_operation_xyz
x,y,z
-x,1/2+y,1/2-z
-x,-y,-z
x,1/2-y,1/2+z
loop_
_atom_site_type_symbol
_atom_site_label
_atom_site_fract_x
_atom_site_fract_y
_atom_site_fract_z
Si Si1 0.134452 0.243901 0.480043
Si Si2 0.537722 0.950925 0.133535
Si Si3 0.823655 0.946794 0.433012
Si Si4 0.732577 0.435437 0.395962
Si Si5 0.255614 0.855493 0.341583
Si Si6 0.042207 0.234598 0.268500
Si Si7 0.359580 0.583301 0.237030
O O1 0.293669 0.255424 0.412597
O O2 0.224861 0.185016 0.510466
O O3 0.000000 0.500000 0.500000
O O4 0.000000 0.000000 0.500000
O O5 0.434250 0.996993 0.106845
O O6 0.391053 0.795789 0.192404
O O7 0.647274 0.188575 0.137371
O O8 0.782580 0.716572 0.406427
O O9 0.052439 0.980182 0.389645
O O10 0.717731 0.214735 0.438031
O O11 0.902118 0.313575 0.334385
O O12 0.239560 0.664660 0.302350
O O13 0.422237 0.043769 0.292193
O O14 0.254011 0.325700 0.238698
O O15 0.991936 0.433023 0.237904
#
# Coordination Sequence:
#
# PCOD9253214 Si02
#       7
#     4   4   4   4   4   4   4
#     4  12  27  51  83 112 147 193 253 318 377 443
#     4  12  28  49  74 110 147 200 253 308 381 451
#     4  12  28  50  76 112 150 199 254 312 373 446
#     4  12  28  47  76 110 154 199 248 308 379 450
#     4  12  26  43  73 108 147 196 255 311 371 449
#     4  12  25  45  70 105 153 200 246 297 378 455
#     4  12  26  40  72 105 148 193 252 307 369 446
#
# _framework density 25.759575999999999
#
# number of rings (size 3 to 8) (size 9 to 14) (size 15 to 20)
#    0.000    0.000    5.714    3.429    6.000    1.143 
#    0.000    0.000    0.000    0.000    0.000    0.000 
#    0.000    0.000    0.000    0.000    0.000    0.000 
#
# Total GULP energy -156825.913490 kJ/mol
# GULP energy per Si atom -5600.925482 kJ/mol
# Density = 2.570095 g / cm^3
# Si number density = 25.759576 Si / 1000 Ang^3
#
#
#
# Elastic Constant Matrix: (Units=GPa)
#
#
# Indices 1 2 3 4 5 6 
#
# 1 154.2378 42.2349 11.8583 0.0000 22.9696 0.0000
# 2 42.2349 79.9613 4.2205 0.0000 8.7762 0.0000
# 3 11.8583 4.2205 52.6922 0.0000 5.1419 0.0000
# 4 0.0000 0.0000 0.0000 22.5138 0.0000 14.8020
# 5 22.9696 8.7762 5.1419 0.0000 34.6723 0.0000
# 6 0.0000 0.0000 0.0000 14.8020 0.0000 54.0962
#
#
#
# Elastic Compliance Matrix: (Units=1/GPa)
#
#
# Indices 1 2 3 4 5 6 
#
# 1 0.008265 -0.003830 -0.001130 0.000000 -0.004339 0.000000
# 2 -0.003830 0.014665 -0.000201 0.000000 -0.001145 0.000000
# 3 -0.001130 -0.000201 0.019452 0.000000 -0.002085 0.000000
# 4 0.000000 0.000000 0.000000 0.054160 0.000000 -0.014820
# 5 -0.004339 -0.001145 -0.002085 0.000000 0.032315 0.000000
# 6 0.000000 0.000000 0.000000 -0.014820 0.000000 0.022541
#
#
# Mechanical properties :
#
#
# Convention : Reuss Voigt Hill
#
# Bulk Modulus (GPa) = 31.19061 44.83542 38.01302
# Shear Modulus (GPa) = 29.00122 37.49497 33.24810
#
# Velocity S-wave (km/s) = 3.35900 3.81934 3.59654
# Velocity P-wave (km/s) = 5.21330 6.07395 5.66001
#
# Compressibility (1/GPa) = 0.03206093
#
# Stress axis : x y z
#
# Youngs Moduli (GPa) = 120.98933 68.18867 51.40852
#
# Poissons Ratio (x) = 0.26115 0.05809
# Poissons Ratio (y) = 0.46336 0.01033
# Poissons Ratio (z) = 0.13671 0.01371
#
# Static dielectric constant tensor:
#      x y z
#    x 2.106670 0.000000 0.086690 
#    y 0.000000 2.048100 0.000000 
#    z 0.086690 0.000000 2.033230 
# 
# From -- ./inp_files/79068.got.cif
#   From: 2010.05.17/outbox.cif.g08.bks.cpg/sg14_40_cif.got.tgz:79068.got - 2010.06.03 17:49:19.
