data_PCOD9253284
_publ_section_title
;
Structure prediction by ZEFSAII (Michael W. Deem and Ramdas Pophale) SiO2 
 PCOD9253284
Probable space group: P 21/C
;
_chemical_formula_sum "Si O2"
_cell_formula_units_Z 20
_cell_length_a 7.661142
_cell_length_b 5.028299
_cell_length_c 20.244587
_cell_angle_alpha 90.000000
_cell_angle_beta 103.037667
_cell_angle_gamma 90.000000
_cell_volume 759.768785
_symmetry_space_group_name_H-M "P 21/C"
_symmetry_group_IT_number 14
_symmetry_cell_setting 'monoclinic'
loop_
_space_group_symop_operation_xyz
x,y,z
-x,1/2+y,1/2-z
-x,-y,-z
x,1/2-y,1/2+z
loop_
_atom_site_type_symbol
_atom_site_label
_atom_site_fract_x
_atom_site_fract_y
_atom_site_fract_z
Si Si1 0.288605 0.358676 0.781842
Si Si2 0.677347 0.662439 0.997677
Si Si3 0.886837 0.357158 0.548199
Si Si4 0.667287 0.955691 0.351456
Si Si5 0.053789 0.847271 0.171148
O O1 0.473905 0.400641 0.834663
O O2 0.193131 0.618403 0.743193
O O3 0.132053 0.248308 0.814306
O O4 0.327209 0.194074 0.718236
O O5 0.673734 0.713489 0.918754
O O6 0.500000 0.500000 0.000000
O O7 0.716882 0.940061 0.037230
O O8 0.828248 0.441472 0.028633
O O9 0.000000 0.500000 0.500000
O O10 0.997640 0.391722 0.625299
O O11 0.832928 0.158884 0.367056
#
# Coordination Sequence:
#
# PCOD9253284 Si02
#       5
#     4   4   4   4   4
#     4  12  26  45  71 108 140 193 242 302 375 432
#     4  12  28  49  76 110 148 196 249 306 371 441
#     4  12  26  48  76 106 147 196 244 305 374 431
#     4  12  26  46  73 105 149 187 245 308 364 442
#     4  12  26  45  74 105 147 189 246 304 368 445
#
# _framework density 26.323795
#
# number of rings (size 3 to 8) (size 9 to 14) (size 15 to 20)
#    0.000    0.000    6.000    3.600    2.800    3.200 
#    0.000    0.000    0.000    0.000    0.000    0.000 
#    0.000    0.000    0.000    0.000    0.000    0.000 
#
# Total GULP energy -112108.340334 kJ/mol
# GULP energy per Si atom -5605.417017 kJ/mol
# Density = 2.626388 g / cm^3
# Si number density = 26.323795 Si / 1000 Ang^3
#
#
#
# Elastic Constant Matrix: (Units=GPa)
#
#
# Indices 1 2 3 4 5 6 
#
# 1 164.6759 21.3933 15.4587 0.0000 14.3837 0.0000
# 2 21.3933 78.6926 22.7226 0.0000 23.8677 0.0000
# 3 15.4587 22.7226 109.5141 0.0000 14.4549 0.0000
# 4 0.0000 0.0000 0.0000 45.7840 0.0000 7.6049
# 5 14.3837 23.8677 14.4549 0.0000 36.0366 0.0000
# 6 0.0000 0.0000 0.0000 7.6049 0.0000 46.4221
#
#
#
# Elastic Compliance Matrix: (Units=1/GPa)
#
#
# Indices 1 2 3 4 5 6 
#
# 1 0.006403 -0.001113 -0.000457 0.000000 -0.001635 0.000000
# 2 -0.001113 0.016529 -0.001991 0.000000 -0.009704 0.000000
# 3 -0.000457 -0.001991 0.009937 0.000000 -0.002484 0.000000
# 4 0.000000 0.000000 0.000000 0.022453 0.000000 -0.003678
# 5 -0.001635 -0.009704 -0.002484 0.000000 0.035826 0.000000
# 6 0.000000 0.000000 0.000000 -0.003678 0.000000 0.022144
#
#
# Mechanical properties :
#
#
# Convention : Reuss Voigt Hill
#
# Bulk Modulus (GPa) = 38.84142 52.44796 45.64469
# Shear Modulus (GPa) = 38.76107 45.20243 41.98175
#
# Velocity S-wave (km/s) = 3.84144 4.14837 3.99785
# Velocity P-wave (km/s) = 5.87051 6.55078 6.21995
#
# Compressibility (1/GPa) = 0.02574571
#
# Stress axis : x y z
#
# Youngs Moduli (GPa) = 156.18096 60.50150 100.63506
#
# Poissons Ratio (x) = 0.06732 0.04600
# Poissons Ratio (y) = 0.17378 0.20041
# Poissons Ratio (z) = 0.07139 0.12049
#
# Static dielectric constant tensor:
#      x y z
#    x 2.146040 0.000000 0.033650 
#    y 0.000000 2.122490 0.000000 
#    z 0.033650 0.000000 2.000490 
# 
# From -- ./inp_files/64033.got.cif
#   From: 2010.05.17/outbox.cif.g08.bks.cpg/sg14_33_cif.got.tgz:64033.got - 2010.06.03 17:49:19.
