data_PCOD9253231
_publ_section_title
;
Structure prediction by ZEFSAII (Michael W. Deem and Ramdas Pophale) SiO2 
 PCOD9253231
Probable space group: P 21/C
;
_chemical_formula_sum "Si O2"
_cell_formula_units_Z 16
_cell_length_a 7.904374
_cell_length_b 9.520088
_cell_length_c 8.299002
_cell_angle_alpha 90.000000
_cell_angle_beta 94.461757
_cell_angle_gamma 90.000000
_cell_volume 622.610122
_symmetry_space_group_name_H-M "P 21/C"
_symmetry_group_IT_number 14
_symmetry_cell_setting 'monoclinic'
loop_
_space_group_symop_operation_xyz
x,y,z
-x,1/2+y,1/2-z
-x,-y,-z
x,1/2-y,1/2+z
loop_
_atom_site_type_symbol
_atom_site_label
_atom_site_fract_x
_atom_site_fract_y
_atom_site_fract_z
Si Si1 0.159829 0.320523 0.997598
Si Si2 0.739041 0.947555 0.831149
Si Si3 0.207730 0.720448 0.480016
Si Si4 0.643066 0.061277 0.309359
O O1 0.236853 0.165032 0.024506
O O2 0.264593 0.423435 0.120794
O O3 0.174035 0.380160 0.818897
O O4 0.964454 0.308601 0.034883
O O5 0.811902 0.096208 0.890859
O O6 0.542272 0.966575 0.773103
O O7 0.251110 0.641136 0.319855
O O8 0.356833 0.826946 0.543210
#
# Coordination Sequence:
#
# PCOD9253231 Si02
#       4
#     4   4   4   4
#     4  12  26  45  71 106 141 182 232 289 347 412
#     4  12  25  47  73 104 140 184 232 287 347 414
#     4  12  26  45  71 106 141 182 232 289 347 412
#     4  12  25  47  73 104 140 184 232 287 347 414
#
# _framework density 25.698267000000001
#
# number of rings (size 3 to 8) (size 9 to 14) (size 15 to 20)
#    0.000    0.000    0.000   10.500    0.000    4.000 
#    0.000    0.000    0.000    0.000    0.000    0.000 
#    0.000    0.000    0.000    0.000    0.000    0.000 
#
# Total GULP energy -89958.337831 kJ/mol
# GULP energy per Si atom -5622.396114 kJ/mol
# Density = 2.563978 g / cm^3
# Si number density = 25.698267 Si / 1000 Ang^3
#
#
#
# Elastic Constant Matrix: (Units=GPa)
#
#
# Indices 1 2 3 4 5 6 
#
# 1 95.6010 6.1986 21.5581 0.0000 -8.1670 0.0000
# 2 6.1986 120.5424 24.2657 0.0000 -2.8037 0.0000
# 3 21.5581 24.2657 68.6575 0.0000 -4.8817 0.0000
# 4 0.0000 0.0000 0.0000 71.0882 0.0000 5.0298
# 5 -8.1670 -2.8037 -4.8817 0.0000 39.2739 0.0000
# 6 0.0000 0.0000 0.0000 5.0298 0.0000 30.0901
#
#
#
# Elastic Compliance Matrix: (Units=1/GPa)
#
#
# Indices 1 2 3 4 5 6 
#
# 1 0.011405 0.000163 -0.003500 0.000000 0.001948 0.000000
# 2 0.000163 0.008936 -0.003190 0.000000 0.000275 0.000000
# 3 -0.003500 -0.003190 0.016873 0.000000 0.001142 0.000000
# 4 0.000000 0.000000 0.000000 0.014235 0.000000 -0.002380
# 5 0.001948 0.000275 0.001142 0.000000 0.026029 0.000000
# 6 0.000000 0.000000 0.000000 -0.002380 0.000000 0.033631
#
#
# Mechanical properties :
#
#
# Convention : Reuss Voigt Hill
#
# Bulk Modulus (GPa) = 41.39048 43.20507 42.29778
# Shear Modulus (GPa) = 37.81659 43.60901 40.71280
#
# Velocity S-wave (km/s) = 3.84026 4.12389 3.98460
# Velocity P-wave (km/s) = 5.98370 6.28683 6.13714
#
# Compressibility (1/GPa) = 0.02416014
#
# Stress axis : x y z
#
# Youngs Moduli (GPa) = 87.67823 111.90692 59.26699
#
# Poissons Ratio (x) = -0.01830 0.20746
# Poissons Ratio (y) = -0.01433 0.18906
# Poissons Ratio (z) = 0.30692 0.35698
#
# Static dielectric constant tensor:
#      x y z
#    x 1.977300 0.000000 -0.041830 
#    y 0.000000 1.961880 0.000000 
#    z -0.041830 0.000000 2.061610 
# 
# From -- ./inp_files/23158.got.cif
#   From: 2010.05.17/outbox.cif.g08.bks.cpg/sg14_12_cif.got.tgz:23158.got - 2010.06.03 17:49:19.
