data_PCOD9253179
_publ_section_title
;
Structure prediction by ZEFSAII (Michael W. Deem and Ramdas Pophale) SiO2 
 PCOD9253179
Probable space group: P 21/C
;
_chemical_formula_sum "Si O2"
_cell_formula_units_Z 22
_cell_length_a 13.038368
_cell_length_b 11.961628
_cell_length_c 12.299879
_cell_angle_alpha 90.000000
_cell_angle_beta 152.287191
_cell_angle_gamma 90.000000
_cell_volume 892.081739
_symmetry_space_group_name_H-M "P 21/C"
_symmetry_group_IT_number 14
_symmetry_cell_setting 'monoclinic'
loop_
_space_group_symop_operation_xyz
x,y,z
-x,1/2+y,1/2-z
-x,-y,-z
x,1/2-y,1/2+z
loop_
_atom_site_type_symbol
_atom_site_label
_atom_site_fract_x
_atom_site_fract_y
_atom_site_fract_z
Si Si1 0.887049 0.103759 0.690887
Si Si2 0.426760 0.416224 0.028149
Si Si3 0.574144 0.177928 0.882481
Si Si4 0.828121 0.712939 0.383779
Si Si5 0.500000 0.500000 0.500000
Si Si6 0.890130 0.105210 0.455690
O O1 0.729880 0.214052 0.546284
O O2 0.990414 0.109022 0.669479
O O3 0.750300 0.990780 0.573890
O O4 0.066464 0.109780 0.954163
O O5 0.317147 0.317006 0.856713
O O6 0.500000 0.500000 0.000000
O O7 0.588256 0.368158 0.272376
O O8 0.325377 0.220416 0.675889
O O9 0.603551 0.081497 1.000000
O O10 0.029280 0.786770 0.530797
O O11 0.366865 0.576730 0.284727
O O12 0.000000 0.000000 0.500000
#
# Coordination Sequence:
#
# PCOD9253179 Si02
#       6
#     4   4   4   4   2   4
#     4  12  27  47  73 108 146 199 250 313 384 459
#     4  12  27  48  73 109 152 198 250 318 386 454
#     4  12  27  48  76 109 148 198 253 317 382 469
#     4  12  26  48  73 108 149 197 255 309 383 462
#     4  12  24  48  74 106 146 190 254 308 382 460
#     4  12  26  45  76 108 146 197 253 314 383 458
#
# _framework density 24.661418000000001
#
# number of rings (size 3 to 8) (size 9 to 14) (size 15 to 20)
#    0.000    0.000    7.273    1.636    5.091    2.909 
#    3.273    0.000    0.000    0.000    0.000    0.000 
#    0.000    0.000    0.000    0.000    0.000    0.000 
#
# Total GULP energy -122614.246424 kJ/mol
# GULP energy per Si atom -5573.374837 kJ/mol
# Density = 2.460529 g / cm^3
# Si number density = 24.661418 Si / 1000 Ang^3
#
#
#
# Elastic Constant Matrix: (Units=GPa)
#
#
# Indices 1 2 3 4 5 6 
#
# 1 71.0773 21.4005 5.3565 0.0000 -19.6702 0.0000
# 2 21.4005 66.3704 10.7956 0.0000 -3.1540 0.0000
# 3 5.3565 10.7956 71.6249 0.0000 -30.0690 0.0000
# 4 0.0000 0.0000 0.0000 37.1738 0.0000 -7.6616
# 5 -19.6702 -3.1540 -30.0690 0.0000 42.3342 0.0000
# 6 0.0000 0.0000 0.0000 -7.6616 0.0000 52.4124
#
#
#
# Elastic Compliance Matrix: (Units=1/GPa)
#
#
# Indices 1 2 3 4 5 6 
#
# 1 0.018734 -0.006199 0.004266 0.000000 0.011272 0.000000
# 2 -0.006199 0.017512 -0.004043 0.000000 -0.004447 0.000000
# 3 0.004266 -0.004043 0.021313 0.000000 0.016819 0.000000
# 4 0.000000 0.000000 0.000000 0.027736 0.000000 0.004054
# 5 0.011272 -0.004447 0.016819 0.000000 0.040474 0.000000
# 6 0.000000 0.000000 0.000000 0.004054 0.000000 0.019672
#
#
# Mechanical properties :
#
#
# Convention : Reuss Voigt Hill
#
# Bulk Modulus (GPa) = 21.92675 31.57530 26.75103
# Shear Modulus (GPa) = 28.96970 37.81873 33.39421
#
# Velocity S-wave (km/s) = 3.43110 3.92026 3.68381
# Velocity P-wave (km/s) = 4.96055 5.77257 5.38190
#
# Compressibility (1/GPa) = 0.04560639
#
# Stress axis : x y z
#
# Youngs Moduli (GPa) = 53.38005 57.10399 46.92054
#
# Poissons Ratio (x) = 0.35397 -0.20014
# Poissons Ratio (y) = 0.33088 0.18969
# Poissons Ratio (z) = -0.22769 0.23086
#
# Static dielectric constant tensor:
#      x y z
#    x 2.021000 0.000000 -0.014800 
#    y 0.000000 1.944310 0.000000 
#    z -0.014800 0.000000 2.186830 
# 
# From -- ./inp_files/32335.got.cif
#   From: 2010.05.17/outbox.cif.g08.bks.cpg/sg14_17_cif.got.tgz:32335.got - 2010.06.03 17:49:19.
