data_PCOD9253599
_publ_section_title
;
Structure prediction by ZEFSAII (Michael W. Deem and Ramdas Pophale) SiO2 
 PCOD9253599
Probable space group: P 21/C
;
_chemical_formula_sum "Si O2"
_cell_formula_units_Z 24
_cell_length_a 9.000000
_cell_length_b 12.000000
_cell_length_c 12.000000
_cell_angle_alpha 90.000000
_cell_angle_beta 70.000000
_cell_angle_gamma 90.000000
_cell_volume 1217.841637
_symmetry_space_group_name_H-M "P 21/C"
_symmetry_group_IT_number 14
_symmetry_cell_setting 'monoclinic'
loop_
_space_group_symop_operation_xyz
x,y,z
-x,1/2+y,1/2-z
-x,-y,-z
x,1/2-y,1/2+z
loop_
_atom_site_type_symbol
_atom_site_label
_atom_site_fract_x
_atom_site_fract_y
_atom_site_fract_z
Si Si1 0.595572 0.829392 0.529260
Si Si2 0.933102 0.593005 0.435718
Si Si3 0.564577 0.586164 0.575661
Si Si4 0.397211 0.468686 0.177513
Si Si5 0.030386 0.165715 0.520171
Si Si6 0.051602 0.530943 0.173771
O O1 0.507088 0.713909 0.577567
O O2 0.590685 0.855025 0.397895
O O3 0.776569 0.833815 0.528494
O O4 0.511713 0.935663 0.603777
O O5 0.749531 0.600362 0.506283
O O6 0.017975 0.709049 0.441778
O O7 0.000000 0.500000 0.500000
O O8 0.945983 0.567816 0.302734
O O9 0.500000 0.500000 0.500000
O O10 0.559264 0.548119 0.705169
O O11 0.221119 0.509946 0.188606
O O12 0.956045 0.119167 0.425366
O O13 0.991072 0.081788 0.630549
#
# Coordination Sequence:
#
# PCOD9253599 Si02
#       6
#     4   4   4   4   4   4
#     4   9  22  41  64  84 119 164 195 245 297 359
#     4  11  23  39  60  88 124 155 199 250 297 350
#     4  11  25  39  61  91 121 161 204 242 300 352
#     4  10  21  42  61  88 123 154 200 247 297 352
#     4   9  22  39  65  86 114 166 196 237 309 356
#     4  10  21  41  61  90 121 150 202 247 298 357
#
# _framework density 19.706996
#
# number of rings (size 3 to 8) (size 9 to 14) (size 15 to 20)
#    0.000    2.000    1.667    0.000    7.000    4.000 
#    0.000    0.000    0.000    0.000    0.000    0.000 
#    0.000    0.000    0.000    0.000    0.000    0.000 
#
# Total GULP energy -133741.505610 kJ/mol
# GULP energy per Si atom -5572.562734 kJ/mol
# Density = 1.966214 g / cm^3
# Si number density = 19.706996 Si / 1000 Ang^3
#
#
#
# Elastic Constant Matrix: (Units=GPa)
#
#
# Indices 1 2 3 4 5 6 
#
# 1 24.9942 22.6645 16.4931 0.0000 29.8597 0.0000
# 2 22.6645 132.4537 59.3799 0.0000 25.2866 0.0000
# 3 16.4931 59.3799 115.7102 0.0000 40.5869 0.0000
# 4 0.0000 0.0000 0.0000 2.5379 0.0000 -14.7343
# 5 29.8597 25.2866 40.5869 0.0000 37.6238 0.0000
# 6 0.0000 0.0000 0.0000 -14.7343 0.0000 4.2634
#
#
#
# Elastic Compliance Matrix: (Units=1/GPa)
#
#
# Indices 1 2 3 4 5 6 
#
# 1 -0.327658 0.031140 -0.085501 0.000000 0.331348 0.000000
# 2 0.031140 0.006929 0.003713 0.000000 -0.033376 0.000000
# 3 -0.085501 0.003713 -0.006439 0.000000 0.072308 0.000000
# 4 0.000000 0.000000 0.000000 -0.020668 0.000000 -0.071429
# 5 0.331348 -0.033376 0.072308 0.000000 -0.291963 0.000000
# 6 0.000000 0.000000 0.000000 -0.071429 0.000000 -0.012303
#
#
# Mechanical properties :
#
#
# Convention : Reuss Voigt Hill
#
# Bulk Modulus (GPa) = -2.33391 52.24811 24.95710
# Shear Modulus (GPa) = -7.20849 20.52641 6.65896
#
# Velocity S-wave (km/s) = -1.91462 3.23085 1.84020
# Velocity P-wave (km/s) = 2.46466 6.36301 4.14809
#
# Compressibility (1/GPa) = -0.42846597
#
# Stress axis : x y z
#
# Youngs Moduli (GPa) = -3.05196 144.32799 -155.31250
#
# Poissons Ratio (x) = -4.49436 -13.27943
# Poissons Ratio (y) = 0.09504 0.57662
# Poissons Ratio (z) = -0.26095 -0.53584
#
# Static dielectric constant tensor:
#      x y z
#    x 1.672690 0.000000 -0.074360 
#    y 0.000000 1.720630 0.000000 
#    z -0.074360 0.000000 1.629660 
# 
# From -- ./inp_files/24103.got.cif
#   From: 2010.05.17/outbox.ucp.g08.bks.cvg/sg14_13_cif.got.tgz:24103.got - 2010.06.11 12:31:08.
