data_PCOD9253620
_publ_section_title
;
Structure prediction by ZEFSAII (Michael W. Deem and Ramdas Pophale) SiO2 
 PCOD9253620
Probable space group: P 21/C
;
_chemical_formula_sum "Si O2"
_cell_formula_units_Z 32
_cell_length_a 9.000000
_cell_length_b 15.000000
_cell_length_c 24.000000
_cell_angle_alpha 90.000000
_cell_angle_beta 30.000000
_cell_angle_gamma 90.000000
_cell_volume 1620.000000
_symmetry_space_group_name_H-M "P 21/C"
_symmetry_group_IT_number 14
_symmetry_cell_setting 'monoclinic'
loop_
_space_group_symop_operation_xyz
x,y,z
-x,1/2+y,1/2-z
-x,-y,-z
x,1/2-y,1/2+z
loop_
_atom_site_type_symbol
_atom_site_label
_atom_site_fract_x
_atom_site_fract_y
_atom_site_fract_z
Si Si1 0.037883 0.628921 0.633107
Si Si2 0.881738 0.042570 0.712052
Si Si3 0.960386 0.277274 0.259677
Si Si4 0.705974 0.843272 0.919689
Si Si5 0.285272 0.248600 0.964171
Si Si6 0.141428 0.444822 0.005510
Si Si7 0.803444 0.917920 0.086326
Si Si8 0.162037 0.526579 0.226937
O O1 0.040381 0.716204 0.672579
O O2 0.390438 0.608079 0.517345
O O3 0.898490 0.614722 0.617545
O O4 0.866932 0.565860 0.731206
O O5 0.957541 0.133513 0.721854
O O6 0.534026 0.047419 0.810726
O O7 0.032406 0.031151 0.603087
O O8 0.992592 0.972119 0.722380
O O9 0.642425 0.235327 0.344396
O O10 0.244404 0.222555 0.147939
O O11 0.741325 0.787731 0.964514
O O12 0.978145 0.910169 0.827409
O O13 0.102128 0.338021 0.012317
O O14 0.184667 0.169126 0.956662
O O15 0.493716 0.457517 0.891497
O O16 0.000000 0.500000 0.000000
O O17 0.000000 0.000000 0.000000
#
# Coordination Sequence:
#
# PCOD9253620 Si02
#       8
#     4   4   4   4   4   4   4   4
#     4  10  22  38  60  99 125 159 210 278 320 381
#     4  10  22  42  64  89 127 169 214 264 327 392
#     4   9  19  39  64  87 122 164 214 272 316 380
#     4  11  19  39  69  89 120 164 223 264 320 384
#     4  10  22  40  63  92 124 174 219 255 328 396
#     4  12  24  41  60  91 132 179 215 267 328 387
#     4  11  22  43  66  97 136 166 205 278 337 383
#     4  11  22  40  66  91 118 168 224 265 324 390
#
# _framework density 19.753086
#
# number of rings (size 3 to 8) (size 9 to 14) (size 15 to 20)
#    0.000    1.500    2.500    3.750    0.000    0.000 
#    9.000    0.000    0.000    0.000    0.000    0.000 
#    0.000    0.000    0.000    0.000    0.000    0.000 
#
# Total GULP energy -178161.169033 kJ/mol
# GULP energy per Si atom -5567.536532 kJ/mol
# Density = 1.970813 g / cm^3
# Si number density = 19.753086 Si / 1000 Ang^3
#
#
#
# Elastic Constant Matrix: (Units=GPa)
#
#
# Indices 1 2 3 4 5 6 
#
# 1 151.9901 46.0896 31.7675 0.0000 17.5045 0.0000
# 2 46.0896 56.8111 26.1034 0.0000 -2.6795 0.0000
# 3 31.7675 26.1034 68.1794 0.0000 5.3138 0.0000
# 4 0.0000 0.0000 0.0000 8.0429 0.0000 -14.8839
# 5 17.5045 -2.6795 5.3138 0.0000 29.3775 0.0000
# 6 0.0000 0.0000 0.0000 -14.8839 0.0000 7.1801
#
#
#
# Elastic Compliance Matrix: (Units=1/GPa)
#
#
# Indices 1 2 3 4 5 6 
#
# 1 0.009934 -0.007847 -0.001123 0.000000 -0.006432 0.000000
# 2 -0.007847 0.027913 -0.007702 0.000000 0.008615 0.000000
# 3 -0.001123 -0.007702 0.018402 0.000000 -0.003362 0.000000
# 4 0.000000 0.000000 0.000000 -0.043839 0.000000 -0.090876
# 5 -0.006432 0.008615 -0.003362 0.000000 0.039266 0.000000
# 6 0.000000 0.000000 0.000000 -0.090876 0.000000 -0.049107
#
#
# Mechanical properties :
#
#
# Convention : Reuss Voigt Hill
#
# Bulk Modulus (GPa) = 43.65942 53.87796 48.76869
# Shear Modulus (GPa) = 114.81468 20.45477 67.63472
#
# Velocity S-wave (km/s) = 7.63224 3.22144 5.85785
# Velocity P-wave (km/s) = 9.99093 6.41653 8.39615
#
# Compressibility (1/GPa) = 0.02290456
#
# Stress axis : x y z
#
# Youngs Moduli (GPa) = 100.66071 35.82500 54.34333
#
# Poissons Ratio (x) = 0.28111 0.06104
# Poissons Ratio (y) = 0.78986 0.41857
# Poissons Ratio (z) = 0.11307 0.27594
#
# Static dielectric constant tensor:
#      x y z
#    x 1.665790 0.000000 0.008420 
#    y 0.000000 1.761440 0.000000 
#    z 0.008420 0.000000 1.705610 
# 
# From -- ./inp_files/72438.got.cif
#   From: 2010.05.17/outbox.ucp.g08.bks.cvg/sg14_37_cif.got.tgz:72438.got - 2010.06.11 12:31:08.
