data_PCOD9253772
_publ_section_title
;
Structure prediction by ZEFSAII (Michael W. Deem and Ramdas Pophale) SiO2 
 PCOD9253772
Probable space group: C 2/C
;
_chemical_formula_sum "Si O2"
_cell_formula_units_Z 28
_cell_length_a 6.590144
_cell_length_b 23.345880
_cell_length_c 9.247635
_cell_angle_alpha 90.000000
_cell_angle_beta 58.110528
_cell_angle_gamma 90.000000
_cell_volume 1208.032732
_symmetry_space_group_name_H-M "C 2/C"
_symmetry_group_IT_number 15
_symmetry_cell_setting 'monoclinic'
loop_
_space_group_symop_operation_xyz
x,y,z
-x,y,1/2-z
-x,-y,-z
x,-y,1/2+z
1/2+x,1/2+y,z
1/2-x,1/2+y,1/2-z
1/2-x,1/2-y,-z
1/2+x,1/2-y,1/2+z
loop_
_atom_site_type_symbol
_atom_site_label
_atom_site_fract_x
_atom_site_fract_y
_atom_site_fract_z
Si Si1 0.196285 0.167775 0.310925
Si Si2 0.004335 0.280711 0.029887
Si Si3 0.000000 0.375348 0.250000
Si Si4 0.455410 0.440387 0.938874
O O1 0.000000 0.165447 0.250000
O O2 0.143188 0.223144 0.424764
O O3 0.151889 0.107951 0.404246
O O4 0.429292 0.181847 0.132805
O O5 0.892643 0.328236 0.178801
O O6 0.250000 0.250000 0.000000
O O7 0.798635 0.412713 0.410305
O O8 0.500000 0.450462 0.750000
O O9 0.500000 0.500000 0.000000
#
# Coordination Sequence:
#
# PCOD9253772 Si02
#       4
#     8   8   4   8
#     4   9  14  26  44  76 109 123 164 222 278 312
#     4  10  13  23  50  80 108 124 160 235 297 303
#     4  12  18  32  56  80 114 138 174 228 284 308
#     4  11  23  37  52  77 112 150 185 215 258 326
#
# _framework density 23.178180000000001
#
# number of rings (size 3 to 8) (size 9 to 14) (size 15 to 20)
#    0.000    1.714   12.857    0.000    0.000    1.143 
#    0.000    0.000    0.000    0.000    0.000    8.000 
#    0.000    0.000    0.000    0.000    0.000    0.000 
#
# Total GULP energy -77964.574782 kJ/mol
# GULP energy per Si atom -5568.898199 kJ/mol
# Density = 2.312543 g / cm^3
# Si number density = 23.178180 Si / 1000 Ang^3
#
#
#
# Elastic Constant Matrix: (Units=GPa)
#
#
# Indices 1 2 3 4 5 6 
#
# 1 55.8917 37.0987 23.9772 0.0000 -13.4747 0.0000
# 2 37.0987 263.9570 111.4325 0.0000 -1.4669 0.0000
# 3 23.9772 111.4325 175.7306 0.0000 -8.8761 0.0000
# 4 0.0000 0.0000 0.0000 62.0117 0.0000 7.1143
# 5 -13.4747 -1.4669 -8.8761 0.0000 31.6164 0.0000
# 6 0.0000 0.0000 0.0000 7.1143 0.0000 13.0953
#
#
#
# Elastic Compliance Matrix: (Units=1/GPa)
#
#
# Indices 1 2 3 4 5 6 
#
# 1 0.022261 -0.002718 -0.000853 0.000000 0.009122 0.000000
# 2 -0.002718 0.005520 -0.003221 0.000000 -0.001806 0.000000
# 3 -0.000853 -0.003221 0.007936 0.000000 0.001715 0.000000
# 4 0.000000 0.000000 0.000000 0.017198 0.000000 -0.009343
# 5 0.009122 -0.001806 0.001715 0.000000 0.035914 0.000000
# 6 0.000000 0.000000 0.000000 -0.009343 0.000000 0.081439
#
#
# Mechanical properties :
#
#
# Convention : Reuss Voigt Hill
#
# Bulk Modulus (GPa) = 45.18088 93.39957 69.29022
# Shear Modulus (GPa) = 26.14659 42.88274 34.51467
#
# Velocity S-wave (km/s) = 3.36232 4.30598 3.86307
# Velocity P-wave (km/s) = 5.88292 8.06882 7.06097
#
# Compressibility (1/GPa) = 0.02213326
#
# Stress axis : x y z
#
# Youngs Moduli (GPa) = 44.92187 181.15490 126.00982
#
# Poissons Ratio (x) = 0.49235 0.10751
# Poissons Ratio (y) = 0.12209 0.40585
# Poissons Ratio (z) = 0.03833 0.58346
#
# Static dielectric constant tensor:
#      x y z
#    x 2.244360 0.000000 0.016650 
#    y 0.000000 1.831560 0.000000 
#    z 0.016650 0.000000 1.960420 
# 
# From -- ./inp_files/21910.got.cif
#   From: 2010.05.17/outbox.cif.g08.bks.cpg/sg15_11_cif.got.tgz:21910.got - 2010.06.03 18:47:42.
