data_PCOD9253768
_publ_section_title
;
Structure prediction by ZEFSAII (Michael W. Deem and Ramdas Pophale) SiO2 
 PCOD9253768
Probable space group: C 2/C
;
_chemical_formula_sum "Si O2"
_cell_formula_units_Z 56
_cell_length_a 20.063515
_cell_length_b 7.106500
_cell_length_c 17.881066
_cell_angle_alpha 90.000000
_cell_angle_beta 67.939099
_cell_angle_gamma 90.000000
_cell_volume 2362.845120
_symmetry_space_group_name_H-M "C 2/C"
_symmetry_group_IT_number 15
_symmetry_cell_setting 'monoclinic'
loop_
_space_group_symop_operation_xyz
x,y,z
-x,y,1/2-z
-x,-y,-z
x,-y,1/2+z
1/2+x,1/2+y,z
1/2-x,1/2+y,1/2-z
1/2-x,1/2-y,-z
1/2+x,1/2-y,1/2+z
loop_
_atom_site_type_symbol
_atom_site_label
_atom_site_fract_x
_atom_site_fract_y
_atom_site_fract_z
Si Si1 0.659653 0.404265 0.985427
Si Si2 0.941202 0.221921 0.661724
Si Si3 0.092219 0.159675 0.667062
Si Si4 0.417811 0.221803 0.781221
Si Si5 0.430147 0.286124 0.612839
Si Si6 0.586412 0.812683 0.989478
Si Si7 0.697407 0.917716 0.052079
O O1 0.646580 0.338819 0.075732
O O2 0.622857 0.289102 0.934624
O O3 0.618554 0.605664 0.994419
O O4 0.744094 0.437174 0.942110
O O5 0.892852 0.242422 0.756730
O O6 0.919221 0.335307 0.597387
O O7 0.021128 0.250952 0.660218
O O8 0.943500 0.005989 0.630200
O O9 0.078110 0.939764 0.692991
O O10 0.500000 0.150149 0.750000
O O11 0.398223 0.205537 0.702653
O O12 0.357882 0.133730 0.859035
O O13 0.506318 0.194717 0.557485
O O14 0.642551 0.949413 0.006574
O O15 0.750000 0.750000 0.000000
#
# Coordination Sequence:
#
# PCOD9253768 Si02
#       7
#     8   8   8   8   8   8   8
#     4  10  16  24  33  53  82 118 146 178 223 257
#     4   9  14  18  32  52  73 105 144 173 197 253
#     4  10  13  20  33  51  75 110 138 177 205 249
#     4  11  15  24  36  55  80 116 149 172 219 267
#     4  10  15  22  37  51  78 116 153 169 211 278
#     4  10  14  23  33  53  78 118 145 170 218 275
#     4  10  18  24  36  54  88 121 141 182 230 267
#
# _framework density 23.700243
#
# number of rings (size 3 to 8) (size 9 to 14) (size 15 to 20)
#    0.000    2.000   10.000    0.857    0.000    0.000 
#    0.000    0.000    0.000    0.000    0.000    0.000 
#    0.000   21.714    0.000    1.286    0.000    0.000 
#
# Total GULP energy -156464.506189 kJ/mol
# GULP energy per Si atom -5588.018078 kJ/mol
# Density = 2.364630 g / cm^3
# Si number density = 23.700243 Si / 1000 Ang^3
#
#
#
# Elastic Constant Matrix: (Units=GPa)
#
#
# Indices 1 2 3 4 5 6 
#
# 1 179.7732 47.1921 115.7675 0.0000 6.4469 0.0000
# 2 47.1921 61.5292 32.2022 0.0000 4.4837 0.0000
# 3 115.7675 32.2022 220.0400 0.0000 13.2756 0.0000
# 4 0.0000 0.0000 0.0000 26.8936 0.0000 1.6529
# 5 6.4469 4.4837 13.2756 0.0000 44.6094 -0.0001
# 6 0.0000 0.0000 0.0000 1.6529 -0.0001 17.0376
#
#
#
# Elastic Compliance Matrix: (Units=1/GPa)
#
#
# Indices 1 2 3 4 5 6 
#
# 1 0.009739 -0.005204 -0.004388 0.000000 0.000421 0.000000
# 2 -0.005204 0.020427 -0.000176 0.000000 -0.001249 0.000000
# 3 -0.004388 -0.000176 0.006965 0.000000 -0.001421 0.000000
# 4 0.000000 0.000000 0.000000 0.037407 0.000000 -0.003629
# 5 0.000421 -0.001249 -0.001421 0.000000 0.022904 0.000000
# 6 0.000000 0.000000 0.000000 -0.003629 0.000000 0.059046
#
#
# Mechanical properties :
#
#
# Convention : Reuss Voigt Hill
#
# Bulk Modulus (GPa) = 56.83482 94.62956 75.73219
# Shear Modulus (GPa) = 27.48938 35.45351 31.47144
#
# Velocity S-wave (km/s) = 3.40939 3.87190 3.64798
# Velocity P-wave (km/s) = 6.28740 7.74617 7.05459
#
# Compressibility (1/GPa) = 0.01759485
#
# Stress axis : x y z
#
# Youngs Moduli (GPa) = 102.67840 48.95462 143.58270
#
# Poissons Ratio (x) = 0.25476 0.63001
# Poissons Ratio (y) = 0.53435 0.02529
# Poissons Ratio (z) = 0.45053 0.00862
#
# Static dielectric constant tensor:
#      x y z
#    x 1.833810 0.000000 0.017950 
#    y 0.000000 2.098410 0.000000 
#    z 0.017950 0.000000 1.892750 
# 
# From -- ./inp_files/209964.got.cif
#   From: 2010.05.17/outbox.cif.g08.bks.cpg/sg15_105_cif.got.tgz:209964.got - 2010.06.03 18:47:42.
