data_PCOD9253439
_publ_section_title
;
Structure prediction by ZEFSAII (Michael W. Deem and Ramdas Pophale) SiO2 
 PCOD9253439
Probable space group: P 21/C
;
_chemical_formula_sum "Si O2"
_cell_formula_units_Z 32
_cell_length_a 13.927442
_cell_length_b 12.393801
_cell_length_c 7.574199
_cell_angle_alpha 90.000000
_cell_angle_beta 97.181914
_cell_angle_gamma 90.000000
_cell_volume 1297.154690
_symmetry_space_group_name_H-M "P 21/C"
_symmetry_group_IT_number 14
_symmetry_cell_setting 'monoclinic'
loop_
_space_group_symop_operation_xyz
x,y,z
-x,1/2+y,1/2-z
-x,-y,-z
x,1/2-y,1/2+z
loop_
_atom_site_type_symbol
_atom_site_label
_atom_site_fract_x
_atom_site_fract_y
_atom_site_fract_z
Si Si1 0.443398 0.571807 0.160515
Si Si2 0.438574 0.711613 0.519128
Si Si3 0.354096 0.520097 0.700988
Si Si4 0.640291 0.878639 0.160090
Si Si5 0.051258 0.902302 0.812605
Si Si6 0.842271 0.697747 0.641706
Si Si7 0.982536 0.824444 0.465372
Si Si8 0.849161 0.520725 0.374167
O O1 0.438785 0.647735 0.335179
O O2 0.414763 0.661958 0.011129
O O3 0.553685 0.527310 0.172566
O O4 0.378646 0.467647 0.192978
O O5 0.371999 0.639503 0.630302
O O6 0.547257 0.697464 0.621356
O O7 0.354325 0.446128 0.521641
O O8 0.246303 0.510186 0.753907
O O9 0.737204 0.809626 0.201297
O O10 0.060021 0.886424 0.603588
O O11 0.140306 0.948323 0.945649
O O12 0.030584 0.786357 0.904708
O O13 0.955875 0.977773 0.817856
O O14 0.897925 0.804276 0.593271
O O15 0.834766 0.638795 0.451849
O O16 0.919233 0.637320 0.785537
#
# Coordination Sequence:
#
# PCOD9253439 Si02
#       8
#     4   4   4   4   4   4   4   4
#     4   9  17  31  49  69  95 125 159 193 232 282
#     4   9  17  30  48  67  93 125 155 191 232 276
#     4   8  16  32  49  67  93 128 160 187 232 291
#     4   8  16  30  47  67  94 128 157 186 234 287
#     4   9  18  32  49  69  94 124 155 195 242 283
#     4   9  17  30  49  71  95 122 156 197 236 282
#     4   9  18  31  48  73  96 118 158 200 235 284
#     4   9  17  32  51  67  92 127 158 193 242 286
#
# _framework density 24.669378999999999
#
# number of rings (size 3 to 8) (size 9 to 14) (size 15 to 20)
#    0.000    3.250    0.000    1.500    0.000    5.500 
#    0.000    7.500    0.000    0.000    0.000    0.000 
#    0.000    0.000    0.000    0.000    0.000    0.000 
#
# Total GULP energy -178482.139785 kJ/mol
# GULP energy per Si atom -5577.566868 kJ/mol
# Density = 2.461323 g / cm^3
# Si number density = 24.669379 Si / 1000 Ang^3
#
#
#
# Elastic Constant Matrix: (Units=GPa)
#
#
# Indices 1 2 3 4 5 6 
#
# 1 68.9846 5.1062 4.1144 0.0000 7.1958 0.0000
# 2 5.1062 49.0590 7.8676 0.0000 -0.6311 0.0000
# 3 4.1144 7.8676 75.9727 0.0000 4.0284 0.0000
# 4 0.0000 0.0000 0.0000 35.7491 0.0000 3.6129
# 5 7.1958 -0.6311 4.0284 0.0000 24.7751 0.0000
# 6 0.0000 0.0000 0.0000 3.6129 0.0000 25.9580
#
#
#
# Elastic Compliance Matrix: (Units=1/GPa)
#
#
# Indices 1 2 3 4 5 6 
#
# 1 0.015091 -0.001559 -0.000425 0.000000 -0.004354 0.000000
# 2 -0.001559 0.020908 -0.002152 0.000000 0.001335 0.000000
# 3 -0.000425 -0.002152 0.013521 0.000000 -0.002130 0.000000
# 4 0.000000 0.000000 0.000000 0.028372 0.000000 -0.003949
# 5 -0.004354 0.001335 -0.002130 0.000000 0.042008 0.000000
# 6 0.000000 0.000000 0.000000 -0.003949 0.000000 0.039073
#
#
# Mechanical properties :
#
#
# Convention : Reuss Voigt Hill
#
# Bulk Modulus (GPa) = 24.24244 25.35476 24.79860
# Shear Modulus (GPa) = 27.62527 29.09165 28.35846
#
# Velocity S-wave (km/s) = 3.35000 3.43776 3.39417
# Velocity P-wave (km/s) = 4.98113 5.10468 5.04328
#
# Compressibility (1/GPa) = 0.04124997
#
# Stress axis : x y z
#
# Youngs Moduli (GPa) = 66.26538 47.82844 73.95688
#
# Poissons Ratio (x) = 0.07454 0.03143
# Poissons Ratio (y) = 0.10328 0.15913
# Poissons Ratio (z) = 0.02816 0.10291
#
# Static dielectric constant tensor:
#      x y z
#    x 1.946900 0.000000 0.009900 
#    y 0.000000 2.035590 0.000000 
#    z 0.009900 0.000000 2.070610 
# 
# From -- ./inp_files/15788.got.cif
#   From: 2010.05.17/outbox.cif.g08.bks.cpg/sg14_8_cif.got.tgz:15788.got - 2010.06.03 17:49:19.
