data_PCOD9253991
_publ_section_title
;
Structure prediction by ZEFSAII (Michael W. Deem and Ramdas Pophale) SiO2 
 PCOD9253991
Probable space group: C 2/C
;
_chemical_formula_sum "Si O2"
_cell_formula_units_Z 24
_cell_length_a 11.922527
_cell_length_b 19.274622
_cell_length_c 11.951046
_cell_angle_alpha 90.000000
_cell_angle_beta 28.064917
_cell_angle_gamma 90.000000
_cell_volume 1292.092379
_symmetry_space_group_name_H-M "C 2/C"
_symmetry_group_IT_number 15
_symmetry_cell_setting 'monoclinic'
loop_
_space_group_symop_operation_xyz
x,y,z
-x,y,1/2-z
-x,-y,-z
x,-y,1/2+z
1/2+x,1/2+y,z
1/2-x,1/2+y,1/2-z
1/2-x,1/2-y,-z
1/2+x,1/2-y,1/2+z
loop_
_atom_site_type_symbol
_atom_site_label
_atom_site_fract_x
_atom_site_fract_y
_atom_site_fract_z
Si Si1 0.318218 0.453478 0.807308
Si Si2 0.559484 0.407023 0.030822
Si Si3 0.000000 0.515038 0.250000
Si Si4 0.000000 0.789069 0.250000
O O1 0.500000 0.439662 0.750000
O O2 0.356481 0.401542 0.671338
O O3 0.376079 0.529461 0.705140
O O4 0.066787 0.465062 0.088236
O O5 0.784143 0.435600 0.904438
O O6 0.461319 0.339081 0.176756
O O7 0.750000 0.750000 0.500000
#
# Coordination Sequence:
#
# PCOD9253991 Si02
#       4
#     8   8   4   4
#     4   9  18  31  55  84 110 141 176 246 300 331
#     4  10  19  34  52  80 116 141 191 232 285 341
#     4  10  15  30  52  88 110 143 174 236 306 334
#     4  12  25  40  58  82 118 163 196 230 274 342
#
# _framework density 18.574522999999999
#
# number of rings (size 3 to 8) (size 9 to 14) (size 15 to 20)
#    0.000    2.000    5.000    2.000    0.000    0.000 
#    0.000    0.000    0.000    2.000    0.000    0.000 
#    0.000    0.000    0.000    0.000    0.000    0.000 
#
# Total GULP energy -66825.736693 kJ/mol
# GULP energy per Si atom -5568.811391 kJ/mol
# Density = 1.853225 g / cm^3
# Si number density = 18.574523 Si / 1000 Ang^3
#
#
#
# Elastic Constant Matrix: (Units=GPa)
#
#
# Indices 1 2 3 4 5 6 
#
# 1 81.9050 24.2738 36.5765 0.0053 28.1190 -0.0053
# 2 24.2738 64.6671 48.9513 0.0072 17.9355 -0.0040
# 3 36.5765 48.9513 135.6105 0.0500 33.8220 -0.0343
# 4 0.0053 0.0072 0.0500 41.0182 -0.0352 14.1779
# 5 28.1190 17.9355 33.8220 -0.0352 41.9936 0.0192
# 6 -0.0053 -0.0040 -0.0343 14.1779 0.0192 20.8937
#
#
#
# Elastic Compliance Matrix: (Units=1/GPa)
#
#
# Indices 1 2 3 4 5 6 
#
# 1 0.016679 -0.002838 -0.001240 -0.000015 -0.008958 0.000020
# 2 -0.002838 0.022212 -0.006708 0.000006 -0.002184 -0.000010
# 3 -0.001240 -0.006708 0.011523 -0.000033 -0.005585 0.000045
# 4 -0.000015 0.000006 -0.000033 0.031850 0.000070 -0.021613
# 5 -0.008958 -0.002184 -0.005585 0.000070 0.035243 -0.000092
# 6 0.000020 -0.000010 0.000045 -0.021613 -0.000092 0.062527
#
#
# Mechanical properties :
#
#
# Convention : Reuss Voigt Hill
#
# Bulk Modulus (GPa) = 34.67017 55.75398 45.21208
# Shear Modulus (GPa) = 23.67192 32.27318 27.97255
#
# Velocity S-wave (km/s) = 3.57379 4.17285 3.88488
# Velocity P-wave (km/s) = 5.97790 7.30058 6.67210
#
# Compressibility (1/GPa) = 0.02884324
#
# Stress axis : x y z
#
# Youngs Moduli (GPa) = 59.95419 45.01978 86.78312
#
# Poissons Ratio (x) = 0.12774 0.10764
# Poissons Ratio (y) = 0.17012 0.58214
# Poissons Ratio (z) = 0.07436 0.30199
#
# Static dielectric constant tensor:
#      x y z
#    x 1.696640 -0.000010 0.012230 
#    y -0.000010 1.639410 -0.000010 
#    z 0.012230 -0.000010 1.766510 
# 
# From -- ./inp_files/3226.got.cif
#   From: 2010.05.17/outbox.cif.g08.bks.cpg/sg15_2_cif.got.tgz:3226.got - 2010.06.03 18:47:42.
