data_PCOD9253099
_publ_section_title
;
Structure prediction by ZEFSAII (Michael W. Deem and Ramdas Pophale) SiO2 
 PCOD9253099
Probable space group: P 21/C
;
_chemical_formula_sum "Si O2"
_cell_formula_units_Z 24
_cell_length_a 5.258172
_cell_length_b 7.933833
_cell_length_c 24.951108
_cell_angle_alpha 90.000000
_cell_angle_beta 110.856888
_cell_angle_gamma 90.000000
_cell_volume 972.689589
_symmetry_space_group_name_H-M "P 21/C"
_symmetry_group_IT_number 14
_symmetry_cell_setting 'monoclinic'
loop_
_space_group_symop_operation_xyz
x,y,z
-x,1/2+y,1/2-z
-x,-y,-z
x,1/2-y,1/2+z
loop_
_atom_site_type_symbol
_atom_site_label
_atom_site_fract_x
_atom_site_fract_y
_atom_site_fract_z
Si Si1 0.900368 0.849005 0.293549
Si Si2 0.102530 0.260126 0.401685
Si Si3 0.658785 0.175086 0.239575
Si Si4 0.703879 0.810089 0.970896
Si Si5 0.545010 0.072062 0.868794
Si Si6 0.875339 0.364567 0.074601
O O1 0.817875 0.044549 0.288823
O O2 0.622522 0.749604 0.259837
O O3 0.136558 0.814796 0.268399
O O4 0.005653 0.795342 0.360015
O O5 0.200965 0.358023 0.462763
O O6 0.316175 0.298653 0.371233
O O7 0.806935 0.332054 0.365918
O O8 0.107953 0.065660 0.419209
O O9 0.575425 0.059301 0.182454
O O10 0.431919 0.697867 0.954573
O O11 0.939423 0.703920 0.959225
O O12 0.637679 0.966104 0.927648
#
# Coordination Sequence:
#
# PCOD9253099 Si02
#       6
#     4   4   4   4   4   4
#     4  12  26  47  70 100 129 178 221 283 340 400
#     4  12  26  40  71 103 136 182 227 269 330 409
#     4  12  27  47  73  98 135 174 227 280 344 398
#     4  12  23  46  68  98 138 185 224 274 335 393
#     4  12  24  44  66 100 140 173 223 283 331 398
#     4  12  24  44  68  97 140 174 226 281 334 396
#
# _framework density 24.673856000000001
#
# number of rings (size 3 to 8) (size 9 to 14) (size 15 to 20)
#    0.000    0.000    3.333    7.000    4.667    0.000 
#    0.000    0.000    0.000    0.000    0.000    0.000 
#    0.000    0.000    0.000    0.000    0.000    0.000 
#
# Total GULP energy -134779.813329 kJ/mol
# GULP energy per Si atom -5615.825555 kJ/mol
# Density = 2.461770 g / cm^3
# Si number density = 24.673856 Si / 1000 Ang^3
#
#
#
# Elastic Constant Matrix: (Units=GPa)
#
#
# Indices 1 2 3 4 5 6 
#
# 1 148.9494 37.0528 6.4286 0.0000 -4.8603 0.0000
# 2 37.0528 87.1026 -18.9181 0.0000 -1.9773 0.0000
# 3 6.4286 -18.9181 79.1080 0.0000 8.7962 0.0000
# 4 0.0000 0.0000 0.0000 41.0936 0.0000 8.0362
# 5 -4.8603 -1.9773 8.7962 0.0000 28.0389 0.0000
# 6 0.0000 0.0000 0.0000 8.0362 0.0000 30.5501
#
#
#
# Elastic Compliance Matrix: (Units=1/GPa)
#
#
# Indices 1 2 3 4 5 6 
#
# 1 0.007739 -0.003619 -0.001673 0.000000 0.001611 0.000000
# 2 -0.003619 0.013802 0.003685 0.000000 -0.000810 0.000000
# 3 -0.001673 0.003685 0.014155 0.000000 -0.004471 0.000000
# 4 0.000000 0.000000 0.000000 0.025654 0.000000 -0.006748
# 5 0.001611 -0.000810 -0.004471 0.000000 0.037289 0.000000
# 6 0.000000 0.000000 0.000000 -0.006748 0.000000 0.034508
#
#
# Mechanical properties :
#
#
# Convention : Reuss Voigt Hill
#
# Bulk Modulus (GPa) = 30.78720 40.47629 35.63175
# Shear Modulus (GPa) = 33.96963 39.30965 36.63964
#
# Velocity S-wave (km/s) = 3.71448 3.99578 3.85770
# Velocity P-wave (km/s) = 5.55889 6.14235 5.85789
#
# Compressibility (1/GPa) = 0.03248103
#
# Stress axis : x y z
#
# Youngs Moduli (GPa) = 129.22020 72.45282 70.64502
#
# Poissons Ratio (x) = 0.26220 0.11822
# Poissons Ratio (y) = 0.46763 -0.26031
# Poissons Ratio (z) = 0.21625 -0.26698
#
# Static dielectric constant tensor:
#      x y z
#    x 1.872170 0.000000 0.028670 
#    y 0.000000 1.915330 0.000000 
#    z 0.028670 0.000000 1.988190 
# 
# From -- ./inp_files/71069.got.cif
#   From: 2010.05.17/outbox.cif.g08.bks.cpg/sg14_36_cif.got.tgz:71069.got - 2010.06.03 17:49:19.
