data_PCOD9253199
_publ_section_title
;
Structure prediction by ZEFSAII (Michael W. Deem and Ramdas Pophale) SiO2 
 PCOD9253199
Probable space group: P 21/C
;
_chemical_formula_sum "Si O2"
_cell_formula_units_Z 20
_cell_length_a 11.518659
_cell_length_b 8.126694
_cell_length_c 8.406875
_cell_angle_alpha 90.000000
_cell_angle_beta 77.293413
_cell_angle_gamma 90.000000
_cell_volume 767.682811
_symmetry_space_group_name_H-M "P 21/C"
_symmetry_group_IT_number 14
_symmetry_cell_setting 'monoclinic'
loop_
_space_group_symop_operation_xyz
x,y,z
-x,1/2+y,1/2-z
-x,-y,-z
x,1/2-y,1/2+z
loop_
_atom_site_type_symbol
_atom_site_label
_atom_site_fract_x
_atom_site_fract_y
_atom_site_fract_z
Si Si1 0.755201 0.375274 0.839076
Si Si2 0.007345 0.362878 0.633632
Si Si3 0.150967 0.415661 0.899057
Si Si4 0.479618 0.693858 0.509913
Si Si5 0.641030 0.801497 0.225737
O O1 0.650167 0.245758 0.897242
O O2 0.697823 0.523139 0.750134
O O3 0.873029 0.310276 0.717228
O O4 0.798978 0.448244 0.995341
O O5 0.059078 0.439353 0.781666
O O6 0.088894 0.220154 0.533890
O O7 0.000000 0.500000 0.500000
O O8 0.261315 0.335167 0.771856
O O9 0.500000 0.500000 0.500000
O O10 0.508227 0.786433 0.337332
O O11 0.602552 0.745885 0.559092
#
# Coordination Sequence:
#
# PCOD9253199 Si02
#       5
#     4   4   4   4   4
#     4  12  27  51  82 118 167 221 273 346 415 489
#     4  12  25  50  81 122 164 214 274 343 421 497
#     4  12  25  50  82 117 165 215 279 342 414 502
#     4  12  29  49  78 118 160 213 275 338 412 492
#     4  12  24  51  79 111 162 207 274 333 408 485
#
# _framework density 26.052427000000002
#
# number of rings (size 3 to 8) (size 9 to 14) (size 15 to 20)
#    0.000    0.000    6.000    2.400    2.800    3.200 
#    7.200    0.000    0.000    0.000    0.000    0.000 
#    0.000    0.000    0.000    0.000    0.000    0.000 
#
# Total GULP energy -111897.478269 kJ/mol
# GULP energy per Si atom -5594.873913 kJ/mol
# Density = 2.599313 g / cm^3
# Si number density = 26.052427 Si / 1000 Ang^3
#
#
#
# Elastic Constant Matrix: (Units=GPa)
#
#
# Indices 1 2 3 4 5 6 
#
# 1 191.5847 61.5039 76.2711 0.0000 -12.3261 0.0000
# 2 61.5039 92.0790 33.4454 0.0000 11.2813 0.0000
# 3 76.2711 33.4454 105.8545 0.0000 -2.3276 0.0000
# 4 0.0000 0.0000 0.0000 38.6680 0.0000 -8.3834
# 5 -12.3261 11.2813 -2.3276 0.0000 60.5734 0.0000
# 6 0.0000 0.0000 0.0000 -8.3834 0.0000 57.3629
#
#
#
# Elastic Compliance Matrix: (Units=1/GPa)
#
#
# Indices 1 2 3 4 5 6 
#
# 1 0.008694 -0.004342 -0.004840 0.000000 0.002392 0.000000
# 2 -0.004342 0.014807 -0.001631 0.000000 -0.003704 0.000000
# 3 -0.004840 -0.001631 0.013446 0.000000 -0.000164 0.000000
# 4 0.000000 0.000000 0.000000 0.026707 0.000000 0.003903
# 5 0.002392 -0.003704 -0.000164 0.000000 0.017679 0.000000
# 6 0.000000 0.000000 0.000000 0.003903 0.000000 0.018003
#
#
# Mechanical properties :
#
#
# Convention : Reuss Voigt Hill
#
# Bulk Modulus (GPa) = 65.27145 81.32878 73.30012
# Shear Modulus (GPa) = 39.66032 45.87405 42.76719
#
# Velocity S-wave (km/s) = 3.90593 4.20078 4.05604
# Velocity P-wave (km/s) = 6.74166 7.40364 7.08039
#
# Compressibility (1/GPa) = 0.01532063
#
# Stress axis : x y z
#
# Youngs Moduli (GPa) = 115.01701 67.53581 74.37206
#
# Poissons Ratio (x) = 0.29327 0.35995
# Poissons Ratio (y) = 0.49946 0.12130
# Poissons Ratio (z) = 0.55667 0.11015
#
# Static dielectric constant tensor:
#      x y z
#    x 2.140230 0.000000 -0.052620 
#    y 0.000000 1.992410 0.000000 
#    z -0.052620 0.000000 2.236760 
# 
# From -- ./inp_files/11794.got.cif
#   From: 2010.05.17/outbox.cif.g08.bks.cpg/sg14_6_cif.got.tgz:11794.got - 2010.06.03 17:49:19.
