data_PCOD9253285
_publ_section_title
;
Structure prediction by ZEFSAII (Michael W. Deem and Ramdas Pophale) SiO2 
 PCOD9253285
Probable space group: P 21/C
;
_chemical_formula_sum "Si O2"
_cell_formula_units_Z 20
_cell_length_a 11.706836
_cell_length_b 7.049980
_cell_length_c 23.689117
_cell_angle_alpha 90.000000
_cell_angle_beta 150.674315
_cell_angle_gamma 90.000000
_cell_volume 957.571990
_symmetry_space_group_name_H-M "P 21/C"
_symmetry_group_IT_number 14
_symmetry_cell_setting 'monoclinic'
loop_
_space_group_symop_operation_xyz
x,y,z
-x,1/2+y,1/2-z
-x,-y,-z
x,1/2-y,1/2+z
loop_
_atom_site_type_symbol
_atom_site_label
_atom_site_fract_x
_atom_site_fract_y
_atom_site_fract_z
Si Si1 0.008797 0.868975 0.170106
Si Si2 0.742022 0.046938 0.410310
Si Si3 0.418113 0.691208 0.276975
Si Si4 0.624679 0.370858 0.444846
Si Si5 0.305217 0.122362 0.384425
O O1 0.872903 0.711989 0.147751
O O2 0.174300 0.770791 0.195404
O O3 0.169848 0.991275 0.281564
O O4 0.822699 0.007889 0.061060
O O5 0.605585 0.140459 0.298837
O O6 0.735669 0.194053 0.459024
O O7 0.609184 0.854436 0.368766
O O8 0.000000 0.000000 0.500000
O O9 0.494419 0.507221 0.344644
O O10 0.438281 0.289337 0.408659
O O11 0.500000 0.000000 0.500000
#
# Coordination Sequence:
#
# PCOD9253285 Si02
#       5
#     4   4   4   4   4
#     4  12  26  45  76 104 143 190 239 297 358 427
#     4  12  28  45  76 106 147 190 240 297 356 428
#     4  12  26  49  71 110 143 189 239 293 361 428
#     4  12  27  47  74 106 145 187 239 295 358 424
#     4  12  26  48  73 107 144 186 242 297 362 426
#
# _framework density 20.886157999999998
#
# number of rings (size 3 to 8) (size 9 to 14) (size 15 to 20)
#    0.000    0.000    4.000    5.400    8.400    1.600 
#    0.000    0.000    0.000    0.000    0.000    0.000 
#    0.000    0.000    0.000    0.000    0.000    0.000 
#
# Total GULP energy -112123.334338 kJ/mol
# GULP energy per Si atom -5606.166717 kJ/mol
# Density = 2.083862 g / cm^3
# Si number density = 20.886158 Si / 1000 Ang^3
#
#
#
# Elastic Constant Matrix: (Units=GPa)
#
#
# Indices 1 2 3 4 5 6 
#
# 1 67.3495 8.7405 -14.6149 0.0000 21.1713 0.0000
# 2 8.7405 73.0988 -2.7948 0.0000 10.2096 0.0000
# 3 -14.6149 -2.7948 62.1373 0.0000 -2.2372 0.0000
# 4 0.0000 0.0000 0.0000 41.0025 0.0000 4.9749
# 5 21.1713 10.2096 -2.2372 0.0000 48.5943 0.0000
# 6 0.0000 0.0000 0.0000 4.9749 0.0000 55.3206
#
#
#
# Elastic Compliance Matrix: (Units=1/GPa)
#
#
# Indices 1 2 3 4 5 6 
#
# 1 0.018207 -0.000971 0.003967 0.000000 -0.007545 0.000000
# 2 -0.000971 0.014163 0.000317 0.000000 -0.002538 0.000000
# 3 0.003967 0.000317 0.017004 0.000000 -0.001012 0.000000
# 4 0.000000 0.000000 0.000000 0.024658 0.000000 -0.002217
# 5 -0.007545 -0.002538 -0.001012 0.000000 0.024352 0.000000
# 6 0.000000 0.000000 0.000000 -0.002217 0.000000 0.018276
#
#
# Mechanical properties :
#
#
# Convention : Reuss Voigt Hill
#
# Bulk Modulus (GPa) = 17.85745 20.58304 19.22024
# Shear Modulus (GPa) = 38.84969 43.06714 40.95842
#
# Velocity S-wave (km/s) = 4.31753 4.54585 4.43316
# Velocity P-wave (km/s) = 5.78128 6.11794 5.95199
#
# Compressibility (1/GPa) = 0.05599903
#
# Stress axis : x y z
#
# Youngs Moduli (GPa) = 54.92466 70.60732 58.80880
#
# Poissons Ratio (x) = 0.06859 -0.23329
# Poissons Ratio (y) = 0.05336 -0.01865
# Poissons Ratio (z) = -0.21788 -0.02239
#
# Static dielectric constant tensor:
#      x y z
#    x 1.712700 0.000000 -0.006890 
#    y 0.000000 1.711890 0.000000 
#    z -0.006890 0.000000 1.710400 
# 
# From -- ./inp_files/27385.got.cif
#   From: 2010.05.17/outbox.cif.g08.bks.cpg/sg14_14_cif.got.tgz:27385.got - 2010.06.03 17:49:19.
