data_PCOD9253322
_publ_section_title
;
Structure prediction by ZEFSAII (Michael W. Deem and Ramdas Pophale) SiO2 
 PCOD9253322
Probable space group: P 21/C
;
_chemical_formula_sum "Si O2"
_cell_formula_units_Z 20
_cell_length_a 5.324791
_cell_length_b 18.162198
_cell_length_c 11.677875
_cell_angle_alpha 90.000000
_cell_angle_beta 131.355889
_cell_angle_gamma 90.000000
_cell_volume 847.724851
_symmetry_space_group_name_H-M "P 21/C"
_symmetry_group_IT_number 14
_symmetry_cell_setting 'monoclinic'
loop_
_space_group_symop_operation_xyz
x,y,z
-x,1/2+y,1/2-z
-x,-y,-z
x,1/2-y,1/2+z
loop_
_atom_site_type_symbol
_atom_site_label
_atom_site_fract_x
_atom_site_fract_y
_atom_site_fract_z
Si Si1 0.226831 0.851441 0.348496
Si Si2 0.548819 0.366767 0.849509
Si Si3 0.439984 0.076502 0.916414
Si Si4 0.835061 0.183543 0.193617
Si Si5 0.376381 0.472607 0.137831
O O1 0.172662 0.852893 0.468975
O O2 0.285794 0.767569 0.334883
O O3 0.526240 0.908284 0.418760
O O4 0.926925 0.887005 0.185826
O O5 0.702920 0.353216 0.771083
O O6 0.422020 0.451240 0.816619
O O7 0.233355 0.316917 0.790873
O O8 0.457813 0.057041 0.788122
O O9 0.684571 0.137572 0.042336
O O10 0.500000 0.000000 0.000000
O O11 0.000000 0.500000 0.000000
#
# Coordination Sequence:
#
# PCOD9253322 Si02
#       5
#     4   4   4   4   4
#     4  12  29  47  80 111 162 210 262 331 402 473
#     4  12  27  52  77 111 159 211 263 320 399 481
#     4  12  27  49  77 116 155 208 265 334 389 473
#     4  12  30  49  79 119 161 205 267 330 401 469
#     4  12  26  49  81 113 155 211 271 319 399 474
#
# _framework density 23.592559999999999
#
# number of rings (size 3 to 8) (size 9 to 14) (size 15 to 20)
#    0.000    0.000    4.000    4.200    8.400    1.600 
#    0.000    0.000    0.000    0.000    0.000    0.000 
#    0.000    0.000    0.000    0.000    0.000    0.000 
#
# Total GULP energy -111934.737070 kJ/mol
# GULP energy per Si atom -5596.736854 kJ/mol
# Density = 2.353886 g / cm^3
# Si number density = 23.592560 Si / 1000 Ang^3
#
#
#
# Elastic Constant Matrix: (Units=GPa)
#
#
# Indices 1 2 3 4 5 6 
#
# 1 67.6912 8.3869 32.3881 0.0000 -13.3707 0.0000
# 2 8.3869 163.7392 33.7062 0.0000 -8.8596 0.0000
# 3 32.3881 33.7062 136.0163 0.0000 -15.4026 0.0000
# 4 0.0000 0.0000 0.0000 19.7530 0.0000 -3.3205
# 5 -13.3707 -8.8596 -15.4026 0.0000 44.6351 0.0000
# 6 0.0000 0.0000 0.0000 -3.3205 0.0000 34.6717
#
#
#
# Elastic Compliance Matrix: (Units=1/GPa)
#
#
# Indices 1 2 3 4 5 6 
#
# 1 0.017307 0.000087 -0.003698 0.000000 0.003926 0.000000
# 2 0.000087 0.006461 -0.001534 0.000000 0.000779 0.000000
# 3 -0.003698 -0.001534 0.008797 0.000000 0.001623 0.000000
# 4 0.000000 0.000000 0.000000 0.051454 0.000000 0.004928
# 5 0.003926 0.000779 0.001623 0.000000 0.024295 0.000000
# 6 0.000000 0.000000 0.000000 0.004928 0.000000 0.029314
#
#
# Mechanical properties :
#
#
# Convention : Reuss Voigt Hill
#
# Bulk Modulus (GPa) = 44.89309 57.37878 51.13594
# Shear Modulus (GPa) = 32.18733 39.34296 35.76514
#
# Velocity S-wave (km/s) = 3.69765 4.08806 3.89774
# Velocity P-wave (km/s) = 6.10737 6.83055 6.47906
#
# Compressibility (1/GPa) = 0.02227514
#
# Stress axis : x y z
#
# Youngs Moduli (GPa) = 57.77994 154.78304 113.68130
#
# Poissons Ratio (x) = -0.01350 0.42042
# Poissons Ratio (y) = -0.00504 0.17433
# Poissons Ratio (z) = 0.21368 0.23736
#
# Static dielectric constant tensor:
#      x y z
#    x 1.976190 0.000000 0.041150 
#    y 0.000000 1.903410 0.000000 
#    z 0.041150 0.000000 1.934810 
# 
# From -- ./inp_files/6043.got.cif
#   From: 2010.05.17/outbox.cif.g08.bks.cpg/sg14_4_cif.got.tgz:6043.got - 2010.06.03 17:49:19.
