data_PCOD9253724
_publ_section_title
;
Structure prediction by ZEFSAII (Michael W. Deem and Ramdas Pophale) SiO2 
 PCOD9253724
Probable space group: P 21/C
;
_chemical_formula_sum "Si O2"
_cell_formula_units_Z 30
_cell_length_a 21.000000
_cell_length_b 9.000000
_cell_length_c 15.000000
_cell_angle_alpha 90.000000
_cell_angle_beta 30.000000
_cell_angle_gamma 90.000000
_cell_volume 1417.500000
_symmetry_space_group_name_H-M "P 21/C"
_symmetry_group_IT_number 14
_symmetry_cell_setting 'monoclinic'
loop_
_space_group_symop_operation_xyz
x,y,z
-x,1/2+y,1/2-z
-x,-y,-z
x,1/2-y,1/2+z
loop_
_atom_site_type_symbol
_atom_site_label
_atom_site_fract_x
_atom_site_fract_y
_atom_site_fract_z
Si Si1 0.884561 0.811579 0.165384
Si Si2 0.843390 0.294441 0.400417
Si Si3 0.338591 0.986674 0.609760
Si Si4 0.801053 0.545012 0.149641
Si Si5 0.500000 0.000000 0.000000
Si Si6 0.920226 0.554026 0.813638
Si Si7 0.425160 0.679786 0.181740
Si Si8 0.842797 0.262329 0.207348
O O1 0.852849 0.646470 0.167851
O O2 0.868922 0.857867 0.288495
O O3 0.783007 0.908193 0.234644
O O4 0.031272 0.834289 0.961071
O O5 0.696677 0.302610 0.607124
O O6 0.856803 0.349116 0.282672
O O7 0.933269 0.395501 0.353201
O O8 0.893997 0.123025 0.337324
O O9 0.380475 0.921651 0.653257
O O10 0.282134 0.840620 0.629537
O O11 0.452520 0.086091 0.430053
O O12 0.649599 0.546907 0.326414
O O13 0.834885 0.375090 0.134550
O O14 0.857122 0.593832 0.985968
O O15 0.460848 0.841763 0.100812
#
# Coordination Sequence:
#
# PCOD9253724 Si02
#       8
#     4   4   4   4   2   4   4   4
#     4  12  25  44  76 108 142 189 243 293 370 432
#     4  12  27  45  71 110 145 190 242 303 361 445
#     4  11  23  45  70 103 140 188 236 304 355 428
#     4  12  26  49  73 107 146 196 243 296 376 435
#     4  12  22  48  74  94 148 202 232 302 360 444
#     4  12  26  46  74 104 151 186 241 306 366 437
#     4  11  25  46  71 101 146 190 247 290 369 434
#     4  12  25  47  73 105 151 186 237 308 361 438
#
# _framework density 21.164021000000002
#
# number of rings (size 3 to 8) (size 9 to 14) (size 15 to 20)
#    0.000    0.267    6.667    2.400    3.733    0.000 
#    4.800    0.000    0.000    0.000    0.000    0.000 
#    0.000    0.000    0.000    0.000    0.000    0.000 
#
# Total GULP energy -167038.271028 kJ/mol
# GULP energy per Si atom -5567.942368 kJ/mol
# Density = 2.111585 g / cm^3
# Si number density = 21.164021 Si / 1000 Ang^3
#
#
#
# Elastic Constant Matrix: (Units=GPa)
#
#
# Indices 1 2 3 4 5 6 
#
# 1 57.1497 8.4271 41.5334 0.0000 -0.2735 0.0000
# 2 8.4271 72.5362 41.6133 0.0000 3.1068 0.0000
# 3 41.5334 41.6133 141.0366 0.0000 -17.7683 0.0000
# 4 0.0000 0.0000 0.0000 35.3691 0.0000 -10.2731
# 5 -0.2735 3.1068 -17.7683 0.0000 38.5056 0.0000
# 6 0.0000 0.0000 0.0000 -10.2731 0.0000 40.3976
#
#
#
# Elastic Compliance Matrix: (Units=1/GPa)
#
#
# Indices 1 2 3 4 5 6 
#
# 1 0.022822 0.001944 -0.007744 0.000000 -0.003568 0.000000
# 2 0.001944 0.017308 -0.006215 0.000000 -0.004250 0.000000
# 3 -0.007744 -0.006215 0.011956 0.000000 0.005963 0.000000
# 4 0.000000 0.000000 0.000000 0.030528 0.000000 0.007763
# 5 -0.003568 -0.004250 0.005963 0.000000 0.029040 0.000000
# 6 0.000000 0.000000 0.000000 0.007763 0.000000 0.026728
#
#
# Mechanical properties :
#
#
# Convention : Reuss Voigt Hill
#
# Bulk Modulus (GPa) = 35.64247 50.43001 43.03624
# Shear Modulus (GPa) = 29.10993 34.79771 31.95382
#
# Velocity S-wave (km/s) = 3.71272 4.05926 3.88985
# Velocity P-wave (km/s) = 5.93773 6.77127 6.36815
#
# Compressibility (1/GPa) = 0.02805642
#
# Stress axis : x y z
#
# Youngs Moduli (GPa) = 43.81729 57.77776 83.64156
#
# Poissons Ratio (x) = -0.11232 0.64771
# Poissons Ratio (y) = -0.08518 0.51980
# Poissons Ratio (z) = 0.33932 0.35907
#
# Static dielectric constant tensor:
#      x y z
#    x 1.827690 0.000000 -0.011080 
#    y 0.000000 1.809970 0.000000 
#    z -0.011080 0.000000 1.745340 
# 
# From -- ./inp_files/50230.got.cif
#   From: 2010.05.17/outbox.ucp.g08.bks.cvg/sg14_26_cif.got.tgz:50230.got - 2010.06.11 12:31:08.
