data_PCOD9253294
_publ_section_title
;
Structure prediction by ZEFSAII (Michael W. Deem and Ramdas Pophale) SiO2 
 PCOD9253294
Probable space group: P 21/C
;
_chemical_formula_sum "Si O2"
_cell_formula_units_Z 12
_cell_length_a 7.741295
_cell_length_b 4.326614
_cell_length_c 14.772981
_cell_angle_alpha 90.000000
_cell_angle_beta 121.602166
_cell_angle_gamma 90.000000
_cell_volume 421.424896
_symmetry_space_group_name_H-M "P 21/C"
_symmetry_group_IT_number 14
_symmetry_cell_setting 'monoclinic'
loop_
_space_group_symop_operation_xyz
x,y,z
-x,1/2+y,1/2-z
-x,-y,-z
x,1/2-y,1/2+z
loop_
_atom_site_type_symbol
_atom_site_label
_atom_site_fract_x
_atom_site_fract_y
_atom_site_fract_z
Si Si1 0.449560 0.734844 0.569946
Si Si2 0.128418 0.249998 0.250000
Si Si3 0.190331 0.265156 0.569946
O O1 0.500000 0.500000 0.500000
O O2 0.660566 0.884952 0.657333
O O3 0.377072 0.500000 0.627072
O O4 0.726488 1.000000 0.476487
O O5 0.154101 0.384950 0.157334
O O6 0.048952 0.499998 0.298952
O O7 0.000000 0.500000 0.500000
#
# Coordination Sequence:
#
# PCOD9253294 Si02
#       3
#     4   4   4
#     4  12  26  47  75 110 150 200 256 320 391 470
#     4  12  26  48  74 108 150 198 254 320 390 466
#     4  12  26  47  75 110 150 200 256 320 391 470
#
# _framework density 28.474824000000002
#
# number of rings (size 3 to 8) (size 9 to 14) (size 15 to 20)
#    0.000    0.000    0.000   10.000    0.000    5.333 
#    0.000    0.000    0.000    0.000    0.000    0.000 
#    0.000    0.000    0.000    0.000    0.000    0.000 
#
# Total GULP energy -67036.214902 kJ/mol
# GULP energy per Si atom -5586.351242 kJ/mol
# Density = 2.841001 g / cm^3
# Si number density = 28.474824 Si / 1000 Ang^3
#
#
#
# Elastic Constant Matrix: (Units=GPa)
#
#
# Indices 1 2 3 4 5 6 
#
# 1 193.7564 90.5055 94.9694 0.0000 0.8615 0.0000
# 2 90.5055 143.3997 33.6411 0.0000 -2.0765 0.0000
# 3 94.9694 33.6411 99.1483 0.0000 -4.3168 0.0000
# 4 0.0000 0.0000 0.0000 38.0691 0.0000 -2.5133
# 5 0.8615 -2.0765 -4.3168 0.0000 61.0058 0.0000
# 6 0.0000 0.0000 0.0000 -2.5133 0.0000 106.8961
#
#
#
# Elastic Compliance Matrix: (Units=1/GPa)
#
#
# Indices 1 2 3 4 5 6 
#
# 1 0.013055 -0.005770 -0.010596 0.000000 -0.001131 0.000000
# 2 -0.005770 0.010127 0.002116 0.000000 0.000576 0.000000
# 3 -0.010596 0.002116 0.019588 0.000000 0.001608 0.000000
# 4 0.000000 0.000000 0.000000 0.026309 0.000000 0.000619
# 5 -0.001131 0.000576 0.001608 0.000000 0.016541 0.000000
# 6 0.000000 0.000000 0.000000 0.000619 0.000000 0.009369
#
#
# Mechanical properties :
#
#
# Convention : Reuss Voigt Hill
#
# Bulk Modulus (GPa) = 70.08262 97.17070 83.62666
# Shear Modulus (GPa) = 38.98705 55.67343 47.33024
#
# Velocity S-wave (km/s) = 3.70425 4.42654 4.08141
# Velocity P-wave (km/s) = 6.55445 7.76691 7.18630
#
# Compressibility (1/GPa) = 0.01426887
#
# Stress axis : x y z
#
# Youngs Moduli (GPa) = 76.59724 98.74299 51.05220
#
# Poissons Ratio (x) = 0.56977 0.54097
# Poissons Ratio (y) = 0.44198 -0.10802
# Poissons Ratio (z) = 0.81166 -0.20893
#
# Static dielectric constant tensor:
#      x y z
#    x 2.244330 0.000000 -0.006320 
#    y 0.000000 2.251660 0.000000 
#    z -0.006320 0.000000 2.071310 
# 
# From -- ./inp_files/36563.got.cif
#   From: 2010.05.17/outbox.cif.g08.bks.cpg/sg14_19_cif.got.tgz:36563.got - 2010.06.03 17:49:19.
