data_PCOD9253836
_publ_section_title
;
Structure prediction by ZEFSAII (Michael W. Deem and Ramdas Pophale) SiO2 
 PCOD9253836
Probable space group: C 2/C
;
_chemical_formula_sum "Si O2"
_cell_formula_units_Z 52
_cell_length_a 17.235245
_cell_length_b 20.430103
_cell_length_c 14.212008
_cell_angle_alpha 90.000000
_cell_angle_beta 31.529333
_cell_angle_gamma 90.000000
_cell_volume 2616.924424
_symmetry_space_group_name_H-M "C 2/C"
_symmetry_group_IT_number 15
_symmetry_cell_setting 'monoclinic'
loop_
_space_group_symop_operation_xyz
x,y,z
-x,y,1/2-z
-x,-y,-z
x,-y,1/2+z
1/2+x,1/2+y,z
1/2-x,1/2+y,1/2-z
1/2-x,1/2-y,-z
1/2+x,1/2-y,1/2+z
loop_
_atom_site_type_symbol
_atom_site_label
_atom_site_fract_x
_atom_site_fract_y
_atom_site_fract_z
Si Si1 0.000000 0.591960 0.250000
Si Si2 0.835901 0.544558 0.745238
Si Si3 0.500000 0.597473 0.750000
Si Si4 0.768806 0.339600 0.442141
Si Si5 0.734553 0.467655 0.142436
Si Si6 0.500000 0.250439 0.750000
Si Si7 0.724372 0.112338 0.159163
Si Si8 0.329054 0.895720 0.581387
O O1 0.085527 0.633319 0.239505
O O2 0.876635 0.548353 0.430036
O O3 0.761586 0.591600 0.898108
O O4 0.772982 0.559794 0.706369
O O5 0.801844 0.467928 0.802627
O O6 0.009934 0.567313 0.571873
O O7 0.405313 0.558382 0.769878
O O8 0.628395 0.629255 0.551920
O O9 0.622589 0.297805 0.579359
O O10 0.908717 0.294118 0.270190
O O11 0.807591 0.352275 0.511585
O O12 0.718173 0.544259 0.176760
O O13 0.713293 0.137309 0.276657
#
# Coordination Sequence:
#
# PCOD9253836 Si02
#       8
#     4   8   4   8   8   4   8   8
#     4  10  14  29  46  64 100 144 158 219 238 302
#     4  11  19  33  54  80  99 150 183 232 257 339
#     4  10  22  31  42  72 110 156 150 229 258 310
#     4  11  22  37  61  75 119 142 188 218 288 299
#     4  10  20  31  50  75 113 135 194 207 269 329
#     4  10  24  40  50  84 104 152 188 244 242 332
#     4  10  20  31  50  75 113 135 194 207 269 329
#     4  11  19  33  54  80  99 150 183 232 257 339
#
# _framework density 19.870653999999998
#
# number of rings (size 3 to 8) (size 9 to 14) (size 15 to 20)
#    0.000    1.538    4.615    2.769    0.000    6.154 
#    0.000    0.000    0.000    0.000    0.000    0.000 
#    0.000   86.154    0.000    0.000    0.000    0.000 
#
# Total GULP energy -144826.604477 kJ/mol
# GULP energy per Si atom -5570.254018 kJ/mol
# Density = 1.982543 g / cm^3
# Si number density = 19.870654 Si / 1000 Ang^3
#
#
#
# Elastic Constant Matrix: (Units=GPa)
#
#
# Indices 1 2 3 4 5 6 
#
# 1 140.4275 8.3124 38.9557 0.0075 14.1875 -0.0067
# 2 8.3124 27.9501 3.7620 0.0074 0.2284 -0.0092
# 3 38.9557 3.7620 67.0676 0.0024 1.7840 -0.0128
# 4 0.0075 0.0074 0.0024 6.5597 -0.0031 -3.3297
# 5 14.1875 0.2284 1.7840 -0.0031 40.9650 0.0063
# 6 -0.0067 -0.0092 -0.0128 -3.3297 0.0063 2.0004
#
#
#
# Elastic Compliance Matrix: (Units=1/GPa)
#
#
# Indices 1 2 3 4 5 6 
#
# 1 0.008910 -0.001955 -0.004989 -0.000055 -0.002857 -0.000095
# 2 -0.001955 0.036480 -0.000924 0.000254 0.000514 0.000577
# 3 -0.004989 -0.000924 0.017835 0.000300 0.000956 0.000589
# 4 -0.000055 0.000254 0.000300 0.982947 -0.000173 1.636138
# 5 -0.002857 0.000514 0.000956 -0.000173 0.025356 -0.000369
# 6 -0.000095 0.000577 0.000589 1.636138 -0.000369 3.223290
#
#
# Mechanical properties :
#
#
# Convention : Reuss Voigt Hill
#
# Bulk Modulus (GPa) = 21.05835 37.50058 29.27946
# Shear Modulus (GPa) = 1.15570 22.19937 11.67754
#
# Velocity S-wave (km/s) = 0.76346 3.34607 2.42684
# Velocity P-wave (km/s) = 3.37608 5.81735 4.75602
#
# Compressibility (1/GPa) = 0.04748711
#
# Stress axis : x y z
#
# Youngs Moduli (GPa) = 112.23814 27.41242 56.06977
#
# Poissons Ratio (x) = 0.05359 0.27976
# Poissons Ratio (y) = 0.21941 0.05183
# Poissons Ratio (z) = 0.56001 0.02534
#
# Static dielectric constant tensor:
#      x y z
#    x 1.731630 0.000000 0.007890 
#    y 0.000000 1.696190 0.000000 
#    z 0.007890 0.000000 1.787070 
# 
# From -- ./inp_files/163628.got.cif
#   From: 2010.05.17/outbox.cif.g08.bks.cpg/sg15_82_cif.got.tgz:163628.got - 2010.06.03 18:47:42.
