data_PCOD9253208
_publ_section_title
;
Structure prediction by ZEFSAII (Michael W. Deem and Ramdas Pophale) SiO2 
 PCOD9253208
Probable space group: P 21/C
;
_chemical_formula_sum "Si O2"
_cell_formula_units_Z 28
_cell_length_a 31.730138
_cell_length_b 7.865136
_cell_length_c 31.929221
_cell_angle_alpha 90.000000
_cell_angle_beta 171.099607
_cell_angle_gamma 90.000000
_cell_volume 1232.835164
_symmetry_space_group_name_H-M "P 21/C"
_symmetry_group_IT_number 14
_symmetry_cell_setting 'monoclinic'
loop_
_space_group_symop_operation_xyz
x,y,z
-x,1/2+y,1/2-z
-x,-y,-z
x,1/2-y,1/2+z
loop_
_atom_site_type_symbol
_atom_site_label
_atom_site_fract_x
_atom_site_fract_y
_atom_site_fract_z
Si Si1 0.610475 0.812842 0.377975
Si Si2 0.160096 0.813281 0.378818
Si Si3 0.754867 0.874902 0.249692
Si Si4 0.047006 0.189719 0.138219
Si Si5 0.272806 0.810966 0.899260
Si Si6 0.508150 0.812038 0.868155
Si Si7 0.182435 0.182036 0.104530
O O1 0.487914 0.728123 0.299315
O O2 0.870137 0.709383 0.616084
O O3 0.718538 0.999920 0.494920
O O4 0.378366 0.811820 0.114893
O O5 0.138946 0.766746 0.309402
O O6 0.746325 0.737652 0.278550
O O7 0.806777 0.782012 0.256902
O O8 0.000000 0.000000 0.500000
O O9 0.500000 0.000000 0.000000
O O10 0.271137 0.184053 0.394856
O O11 0.937546 0.006314 0.016991
O O12 0.782795 0.290113 0.895487
O O13 0.541981 0.706289 0.151182
O O14 0.371455 0.001694 0.005119
O O15 0.052151 0.801455 0.645606
#
# Coordination Sequence:
#
# PCOD9253208 Si02
#       7
#     4   4   4   4   4   4   4
#     4  12  25  44  67  97 133 174 220 272 328 390
#     4  12  25  44  67  97 133 174 220 272 328 390
#     4  12  25  44  69  98 133 174 219 270 329 394
#     4  12  25  44  68  99 133 172 219 273 329 390
#     4  12  25  44  68  97 132 175 220 270 328 393
#     4  12  25  44  68  97 132 175 220 270 328 393
#     4  12  25  44  68  99 133 172 219 273 329 390
#
# _framework density 22.711874999999999
#
# number of rings (size 3 to 8) (size 9 to 14) (size 15 to 20)
#    0.000    0.000    0.000   12.429    0.000    0.000 
#    0.000    4.286    0.000    0.000    0.000    0.000 
#    0.000    0.000    0.000    0.000    0.000    0.000 
#
# Total GULP energy -157085.960417 kJ/mol
# GULP energy per Si atom -5610.212872 kJ/mol
# Density = 2.266018 g / cm^3
# Si number density = 22.711875 Si / 1000 Ang^3
#
#
#
# Elastic Constant Matrix: (Units=GPa)
#
#
# Indices 1 2 3 4 5 6 
#
# 1 121.0196 26.1690 25.4184 0.0000 15.4021 0.0000
# 2 26.1690 82.6102 5.9547 0.0000 27.3613 0.0000
# 3 25.4184 5.9547 118.4828 0.0000 11.1308 0.0000
# 4 0.0000 0.0000 0.0000 39.9289 0.0000 -5.2987
# 5 15.4021 27.3613 11.1308 0.0000 32.9200 0.0000
# 6 0.0000 0.0000 0.0000 -5.2987 0.0000 22.5659
#
#
#
# Elastic Compliance Matrix: (Units=1/GPa)
#
#
# Indices 1 2 3 4 5 6 
#
# 1 0.009346 -0.002181 -0.001709 0.000000 -0.001982 0.000000
# 2 -0.002181 0.017239 0.000880 0.000000 -0.013605 0.000000
# 3 -0.001709 0.000880 0.009043 0.000000 -0.002989 0.000000
# 4 0.000000 0.000000 0.000000 0.025850 0.000000 0.006070
# 5 -0.001982 -0.013605 -0.002989 0.000000 0.043622 0.000000
# 6 0.000000 0.000000 0.000000 0.006070 0.000000 0.045740
#
#
# Mechanical properties :
#
#
# Convention : Reuss Voigt Hill
#
# Bulk Modulus (GPa) = 33.77604 48.57744 41.17674
# Shear Modulus (GPa) = 29.98862 36.72099 33.35480
#
# Velocity S-wave (km/s) = 3.63766 4.02533 3.83640
# Velocity P-wave (km/s) = 5.70502 6.56044 6.14763
#
# Compressibility (1/GPa) = 0.02960679
#
# Stress axis : x y z
#
# Youngs Moduli (GPa) = 106.99796 58.00965 110.57883
#
# Poissons Ratio (x) = 0.12651 0.18900
# Poissons Ratio (y) = 0.23335 -0.09726
# Poissons Ratio (z) = 0.18288 -0.05102
#
# Static dielectric constant tensor:
#      x y z
#    x 1.829710 0.000000 -0.006990 
#    y 0.000000 1.851390 0.000000 
#    z -0.006990 0.000000 1.778340 
# 
# From -- ./inp_files/80905.got.cif
#   From: 2010.05.17/outbox.cif.g08.bks.cpg/sg14_41_cif.got.tgz:80905.got - 2010.06.03 17:49:19.
