data_PCOD9253252
_publ_section_title
;
Structure prediction by ZEFSAII (Michael W. Deem and Ramdas Pophale) SiO2 
 PCOD9253252
Probable space group: P 21/C
;
_chemical_formula_sum "Si O2"
_cell_formula_units_Z 20
_cell_length_a 15.375658
_cell_length_b 7.896661
_cell_length_c 16.682866
_cell_angle_alpha 90.000000
_cell_angle_beta 157.256922
_cell_angle_gamma 90.000000
_cell_volume 783.085543
_symmetry_space_group_name_H-M "P 21/C"
_symmetry_group_IT_number 14
_symmetry_cell_setting 'monoclinic'
loop_
_space_group_symop_operation_xyz
x,y,z
-x,1/2+y,1/2-z
-x,-y,-z
x,1/2-y,1/2+z
loop_
_atom_site_type_symbol
_atom_site_label
_atom_site_fract_x
_atom_site_fract_y
_atom_site_fract_z
Si Si1 0.763545 0.750708 0.133177
Si Si2 0.269879 0.594533 0.833803
Si Si3 0.474605 0.502794 0.291074
Si Si4 0.101539 0.315722 0.069745
Si Si5 0.773903 0.225168 0.547055
O O1 0.792134 0.548416 0.153516
O O2 0.799889 0.773357 0.259184
O O3 0.969850 0.811725 0.255115
O O4 0.545823 0.853299 0.917192
O O5 0.291640 0.747541 0.915096
O O6 0.080690 0.671160 0.612737
O O7 0.500000 0.500000 0.000000
O O8 0.294731 0.362178 0.169688
O O9 0.693301 0.406513 0.445359
O O10 0.367567 0.596521 0.125774
O O11 0.000000 0.500000 0.000000
#
# Coordination Sequence:
#
# PCOD9253252 Si02
#       5
#     4   4   4   4   4
#     4  12  26  49  76 108 156 198 264 324 395 475
#     4  12  28  48  78 114 157 207 263 326 400 475
#     4  12  27  47  77 111 155 204 260 324 398 471
#     4  12  25  48  77 110 153 206 261 326 398 475
#     4  12  28  45  78 109 155 199 260 321 395 471
#
# _framework density 25.539995999999999
#
# number of rings (size 3 to 8) (size 9 to 14) (size 15 to 20)
#    0.000    0.000    2.000    7.200   11.200    0.000 
#    0.000    0.000    0.000    0.000    0.000    0.000 
#    0.000    0.000    0.000    0.000    0.000    0.000 
#
# Total GULP energy -111518.258247 kJ/mol
# GULP energy per Si atom -5575.912912 kJ/mol
# Density = 2.548187 g / cm^3
# Si number density = 25.539996 Si / 1000 Ang^3
#
#
#
# Elastic Constant Matrix: (Units=GPa)
#
#
# Indices 1 2 3 4 5 6 
#
# 1 117.7915 19.2029 72.4819 0.0000 2.1177 0.0000
# 2 19.2029 75.2184 54.0634 0.0000 3.6669 0.0000
# 3 72.4819 54.0634 131.8335 0.0000 -13.3393 0.0000
# 4 0.0000 0.0000 0.0000 73.0092 0.0000 4.0964
# 5 2.1177 3.6669 -13.3393 0.0000 56.2387 0.0000
# 6 0.0000 0.0000 0.0000 4.0964 0.0000 43.3085
#
#
#
# Elastic Compliance Matrix: (Units=1/GPa)
#
#
# Indices 1 2 3 4 5 6 
#
# 1 0.013610 0.003195 -0.009084 0.000000 -0.002875 0.000000
# 2 0.003195 0.020157 -0.010418 0.000000 -0.003906 0.000000
# 3 -0.009084 -0.010418 0.017372 0.000000 0.005142 0.000000
# 4 0.000000 0.000000 0.000000 0.013770 0.000000 -0.001302
# 5 -0.002875 -0.003906 0.005142 0.000000 0.019364 0.000000
# 6 0.000000 0.000000 0.000000 -0.001302 0.000000 0.023213
#
#
# Mechanical properties :
#
#
# Convention : Reuss Voigt Hill
#
# Bulk Modulus (GPa) = 53.98000 68.48220 61.23110
# Shear Modulus (GPa) = 34.18196 46.45097 40.31647
#
# Velocity S-wave (km/s) = 3.66234 4.26931 3.97742
# Velocity P-wave (km/s) = 6.25020 7.15364 6.71713
#
# Compressibility (1/GPa) = 0.01852538
#
# Stress axis : x y z
#
# Youngs Moduli (GPa) = 73.47473 49.60981 57.56353
#
# Poissons Ratio (x) = -0.15848 0.52290
# Poissons Ratio (y) = -0.23472 0.59969
# Poissons Ratio (z) = 0.66743 0.51683
#
# Static dielectric constant tensor:
#      x y z
#    x 2.162120 0.000000 -0.008510 
#    y 0.000000 1.661090 0.000000 
#    z -0.008510 0.000000 2.073390 
# 
# From -- ./inp_files/60387.got.cif
#   From: 2010.05.17/outbox.cif.g08.bks.cpg/sg14_31_cif.got.tgz:60387.got - 2010.06.03 17:49:19.
