data_PCOD9253966
_publ_section_title
;
Structure prediction by ZEFSAII (Michael W. Deem and Ramdas Pophale) SiO2 
 PCOD9253966
Probable space group: C 2/C
;
_chemical_formula_sum "Si O2"
_cell_formula_units_Z 40
_cell_length_a 24.970940
_cell_length_b 7.168563
_cell_length_c 18.761716
_cell_angle_alpha 90.000000
_cell_angle_beta 30.823698
_cell_angle_gamma 90.000000
_cell_volume 1720.866026
_symmetry_space_group_name_H-M "C 2/C"
_symmetry_group_IT_number 15
_symmetry_cell_setting 'monoclinic'
loop_
_space_group_symop_operation_xyz
x,y,z
-x,y,1/2-z
-x,-y,-z
x,-y,1/2+z
1/2+x,1/2+y,z
1/2-x,1/2+y,1/2-z
1/2-x,1/2-y,-z
1/2+x,1/2-y,1/2+z
loop_
_atom_site_type_symbol
_atom_site_label
_atom_site_fract_x
_atom_site_fract_y
_atom_site_fract_z
Si Si1 0.923718 0.927182 0.776438
Si Si2 0.983858 0.367532 0.687329
Si Si3 0.755417 0.421183 0.936790
Si Si4 0.190372 0.311229 0.380821
Si Si5 0.109840 0.080471 0.344053
O O1 0.912401 0.850324 0.710322
O O2 0.000000 0.850324 0.750000
O O3 0.963621 0.141726 0.713740
O O4 0.813217 0.930571 0.943253
O O5 0.087351 0.418237 0.526012
O O6 0.000000 0.422774 0.750000
O O7 0.876104 0.453398 0.784295
O O8 0.702357 0.356998 0.924161
O O9 0.750000 0.250000 0.000000
O O10 0.159057 0.234778 0.339754
O O11 0.298555 0.423323 0.262161
O O12 0.000000 0.000000 0.500000
#
# Coordination Sequence:
#
# PCOD9253966 Si02
#       5
#     8   8   8   8   8
#     4  10  16  31  58  87 109 150 193 252 286 341
#     4  10  15  28  54  86 107 136 194 257 283 320
#     4  10  15  29  54  83 110 138 203 250 281 320
#     4  12  21  35  57  90 121 156 191 244 303 357
#     4  12  23  38  58  87 126 158 194 241 305 357
#
# _framework density 23.244109000000002
#
# number of rings (size 3 to 8) (size 9 to 14) (size 15 to 20)
#    0.000    1.200   12.000    0.000    0.000    0.000 
#    0.000    4.000    0.000    4.800    0.000    2.800 
#    0.000    0.000    0.000    0.000    0.000    0.000 
#
# Total GULP energy -111735.534208 kJ/mol
# GULP energy per Si atom -5586.776710 kJ/mol
# Density = 2.319120 g / cm^3
# Si number density = 23.244109 Si / 1000 Ang^3
#
#
#
# Elastic Constant Matrix: (Units=GPa)
#
#
# Indices 1 2 3 4 5 6 
#
# 1 214.5353 28.6340 70.5147 -0.0002 12.1815 0.0004
# 2 28.6340 65.6782 33.0403 0.0028 1.1414 0.0000
# 3 70.5147 33.0403 195.3126 -0.0002 -27.9043 0.0004
# 4 -0.0002 0.0028 -0.0002 -1.7091 0.0005 -1.7904
# 5 12.1815 1.1414 -27.9043 0.0005 50.4413 -0.0008
# 6 0.0004 0.0000 0.0004 -1.7904 -0.0008 -10.4206
#
#
#
# Elastic Compliance Matrix: (Units=1/GPa)
#
#
# Indices 1 2 3 4 5 6 
#
# 1 0.005709 -0.001337 -0.002202 -0.000005 -0.002566 0.000001
# 2 -0.001337 0.017162 -0.002639 0.000035 -0.001525 -0.000006
# 3 -0.002202 -0.002639 0.006999 -0.000004 0.004463 0.000000
# 4 -0.000005 0.000035 -0.000004 -0.713528 0.000007 0.122593
# 5 -0.002566 -0.001525 0.004463 0.000007 0.022948 -0.000003
# 6 0.000001 -0.000006 0.000000 0.122593 -0.000003 -0.117027
#
#
# Mechanical properties :
#
#
# Convention : Reuss Voigt Hill
#
# Bulk Modulus (GPa) = 57.08987 82.21158 69.65073
# Shear Modulus (GPa) = -6.58290 30.55146 11.98428
#
# Velocity S-wave (km/s) = -1.68470 3.62936 2.27311
# Velocity P-wave (km/s) = 4.56399 7.28070 6.07613
#
# Compressibility (1/GPa) = 0.01751624
#
# Stress axis : x y z
#
# Youngs Moduli (GPa) = 175.16029 58.26675 142.87938
#
# Poissons Ratio (x) = 0.07789 0.31458
# Poissons Ratio (y) = 0.23416 0.37700
# Poissons Ratio (z) = 0.38565 0.15374
#
# Static dielectric constant tensor:
#      x y z
#    x 1.880160 0.000000 -0.039820 
#    y 0.000000 1.981630 0.000000 
#    z -0.039820 0.000000 1.893570 
# 
# From -- ./inp_files/218754.got.cif
#   From: 2010.05.17/outbox.cif.g08.bks.cpg/sg15_110_cif.got.tgz:218754.got - 2010.06.03 18:47:42.
