data_PCOD9253293
_publ_section_title
;
Structure prediction by ZEFSAII (Michael W. Deem and Ramdas Pophale) SiO2 
 PCOD9253293
Probable space group: P 21/C
;
_chemical_formula_sum "Si O2"
_cell_formula_units_Z 20
_cell_length_a 6.577564
_cell_length_b 14.703242
_cell_length_c 9.566896
_cell_angle_alpha 90.000000
_cell_angle_beta 78.953480
_cell_angle_gamma 90.000000
_cell_volume 908.086307
_symmetry_space_group_name_H-M "P 21/C"
_symmetry_group_IT_number 14
_symmetry_cell_setting 'monoclinic'
loop_
_space_group_symop_operation_xyz
x,y,z
-x,1/2+y,1/2-z
-x,-y,-z
x,1/2-y,1/2+z
loop_
_atom_site_type_symbol
_atom_site_label
_atom_site_fract_x
_atom_site_fract_y
_atom_site_fract_z
Si Si1 0.742192 0.683092 0.760418
Si Si2 0.034835 0.975110 0.333873
Si Si3 0.674583 0.256302 0.568200
Si Si4 0.426781 0.580346 0.610201
Si Si5 0.085861 0.828743 0.694419
O O1 0.559748 0.724930 0.878341
O O2 0.622628 0.630593 0.653139
O O3 0.882343 0.768028 0.697388
O O4 0.887674 0.609205 0.815243
O O5 0.267310 0.952827 0.250811
O O6 0.966230 0.067598 0.263060
O O7 0.000000 0.000000 0.500000
O O8 0.687147 0.345334 0.470341
O O9 0.781444 0.281727 0.700099
O O10 0.788278 0.178215 0.466270
O O11 0.500000 0.500000 0.500000
#
# Coordination Sequence:
#
# PCOD9253293 Si02
#       5
#     4   4   4   4   4
#     4  12  26  48  75 107 155 200 249 317 377 447
#     4  12  28  48  76 115 156 199 257 317 386 455
#     4  12  26  47  73 112 148 203 255 305 385 458
#     4  12  27  47  76 114 148 202 263 312 381 458
#     4  12  27  46  77 107 154 199 252 313 381 455
#
# _framework density 22.024339999999999
#
# number of rings (size 3 to 8) (size 9 to 14) (size 15 to 20)
#    0.000    0.000    4.000    4.800    8.400    6.400 
#    0.000    0.000    0.000    0.000    0.000    0.000 
#    0.000    0.000    0.000    0.000    0.000    0.000 
#
# Total GULP energy -112014.535950 kJ/mol
# GULP energy per Si atom -5600.726798 kJ/mol
# Density = 2.197421 g / cm^3
# Si number density = 22.024340 Si / 1000 Ang^3
#
#
#
# Elastic Constant Matrix: (Units=GPa)
#
#
# Indices 1 2 3 4 5 6 
#
# 1 92.3504 8.1965 38.2228 0.0000 -21.4114 0.0000
# 2 8.1965 86.7791 17.0569 0.0000 -10.9138 0.0000
# 3 38.2228 17.0569 112.5000 0.0000 -11.5021 0.0000
# 4 0.0000 0.0000 0.0000 38.4917 0.0000 -6.2953
# 5 -21.4114 -10.9138 -11.5021 0.0000 42.3801 0.0000
# 6 0.0000 0.0000 0.0000 -6.2953 0.0000 43.0202
#
#
#
# Elastic Compliance Matrix: (Units=1/GPa)
#
#
# Indices 1 2 3 4 5 6 
#
# 1 0.013908 0.000253 -0.004154 0.000000 0.005964 0.000000
# 2 0.000253 0.012177 -0.001644 0.000000 0.002817 0.000000
# 3 -0.004154 -0.001644 0.010585 0.000000 0.000351 0.000000
# 4 0.000000 0.000000 0.000000 0.026617 0.000000 0.003895
# 5 0.005964 0.002817 0.000351 0.000000 0.027430 0.000000
# 6 0.000000 0.000000 0.000000 0.003895 0.000000 0.023815
#
#
# Mechanical properties :
#
#
# Convention : Reuss Voigt Hill
#
# Bulk Modulus (GPa) = 39.09265 46.50911 42.80088
# Shear Modulus (GPa) = 37.27200 39.98862 38.63031
#
# Velocity S-wave (km/s) = 4.11823 4.26567 4.19260
# Velocity P-wave (km/s) = 6.35621 6.73975 6.55079
#
# Compressibility (1/GPa) = 0.02558026
#
# Stress axis : x y z
#
# Youngs Moduli (GPa) = 71.90128 82.12121 94.47011
#
# Poissons Ratio (x) = -0.02077 0.39242
# Poissons Ratio (y) = -0.01819 0.15532
# Poissons Ratio (z) = 0.29867 0.13502
#
# Static dielectric constant tensor:
#      x y z
#    x 1.816280 0.000000 -0.002800 
#    y 0.000000 1.829070 0.000000 
#    z -0.002800 0.000000 1.805990 
# 
# From -- ./inp_files/5468.got.cif
#   From: 2010.05.17/outbox.cif.g08.bks.cpg/sg14_3_cif.got.tgz:5468.got - 2010.06.03 17:49:19.
