data_PCOD9253020
_publ_section_title
;
Structure prediction by ZEFSAII (Michael W. Deem and Ramdas Pophale) SiO2 
 PCOD9253020
Probable space group: P 21/C
;
_chemical_formula_sum "Si O2"
_cell_formula_units_Z 24
_cell_length_a 7.366570
_cell_length_b 11.136395
_cell_length_c 12.999539
_cell_angle_alpha 90.000000
_cell_angle_beta 97.411377
_cell_angle_gamma 90.000000
_cell_volume 1057.534084
_symmetry_space_group_name_H-M "P 21/C"
_symmetry_group_IT_number 14
_symmetry_cell_setting 'monoclinic'
loop_
_space_group_symop_operation_xyz
x,y,z
-x,1/2+y,1/2-z
-x,-y,-z
x,1/2-y,1/2+z
loop_
_atom_site_type_symbol
_atom_site_label
_atom_site_fract_x
_atom_site_fract_y
_atom_site_fract_z
Si Si1 0.255690 0.962829 0.286490
Si Si2 0.478099 0.907612 0.846219
Si Si3 0.737294 0.269370 0.839311
Si Si4 0.099819 0.143049 0.428765
Si Si5 0.613554 0.650395 0.882210
Si Si6 0.360024 0.156364 0.860286
O O1 0.345870 0.040317 0.201375
O O2 0.118950 0.040877 0.343435
O O3 0.190167 0.841187 0.226440
O O4 0.430106 0.929444 0.371557
O O5 0.335529 0.865616 0.748104
O O6 0.547969 0.786242 0.904255
O O7 0.383513 0.018744 0.897552
O O8 0.557086 0.221598 0.883092
O O9 0.890055 0.320830 0.925137
O O10 0.217677 0.109318 0.536916
O O11 0.204096 0.261729 0.395209
O O12 0.666158 0.651950 0.765647
#
# Coordination Sequence:
#
# PCOD9253020 Si02
#       6
#     4   4   4   4   4   4
#     4   9  18  38  57  75 115 147 170 226 276 309
#     4   8  16  39  58  68 117 146 173 221 277 318
#     4   9  20  34  55  84 105 142 188 215 262 336
#     4  12  20  33  62  80 108 144 181 225 273 309
#     4   9  19  35  57  84 104 143 185 221 262 334
#     4   9  20  39  55  73 113 150 169 227 279 304
#
# _framework density 22.694306000000001
#
# number of rings (size 3 to 8) (size 9 to 14) (size 15 to 20)
#    0.000    3.333    3.333    0.500    2.333    0.667 
#    0.000   11.667    0.000    0.000    0.000    0.000 
#    0.000    0.000    0.000    0.000    0.000    0.000 
#
# Total GULP energy -134032.981274 kJ/mol
# GULP energy per Si atom -5584.707553 kJ/mol
# Density = 2.264265 g / cm^3
# Si number density = 22.694306 Si / 1000 Ang^3
#
#
#
# Elastic Constant Matrix: (Units=GPa)
#
#
# Indices 1 2 3 4 5 6 
#
# 1 47.4809 1.6606 16.7202 0.0000 19.4259 0.0000
# 2 1.6606 91.4172 -3.8478 0.0000 -5.5938 0.0000
# 3 16.7202 -3.8478 65.8449 0.0000 10.9393 0.0000
# 4 0.0000 0.0000 0.0000 6.0534 0.0000 -8.7482
# 5 19.4259 -5.5938 10.9393 0.0000 29.4726 0.0000
# 6 0.0000 0.0000 0.0000 -8.7482 0.0000 14.2016
#
#
#
# Elastic Compliance Matrix: (Units=1/GPa)
#
#
# Indices 1 2 3 4 5 6 
#
# 1 0.030429 -0.001894 -0.004738 0.000000 -0.018657 0.000000
# 2 -0.001894 0.011191 0.000612 0.000000 0.003145 0.000000
# 3 -0.004738 0.000612 0.016932 0.000000 -0.003046 0.000000
# 4 0.000000 0.000000 0.000000 1.504939 0.000000 0.927047
# 5 -0.018657 0.003145 -0.003046 0.000000 0.047954 0.000000
# 6 0.000000 0.000000 0.000000 0.927047 0.000000 0.641479
#
#
# Mechanical properties :
#
#
# Convention : Reuss Voigt Hill
#
# Bulk Modulus (GPa) = 21.49899 25.97878 23.73888
# Shear Modulus (GPa) = 2.19253 22.62619 12.40936
#
# Velocity S-wave (km/s) = 0.98398 3.16095 2.34092
# Velocity P-wave (km/s) = 3.28402 4.97939 4.21777
#
# Compressibility (1/GPa) = 0.04651382
#
# Stress axis : x y z
#
# Youngs Moduli (GPa) = 32.86342 89.35369 59.05939
#
# Poissons Ratio (x) = 0.16922 0.27982
# Poissons Ratio (y) = 0.06224 -0.03617
# Poissons Ratio (z) = 0.15571 -0.05472
#
# Static dielectric constant tensor:
#      x y z
#    x 1.778870 0.000000 0.006030 
#    y 0.000000 1.881230 0.000000 
#    z 0.006030 0.000000 1.889460 
# 
# From -- ./inp_files/39824.got.cif
#   From: 2010.05.17/outbox.cif.g08.bks.cpg/sg14_20_cif.got.tgz:39824.got - 2010.06.03 17:49:19.
