data_PCOD9253635
_publ_section_title
;
Structure prediction by ZEFSAII (Michael W. Deem and Ramdas Pophale) SiO2 
 PCOD9253635
Probable space group: P 21/C
;
_chemical_formula_sum "Si O2"
_cell_formula_units_Z 28
_cell_length_a 15.000000
_cell_length_b 9.000000
_cell_length_c 15.000000
_cell_angle_alpha 90.000000
_cell_angle_beta 40.000000
_cell_angle_gamma 90.000000
_cell_volume 1301.644910
_symmetry_space_group_name_H-M "P 21/C"
_symmetry_group_IT_number 14
_symmetry_cell_setting 'monoclinic'
loop_
_space_group_symop_operation_xyz
x,y,z
-x,1/2+y,1/2-z
-x,-y,-z
x,1/2-y,1/2+z
loop_
_atom_site_type_symbol
_atom_site_label
_atom_site_fract_x
_atom_site_fract_y
_atom_site_fract_z
Si Si1 0.790815 0.114634 0.658509
Si Si2 0.541491 0.890855 0.806964
Si Si3 0.938945 0.719654 0.351469
Si Si4 0.606032 0.858091 0.409409
Si Si5 0.967740 0.534803 0.161059
Si Si6 0.628508 0.815144 0.081281
Si Si7 0.134335 0.938397 0.841940
O O1 0.831258 0.032197 0.719597
O O2 0.784207 0.293356 0.678377
O O3 0.668526 0.011784 0.713136
O O4 0.925200 0.093302 0.493876
O O5 0.554608 0.771482 0.878981
O O6 0.543293 0.784273 0.718460
O O7 0.417423 0.013024 0.898833
O O8 0.940272 0.665570 0.249703
O O9 0.784037 0.683623 0.502530
O O10 0.964418 0.893789 0.342224
O O11 0.058335 0.632507 0.313576
O O12 0.621968 0.775017 0.492702
O O13 0.500000 0.000000 0.500000
O O14 0.752297 0.933592 0.265789
O O15 0.000000 0.000000 0.000000
#
# Coordination Sequence:
#
# PCOD9253635 Si02
#       7
#     4   4   4   4   4   4   4
#     4  10  23  43  69  98 141 186 233 285 367 424
#     4  12  26  49  74 102 148 193 243 305 366 438
#     4  11  23  41  64 104 138 175 235 292 347 427
#     4  12  27  49  74 107 147 192 250 302 365 449
#     4  10  22  40  66 100 136 179 225 289 353 422
#     4  12  26  45  72 105 143 194 243 300 367 436
#     4  11  26  43  73 106 145 191 236 300 365 434
#
# _framework density 21.511243
#
# number of rings (size 3 to 8) (size 9 to 14) (size 15 to 20)
#    0.000    0.857    1.429    4.714    8.000    3.429 
#    0.000    0.000    0.000    0.000    0.000    0.000 
#    0.000    0.000    0.000    0.000    0.000    0.000 
#
# Total GULP energy -156475.853158 kJ/mol
# GULP energy per Si atom -5588.423327 kJ/mol
# Density = 2.146228 g / cm^3
# Si number density = 21.511243 Si / 1000 Ang^3
#
#
#
# Elastic Constant Matrix: (Units=GPa)
#
#
# Indices 1 2 3 4 5 6 
#
# 1 60.7601 51.0210 23.1401 0.0000 9.4747 0.0000
# 2 51.0210 151.6200 35.1087 0.0000 10.7242 0.0000
# 3 23.1401 35.1087 68.5586 0.0000 5.6199 0.0000
# 4 0.0000 0.0000 0.0000 53.5344 0.0000 2.1215
# 5 9.4747 10.7242 5.6199 0.0000 44.1065 0.0000
# 6 0.0000 0.0000 0.0000 2.1215 0.0000 52.3359
#
#
#
# Elastic Compliance Matrix: (Units=1/GPa)
#
#
# Indices 1 2 3 4 5 6 
#
# 1 0.024496 -0.007004 -0.004436 0.000000 -0.002994 0.000000
# 2 -0.007004 0.009565 -0.002493 0.000000 -0.000503 0.000000
# 3 -0.004436 -0.002493 0.017414 0.000000 -0.000660 0.000000
# 4 0.000000 0.000000 0.000000 0.018710 0.000000 -0.000758
# 5 -0.002994 -0.000503 -0.000660 0.000000 0.023522 0.000000
# 6 0.000000 0.000000 0.000000 -0.000758 0.000000 0.019138
#
#
# Mechanical properties :
#
#
# Convention : Reuss Voigt Hill
#
# Bulk Modulus (GPa) = 42.35607 55.49758 48.92683
# Shear Modulus (GPa) = 33.65190 41.43995 37.54593
#
# Velocity S-wave (km/s) = 3.95952 4.39388 4.18234
# Velocity P-wave (km/s) = 6.37469 7.18310 6.79093
#
# Compressibility (1/GPa) = 0.02360937
#
# Stress axis : x y z
#
# Youngs Moduli (GPa) = 40.82343 104.54513 57.42523
#
# Poissons Ratio (x) = 0.73224 0.25472
# Poissons Ratio (y) = 0.28593 0.14316
# Poissons Ratio (z) = 0.18108 0.26063
#
# Static dielectric constant tensor:
#      x y z
#    x 1.824330 0.000000 -0.010210 
#    y 0.000000 1.735670 0.000000 
#    z -0.010210 0.000000 1.825230 
# 
# From -- ./inp_files/46713.got.cif
#   From: 2010.05.17/outbox.ucp.g08.bks.cvg/sg14_24_cif.got.tgz:46713.got - 2010.06.11 12:31:08.
