data_PCOD9253103
_publ_section_title
;
Structure prediction by ZEFSAII (Michael W. Deem and Ramdas Pophale) SiO2 
 PCOD9253103
Probable space group: P 21/C
;
_chemical_formula_sum "Si O2"
_cell_formula_units_Z 22
_cell_length_a 12.045145
_cell_length_b 4.963111
_cell_length_c 27.680327
_cell_angle_alpha 90.000000
_cell_angle_beta 147.881507
_cell_angle_gamma 90.000000
_cell_volume 879.794015
_symmetry_space_group_name_H-M "P 21/C"
_symmetry_group_IT_number 14
_symmetry_cell_setting 'monoclinic'
loop_
_space_group_symop_operation_xyz
x,y,z
-x,1/2+y,1/2-z
-x,-y,-z
x,1/2-y,1/2+z
loop_
_atom_site_type_symbol
_atom_site_label
_atom_site_fract_x
_atom_site_fract_y
_atom_site_fract_z
Si Si1 0.572253 0.364126 0.940715
Si Si2 0.390454 0.860631 0.828549
Si Si3 0.964446 0.799887 0.202595
Si Si4 0.500000 0.500000 0.500000
Si Si5 0.411651 0.399558 0.700367
Si Si6 0.982774 0.245728 0.529644
O O1 0.499547 0.674274 0.910101
O O2 0.407626 0.167462 0.852347
O O3 0.588887 0.250279 0.999978
O O4 0.784162 0.301281 0.989739
O O5 0.530391 0.823311 0.832911
O O6 0.154008 0.763741 0.735300
O O7 0.954336 0.531577 0.231281
O O8 0.744846 0.889128 0.099985
O O9 0.424727 0.719749 0.709371
O O10 0.192667 0.284939 0.637624
O O11 0.000000 0.500000 0.500000
O O12 0.000000 0.000000 0.500000
#
# Coordination Sequence:
#
# PCOD9253103 Si02
#       6
#     4   4   4   2   4   4
#     4  12  25  46  74 105 144 200 249 314 375 460
#     4  12  24  49  70 101 149 193 244 313 395 438
#     4  12  26  49  73 105 147 196 250 318 376 444
#     4  12  28  48  76 112 152 202 274 302 390 474
#     4  12  26  43  68 106 143 187 247 310 376 459
#     4  12  23  46  71 100 140 193 248 303 384 452
#
# _framework density 25.005853999999999
#
# number of rings (size 3 to 8) (size 9 to 14) (size 15 to 20)
#    0.000    0.000    7.273    2.182    2.545    2.909 
#    0.000    0.000    0.000    0.000    0.000    0.000 
#    0.000    0.000    0.000    0.000    0.000    0.000 
#
# Total GULP energy -122712.241905 kJ/mol
# GULP energy per Si atom -5577.829177 kJ/mol
# Density = 2.494894 g / cm^3
# Si number density = 25.005854 Si / 1000 Ang^3
#
#
#
# Elastic Constant Matrix: (Units=GPa)
#
#
# Indices 1 2 3 4 5 6 
#
# 1 89.6947 -1.6732 7.1252 0.0000 29.3404 0.0000
# 2 -1.6732 99.9736 -6.1771 0.0000 4.3087 0.0000
# 3 7.1252 -6.1771 99.0966 0.0000 37.8829 0.0000
# 4 0.0000 0.0000 0.0000 32.8299 0.0000 4.6539
# 5 29.3404 4.3087 37.8829 0.0000 48.2908 0.0000
# 6 0.0000 0.0000 0.0000 4.6539 0.0000 27.7134
#
#
#
# Elastic Compliance Matrix: (Units=1/GPa)
#
#
# Indices 1 2 3 4 5 6 
#
# 1 0.014749 0.000973 0.003512 0.000000 -0.011803 0.000000
# 2 0.000973 0.010240 0.001633 0.000000 -0.002786 0.000000
# 3 0.003512 0.001633 0.015443 0.000000 -0.014395 0.000000
# 4 0.000000 0.000000 0.000000 0.031203 0.000000 -0.005240
# 5 -0.011803 -0.002786 -0.014395 0.000000 0.039420 0.000000
# 6 0.000000 0.000000 0.000000 -0.005240 0.000000 0.036964
#
#
# Mechanical properties :
#
#
# Convention : Reuss Voigt Hill
#
# Bulk Modulus (GPa) = 18.98656 31.92384 25.45520
# Shear Modulus (GPa) = 32.60764 41.06618 36.83691
#
# Velocity S-wave (km/s) = 3.61501 4.05688 3.84230
# Velocity P-wave (km/s) = 5.00337 5.89395 5.46683
#
# Compressibility (1/GPa) = 0.05266882
#
# Stress axis : x y z
#
# Youngs Moduli (GPa) = 67.80074 97.65718 64.75332
#
# Poissons Ratio (x) = -0.09498 -0.22744
# Poissons Ratio (y) = -0.06594 -0.10577
# Poissons Ratio (z) = -0.23814 -0.15951
#
# Static dielectric constant tensor:
#      x y z
#    x 2.008290 0.000000 -0.081420 
#    y 0.000000 1.733070 0.000000 
#    z -0.081420 0.000000 2.177050 
# 
# From -- ./inp_files/79847.got.cif
#   From: 2010.05.17/outbox.cif.g08.bks.cpg/sg14_40_cif.got.tgz:79847.got - 2010.06.03 17:49:19.
