data_PCOD9253507
_publ_section_title
;
Structure prediction by ZEFSAII (Michael W. Deem and Ramdas Pophale) SiO2 
 PCOD9253507
Probable space group: P 21/C
;
_chemical_formula_sum "Si O2"
_cell_formula_units_Z 32
_cell_length_a 15.000000
_cell_length_b 9.000000
_cell_length_c 24.000000
_cell_angle_alpha 90.000000
_cell_angle_beta 150.000000
_cell_angle_gamma 90.000000
_cell_volume 1620.000000
_symmetry_space_group_name_H-M "P 21/C"
_symmetry_group_IT_number 14
_symmetry_cell_setting 'monoclinic'
loop_
_space_group_symop_operation_xyz
x,y,z
-x,1/2+y,1/2-z
-x,-y,-z
x,1/2-y,1/2+z
loop_
_atom_site_type_symbol
_atom_site_label
_atom_site_fract_x
_atom_site_fract_y
_atom_site_fract_z
Si Si1 0.244711 0.530501 0.562843
Si Si2 0.964664 0.410774 0.145905
Si Si3 0.308763 0.913401 0.403109
Si Si4 0.667402 0.426243 0.626402
Si Si5 0.092126 0.077149 0.192174
Si Si6 0.646045 0.485320 0.257316
Si Si7 0.389164 0.630267 0.273320
Si Si8 0.261729 0.611891 0.082181
O O1 0.232462 0.494121 0.621763
O O2 0.415553 0.435898 0.635549
O O3 0.273918 0.709680 0.578413
O O4 0.073069 0.503889 0.431108
O O5 0.786946 0.422212 0.088205
O O6 0.132039 0.499410 0.265021
O O7 0.031992 0.240593 0.178183
O O8 0.896142 0.446484 0.044827
O O9 0.328121 0.741755 0.394962
O O10 0.500000 0.000000 0.500000
O O11 0.164527 0.986333 0.283550
O O12 0.500000 0.500000 0.500000
O O13 0.639357 0.424337 0.678613
O O14 0.258837 0.075828 0.240019
O O15 0.627746 0.309792 0.234036
O O16 0.448392 0.542489 0.163280
O O17 0.264239 0.586600 0.151419
#
# Coordination Sequence:
#
# PCOD9253507 Si02
#       8
#     4   4   4   4   4   4   4   4
#     4   9  21  37  66  94 131 170 215 275 324 400
#     4  11  26  43  67  98 131 174 220 272 334 396
#     4  12  26  47  69  93 129 175 222 277 333 396
#     4  12  28  44  68  99 134 176 222 276 326 398
#     4  11  22  41  65  93 129 172 216 276 328 397
#     4  10  19  40  63  98 129 172 219 265 338 390
#     4  10  22  41  64  98 132 172 222 268 333 386
#     4   9  21  41  68  94 133 173 217 274 329 398
#
# _framework density 19.753086
#
# number of rings (size 3 to 8) (size 9 to 14) (size 15 to 20)
#    0.000    1.500    1.250    2.625    7.000    1.500 
#    0.000    0.000    0.000    0.000    0.000    0.000 
#    0.000    0.000    0.000    0.000    0.000    0.000 
#
# Total GULP energy -178459.084986 kJ/mol
# GULP energy per Si atom -5576.846406 kJ/mol
# Density = 1.970813 g / cm^3
# Si number density = 19.753086 Si / 1000 Ang^3
#
#
#
# Elastic Constant Matrix: (Units=GPa)
#
#
# Indices 1 2 3 4 5 6 
#
# 1 123.3629 28.1056 28.9337 0.0000 -10.9096 0.0000
# 2 28.1056 66.3208 44.4295 0.0000 -1.2853 0.0000
# 3 28.9337 44.4295 165.2791 0.0000 -20.8214 0.0000
# 4 0.0000 0.0000 0.0000 39.9568 0.0000 2.3211
# 5 -10.9096 -1.2853 -20.8214 0.0000 37.1663 0.0000
# 6 0.0000 0.0000 0.0000 2.3211 0.0000 31.1451
#
#
#
# Elastic Compliance Matrix: (Units=1/GPa)
#
#
# Indices 1 2 3 4 5 6 
#
# 1 0.009226 -0.003639 -0.000335 0.000000 0.002394 0.000000
# 2 -0.003639 0.020009 -0.005153 0.000000 -0.003263 0.000000
# 3 -0.000335 -0.005153 0.008026 0.000000 0.004220 0.000000
# 4 0.000000 0.000000 0.000000 0.025136 0.000000 -0.001873
# 5 0.002394 -0.003263 0.004220 0.000000 0.029860 0.000000
# 6 0.000000 0.000000 0.000000 -0.001873 0.000000 0.032247
#
#
# Mechanical properties :
#
#
# Convention : Reuss Voigt Hill
#
# Bulk Modulus (GPa) = 52.61241 61.98893 57.30067
# Shear Modulus (GPa) = 33.53627 38.55324 36.04475
#
# Velocity S-wave (km/s) = 4.12487 4.42266 4.27636
# Velocity P-wave (km/s) = 7.02702 7.58485 7.31126
#
# Compressibility (1/GPa) = 0.01900692
#
# Stress axis : x y z
#
# Youngs Moduli (GPa) = 108.39490 49.97778 124.59849
#
# Poissons Ratio (x) = 0.18185 0.04177
# Poissons Ratio (y) = 0.39441 0.64203
# Poissons Ratio (z) = 0.03634 0.25752
#
# Static dielectric constant tensor:
#      x y z
#    x 1.748570 0.000000 -0.018900 
#    y 0.000000 1.676420 0.000000 
#    z -0.018900 0.000000 1.698080 
# 
# From -- ./inp_files/73769.got.cif
#   From: 2010.05.17/outbox.ucp.g08.bks.cvg/sg14_37_cif.got.tgz:73769.got - 2010.06.11 12:31:08.
