data_PCOD9253654
_publ_section_title
;
Structure prediction by ZEFSAII (Michael W. Deem and Ramdas Pophale) SiO2 
 PCOD9253654
Probable space group: P 21/C
;
_chemical_formula_sum "Si O2"
_cell_formula_units_Z 32
_cell_length_a 24.000000
_cell_length_b 12.000000
_cell_length_c 18.000000
_cell_angle_alpha 90.000000
_cell_angle_beta 20.000000
_cell_angle_gamma 90.000000
_cell_volume 1773.032423
_symmetry_space_group_name_H-M "P 21/C"
_symmetry_group_IT_number 14
_symmetry_cell_setting 'monoclinic'
loop_
_space_group_symop_operation_xyz
x,y,z
-x,1/2+y,1/2-z
-x,-y,-z
x,1/2-y,1/2+z
loop_
_atom_site_type_symbol
_atom_site_label
_atom_site_fract_x
_atom_site_fract_y
_atom_site_fract_z
Si Si1 0.425616 0.780046 0.651999
Si Si2 0.861004 0.933698 0.461255
Si Si3 0.501776 0.093804 0.157418
Si Si4 0.712913 0.901030 0.810189
Si Si5 0.057133 0.706002 0.146859
Si Si6 0.931295 0.738522 0.639302
Si Si7 0.373733 0.065854 0.484823
Si Si8 0.309823 0.817837 0.629224
O O1 0.561265 0.681160 0.478287
O O2 0.512258 0.872310 0.596217
O O3 0.379352 0.821989 0.626988
O O4 0.250163 0.737259 0.903331
O O5 0.681715 0.918186 0.647461
O O6 0.814048 0.933325 0.608577
O O7 0.967099 0.816247 0.305770
O O8 0.935244 0.063562 0.348930
O O9 0.468340 0.071847 0.287070
O O10 0.588301 0.215040 0.035886
O O11 0.624025 0.004409 0.964161
O O12 0.837157 0.833508 0.709008
O O13 0.972981 0.720540 0.171144
O O14 0.112827 0.707104 0.379674
O O15 0.798634 0.635778 0.805895
O O16 0.339681 0.937555 0.552005
#
# Coordination Sequence:
#
# PCOD9253654 Si02
#       8
#     4   4   4   4   4   4   4   4
#     4  10  22  44  70 101 131 185 231 278 349 421
#     4  12  25  45  71 104 139 185 231 293 352 413
#     4  12  25  42  70 102 135 183 232 290 342 411
#     4  11  23  45  74  95 137 183 237 275 343 426
#     4  11  25  45  71 100 143 177 233 293 349 413
#     4  10  24  45  67 103 135 179 228 291 345 415
#     4  11  25  42  70 101 144 175 228 292 351 413
#     4  11  24  43  69  98 138 182 230 281 354 416
#
# _framework density 18.048175000000001
#
# number of rings (size 3 to 8) (size 9 to 14) (size 15 to 20)
#    0.000    1.000    3.750    2.625    3.500    6.000 
#    9.000    0.000    0.000    0.000    0.000    0.000 
#    0.000    0.000    0.000    0.000    0.000    0.000 
#
# Total GULP energy -178204.587569 kJ/mol
# GULP energy per Si atom -5568.893362 kJ/mol
# Density = 1.800710 g / cm^3
# Si number density = 18.048175 Si / 1000 Ang^3
#
#
#
# Elastic Constant Matrix: (Units=GPa)
#
#
# Indices 1 2 3 4 5 6 
#
# 1 112.4669 49.0580 53.2780 0.0000 -3.3853 0.0000
# 2 49.0580 168.0857 63.1748 0.0000 6.0335 0.0000
# 3 53.2780 63.1748 131.0851 0.0000 -1.5779 0.0000
# 4 0.0000 0.0000 0.0000 50.1062 0.0000 3.2183
# 5 -3.3853 6.0335 -1.5779 0.0000 47.7749 0.0000
# 6 0.0000 0.0000 0.0000 3.2183 0.0000 34.4840
#
#
#
# Elastic Compliance Matrix: (Units=1/GPa)
#
#
# Indices 1 2 3 4 5 6 
#
# 1 0.011558 -0.002010 -0.003717 0.000000 0.000950 0.000000
# 2 -0.002010 0.007666 -0.002892 0.000000 -0.001206 0.000000
# 3 -0.003717 -0.002892 0.010539 0.000000 0.000450 0.000000
# 4 0.000000 0.000000 0.000000 0.020078 0.000000 -0.001874
# 5 0.000950 -0.001206 0.000450 0.000000 0.021166 0.000000
# 6 0.000000 0.000000 0.000000 -0.001874 0.000000 0.029174
#
#
# Mechanical properties :
#
#
# Convention : Reuss Voigt Hill
#
# Bulk Modulus (GPa) = 79.84976 82.51771 81.18373
# Shear Modulus (GPa) = 41.12009 42.88147 42.00078
#
# Velocity S-wave (km/s) = 4.77839 4.87965 4.82929
# Velocity P-wave (km/s) = 8.64769 8.80728 8.72785
#
# Compressibility (1/GPa) = 0.01252352
#
# Stress axis : x y z
#
# Youngs Moduli (GPa) = 86.52036 130.43939 94.88776
#
# Poissons Ratio (x) = 0.26222 0.35273
# Poissons Ratio (y) = 0.17393 0.27443
# Poissons Ratio (z) = 0.32162 0.37725
#
# Static dielectric constant tensor:
#      x y z
#    x 1.639140 0.000000 0.017920 
#    y 0.000000 1.681060 0.000000 
#    z 0.017920 0.000000 1.624960 
# 
# From -- ./inp_files/61996.got.cif
#   From: 2010.05.17/outbox.ucp.g08.bks.cvg/sg14_31_cif.got.tgz:61996.got - 2010.06.11 12:31:08.
