data_PCOD9253156
_publ_section_title
;
Structure prediction by ZEFSAII (Michael W. Deem and Ramdas Pophale) SiO2 
 PCOD9253156
Probable space group: P 21/C
;
_chemical_formula_sum "Si O2"
_cell_formula_units_Z 16
_cell_length_a 5.331998
_cell_length_b 5.136449
_cell_length_c 23.054679
_cell_angle_alpha 90.000000
_cell_angle_beta 107.405222
_cell_angle_gamma 90.000000
_cell_volume 602.500482
_symmetry_space_group_name_H-M "P 21/C"
_symmetry_group_IT_number 14
_symmetry_cell_setting 'monoclinic'
loop_
_space_group_symop_operation_xyz
x,y,z
-x,1/2+y,1/2-z
-x,-y,-z
x,1/2-y,1/2+z
loop_
_atom_site_type_symbol
_atom_site_label
_atom_site_fract_x
_atom_site_fract_y
_atom_site_fract_z
Si Si1 0.372025 0.562667 0.712067
Si Si2 0.929830 0.881833 0.643650
Si Si3 0.758421 0.666733 0.507764
Si Si4 0.411301 0.184392 0.623800
O O1 0.459067 0.303305 0.752023
O O2 0.428707 0.481948 0.648466
O O3 0.068616 0.658037 0.691851
O O4 0.837289 0.776289 0.575118
O O5 0.691016 0.048774 0.652073
O O6 0.172761 0.067402 0.643919
O O7 0.500000 0.500000 0.500000
O O8 0.674991 0.851701 0.448856
O O9 0.000000 0.500000 0.500000
#
# Coordination Sequence:
#
# PCOD9253156 Si02
#       4
#     4   4   4   4
#     4  12  28  57  82 121 164 228 284 346 408 492
#     4  12  27  52  81 118 165 214 272 342 419 496
#     4  12  24  44  82 121 163 207 265 341 423 502
#     4  12  27  52  81 118 165 214 272 342 419 496
#
# _framework density 26.555996
#
# number of rings (size 3 to 8) (size 9 to 14) (size 15 to 20)
#    0.000    0.000    5.000    4.500    0.000    0.000 
#    9.000    0.000    0.000    0.000    0.000    0.000 
#    0.000    0.000    0.000    0.000    0.000    0.000 
#
# Total GULP energy -89723.222377 kJ/mol
# GULP energy per Si atom -5607.701399 kJ/mol
# Density = 2.649555 g / cm^3
# Si number density = 26.555996 Si / 1000 Ang^3
#
#
#
# Elastic Constant Matrix: (Units=GPa)
#
#
# Indices 1 2 3 4 5 6 
#
# 1 223.7678 72.8628 27.9076 0.0000 29.9908 0.0000
# 2 72.8628 129.3157 42.2779 0.0000 27.5133 0.0000
# 3 27.9076 42.2779 144.5282 0.0000 42.0071 0.0000
# 4 0.0000 0.0000 0.0000 76.3903 0.0000 3.8124
# 5 29.9908 27.5133 42.0071 0.0000 50.2935 0.0000
# 6 0.0000 0.0000 0.0000 3.8124 0.0000 58.6637
#
#
#
# Elastic Compliance Matrix: (Units=1/GPa)
#
#
# Indices 1 2 3 4 5 6 
#
# 1 0.005632 -0.002842 0.000354 0.000000 -0.002099 0.000000
# 2 -0.002842 0.010455 -0.001769 0.000000 -0.002547 0.000000
# 3 0.000354 -0.001769 0.009440 0.000000 -0.007128 0.000000
# 4 0.000000 0.000000 0.000000 0.013133 0.000000 -0.000853
# 5 -0.002099 -0.002547 -0.007128 0.000000 0.028482 0.000000
# 6 0.000000 0.000000 0.000000 -0.000853 0.000000 0.017102
#
#
# Mechanical properties :
#
#
# Convention : Reuss Voigt Hill
#
# Bulk Modulus (GPa) = 58.78387 87.07871 72.93129
# Shear Modulus (GPa) = 50.79837 60.70706 55.75271
#
# Velocity S-wave (km/s) = 4.37839 4.78640 4.58694
# Velocity P-wave (km/s) = 6.90972 7.96291 7.45494
#
# Compressibility (1/GPa) = 0.01701147
#
# Stress axis : x y z
#
# Youngs Moduli (GPa) = 177.56989 95.65026 105.93264
#
# Poissons Ratio (x) = 0.27186 -0.03751
# Poissons Ratio (y) = 0.50470 0.18742
# Poissons Ratio (z) = -0.06288 0.16923
#
# Static dielectric constant tensor:
#      x y z
#    x 1.988560 0.000000 -0.030090 
#    y 0.000000 2.192520 0.000000 
#    z -0.030090 0.000000 2.222620 
# 
# From -- ./inp_files/70756.got.cif
#   From: 2010.05.17/outbox.cif.g08.bks.cpg/sg14_36_cif.got.tgz:70756.got - 2010.06.03 17:49:19.
