data_PCOD9253490
_publ_section_title
;
Structure prediction by ZEFSAII (Michael W. Deem and Ramdas Pophale) SiO2 
 PCOD9253490
Probable space group: P 21/C
;
_chemical_formula_sum "Si O2"
_cell_formula_units_Z 32
_cell_length_a 15.000000
_cell_length_b 12.000000
_cell_length_c 18.000000
_cell_angle_alpha 90.000000
_cell_angle_beta 150.000000
_cell_angle_gamma 90.000000
_cell_volume 1620.000000
_symmetry_space_group_name_H-M "P 21/C"
_symmetry_group_IT_number 14
_symmetry_cell_setting 'monoclinic'
loop_
_space_group_symop_operation_xyz
x,y,z
-x,1/2+y,1/2-z
-x,-y,-z
x,1/2-y,1/2+z
loop_
_atom_site_type_symbol
_atom_site_label
_atom_site_fract_x
_atom_site_fract_y
_atom_site_fract_z
Si Si1 0.390127 0.211953 0.591873
Si Si2 0.386018 0.393913 0.935814
Si Si3 0.012780 0.439678 0.589929
Si Si4 0.973331 0.721402 0.970698
Si Si5 0.964235 0.663921 0.626526
Si Si6 0.681850 0.386440 0.745848
Si Si7 0.585828 0.868670 0.220604
Si Si8 0.330581 0.780021 0.919106
O O1 0.360831 0.121616 0.505713
O O2 0.559580 0.286775 0.690487
O O3 0.412107 0.161611 0.690390
O O4 0.211133 0.286845 0.462307
O O5 0.209604 0.412712 0.761199
O O6 0.500000 0.500000 0.000000
O O7 0.506086 0.292687 0.994400
O O8 0.942608 0.531519 0.597319
O O9 0.000000 0.500000 0.500000
O O10 0.947803 0.314038 0.528977
O O11 0.768382 0.682773 0.815655
O O12 0.975950 0.781384 0.052996
O O13 0.117458 0.624112 0.078444
O O14 0.151283 0.705228 0.797126
O O15 0.598728 0.500992 0.712865
O O16 0.695052 0.370806 0.665627
O O17 0.407447 0.825562 0.051573
#
# Coordination Sequence:
#
# PCOD9253490 Si02
#       8
#     4   4   4   4   4   4   4   4
#     4  10  25  41  55  89 134 155 205 261 313 367
#     4  11  21  40  64  90 122 164 210 256 305 375
#     4  10  19  35  65  95 113 156 209 254 311 373
#     4   9  19  36  63  89 115 154 212 250 301 377
#     4   9  19  39  57  86 129 156 190 267 317 357
#     4  10  22  40  59  87 121 163 206 259 303 375
#     4  11  21  40  62  89 121 166 203 259 314 371
#     4  10  20  38  64  88 117 161 213 253 305 377
#
# _framework density 19.753086
#
# number of rings (size 3 to 8) (size 9 to 14) (size 15 to 20)
#    0.000    2.000    2.500    0.750    1.750    2.000 
#    4.500    0.000    0.000    0.000    0.000    0.000 
#    0.000    0.000    0.000    0.000    0.000    0.000 
#
# Total GULP energy -178260.095897 kJ/mol
# GULP energy per Si atom -5570.627997 kJ/mol
# Density = 1.970813 g / cm^3
# Si number density = 19.753086 Si / 1000 Ang^3
#
#
#
# Elastic Constant Matrix: (Units=GPa)
#
#
# Indices 1 2 3 4 5 6 
#
# 1 63.7337 21.3651 35.9027 0.0000 -3.2502 0.0000
# 2 21.3651 71.0966 33.8202 0.0000 -19.8302 0.0000
# 3 35.9027 33.8202 125.2821 0.0000 -15.2463 0.0000
# 4 0.0000 0.0000 0.0000 23.9487 0.0000 -4.5118
# 5 -3.2502 -19.8302 -15.2463 0.0000 21.8972 0.0000
# 6 0.0000 0.0000 0.0000 -4.5118 0.0000 26.2566
#
#
#
# Elastic Compliance Matrix: (Units=1/GPa)
#
#
# Indices 1 2 3 4 5 6 
#
# 1 0.019917 -0.005035 -0.004964 0.000000 -0.005060 0.000000
# 2 -0.005035 0.021416 -0.002261 0.000000 0.017073 0.000000
# 3 -0.004964 -0.002261 0.010572 0.000000 0.004577 0.000000
# 4 0.000000 0.000000 0.000000 0.043153 0.000000 0.007415
# 5 -0.005060 0.017073 0.004577 0.000000 0.063565 0.000000
# 6 0.000000 0.000000 0.000000 0.007415 0.000000 0.039360
#
#
# Mechanical properties :
#
#
# Convention : Reuss Voigt Hill
#
# Bulk Modulus (GPa) = 36.51688 49.14317 42.83002
# Shear Modulus (GPa) = 21.58623 25.68879 23.63751
#
# Velocity S-wave (km/s) = 3.30934 3.61015 3.46301
# Velocity P-wave (km/s) = 5.75579 6.50464 6.14164
#
# Compressibility (1/GPa) = 0.02738460
#
# Stress axis : x y z
#
# Youngs Moduli (GPa) = 50.20960 46.69467 94.59110
#
# Poissons Ratio (x) = 0.23510 0.46956
# Poissons Ratio (y) = 0.25280 0.21384
# Poissons Ratio (z) = 0.24925 0.10556
#
# Static dielectric constant tensor:
#      x y z
#    x 1.672220 0.000000 -0.003620 
#    y 0.000000 1.731170 0.000000 
#    z -0.003620 0.000000 1.658620 
# 
# From -- ./inp_files/59502.got.cif
#   From: 2010.05.17/outbox.ucp.g08.bks.cvg/sg14_30_cif.got.tgz:59502.got - 2010.06.11 12:31:08.
