data_PCOD9253228
_publ_section_title
;
Structure prediction by ZEFSAII (Michael W. Deem and Ramdas Pophale) SiO2 
 PCOD9253228
Probable space group: P 21/C
;
_chemical_formula_sum "Si O2"
_cell_formula_units_Z 16
_cell_length_a 5.134727
_cell_length_b 28.877645
_cell_length_c 4.750389
_cell_angle_alpha 90.000000
_cell_angle_beta 59.826140
_cell_angle_gamma 90.000000
_cell_volume 608.941280
_symmetry_space_group_name_H-M "P 21/C"
_symmetry_group_IT_number 14
_symmetry_cell_setting 'monoclinic'
loop_
_space_group_symop_operation_xyz
x,y,z
-x,1/2+y,1/2-z
-x,-y,-z
x,1/2-y,1/2+z
loop_
_atom_site_type_symbol
_atom_site_label
_atom_site_fract_x
_atom_site_fract_y
_atom_site_fract_z
Si Si1 0.747670 0.342260 0.715909
Si Si2 0.281639 0.403322 0.298257
Si Si3 0.287773 0.031952 0.299808
Si Si4 0.697665 0.717343 0.415736
O O1 0.265525 0.421182 0.626310
O O2 0.556684 0.313970 0.589951
O O3 0.953293 0.380261 0.440998
O O4 0.525513 0.366704 0.058264
O O5 0.986652 0.310128 0.753752
O O6 0.356128 0.448159 0.069374
O O7 0.000000 0.000000 0.500000
O O8 0.500000 0.000000 0.000000
O O9 0.681366 0.764430 0.242836
#
# Coordination Sequence:
#
# PCOD9253228 Si02
#       4
#     4   4   4   4
#     4  12  28  51  78 115 155 204 257 317 382 455
#     4  12  27  47  76 111 152 200 252 313 378 451
#     4  12  25  46  74 110 150 198 250 310 376 450
#     4  12  28  50  78 112 153 202 255 316 382 454
#
# _framework density 26.275110999999999
#
# number of rings (size 3 to 8) (size 9 to 14) (size 15 to 20)
#    0.000    0.000    0.000    9.000    0.000   14.000 
#    0.000    0.000    0.000    0.000    0.000    0.000 
#    0.000    0.000    0.000    0.000    0.000    0.000 
#
# Total GULP energy -89712.465275 kJ/mol
# GULP energy per Si atom -5607.029080 kJ/mol
# Density = 2.621531 g / cm^3
# Si number density = 26.275111 Si / 1000 Ang^3
#
#
#
# Elastic Constant Matrix: (Units=GPa)
#
#
# Indices 1 2 3 4 5 6 
#
# 1 146.1396 46.1209 47.4438 0.0000 -6.3089 0.0000
# 2 46.1209 115.0136 37.0224 0.0000 -8.0298 0.0000
# 3 47.4438 37.0224 158.8536 0.0000 -10.0694 0.0000
# 4 0.0000 0.0000 0.0000 56.2404 0.0000 -1.5139
# 5 -6.3089 -8.0298 -10.0694 0.0000 59.6735 0.0000
# 6 0.0000 0.0000 0.0000 -1.5139 0.0000 55.1926
#
#
#
# Elastic Compliance Matrix: (Units=1/GPa)
#
#
# Indices 1 2 3 4 5 6 
#
# 1 0.008307 -0.002727 -0.001833 0.000000 0.000202 0.000000
# 2 -0.002727 0.010344 -0.001543 0.000000 0.000843 0.000000
# 3 -0.001833 -0.001543 0.007254 0.000000 0.000823 0.000000
# 4 0.000000 0.000000 0.000000 0.017794 0.000000 0.000488
# 5 0.000202 0.000843 0.000823 0.000000 0.017032 0.000000
# 6 0.000000 0.000000 0.000000 0.000488 0.000000 0.018132
#
#
# Mechanical properties :
#
#
# Convention : Reuss Voigt Hill
#
# Bulk Modulus (GPa) = 72.99332 75.68677 74.34004
# Shear Modulus (GPa) = 52.28266 53.51592 52.89929
#
# Velocity S-wave (km/s) = 4.46558 4.51794 4.49183
# Velocity P-wave (km/s) = 7.37761 7.48891 7.43347
#
# Compressibility (1/GPa) = 0.01369988
#
# Stress axis : x y z
#
# Youngs Moduli (GPa) = 120.37838 96.67715 137.85208
#
# Poissons Ratio (x) = 0.26366 0.25263
# Poissons Ratio (y) = 0.32829 0.21267
# Poissons Ratio (z) = 0.22061 0.14915
#
# Static dielectric constant tensor:
#      x y z
#    x 2.014470 0.000000 -0.007830 
#    y 0.000000 2.142540 0.000000 
#    z -0.007830 0.000000 1.973130 
# 
# From -- ./inp_files/384.got.cif
#   From: 2010.05.17/outbox.cif.g08.bks.cpg/sg14_1_cif.got.tgz:384.got - 2010.06.03 17:49:19.
