data_PCOD9253707
_publ_section_title
;
Structure prediction by ZEFSAII (Michael W. Deem and Ramdas Pophale) SiO2 
 PCOD9253707
Probable space group: P 21/C
;
_chemical_formula_sum "Si O2"
_cell_formula_units_Z 32
_cell_length_a 12.000000
_cell_length_b 18.000000
_cell_length_c 9.000000
_cell_angle_alpha 90.000000
_cell_angle_beta 120.000000
_cell_angle_gamma 90.000000
_cell_volume 1683.553385
_symmetry_space_group_name_H-M "P 21/C"
_symmetry_group_IT_number 14
_symmetry_cell_setting 'monoclinic'
loop_
_space_group_symop_operation_xyz
x,y,z
-x,1/2+y,1/2-z
-x,-y,-z
x,1/2-y,1/2+z
loop_
_atom_site_type_symbol
_atom_site_label
_atom_site_fract_x
_atom_site_fract_y
_atom_site_fract_z
Si Si1 0.476242 0.200125 0.824746
Si Si2 0.536302 0.151002 0.533746
Si Si3 0.188678 0.296251 0.026422
Si Si4 0.497152 0.579346 0.415631
Si Si5 0.984480 0.583801 0.914752
Si Si6 0.207026 0.117889 0.984126
Si Si7 0.729975 0.431613 0.984450
Si Si8 0.736172 0.915235 0.654544
O O1 0.526860 0.182064 0.694139
O O2 0.512433 0.281659 0.904173
O O3 0.320523 0.194720 0.710086
O O4 0.530958 0.141760 0.979392
O O5 0.669003 0.111463 0.583508
O O6 0.417927 0.094071 0.432901
O O7 0.078353 0.348411 0.028798
O O8 0.177686 0.207162 0.987709
O O9 0.217451 0.338882 0.891430
O O10 0.500000 0.500000 0.500000
O O11 0.641864 0.602213 0.456865
O O12 0.383649 0.574031 0.216088
O O13 0.889613 0.584709 0.705865
O O14 0.000000 0.500000 0.000000
O O15 0.133075 0.601347 0.973705
O O16 0.197236 0.079866 0.140622
O O17 0.755918 0.516045 0.056208
#
# Coordination Sequence:
#
# PCOD9253707 Si02
#       8
#     4   4   4   4   4   4   4   4
#     4  11  22  40  72 101 136 176 239 285 344 407
#     4  11  22  40  66 101 137 173 228 294 341 405
#     4  11  21  45  72 105 128 184 241 297 336 419
#     4  12  23  41  68 106 135 184 229 286 357 418
#     4  12  26  49  68 100 148 187 228 296 365 431
#     4  12  24  43  76 101 134 183 250 286 345 431
#     4  12  25  44  63 101 146 182 220 290 365 414
#     4  11  22  39  72 100 133 172 237 288 341 406
#
# _framework density 19.007415999999999
#
# number of rings (size 3 to 8) (size 9 to 14) (size 15 to 20)
#    0.000    0.500    5.000    5.625    1.750    0.500 
#    4.500    0.000    0.000    0.000    0.000    0.000 
#    0.000    0.000    0.000    0.000    0.000    0.000 
#
# Total GULP energy -178688.193945 kJ/mol
# GULP energy per Si atom -5584.006061 kJ/mol
# Density = 1.896415 g / cm^3
# Si number density = 19.007416 Si / 1000 Ang^3
#
#
#
# Elastic Constant Matrix: (Units=GPa)
#
#
# Indices 1 2 3 4 5 6 
#
# 1 123.1375 35.4911 32.4745 0.0000 10.8321 0.0000
# 2 35.4911 110.9417 31.3586 0.0000 3.2906 0.0000
# 3 32.4745 31.3586 144.6354 0.0000 1.7331 0.0000
# 4 0.0000 0.0000 0.0000 33.8381 0.0000 -7.0694
# 5 10.8321 3.2906 1.7331 0.0000 25.3425 0.0000
# 6 0.0000 0.0000 0.0000 -7.0694 0.0000 36.9830
#
#
#
# Elastic Compliance Matrix: (Units=1/GPa)
#
#
# Indices 1 2 3 4 5 6 
#
# 1 0.009580 -0.002515 -0.001562 0.000000 -0.003661 0.000000
# 2 -0.002515 0.010293 -0.001665 0.000000 -0.000148 0.000000
# 3 -0.001562 -0.001665 0.007621 0.000000 0.000363 0.000000
# 4 0.000000 0.000000 0.000000 0.030782 0.000000 0.005884
# 5 -0.003661 -0.000148 0.000363 0.000000 0.041019 0.000000
# 6 0.000000 0.000000 0.000000 0.005884 0.000000 0.028164
#
#
# Mechanical properties :
#
#
# Convention : Reuss Voigt Hill
#
# Bulk Modulus (GPa) = 62.45770 64.15145 63.30458
# Shear Modulus (GPa) = 34.65492 37.85872 36.25682
#
# Velocity S-wave (km/s) = 4.27456 4.46779 4.37224
# Velocity P-wave (km/s) = 7.56925 7.77424 7.67243
#
# Compressibility (1/GPa) = 0.01601084
#
# Stress axis : x y z
#
# Youngs Moduli (GPa) = 104.38699 97.15071 131.21060
#
# Poissons Ratio (x) = 0.24429 0.20493
# Poissons Ratio (y) = 0.26249 0.21851
# Poissons Ratio (z) = 0.16304 0.16179
#
# Static dielectric constant tensor:
#      x y z
#    x 1.692120 0.000000 -0.049990 
#    y 0.000000 1.685520 0.000000 
#    z -0.049990 0.000000 1.666150 
# 
# From -- ./inp_files/13902.got.cif
#   From: 2010.05.17/outbox.ucp.g08.bks.cvg/sg14_7_cif.got.tgz:13902.got - 2010.06.11 12:31:08.
