data_PCOD9253790
_publ_section_title
;
Structure prediction by ZEFSAII (Michael W. Deem and Ramdas Pophale) SiO2 
 PCOD9253790
Probable space group: C 2/C
;
_chemical_formula_sum "Si O2"
_cell_formula_units_Z 64
_cell_length_a 14.021258
_cell_length_b 11.658062
_cell_length_c 20.302141
_cell_angle_alpha 90.000000
_cell_angle_beta 123.222302
_cell_angle_gamma 90.000000
_cell_volume 2776.180269
_symmetry_space_group_name_H-M "C 2/C"
_symmetry_group_IT_number 15
_symmetry_cell_setting 'monoclinic'
loop_
_space_group_symop_operation_xyz
x,y,z
-x,y,1/2-z
-x,-y,-z
x,-y,1/2+z
1/2+x,1/2+y,z
1/2-x,1/2+y,1/2-z
1/2-x,1/2-y,-z
1/2+x,1/2-y,1/2+z
loop_
_atom_site_type_symbol
_atom_site_label
_atom_site_fract_x
_atom_site_fract_y
_atom_site_fract_z
Si Si1 0.879382 0.765006 0.168143
Si Si2 0.158640 0.091141 0.663153
Si Si3 0.171111 0.978385 0.900394
Si Si4 0.169287 0.295868 0.181483
Si Si5 0.455878 0.770978 0.558802
Si Si6 0.622516 0.031960 0.102295
Si Si7 0.875318 0.954548 0.971571
Si Si8 0.137931 0.097571 0.253687
O O1 0.861069 0.896167 0.138631
O O2 0.774335 0.747137 0.177720
O O3 0.888979 0.702452 0.101182
O O4 0.000000 0.748110 0.250000
O O5 0.271568 0.149034 0.732243
O O6 0.065618 0.188174 0.612375
O O7 0.190646 0.006327 0.615525
O O8 0.106384 0.019882 0.704701
O O9 0.305528 0.964029 0.937798
O O10 0.111858 0.897743 0.822107
O O11 0.150423 0.982016 0.969526
O O12 0.109149 0.400574 0.120965
O O13 0.099861 0.193278 0.187557
O O14 0.512404 0.889002 0.557087
O O15 0.381048 0.683237 0.485765
O O16 0.721504 0.085745 0.188680
O O17 0.000000 0.000000 0.000000
#
# Coordination Sequence:
#
# PCOD9253790 Si02
#       8
#     8   8   8   8   8   8   8   8
#     4  10  14  23  46  71  95 117 160 219 252 289
#     4  10  16  29  44  72 101 123 160 216 258 298
#     4   8  16  28  42  69  98 133 162 206 259 311
#     4  10  17  28  46  77 100 126 168 215 263 303
#     4  10  16  29  47  73 100 128 166 211 265 303
#     4   8  16  28  47  69  99 132 168 210 255 310
#     4   9  19  28  45  72 105 131 167 212 264 306
#     4   9  16  28  47  68 101 129 165 205 262 308
#
# _framework density 23.053258
#
# number of rings (size 3 to 8) (size 9 to 14) (size 15 to 20)
#    0.750    2.000    3.750    0.000    0.000    0.000 
#    0.000    5.625    0.000    7.500    0.000   41.125 
#    0.000    0.000    0.000    0.125    0.000    0.000 
#
# Total GULP energy -178350.610270 kJ/mol
# GULP energy per Si atom -5573.456571 kJ/mol
# Density = 2.300079 g / cm^3
# Si number density = 23.053258 Si / 1000 Ang^3
#
#
#
# Elastic Constant Matrix: (Units=GPa)
#
#
# Indices 1 2 3 4 5 6 
#
# 1 85.8606 44.1846 48.4815 0.0000 -28.3900 0.0000
# 2 44.1846 81.3670 20.6803 0.0000 -9.9884 0.0000
# 3 48.4815 20.6803 107.6758 0.0000 -16.3090 0.0000
# 4 0.0000 0.0000 0.0000 28.4672 0.0000 -3.4408
# 5 -28.3900 -9.9884 -16.3090 0.0000 45.3702 0.0000
# 6 0.0000 0.0000 0.0000 -3.4408 0.0000 31.0474
#
#
#
# Elastic Compliance Matrix: (Units=1/GPa)
#
#
# Indices 1 2 3 4 5 6 
#
# 1 0.024574 -0.010148 -0.007535 0.000000 0.010434 0.000000
# 2 -0.010148 0.017297 0.000912 0.000000 -0.002214 0.000000
# 3 -0.007535 0.000912 0.012502 0.000000 -0.000020 0.000000
# 4 0.000000 0.000000 0.000000 0.035605 0.000000 0.003946
# 5 0.010434 -0.002214 -0.000020 0.000000 0.028075 0.000000
# 6 0.000000 0.000000 0.000000 0.003946 0.000000 0.032646
#
#
# Mechanical properties :
#
#
# Convention : Reuss Voigt Hill
#
# Bulk Modulus (GPa) = 48.00844 55.73289 51.87067
# Shear Modulus (GPa) = 26.15257 31.74743 28.95000
#
# Velocity S-wave (km/s) = 3.37180 3.71500 3.54755
# Velocity P-wave (km/s) = 6.00241 6.52915 6.27132
#
# Compressibility (1/GPa) = 0.02082967
#
# Stress axis : x y z
#
# Youngs Moduli (GPa) = 40.69338 57.81252 79.98965
#
# Poissons Ratio (x) = 0.58671 0.60272
# Poissons Ratio (y) = 0.41297 -0.07294
# Poissons Ratio (z) = 0.30663 -0.05271
#
# Static dielectric constant tensor:
#      x y z
#    x 1.923750 0.000000 0.019990 
#    y 0.000000 2.044960 0.000000 
#    z 0.019990 0.000000 1.939350 
# 
# From -- ./inp_files/210976.got.cif
#   From: 2010.05.17/outbox.cif.g08.bks.cpg/sg15_106_cif.got.tgz:210976.got - 2010.06.03 18:47:42.
