data_PCOD9253145
_publ_section_title
;
Structure prediction by ZEFSAII (Michael W. Deem and Ramdas Pophale) SiO2 
 PCOD9253145
Probable space group: P 21/C
;
_chemical_formula_sum "Si O2"
_cell_formula_units_Z 28
_cell_length_a 20.813661
_cell_length_b 8.965020
_cell_length_c 24.870475
_cell_angle_alpha 90.000000
_cell_angle_beta 164.999665
_cell_angle_gamma 90.000000
_cell_volume 1201.128651
_symmetry_space_group_name_H-M "P 21/C"
_symmetry_group_IT_number 14
_symmetry_cell_setting 'monoclinic'
loop_
_space_group_symop_operation_xyz
x,y,z
-x,1/2+y,1/2-z
-x,-y,-z
x,1/2-y,1/2+z
loop_
_atom_site_type_symbol
_atom_site_label
_atom_site_fract_x
_atom_site_fract_y
_atom_site_fract_z
Si Si1 0.011809 0.074545 0.724367
Si Si2 0.311668 0.682969 0.429875
Si Si3 0.343397 0.168645 0.507165
Si Si4 0.886943 0.047819 0.965309
Si Si5 0.629491 0.662952 0.098277
Si Si6 0.389758 0.681053 0.619165
Si Si7 0.823023 0.637784 0.513784
O O1 0.848836 0.956720 0.627157
O O2 0.167984 0.973676 0.809652
O O3 0.217546 0.174901 0.922517
O O4 0.821135 0.191903 0.545187
O O5 0.490782 0.723033 0.525801
O O6 0.427819 0.681449 0.584438
O O7 0.094622 0.806946 0.251906
O O8 0.363502 0.187630 0.459384
O O9 0.379609 0.230413 0.657480
O O10 0.618482 0.122813 0.745735
O O11 0.088754 0.154575 0.154703
O O12 0.869963 0.903325 0.988595
O O13 0.000000 0.000000 0.000000
O O14 0.500000 0.500000 0.000000
O O15 0.288198 0.521332 0.556087
#
# Coordination Sequence:
#
# PCOD9253145 Si02
#       7
#     4   4   4   4   4   4   4
#     4  12  26  45  79 103 154 198 250 324 392 430
#     4  12  26  47  75 108 150 197 253 319 377 457
#     4  12  27  49  72 113 151 199 259 318 375 461
#     4  12  24  43  73 108 147 197 254 303 368 468
#     4  12  24  45  76 105 146 203 252 300 391 462
#     4  12  25  43  70 110 149 189 250 317 373 453
#     4  12  26  43  72 109 147 194 249 305 384 448
#
# _framework density 23.311408
#
# number of rings (size 3 to 8) (size 9 to 14) (size 15 to 20)
#    0.000    0.000    5.714    4.286    0.000    0.571 
#    0.000    2.143    0.000    0.000    0.000    0.000 
#    0.000    0.000    0.000    0.000    0.000    0.000 
#
# Total GULP energy -156677.526644 kJ/mol
# GULP energy per Si atom -5595.625952 kJ/mol
# Density = 2.325835 g / cm^3
# Si number density = 23.311408 Si / 1000 Ang^3
#
#
#
# Elastic Constant Matrix: (Units=GPa)
#
#
# Indices 1 2 3 4 5 6 
#
# 1 94.6572 32.6740 20.4790 0.0000 13.9448 0.0000
# 2 32.6740 129.7768 35.5537 0.0000 13.9566 0.0000
# 3 20.4790 35.5537 137.4326 0.0000 5.2154 0.0000
# 4 0.0000 0.0000 0.0000 41.3611 0.0000 0.5402
# 5 13.9448 13.9566 5.2154 0.0000 41.2105 0.0000
# 6 0.0000 0.0000 0.0000 0.5402 0.0000 40.4272
#
#
#
# Elastic Compliance Matrix: (Units=1/GPa)
#
#
# Indices 1 2 3 4 5 6 
#
# 1 0.012090 -0.002417 -0.001057 0.000000 -0.003139 0.000000
# 2 -0.002417 0.009052 -0.001905 0.000000 -0.002007 0.000000
# 3 -0.001057 -0.001905 0.007927 0.000000 0.000000 0.000000
# 4 0.000000 0.000000 0.000000 0.024182 0.000000 -0.000323
# 5 -0.003139 -0.002007 0.000000 0.000000 0.026007 0.000000
# 6 0.000000 0.000000 0.000000 -0.000323 0.000000 0.024740
#
#
# Mechanical properties :
#
#
# Convention : Reuss Voigt Hill
#
# Bulk Modulus (GPa) = 54.61589 59.92001 57.26795
# Shear Modulus (GPa) = 41.37049 42.81043 42.09046
#
# Velocity S-wave (km/s) = 4.21728 4.29004 4.25381
# Velocity P-wave (km/s) = 6.86976 7.09220 6.98186
#
# Compressibility (1/GPa) = 0.01830969
#
# Stress axis : x y z
#
# Youngs Moduli (GPa) = 82.71473 110.47534 126.15485
#
# Poissons Ratio (x) = 0.26698 0.13337
# Poissons Ratio (y) = 0.19989 0.24038
# Poissons Ratio (z) = 0.08745 0.21050
#
# Static dielectric constant tensor:
#      x y z
#    x 2.378290 0.000000 -0.227660 
#    y 0.000000 1.941940 0.000000 
#    z -0.227660 0.000000 1.965580 
# 
# From -- ./inp_files/69314.got.cif
#   From: 2010.05.17/outbox.cif.g08.bks.cpg/sg14_35_cif.got.tgz:69314.got - 2010.06.03 17:49:19.
