data_PCOD9253741
_publ_section_title
;
Structure prediction by ZEFSAII (Michael W. Deem and Ramdas Pophale) SiO2 
 PCOD9253741
Probable space group: P 21/C
;
_chemical_formula_sum "Si O2"
_cell_formula_units_Z 32
_cell_length_a 18.000000
_cell_length_b 12.000000
_cell_length_c 15.000000
_cell_angle_alpha 90.000000
_cell_angle_beta 150.000000
_cell_angle_gamma 90.000000
_cell_volume 1620.000000
_symmetry_space_group_name_H-M "P 21/C"
_symmetry_group_IT_number 14
_symmetry_cell_setting 'monoclinic'
loop_
_space_group_symop_operation_xyz
x,y,z
-x,1/2+y,1/2-z
-x,-y,-z
x,1/2-y,1/2+z
loop_
_atom_site_type_symbol
_atom_site_label
_atom_site_fract_x
_atom_site_fract_y
_atom_site_fract_z
Si Si1 0.571764 0.896696 0.130738
Si Si2 0.079314 0.503567 0.179810
Si Si3 0.714815 0.282374 0.600301
Si Si4 0.352662 0.759236 0.678794
Si Si5 0.844189 0.568852 0.241779
Si Si6 0.303885 0.194075 0.911590
Si Si7 0.811705 0.391305 0.348795
Si Si8 0.210724 0.510875 0.011562
O O1 0.682566 0.836944 0.178403
O O2 0.658015 0.936791 0.308457
O O3 0.442420 0.811218 0.018838
O O4 0.500000 0.000000 0.000000
O O5 0.187367 0.607717 0.292161
O O6 0.184905 0.399617 0.318490
O O7 0.000000 0.500000 0.000000
O O8 0.947316 0.521312 0.112314
O O9 0.679418 0.261502 0.459288
O O10 0.796946 0.192985 0.749020
O O11 0.296225 0.659481 0.685942
O O12 0.249463 0.866610 0.589440
O O13 0.525209 0.796883 0.874264
O O14 0.766664 0.686572 0.147730
O O15 0.782536 0.508316 0.267138
O O16 0.020888 0.592647 0.438832
O O17 0.804238 0.499101 0.110696
#
# Coordination Sequence:
#
# PCOD9253741 Si02
#       8
#     4   4   4   4   4   4   4   4
#     4  12  21  42  69  98 136 175 224 284 333 394
#     4  12  23  39  71 103 130 173 229 285 338 397
#     4  12  23  43  69 100 132 179 227 276 343 396
#     4  12  24  43  70 100 135 179 228 277 339 409
#     4  11  26  46  65  98 143 180 223 277 342 412
#     4  12  24  42  67 102 136 177 222 281 338 404
#     4  11  24  47  68  93 141 183 219 279 341 401
#     4  12  23  43  68 102 136 174 229 281 337 405
#
# _framework density 19.753086
#
# number of rings (size 3 to 8) (size 9 to 14) (size 15 to 20)
#    0.000    0.250    6.250    3.750    0.000    0.500 
#    0.000    3.750    0.000    0.000    0.000    0.000 
#    0.000    0.000    0.000    0.000    0.000    0.000 
#
# Total GULP energy -178577.603586 kJ/mol
# GULP energy per Si atom -5580.550112 kJ/mol
# Density = 1.970813 g / cm^3
# Si number density = 19.753086 Si / 1000 Ang^3
#
#
#
# Elastic Constant Matrix: (Units=GPa)
#
#
# Indices 1 2 3 4 5 6 
#
# 1 36.9191 -7.5558 13.8207 0.0000 -18.0923 0.0000
# 2 -7.5558 66.0128 21.2212 0.0000 0.2575 0.0000
# 3 13.8207 21.2212 126.1846 0.0000 -19.0916 0.0000
# 4 0.0000 0.0000 0.0000 29.8722 0.0000 -1.2342
# 5 -18.0923 0.2575 -19.0916 0.0000 39.6000 0.0000
# 6 0.0000 0.0000 0.0000 -1.2342 0.0000 36.4483
#
#
#
# Elastic Compliance Matrix: (Units=1/GPa)
#
#
# Indices 1 2 3 4 5 6 
#
# 1 0.036625 0.004934 -0.002497 0.000000 0.015497 0.000000
# 2 0.004934 0.016764 -0.003274 0.000000 0.000567 0.000000
# 3 -0.002497 -0.003274 0.009255 0.000000 0.003342 0.000000
# 4 0.000000 0.000000 0.000000 0.033523 0.000000 0.001135
# 5 0.015497 0.000567 0.003342 0.000000 0.033941 0.000000
# 6 0.000000 0.000000 0.000000 0.001135 0.000000 0.027475
#
#
# Mechanical properties :
#
#
# Convention : Reuss Voigt Hill
#
# Bulk Modulus (GPa) = 16.40122 31.56541 23.98331
# Shear Modulus (GPa) = 27.84313 34.62615 31.23464
#
# Velocity S-wave (km/s) = 3.75848 4.19137 3.98081
# Velocity P-wave (km/s) = 5.21115 6.27997 5.77036
#
# Compressibility (1/GPa) = 0.06097107
#
# Stress axis : x y z
#
# Youngs Moduli (GPa) = 27.30359 59.65311 108.05400
#
# Poissons Ratio (x) = -0.29434 0.26976
# Poissons Ratio (y) = -0.13472 0.35376
# Poissons Ratio (z) = 0.06816 0.19530
#
# Static dielectric constant tensor:
#      x y z
#    x 1.727160 0.000000 -0.004990 
#    y 0.000000 1.729570 0.000000 
#    z -0.004990 0.000000 1.675680 
# 
# From -- ./inp_files/49039.got.cif
#   From: 2010.05.17/outbox.ucp.g08.bks.cvg/sg14_25_cif.got.tgz:49039.got - 2010.06.11 12:31:08.
