data_PCOD9253195
_publ_section_title
;
Structure prediction by ZEFSAII (Michael W. Deem and Ramdas Pophale) SiO2 
 PCOD9253195
Probable space group: P 21/C
;
_chemical_formula_sum "Si O2"
_cell_formula_units_Z 18
_cell_length_a 12.089186
_cell_length_b 7.799398
_cell_length_c 9.367249
_cell_angle_alpha 90.000000
_cell_angle_beta 47.143011
_cell_angle_gamma 90.000000
_cell_volume 647.449644
_symmetry_space_group_name_H-M "P 21/C"
_symmetry_group_IT_number 14
_symmetry_cell_setting 'monoclinic'
loop_
_space_group_symop_operation_xyz
x,y,z
-x,1/2+y,1/2-z
-x,-y,-z
x,1/2-y,1/2+z
loop_
_atom_site_type_symbol
_atom_site_label
_atom_site_fract_x
_atom_site_fract_y
_atom_site_fract_z
Si Si1 0.008880 0.658049 0.126293
Si Si2 0.500000 0.000000 0.000000
Si Si3 0.261114 0.142933 0.721160
Si Si4 0.237353 0.570086 0.508896
Si Si5 0.292621 0.034631 0.370494
O O1 0.137440 0.760003 0.100452
O O2 0.916484 0.803129 0.122369
O O3 0.881219 0.576418 0.336638
O O4 0.123365 0.511590 0.969665
O O5 0.630750 0.074559 0.995047
O O6 0.585001 0.100791 0.783999
O O7 0.298100 0.095887 0.526570
O O8 0.345660 0.315949 0.707399
O O9 0.286405 0.990734 0.808901
#
# Coordination Sequence:
#
# PCOD9253195 Si02
#       5
#     4   2   4   4   4
#     4  12  25  48  85 115 153 217 274 334 385 495
#     4  12  30  52  72 122 164 214 246 350 410 478
#     4  12  24  49  80 115 150 211 271 339 383 492
#     4  12  27  48  83 116 162 205 276 328 415 469
#     4  12  27  47  82 113 167 204 273 328 414 470
#
# _framework density 27.801390999999999
#
# number of rings (size 3 to 8) (size 9 to 14) (size 15 to 20)
#    0.000    0.000    6.667    1.333    3.111    4.444 
#    0.000    0.000    0.000    1.333    0.000    0.000 
#    0.000    0.000    0.000    0.000    0.000    0.000 
#
# Total GULP energy -100466.083911 kJ/mol
# GULP energy per Si atom -5581.449106 kJ/mol
# Density = 2.773811 g / cm^3
# Si number density = 27.801391 Si / 1000 Ang^3
#
#
#
# Elastic Constant Matrix: (Units=GPa)
#
#
# Indices 1 2 3 4 5 6 
#
# 1 180.9802 23.8996 80.1053 0.0000 -15.6640 0.0000
# 2 23.8996 69.7918 36.1931 0.0000 8.0505 0.0000
# 3 80.1053 36.1931 187.7034 0.0000 33.8302 0.0000
# 4 0.0000 0.0000 0.0000 18.5315 0.0000 2.9601
# 5 -15.6640 8.0505 33.8302 0.0000 51.3666 0.0000
# 6 0.0000 0.0000 0.0000 2.9601 0.0000 43.9217
#
#
#
# Elastic Compliance Matrix: (Units=1/GPa)
#
#
# Indices 1 2 3 4 5 6 
#
# 1 0.007978 -0.001204 -0.004136 0.000000 0.005345 0.000000
# 2 -0.001204 0.016115 -0.002351 0.000000 -0.001344 0.000000
# 3 -0.004136 -0.002351 0.008745 0.000000 -0.006652 0.000000
# 4 0.000000 0.000000 0.000000 0.054549 0.000000 -0.003676
# 5 0.005345 -0.001344 -0.006652 0.000000 0.025690 0.000000
# 6 0.000000 0.000000 0.000000 -0.003676 0.000000 0.023016
#
#
# Mechanical properties :
#
#
# Convention : Reuss Voigt Hill
#
# Bulk Modulus (GPa) = 57.28787 79.87461 68.58124
# Shear Modulus (GPa) = 31.78785 42.64911 37.21848
#
# Velocity S-wave (km/s) = 3.38507 3.92096 3.66283
# Velocity P-wave (km/s) = 5.99409 7.02078 6.52765
#
# Compressibility (1/GPa) = 0.01745570
#
# Stress axis : x y z
#
# Youngs Moduli (GPa) = 125.34947 62.05420 114.35177
#
# Poissons Ratio (x) = 0.07469 0.47295
# Poissons Ratio (y) = 0.15088 0.26888
# Poissons Ratio (z) = 0.51843 0.14591
#
# Static dielectric constant tensor:
#      x y z
#    x 1.549390 0.000000 0.739190 
#    y 0.000000 2.211310 0.000000 
#    z 0.739190 0.000000 1.071260 
# 
# From -- ./inp_files/11739.got.cif
#   From: 2010.05.17/outbox.cif.g08.bks.cpg/sg14_6_cif.got.tgz:11739.got - 2010.06.03 17:49:19.
