data_PCOD9253842
_publ_section_title
;
Structure prediction by ZEFSAII (Michael W. Deem and Ramdas Pophale) SiO2 
 PCOD9253842
Probable space group: C 2/C
;
_chemical_formula_sum "Si O2"
_cell_formula_units_Z 44
_cell_length_a 29.820286
_cell_length_b 7.885664
_cell_length_c 18.840692
_cell_angle_alpha 90.000000
_cell_angle_beta 20.873064
_cell_angle_gamma 90.000000
_cell_volume 1578.560552
_symmetry_space_group_name_H-M "C 2/C"
_symmetry_group_IT_number 15
_symmetry_cell_setting 'monoclinic'
loop_
_space_group_symop_operation_xyz
x,y,z
-x,y,1/2-z
-x,-y,-z
x,-y,1/2+z
1/2+x,1/2+y,z
1/2-x,1/2+y,1/2-z
1/2-x,1/2-y,-z
1/2+x,1/2-y,1/2+z
loop_
_atom_site_type_symbol
_atom_site_label
_atom_site_fract_x
_atom_site_fract_y
_atom_site_fract_z
Si Si1 0.500000 0.944997 0.250000
Si Si2 0.266693 0.527479 0.364988
Si Si3 0.729056 0.137336 0.127247
Si Si4 0.471423 0.834897 0.935262
Si Si5 0.296578 0.552509 0.656431
Si Si6 0.937347 0.955741 0.731642
O O1 0.362953 0.871917 0.433929
O O2 0.528677 0.058080 0.137430
O O3 0.244494 0.335416 0.430263
O O4 0.299531 0.486163 0.235703
O O5 0.378423 0.608290 0.245379
O O6 0.585162 0.105585 0.318014
O O7 0.765100 0.113297 0.155910
O O8 0.822126 0.001784 0.953193
O O9 0.506325 0.643263 0.865399
O O10 0.331062 0.846756 0.173540
O O11 0.433385 0.635080 0.436791
#
# Coordination Sequence:
#
# PCOD9253842 Si02
#       6
#     4   8   8   8   8   8
#     4  10  14  30  52  78 102 138 170 218 266 310
#     4  10  20  34  55  84 113 141 182 230 273 324
#     4  11  20  37  58  84 108 147 184 230 275 324
#     4  10  20  34  55  84 113 141 182 230 273 324
#     4  11  22  29  52  88 120 135 177 229 286 323
#     4  11  20  37  58  84 108 147 184 230 275 324
#
# _framework density 27.873494000000001
#
# number of rings (size 3 to 8) (size 9 to 14) (size 15 to 20)
#    0.000    1.455    3.636    4.909    0.000    0.000 
#    0.000    0.000    0.000    0.000   75.636   20.364 
#    0.000    0.000    0.000    0.000    0.000    0.000 
#
# Total GULP energy -123159.522205 kJ/mol
# GULP energy per Si atom -5598.160100 kJ/mol
# Density = 2.781005 g / cm^3
# Si number density = 27.873494 Si / 1000 Ang^3
#
#
#
# Elastic Constant Matrix: (Units=GPa)
#
#
# Indices 1 2 3 4 5 6 
#
# 1 183.1255 20.0010 65.6751 0.0000 -53.4789 0.0000
# 2 20.0010 71.0053 27.5621 -0.0002 -10.6548 0.0000
# 3 65.6751 27.5621 143.4310 0.0000 -67.1900 0.0000
# 4 0.0000 -0.0002 0.0000 23.3751 0.0000 -9.7288
# 5 -53.4789 -10.6548 -67.1900 0.0000 64.5802 0.0000
# 6 0.0000 0.0000 0.0000 -9.7288 0.0000 43.7155
#
#
#
# Elastic Compliance Matrix: (Units=1/GPa)
#
#
# Indices 1 2 3 4 5 6 
#
# 1 0.007339 -0.001000 -0.000778 0.000000 0.005104 0.000000
# 2 -0.001000 0.015391 -0.003312 0.000000 -0.001735 0.000000
# 3 -0.000778 -0.003312 0.014449 0.000000 0.013843 0.000000
# 4 0.000000 0.000000 0.000000 0.047148 0.000000 0.010493
# 5 0.005104 -0.001735 0.013843 0.000000 0.033827 0.000000
# 6 0.000000 0.000000 0.000000 0.010493 0.000000 0.025210
#
#
# Mechanical properties :
#
#
# Convention : Reuss Voigt Hill
#
# Bulk Modulus (GPa) = 37.03802 69.33758 53.18780
# Shear Modulus (GPa) = 30.76112 45.28907 38.02509
#
# Velocity S-wave (km/s) = 3.32565 4.03526 3.69752
# Velocity P-wave (km/s) = 5.29748 6.82942 6.11164
#
# Compressibility (1/GPa) = 0.02699928
#
# Stress axis : x y z
#
# Youngs Moduli (GPa) = 136.25375 64.97510 69.20825
#
# Poissons Ratio (x) = 0.06495 0.05382
# Poissons Ratio (y) = 0.13621 0.22925
# Poissons Ratio (z) = 0.10596 0.21523
#
# Static dielectric constant tensor:
#      x y z
#    x 2.125040 0.000000 -0.025450 
#    y 0.000000 2.273200 0.000000 
#    z -0.025450 0.000000 2.290070 
# 
# From -- ./inp_files/151385.got.cif
#   From: 2010.05.17/outbox.cif.g08.bks.cpg/sg15_76_cif.got.tgz:151385.got - 2010.06.03 18:47:42.
