data_PCOD9253604
_publ_section_title
;
Structure prediction by ZEFSAII (Michael W. Deem and Ramdas Pophale) SiO2 
 PCOD9253604
Probable space group: P 21/C
;
_chemical_formula_sum "Si O2"
_cell_formula_units_Z 32
_cell_length_a 15.000000
_cell_length_b 18.000000
_cell_length_c 12.000000
_cell_angle_alpha 90.000000
_cell_angle_beta 30.000000
_cell_angle_gamma 90.000000
_cell_volume 1620.000000
_symmetry_space_group_name_H-M "P 21/C"
_symmetry_group_IT_number 14
_symmetry_cell_setting 'monoclinic'
loop_
_space_group_symop_operation_xyz
x,y,z
-x,1/2+y,1/2-z
-x,-y,-z
x,1/2-y,1/2+z
loop_
_atom_site_type_symbol
_atom_site_label
_atom_site_fract_x
_atom_site_fract_y
_atom_site_fract_z
Si Si1 0.848078 0.336898 0.907538
Si Si2 0.408679 0.454132 0.342084
Si Si3 0.368973 0.875689 0.580934
Si Si4 0.714945 0.615140 0.290287
Si Si5 0.041518 0.700300 0.827114
Si Si6 0.800140 0.497348 0.007350
Si Si7 0.134186 0.926586 0.049493
Si Si8 0.369127 0.712909 0.646672
O O1 0.750956 0.359852 0.898204
O O2 0.990061 0.277662 0.706514
O O3 0.887708 0.415215 0.925449
O O4 0.713967 0.297729 0.139968
O O5 0.324152 0.405521 0.536739
O O6 0.598268 0.485870 0.181835
O O7 0.266662 0.517689 0.469717
O O8 0.465931 0.418046 0.159491
O O9 0.435378 0.797360 0.559171
O O10 0.236745 0.909852 0.820524
O O11 0.771699 0.543319 0.153253
O O12 0.527505 0.653619 0.456788
O O13 0.873649 0.671913 0.082212
O O14 0.102292 0.644709 0.662755
O O15 0.207855 0.704657 0.732691
O O16 0.933828 0.537346 0.774025
#
# Coordination Sequence:
#
# PCOD9253604 Si02
#       8
#     4   4   4   4   4   4   4   4
#     4  10  21  41  65  89 123 172 201 257 317 367
#     4  11  23  38  62  94 127 163 212 255 317 373
#     4  10  22  42  63  91 127 169 210 253 315 379
#     4  11  23  40  64 100 124 161 217 261 306 381
#     4  10  24  40  63  96 121 162 214 256 313 373
#     4  10  23  39  65  92 128 164 207 259 314 370
#     4  11  23  40  64  92 128 164 206 259 311 374
#     4  11  21  42  67  84 133 165 204 266 312 359
#
# _framework density 19.753086
#
# number of rings (size 3 to 8) (size 9 to 14) (size 15 to 20)
#    0.000    1.500    3.750    1.500    3.500    4.000 
#    0.000    2.500    0.000    0.000    0.000    0.000 
#    0.000    0.000    0.000    0.000    0.000    0.000 
#
# Total GULP energy -178214.448548 kJ/mol
# GULP energy per Si atom -5569.201517 kJ/mol
# Density = 1.970813 g / cm^3
# Si number density = 19.753086 Si / 1000 Ang^3
#
#
#
# Elastic Constant Matrix: (Units=GPa)
#
#
# Indices 1 2 3 4 5 6 
#
# 1 41.4447 16.9182 40.9922 0.0000 11.7745 0.0000
# 2 16.9182 93.7825 52.4765 0.0000 8.0829 0.0000
# 3 40.9922 52.4765 155.6922 0.0000 25.2698 0.0000
# 4 0.0000 0.0000 0.0000 42.5310 0.0000 13.7755
# 5 11.7745 8.0829 25.2698 0.0000 43.0087 0.0000
# 6 0.0000 0.0000 0.0000 13.7755 0.0000 21.2421
#
#
#
# Elastic Compliance Matrix: (Units=1/GPa)
#
#
# Indices 1 2 3 4 5 6 
#
# 1 0.033505 -0.001391 -0.007634 0.000000 -0.004426 0.000000
# 2 -0.001391 0.013200 -0.004137 0.000000 0.000330 0.000000
# 3 -0.007634 -0.004137 0.010349 0.000000 -0.003213 0.000000
# 4 0.000000 0.000000 0.000000 0.029764 0.000000 -0.019302
# 5 -0.004426 0.000330 -0.003213 0.000000 0.026288 0.000000
# 6 0.000000 0.000000 0.000000 -0.019302 0.000000 0.059594
#
#
# Mechanical properties :
#
#
# Convention : Reuss Voigt Hill
#
# Bulk Modulus (GPa) = 32.54176 56.85480 44.69828
# Shear Modulus (GPa) = 23.89305 33.39187 28.64246
#
# Velocity S-wave (km/s) = 3.48168 4.11599 3.81205
# Velocity P-wave (km/s) = 5.71602 7.17173 6.48485
#
# Compressibility (1/GPa) = 0.03072974
#
# Stress axis : x y z
#
# Youngs Moduli (GPa) = 29.84670 75.75741 96.63085
#
# Poissons Ratio (x) = 0.10537 0.73771
# Poissons Ratio (y) = 0.04152 0.39972
# Poissons Ratio (z) = 0.22786 0.31337
#
# Static dielectric constant tensor:
#      x y z
#    x 1.688750 0.000000 -0.006810 
#    y 0.000000 1.797110 0.000000 
#    z -0.006810 0.000000 1.680160 
# 
# From -- ./inp_files/32977.got.cif
#   From: 2010.05.17/outbox.ucp.g08.bks.cvg/sg14_17_cif.got.tgz:32977.got - 2010.06.11 12:31:08.
