data_PCOD9253495
_publ_section_title
;
Structure prediction by ZEFSAII (Michael W. Deem and Ramdas Pophale) SiO2 
 PCOD9253495
Probable space group: P 21/C
;
_chemical_formula_sum "Si O2"
_cell_formula_units_Z 28
_cell_length_a 9.000000
_cell_length_b 12.000000
_cell_length_c 15.000000
_cell_angle_alpha 90.000000
_cell_angle_beta 120.000000
_cell_angle_gamma 90.000000
_cell_volume 1402.961154
_symmetry_space_group_name_H-M "P 21/C"
_symmetry_group_IT_number 14
_symmetry_cell_setting 'monoclinic'
loop_
_space_group_symop_operation_xyz
x,y,z
-x,1/2+y,1/2-z
-x,-y,-z
x,1/2-y,1/2+z
loop_
_atom_site_type_symbol
_atom_site_label
_atom_site_fract_x
_atom_site_fract_y
_atom_site_fract_z
Si Si1 0.694965 0.681604 0.612996
Si Si2 0.731774 0.178466 0.274674
Si Si3 0.775473 0.869073 0.765076
Si Si4 0.539067 0.989588 0.302346
Si Si5 0.139931 0.939531 0.858920
Si Si6 0.667706 0.354845 0.406106
Si Si7 0.643504 0.747919 0.897709
O O1 0.800586 0.766720 0.705096
O O2 0.762790 0.554526 0.636367
O O3 0.501721 0.692726 0.594518
O O4 0.701228 0.719735 0.512889
O O5 0.838518 0.145751 0.218500
O O6 0.759041 0.272340 0.360746
O O7 0.548653 0.209643 0.177256
O O8 0.694818 0.065613 0.317193
O O9 0.752978 0.809650 0.854352
O O10 0.936446 0.951305 0.811443
O O11 0.600642 0.935158 0.688249
O O12 0.422919 0.948040 0.183521
O O13 0.620989 0.883589 0.374988
O O14 0.215854 0.896763 0.976868
#
# Coordination Sequence:
#
# PCOD9253495 Si02
#       7
#     4   4   4   4   4   4   4
#     4  12  22  41  67  91 122 174 215 256 309 388
#     4  10  19  37  62  91 121 166 210 258 305 375
#     4  11  25  41  60 100 133 159 211 272 321 368
#     4  10  19  40  62  87 127 167 209 263 308 366
#     4  12  24  39  66  95 130 163 208 266 327 366
#     4  11  21  38  68  93 120 168 221 251 303 390
#     4  10  21  37  65  90 120 166 222 256 301 382
#
# _framework density 19.957787
#
# number of rings (size 3 to 8) (size 9 to 14) (size 15 to 20)
#    0.000    1.143    7.143    2.143    0.000    6.286 
#    0.000    0.000    0.000    3.429    0.000    0.000 
#    0.000    0.000    0.000    0.000    0.000    0.000 
#
# Total GULP energy -156094.751083 kJ/mol
# GULP energy per Si atom -5574.812539 kJ/mol
# Density = 1.991236 g / cm^3
# Si number density = 19.957787 Si / 1000 Ang^3
#
#
#
# Elastic Constant Matrix: (Units=GPa)
#
#
# Indices 1 2 3 4 5 6 
#
# 1 33.2720 -3.5631 7.3645 0.0000 -7.4333 0.0000
# 2 -3.5631 76.7411 7.2385 0.0000 -17.1818 0.0000
# 3 7.3645 7.2385 35.3394 0.0000 -18.2437 0.0000
# 4 0.0000 0.0000 0.0000 14.5635 0.0000 0.9915
# 5 -7.4333 -17.1818 -18.2437 0.0000 24.1132 0.0000
# 6 0.0000 0.0000 0.0000 0.9915 0.0000 15.7932
#
#
#
# Elastic Compliance Matrix: (Units=1/GPa)
#
#
# Indices 1 2 3 4 5 6 
#
# 1 0.033647 0.004486 -0.001519 0.000000 0.012419 0.000000
# 2 0.004486 0.016482 0.004046 0.000000 0.016188 0.000000
# 3 -0.001519 0.004046 0.047638 0.000000 0.038457 0.000000
# 4 0.000000 0.000000 0.000000 0.068959 0.000000 -0.004329
# 5 0.012419 0.016188 0.038457 0.000000 0.085931 0.000000
# 6 0.000000 0.000000 0.000000 -0.004329 0.000000 0.063590
#
#
# Mechanical properties :
#
#
# Convention : Reuss Voigt Hill
#
# Bulk Modulus (GPa) = 8.94510 18.60358 13.77434
# Shear Modulus (GPa) = 14.72819 19.84815 17.28817
#
# Velocity S-wave (km/s) = 2.71950 3.15700 2.94638
# Velocity P-wave (km/s) = 3.78849 4.75716 4.30019
#
# Compressibility (1/GPa) = 0.11179304
#
# Stress axis : x y z
#
# Youngs Moduli (GPa) = 29.72068 60.67246 20.99163
#
# Poissons Ratio (x) = -0.27218 0.03189
# Poissons Ratio (y) = -0.13333 -0.08494
# Poissons Ratio (z) = 0.04515 -0.24550
#
# Static dielectric constant tensor:
#      x y z
#    x 1.755220 0.000000 -0.033930 
#    y 0.000000 1.776130 0.000000 
#    z -0.033930 0.000000 1.685840 
# 
# From -- ./inp_files/39962.got.cif
#   From: 2010.05.17/outbox.ucp.g08.bks.cvg/sg14_20_cif.got.tgz:39962.got - 2010.06.11 12:31:08.
