data_PCOD9253237
_publ_section_title
;
Structure prediction by ZEFSAII (Michael W. Deem and Ramdas Pophale) SiO2 
 PCOD9253237
Probable space group: P 21/C
;
_chemical_formula_sum "Si O2"
_cell_formula_units_Z 20
_cell_length_a 4.946513
_cell_length_b 8.893716
_cell_length_c 16.817249
_cell_angle_alpha 90.000000
_cell_angle_beta 79.654129
_cell_angle_gamma 90.000000
_cell_volume 727.810626
_symmetry_space_group_name_H-M "P 21/C"
_symmetry_group_IT_number 14
_symmetry_cell_setting 'monoclinic'
loop_
_space_group_symop_operation_xyz
x,y,z
-x,1/2+y,1/2-z
-x,-y,-z
x,1/2-y,1/2+z
loop_
_atom_site_type_symbol
_atom_site_label
_atom_site_fract_x
_atom_site_fract_y
_atom_site_fract_z
Si Si1 0.575450 0.648904 0.390628
Si Si2 0.080492 0.362003 0.220527
Si Si3 0.018785 0.820393 0.985523
Si Si4 0.501428 0.156693 0.827111
Si Si5 0.673996 0.413394 0.922378
O O1 0.760787 0.707152 0.309087
O O2 0.264115 0.703368 0.408926
O O3 0.567877 0.470157 0.388742
O O4 0.728595 0.709432 0.460267
O O5 0.234730 0.401956 0.294747
O O6 0.160153 0.474170 0.145026
O O7 0.761864 0.343597 0.254672
O O8 0.113811 0.706067 0.048855
O O9 0.000000 0.000000 0.000000
O O10 0.488514 0.315911 0.871169
O O11 0.500000 0.500000 0.000000
#
# Coordination Sequence:
#
# PCOD9253237 Si02
#       5
#     4   4   4   4   4
#     4  12  25  47  75 109 160 211 269 341 427 502
#     4  12  27  50  76 116 161 218 278 347 424 510
#     4  12  26  47  77 114 158 206 270 350 423 490
#     4  12  27  50  77 112 167 222 271 341 437 511
#     4  12  28  52  85 125 162 218 293 363 412 515
#
# _framework density 27.479676999999999
#
# number of rings (size 3 to 8) (size 9 to 14) (size 15 to 20)
#    0.000    0.000    4.000    5.400    0.000    2.400 
#    0.000    0.000    0.000    0.000    0.000    0.000 
#    0.000    0.000    0.000    0.000    0.000    0.000 
#
# Total GULP energy -112172.978980 kJ/mol
# GULP energy per Si atom -5608.648949 kJ/mol
# Density = 2.741713 g / cm^3
# Si number density = 27.479677 Si / 1000 Ang^3
#
#
#
# Elastic Constant Matrix: (Units=GPa)
#
#
# Indices 1 2 3 4 5 6 
#
# 1 124.2076 25.5892 54.8521 0.0000 -14.0441 0.0000
# 2 25.5892 146.6923 57.4751 0.0000 6.9872 0.0000
# 3 54.8521 57.4751 145.0728 0.0000 -12.1213 0.0000
# 4 0.0000 0.0000 0.0000 69.5643 0.0000 2.2652
# 5 -14.0441 6.9872 -12.1213 0.0000 57.4965 0.0000
# 6 0.0000 0.0000 0.0000 2.2652 0.0000 32.1761
#
#
#
# Elastic Compliance Matrix: (Units=1/GPa)
#
#
# Indices 1 2 3 4 5 6 
#
# 1 0.009842 -0.000473 -0.003388 0.000000 0.001747 0.000000
# 2 -0.000473 0.008256 -0.003243 0.000000 -0.001802 0.000000
# 3 -0.003388 -0.003243 0.009592 0.000000 0.001589 0.000000
# 4 0.000000 0.000000 0.000000 0.014408 0.000000 -0.001014
# 5 0.001747 -0.001802 0.001589 0.000000 0.018373 0.000000
# 6 0.000000 0.000000 0.000000 -0.001014 0.000000 0.031150
#
#
# Mechanical properties :
#
#
# Convention : Reuss Voigt Hill
#
# Bulk Modulus (GPa) = 74.16900 76.86727 75.51814
# Shear Modulus (GPa) = 45.32173 50.38445 47.85309
#
# Velocity S-wave (km/s) = 4.06554 4.28660 4.17753
# Velocity P-wave (km/s) = 7.00623 7.24797 7.12813
#
# Compressibility (1/GPa) = 0.01348272
#
# Stress axis : x y z
#
# Youngs Moduli (GPa) = 101.60315 121.12716 104.25835
#
# Poissons Ratio (x) = 0.05725 0.35324
# Poissons Ratio (y) = 0.04802 0.33808
# Poissons Ratio (z) = 0.34424 0.39278
#
# Static dielectric constant tensor:
#      x y z
#    x 2.089910 0.000000 0.040850 
#    y 0.000000 2.140370 0.000000 
#    z 0.040850 0.000000 2.198720 
# 
# From -- ./inp_files/52648.got.cif
#   From: 2010.05.17/outbox.cif.g08.bks.cpg/sg14_27_cif.got.tgz:52648.got - 2010.06.03 17:49:19.
