data_PCOD9253708
_publ_section_title
;
Structure prediction by ZEFSAII (Michael W. Deem and Ramdas Pophale) SiO2 
 PCOD9253708
Probable space group: P 21/C
;
_chemical_formula_sum "Si O2"
_cell_formula_units_Z 24
_cell_length_a 15.000000
_cell_length_b 15.000000
_cell_length_c 12.000000
_cell_angle_alpha 90.000000
_cell_angle_beta 30.000000
_cell_angle_gamma 90.000000
_cell_volume 1350.000000
_symmetry_space_group_name_H-M "P 21/C"
_symmetry_group_IT_number 14
_symmetry_cell_setting 'monoclinic'
loop_
_space_group_symop_operation_xyz
x,y,z
-x,1/2+y,1/2-z
-x,-y,-z
x,1/2-y,1/2+z
loop_
_atom_site_type_symbol
_atom_site_label
_atom_site_fract_x
_atom_site_fract_y
_atom_site_fract_z
Si Si1 0.701812 0.468052 0.756407
Si Si2 0.786073 0.638254 0.980433
Si Si3 0.036957 0.898079 0.416112
Si Si4 0.070743 0.708601 0.110618
Si Si5 0.351607 0.847386 0.902898
Si Si6 0.928967 0.451597 0.715760
O O1 0.674306 0.411817 0.674667
O O2 0.790587 0.420705 0.768681
O O3 0.868594 0.534778 0.549466
O O4 0.500000 0.500000 0.000000
O O5 0.849113 0.546406 0.848792
O O6 0.868355 0.626556 0.017198
O O7 0.906197 0.720831 0.803202
O O8 0.567394 0.653572 0.202877
O O9 0.063021 0.830919 0.493048
O O10 0.218231 0.884893 0.144785
O O11 0.000000 0.000000 0.500000
O O12 0.054990 0.622033 0.206313
O O13 0.251353 0.758288 0.961792
#
# Coordination Sequence:
#
# PCOD9253708 Si02
#       6
#     4   4   4   4   4   4
#     4  11  22  40  71  93 128 170 225 272 332 392
#     4  11  24  45  65 100 135 171 229 274 336 407
#     4  11  23  46  71  95 137 181 222 283 344 401
#     4  11  25  45  66  95 138 178 222 275 340 398
#     4  11  25  43  64 104 134 172 232 278 332 412
#     4  11  23  43  68  95 130 177 218 275 335 393
#
# _framework density 17.777778000000001
#
# number of rings (size 3 to 8) (size 9 to 14) (size 15 to 20)
#    0.000    1.000    6.667    0.000    4.667    3.333 
#    3.000    0.000    0.000    0.000    0.000    0.000 
#    0.000    0.000    0.000    0.000    0.000    0.000 
#
# Total GULP energy -133644.126859 kJ/mol
# GULP energy per Si atom -5568.505286 kJ/mol
# Density = 1.773731 g / cm^3
# Si number density = 17.777778 Si / 1000 Ang^3
#
#
#
# Elastic Constant Matrix: (Units=GPa)
#
#
# Indices 1 2 3 4 5 6 
#
# 1 174.3721 49.5652 78.6557 0.0000 -8.2087 0.0000
# 2 49.5652 105.2126 57.7122 0.0000 6.9290 0.0000
# 3 78.6557 57.7122 149.1808 0.0000 -20.1498 0.0000
# 4 0.0000 0.0000 0.0000 30.0931 0.0000 7.0193
# 5 -8.2087 6.9290 -20.1498 0.0000 55.7203 0.0000
# 6 0.0000 0.0000 0.0000 7.0193 0.0000 43.5942
#
#
#
# Elastic Compliance Matrix: (Units=1/GPa)
#
#
# Indices 1 2 3 4 5 6 
#
# 1 0.007784 -0.001824 -0.003378 0.000000 0.000152 0.000000
# 2 -0.001824 0.013119 -0.004594 0.000000 -0.003561 0.000000
# 3 -0.003378 -0.004594 0.010799 0.000000 0.003979 0.000000
# 4 0.000000 0.000000 0.000000 0.034527 0.000000 -0.005559
# 5 0.000152 -0.003561 0.003979 0.000000 0.019851 0.000000
# 6 0.000000 0.000000 0.000000 -0.005559 0.000000 0.023834
#
#
# Mechanical properties :
#
#
# Convention : Reuss Voigt Hill
#
# Bulk Modulus (GPa) = 82.58360 88.95908 85.77134
# Shear Modulus (GPa) = 37.44104 42.07033 39.75568
#
# Velocity S-wave (km/s) = 4.59416 4.86990 4.73404
# Velocity P-wave (km/s) = 8.64268 9.04264 8.84492
#
# Compressibility (1/GPa) = 0.01210894
#
# Stress axis : x y z
#
# Youngs Moduli (GPa) = 128.46343 76.22764 92.60019
#
# Poissons Ratio (x) = 0.13906 0.31281
# Poissons Ratio (y) = 0.23435 0.42543
# Poissons Ratio (z) = 0.43395 0.35021
#
# Static dielectric constant tensor:
#      x y z
#    x 1.628860 0.000000 0.029980 
#    y 0.000000 1.641700 0.000000 
#    z 0.029980 0.000000 1.631370 
# 
# From -- ./inp_files/32701.got.cif
#   From: 2010.05.17/outbox.ucp.g08.bks.cvg/sg14_17_cif.got.tgz:32701.got - 2010.06.11 12:31:08.
