data_PCOD9253389
_publ_section_title
;
Structure prediction by ZEFSAII (Michael W. Deem and Ramdas Pophale) SiO2 
 PCOD9253389
Probable space group: P 21/C
;
_chemical_formula_sum "Si O2"
_cell_formula_units_Z 12
_cell_length_a 9.569459
_cell_length_b 5.102500
_cell_length_c 21.605891
_cell_angle_alpha 90.000000
_cell_angle_beta 153.703896
_cell_angle_gamma 90.000000
_cell_volume 467.365161
_symmetry_space_group_name_H-M "P 21/C"
_symmetry_group_IT_number 14
_symmetry_cell_setting 'monoclinic'
loop_
_space_group_symop_operation_xyz
x,y,z
-x,1/2+y,1/2-z
-x,-y,-z
x,1/2-y,1/2+z
loop_
_atom_site_type_symbol
_atom_site_label
_atom_site_fract_x
_atom_site_fract_y
_atom_site_fract_z
Si Si1 0.377796 0.623766 0.800167
Si Si2 0.672183 0.745639 0.539976
Si Si3 0.222851 0.749227 0.599897
O O1 0.621870 0.736014 0.946429
O O2 0.357699 0.740451 0.723037
O O3 0.482111 0.320618 0.828645
O O4 0.041147 0.691646 0.696431
O O5 0.500000 0.500000 0.500000
O O6 0.500000 0.000000 0.500000
O O7 0.000000 0.500000 0.500000
O O8 0.000000 0.000000 0.500000
#
# Coordination Sequence:
#
# PCOD9253389 Si02
#       3
#     4   4   4
#     4  12  28  54  85 123 172 215 290 348 437 500
#     4  12  30  51  83 119 169 229 284 343 415 515
#     4  12  28  49  83 128 165 218 273 365 428 505
#
# _framework density 25.675854999999999
#
# number of rings (size 3 to 8) (size 9 to 14) (size 15 to 20)
#    0.000    0.000    3.333    4.000    4.667    8.000 
#    0.000    0.000    0.000    0.000    0.000    0.000 
#    0.000    0.000    0.000    0.000    0.000    0.000 
#
# Total GULP energy -67216.351900 kJ/mol
# GULP energy per Si atom -5601.362658 kJ/mol
# Density = 2.561742 g / cm^3
# Si number density = 25.675855 Si / 1000 Ang^3
#
#
#
# Elastic Constant Matrix: (Units=GPa)
#
#
# Indices 1 2 3 4 5 6 
#
# 1 118.6658 70.9278 23.8282 0.0000 -0.6186 0.0000
# 2 70.9278 218.8523 46.3281 0.0000 7.2271 0.0000
# 3 23.8282 46.3281 140.0576 0.0000 0.3221 0.0000
# 4 0.0000 0.0000 0.0000 49.5691 0.0000 16.3951
# 5 -0.6186 7.2271 0.3221 0.0000 76.4025 0.0000
# 6 0.0000 0.0000 0.0000 16.3951 0.0000 72.2808
#
#
#
# Elastic Compliance Matrix: (Units=1/GPa)
#
#
# Indices 1 2 3 4 5 6 
#
# 1 0.010529 -0.003276 -0.000709 0.000000 0.000398 0.000000
# 2 -0.003276 0.005948 -0.001409 0.000000 -0.000583 0.000000
# 3 -0.000709 -0.001409 0.007726 0.000000 0.000095 0.000000
# 4 0.000000 0.000000 0.000000 0.021810 0.000000 -0.004947
# 5 0.000398 -0.000583 0.000095 0.000000 0.013147 0.000000
# 6 0.000000 0.000000 0.000000 -0.004947 0.000000 0.014957
#
#
# Mechanical properties :
#
#
# Convention : Reuss Voigt Hill
#
# Bulk Modulus (GPa) = 74.53028 84.41598 79.47313
# Shear Modulus (GPa) = 55.94293 62.08326 59.01309
#
# Velocity S-wave (km/s) = 4.67284 4.92261 4.79935
# Velocity P-wave (km/s) = 7.62918 8.07827 7.85693
#
# Compressibility (1/GPa) = 0.01341737
#
# Stress axis : x y z
#
# Youngs Moduli (GPa) = 94.97354 168.11303 129.42715
#
# Poissons Ratio (x) = 0.55066 0.09174
# Poissons Ratio (y) = 0.31109 0.18236
# Poissons Ratio (z) = 0.06732 0.23687
#
# Static dielectric constant tensor:
#      x y z
#    x 2.118330 0.000000 0.115440 
#    y 0.000000 2.090590 0.000000 
#    z 0.115440 0.000000 2.020060 
# 
# From -- ./inp_files/11373.got.cif
#   From: 2010.05.17/outbox.cif.g08.bks.cpg/sg14_6_cif.got.tgz:11373.got - 2010.06.03 17:49:19.
