data_PCOD9253928
_publ_section_title
;
Structure prediction by ZEFSAII (Michael W. Deem and Ramdas Pophale) SiO2 
 PCOD9253928
Probable space group: C 2/C
;
_chemical_formula_sum "Si O2"
_cell_formula_units_Z 56
_cell_length_a 31.603508
_cell_length_b 14.717335
_cell_length_c 5.245013
_cell_angle_alpha 90.000000
_cell_angle_beta 92.896647
_cell_angle_gamma 90.000000
_cell_volume 2436.440392
_symmetry_space_group_name_H-M "C 2/C"
_symmetry_group_IT_number 15
_symmetry_cell_setting 'monoclinic'
loop_
_space_group_symop_operation_xyz
x,y,z
-x,y,1/2-z
-x,-y,-z
x,-y,1/2+z
1/2+x,1/2+y,z
1/2-x,1/2+y,1/2-z
1/2-x,1/2-y,-z
1/2+x,1/2-y,1/2+z
loop_
_atom_site_type_symbol
_atom_site_label
_atom_site_fract_x
_atom_site_fract_y
_atom_site_fract_z
Si Si1 0.500000 0.938736 0.750000
Si Si2 0.259825 0.450735 0.464749
Si Si3 0.000000 0.846421 0.750000
Si Si4 0.442065 0.220924 0.366805
Si Si5 0.362165 0.740963 0.079684
Si Si6 0.780490 0.793306 0.802040
Si Si7 0.583027 0.620681 0.032387
Si Si8 0.837136 0.904712 0.190100
O O1 0.538909 0.868812 0.747612
O O2 0.500000 0.000000 0.500000
O O3 0.242862 0.513559 0.689269
O O4 0.256356 0.347184 0.565991
O O5 0.310800 0.452114 0.409907
O O6 0.975634 0.777786 0.549425
O O7 0.037577 0.906574 0.634361
O O8 0.400687 0.194162 0.519358
O O9 0.429384 0.293452 0.147983
O O10 0.319986 0.767344 0.217800
O O11 0.386915 0.661247 0.239035
O O12 0.346249 0.694448 0.817121
O O13 0.750000 0.750000 0.000000
O O14 0.804620 0.875007 0.958767
O O15 0.616253 0.560678 0.878735
#
# Coordination Sequence:
#
# PCOD9253928 Si02
#       8
#     4   8   4   8   8   8   8   8
#     4  12  25  34  50  78 106 151 200 242 286 346
#     4  11  21  37  58  84 120 157 188 231 290 353
#     4  10  15  26  50  76 104 137 174 224 300 328
#     4  10  18  32  48  70 108 140 185 238 292 339
#     4   8  18  30  53  77 107 140 177 234 297 333
#     4  10  20  36  61  92 120 148 198 248 297 347
#     4   9  16  28  50  76 107 139 177 234 285 337
#     4   9  18  34  52  87 113 144 189 232 290 339
#
# _framework density 22.984352000000001
#
# number of rings (size 3 to 8) (size 9 to 14) (size 15 to 20)
#    0.000    2.286    2.857    0.429    2.000    2.286 
#    0.000    0.000    0.000    1.714    0.000    1.000 
#    0.000    1.286    0.000    0.000    0.000    0.000 
#
# Total GULP energy -156018.059937 kJ/mol
# GULP energy per Si atom -5572.073569 kJ/mol
# Density = 2.293204 g / cm^3
# Si number density = 22.984352 Si / 1000 Ang^3
#
#
#
# Elastic Constant Matrix: (Units=GPa)
#
#
# Indices 1 2 3 4 5 6 
#
# 1 169.2009 29.1859 27.9013 0.0000 -47.2280 0.0000
# 2 29.1859 54.4585 10.5585 0.0000 -12.4807 0.0000
# 3 27.9013 10.5585 98.4214 0.0000 -14.6054 0.0000
# 4 0.0000 0.0000 0.0000 33.8003 0.0000 -18.6753
# 5 -47.2280 -12.4807 -14.6054 0.0000 52.5320 0.0000
# 6 0.0000 0.0000 0.0000 -18.6753 0.0000 29.4941
#
#
#
# Elastic Compliance Matrix: (Units=1/GPa)
#
#
# Indices 1 2 3 4 5 6 
#
# 1 0.008414 -0.002783 -0.001108 0.000000 0.006595 0.000000
# 2 -0.002783 0.020543 -0.001108 0.000000 0.002071 0.000000
# 3 -0.001108 -0.001108 0.010854 0.000000 0.001759 0.000000
# 4 0.000000 0.000000 0.000000 0.045505 0.000000 0.028813
# 5 0.006595 0.002071 0.001759 0.000000 0.025946 0.000000
# 6 0.000000 0.000000 0.000000 0.028813 0.000000 0.052149
#
#
# Mechanical properties :
#
#
# Convention : Reuss Voigt Hill
#
# Bulk Modulus (GPa) = 33.54091 50.81912 42.18001
# Shear Modulus (GPa) = 27.27067 40.12764 33.69916
#
# Velocity S-wave (km/s) = 3.44828 4.18289 3.83322
# Velocity P-wave (km/s) = 5.52076 6.74441 6.16303
#
# Compressibility (1/GPa) = 0.02981434
#
# Stress axis : x y z
#
# Youngs Moduli (GPa) = 118.85414 48.67750 92.12957
#
# Poissons Ratio (x) = 0.13546 0.10208
# Poissons Ratio (y) = 0.33076 0.10205
# Poissons Ratio (z) = 0.13169 0.05392
#
# Static dielectric constant tensor:
#      x y z
#    x 1.977590 0.000000 0.007420 
#    y 0.000000 1.921060 0.000000 
#    z 0.007420 0.000000 2.047250 
# 
# From -- ./inp_files/18382.got.cif
#   From: 2010.05.17/outbox.cif.g08.bks.cpg/sg15_10_cif.got.tgz:18382.got - 2010.06.03 18:47:42.
