data_PCOD9253953
_publ_section_title
;
Structure prediction by ZEFSAII (Michael W. Deem and Ramdas Pophale) SiO2 
 PCOD9253953
Probable space group: C 2/C
;
_chemical_formula_sum "Si O2"
_cell_formula_units_Z 64
_cell_length_a 17.197668
_cell_length_b 16.759625
_cell_length_c 19.646910
_cell_angle_alpha 90.000000
_cell_angle_beta 34.628826
_cell_angle_gamma 90.000000
_cell_volume 3217.907227
_symmetry_space_group_name_H-M "C 2/C"
_symmetry_group_IT_number 15
_symmetry_cell_setting 'monoclinic'
loop_
_space_group_symop_operation_xyz
x,y,z
-x,y,1/2-z
-x,-y,-z
x,-y,1/2+z
1/2+x,1/2+y,z
1/2-x,1/2+y,1/2-z
1/2-x,1/2-y,-z
1/2+x,1/2-y,1/2+z
loop_
_atom_site_type_symbol
_atom_site_label
_atom_site_fract_x
_atom_site_fract_y
_atom_site_fract_z
Si Si1 0.621583 0.883863 0.764342
Si Si2 0.972327 0.702363 0.973839
Si Si3 0.345020 0.387148 0.362100
Si Si4 0.407930 0.224425 0.458524
Si Si5 0.863778 0.086811 0.992347
Si Si6 0.835056 0.912128 0.214111
Si Si7 0.242674 0.235923 0.230654
Si Si8 0.455487 0.971103 0.106144
O O1 0.516546 0.811556 0.826985
O O2 0.726534 0.917778 0.634291
O O3 0.714679 0.841995 0.756239
O O4 0.522494 0.955123 0.860014
O O5 0.079307 0.754860 0.853581
O O6 0.976153 0.615257 0.937097
O O7 0.819272 0.729414 0.102927
O O8 0.041092 0.701682 0.000971
O O9 0.500000 0.356969 0.250000
O O10 0.235545 0.317872 0.448243
O O11 0.338905 0.442568 0.433315
O O12 0.321422 0.424523 0.305091
O O13 0.391053 0.318101 0.467202
O O14 0.011507 0.059909 0.915063
O O15 0.805877 0.818001 0.218243
O O16 0.708313 0.957286 0.272133
O O17 0.500000 0.000000 0.000000
#
# Coordination Sequence:
#
# PCOD9253953 Si02
#       8
#     8   8   8   8   8   8   8   8
#     4  11  20  30  48  67  88 124 169 202 248 286
#     4  10  18  28  48  62  91 121 160 200 238 280
#     4  10  20  30  45  64  91 129 165 201 239 269
#     4  11  18  31  45  65  93 123 166 201 230 282
#     4  11  21  31  44  66  95 126 163 205 238 276
#     4  10  18  33  47  63  94 126 164 199 233 283
#     4  10  15  28  45  62  87 118 156 194 236 272
#     4  11  19  31  48  65  86 124 169 203 240 289
#
# _framework density 19.888704000000001
#
# number of rings (size 3 to 8) (size 9 to 14) (size 15 to 20)
#    0.000    1.500    8.750    0.375    1.750    1.000 
#    0.000    0.000    0.000    0.000    0.000    0.000 
#    0.000    0.000    0.000    4.500   87.500   46.625 
#
# Total GULP energy -178231.102107 kJ/mol
# GULP energy per Si atom -5569.721941 kJ/mol
# Density = 1.984344 g / cm^3
# Si number density = 19.888704 Si / 1000 Ang^3
#
#
#
# Elastic Constant Matrix: (Units=GPa)
#
#
# Indices 1 2 3 4 5 6 
#
# 1 11.6657 1.7889 -3.2855 -0.0002 2.5680 0.0001
# 2 1.7889 46.5752 7.2257 -0.0004 11.4184 0.0002
# 3 -3.2855 7.2257 152.1439 -0.0008 8.2578 0.0004
# 4 -0.0002 -0.0004 -0.0008 26.7512 0.0004 -2.5133
# 5 2.5680 11.4184 8.2578 0.0004 18.5408 -0.0002
# 6 0.0001 0.0002 0.0004 -2.5133 -0.0002 4.5312
#
#
#
# Elastic Compliance Matrix: (Units=1/GPa)
#
#
# Indices 1 2 3 4 5 6 
#
# 1 0.089477 -0.000614 0.002678 0.000001 -0.013208 -0.000002
# 2 -0.000614 0.025313 -0.000383 0.000000 -0.015333 -0.000001
# 3 0.002678 -0.000383 0.006821 0.000000 -0.003173 -0.000001
# 4 0.000001 0.000000 0.000000 0.039437 -0.000001 0.021874
# 5 -0.013208 -0.015333 -0.003173 -0.000001 0.066621 0.000004
# 6 -0.000002 -0.000001 -0.000001 0.021874 0.000004 0.232824
#
#
# Mechanical properties :
#
#
# Convention : Reuss Voigt Hill
#
# Bulk Modulus (GPa) = 8.00176 24.64921 16.32548
# Shear Modulus (GPa) = 10.02428 23.60835 16.81632
#
# Velocity S-wave (km/s) = 2.24747 3.44906 2.91094
# Velocity P-wave (km/s) = 3.28129 5.31806 4.41863
#
# Compressibility (1/GPa) = 0.12497257
#
# Stress axis : x y z
#
# Youngs Moduli (GPa) = 11.17602 39.50571 146.60661
#
# Poissons Ratio (x) = 0.02427 -0.39265
# Poissons Ratio (y) = 0.00687 0.05618
# Poissons Ratio (z) = -0.02993 0.01514
#
# Static dielectric constant tensor:
#      x y z
#    x 1.746870 0.000000 0.006530 
#    y 0.000000 1.726070 0.000000 
#    z 0.006530 0.000000 1.803720 
# 
# From -- ./inp_files/280329.got.cif
#   From: 2010.05.17/outbox.cif.g08.bks.cpg/sg15_141_cif.got.tgz:280329.got - 2010.06.03 18:47:42.
