data_PCOD9253758
_publ_section_title
;
Structure prediction by ZEFSAII (Michael W. Deem and Ramdas Pophale) SiO2 
 PCOD9253758
Probable space group: C 2/C
;
_chemical_formula_sum "Si O2"
_cell_formula_units_Z 48
_cell_length_a 13.724922
_cell_length_b 19.645725
_cell_length_c 15.239385
_cell_angle_alpha 90.000000
_cell_angle_beta 139.377974
_cell_angle_gamma 90.000000
_cell_volume 2675.287362
_symmetry_space_group_name_H-M "C 2/C"
_symmetry_group_IT_number 15
_symmetry_cell_setting 'monoclinic'
loop_
_space_group_symop_operation_xyz
x,y,z
-x,y,1/2-z
-x,-y,-z
x,-y,1/2+z
1/2+x,1/2+y,z
1/2-x,1/2+y,1/2-z
1/2-x,1/2-y,-z
1/2+x,1/2-y,1/2+z
loop_
_atom_site_type_symbol
_atom_site_label
_atom_site_fract_x
_atom_site_fract_y
_atom_site_fract_z
Si Si1 0.748571 0.982159 0.318574
Si Si2 0.460122 0.348782 0.851557
Si Si3 0.000000 0.267468 0.250000
Si Si4 0.500000 0.422916 0.250000
Si Si5 0.805736 0.389865 0.063264
Si Si6 0.052381 0.099967 0.976326
Si Si7 0.249379 0.470093 0.638845
O O1 0.664305 0.933249 0.328143
O O2 0.901642 0.942926 0.395336
O O3 0.808911 0.048603 0.411784
O O4 0.672007 0.001282 0.174042
O O5 0.427720 0.281836 0.773267
O O6 0.355201 0.410370 0.749697
O O7 0.628193 0.373164 0.943740
O O8 0.443384 0.343054 0.945185
O O9 0.886564 0.317882 0.124064
O O10 0.462009 0.382009 0.135478
O O11 0.641117 0.472357 0.326436
O O12 0.838579 0.434699 0.000190
#
# Coordination Sequence:
#
# PCOD9253758 Si02
#       7
#     8   8   4   4   8   8   8
#     4   8  15  25  41  66  90 113 137 182 229 264
#     4  10  18  30  41  66  92 119 147 186 216 255
#     4  12  23  28  44  62  92 133 152 166 210 268
#     4  10  11  22  44  76  86 105 128 182 248 266
#     4  11  18  31  43  66  92 119 149 179 218 267
#     4   8  14  22  43  67  92 106 137 183 238 261
#     4  10  15  26  49  68  90 113 138 185 234 261
#
# _framework density 17.941998000000002
#
# number of rings (size 3 to 8) (size 9 to 14) (size 15 to 20)
#    0.000    2.333    5.000    2.500    0.000    0.000 
#    0.000    0.833    0.000    0.000    0.000   12.833 
#    0.000    0.000    0.000    0.000    0.000    0.000 
#
# Total GULP energy -133699.703165 kJ/mol
# GULP energy per Si atom -5570.820965 kJ/mol
# Density = 1.790116 g / cm^3
# Si number density = 17.941998 Si / 1000 Ang^3
#
#
#
# Elastic Constant Matrix: (Units=GPa)
#
#
# Indices 1 2 3 4 5 6 
#
# 1 52.5987 19.9452 35.0538 0.0000 -30.5697 0.0000
# 2 19.9452 49.1333 20.5553 0.0000 -13.4988 0.0000
# 3 35.0538 20.5553 71.2266 0.0000 -38.9784 0.0000
# 4 0.0000 0.0000 0.0000 24.8246 0.0000 -1.9645
# 5 -30.5697 -13.4988 -38.9784 0.0000 41.3494 0.0000
# 6 0.0000 0.0000 0.0000 -1.9645 0.0000 7.8621
#
#
#
# Elastic Compliance Matrix: (Units=1/GPa)
#
#
# Indices 1 2 3 4 5 6 
#
# 1 0.036807 -0.007327 -0.004994 0.000000 0.020112 0.000000
# 2 -0.007327 0.024742 -0.004293 0.000000 -0.001387 0.000000
# 3 -0.004994 -0.004293 0.030878 0.000000 0.024014 0.000000
# 4 0.000000 0.000000 0.000000 0.041095 0.000000 0.010268
# 5 0.020112 -0.001387 0.024014 0.000000 0.061237 0.000000
# 6 0.000000 0.000000 0.000000 0.010268 0.000000 0.129758
#
#
# Mechanical properties :
#
#
# Convention : Reuss Voigt Hill
#
# Bulk Modulus (GPa) = 16.89201 36.00749 26.44975
# Shear Modulus (GPa) = 13.24580 21.30084 17.27332
#
# Velocity S-wave (km/s) = 2.72004 3.44932 3.10616
# Velocity P-wave (km/s) = 4.39318 5.99801 5.25719
#
# Compressibility (1/GPa) = 0.05919960
#
# Stress axis : x y z
#
# Youngs Moduli (GPa) = 27.16864 40.41672 32.38583
#
# Poissons Ratio (x) = 0.29612 0.16172
# Poissons Ratio (y) = 0.19906 0.13904
# Poissons Ratio (z) = 0.13567 0.17352
#
# Static dielectric constant tensor:
#      x y z
#    x 1.636730 0.000000 -0.028090 
#    y 0.000000 1.585540 0.000000 
#    z -0.028090 0.000000 1.691790 
# 
# From -- ./inp_files/70786.got.cif
#   From: 2010.05.17/outbox.cif.g08.bks.cpg/sg15_36_cif.got.tgz:70786.got - 2010.06.03 18:47:42.
