data_PCOD9253959
_publ_section_title
;
Structure prediction by ZEFSAII (Michael W. Deem and Ramdas Pophale) SiO2 
 PCOD9253959
Probable space group: C 2/C
;
_chemical_formula_sum "Si O2"
_cell_formula_units_Z 52
_cell_length_a 26.563409
_cell_length_b 22.121970
_cell_length_c 5.762425
_cell_angle_alpha 90.000000
_cell_angle_beta 101.677413
_cell_angle_gamma 90.000000
_cell_volume 3316.116930
_symmetry_space_group_name_H-M "C 2/C"
_symmetry_group_IT_number 15
_symmetry_cell_setting 'monoclinic'
loop_
_space_group_symop_operation_xyz
x,y,z
-x,y,1/2-z
-x,-y,-z
x,-y,1/2+z
1/2+x,1/2+y,z
1/2-x,1/2+y,1/2-z
1/2-x,1/2-y,-z
1/2+x,1/2-y,1/2+z
loop_
_atom_site_type_symbol
_atom_site_label
_atom_site_fract_x
_atom_site_fract_y
_atom_site_fract_z
Si Si1 0.860725 0.671576 0.025686
Si Si2 0.767962 0.654925 0.587898
Si Si3 0.294446 0.743961 0.735535
Si Si4 0.100192 0.563112 0.109930
Si Si5 0.451823 0.147005 0.823916
Si Si6 0.500000 0.058273 0.250000
Si Si7 0.711005 0.027111 0.100513
O O1 0.845073 0.730125 0.160140
O O2 0.876406 0.612938 0.190770
O O3 0.812180 0.651467 0.824717
O O4 0.909009 0.686285 0.908789
O O5 0.715455 0.678192 0.660889
O O6 0.784356 0.707751 0.428267
O O7 0.769110 0.593950 0.442585
O O8 0.250000 0.750000 0.500000
O O9 0.050961 0.528773 0.180512
O O10 0.077463 0.604780 0.885828
O O11 0.148327 0.525930 0.057160
O O12 0.500000 0.179619 0.750000
O O13 0.477169 0.102153 0.033641
O O14 0.726621 0.991022 0.878837
#
# Coordination Sequence:
#
# PCOD9253959 Si02
#       7
#     8   8   8   8   8   4   8
#     4  10  15  28  49  66  89 113 146 195 238 283
#     4  10  19  33  45  69  89 110 151 193 237 284
#     4   9  18  28  51  67  86 111 140 197 237 275
#     4  10  18  32  46  62  87 113 161 194 243 283
#     4   9  16  26  44  64  84 114 148 194 239 286
#     4   8  18  28  48  58  80 116 148 208 238 280
#     4  12  25  35  51  67  91 126 156 196 245 289
#
# _framework density 15.680992
#
# number of rings (size 3 to 8) (size 9 to 14) (size 15 to 20)
#    0.000    2.154    3.077    0.923    4.308    0.000 
#    0.000    0.769    0.000    0.000    0.000    0.000 
#    0.000    0.000    0.000    0.000    0.000    1.538 
#
# Total GULP energy -144843.175430 kJ/mol
# GULP energy per Si atom -5570.891363 kJ/mol
# Density = 1.564530 g / cm^3
# Si number density = 15.680992 Si / 1000 Ang^3
#
#
#
# Elastic Constant Matrix: (Units=GPa)
#
#
# Indices 1 2 3 4 5 6 
#
# 1 74.6762 40.0996 19.5116 0.0000 -32.6388 0.0000
# 2 40.0996 54.9027 23.9553 0.0000 -14.5815 0.0000
# 3 19.5116 23.9553 93.8516 0.0000 -4.3755 0.0000
# 4 0.0000 0.0000 0.0000 23.7160 0.0000 -11.0033
# 5 -32.6388 -14.5815 -4.3755 0.0000 36.1646 0.0000
# 6 0.0000 0.0000 0.0000 -11.0033 0.0000 24.2252
#
#
#
# Elastic Compliance Matrix: (Units=1/GPa)
#
#
# Indices 1 2 3 4 5 6 
#
# 1 0.033026 -0.017544 -0.001336 0.000000 0.022571 0.000000
# 2 -0.017544 0.032179 -0.004726 0.000000 -0.003431 0.000000
# 3 -0.001336 -0.004726 0.012062 0.000000 -0.001652 0.000000
# 4 0.000000 0.000000 0.000000 0.053424 0.000000 0.024266
# 5 0.022571 -0.003431 -0.001652 0.000000 0.046439 0.000000
# 6 0.000000 0.000000 0.000000 0.024266 0.000000 0.052301
#
#
# Mechanical properties :
#
#
# Convention : Reuss Voigt Hill
#
# Bulk Modulus (GPa) = 33.27219 43.39594 38.33406
# Shear Modulus (GPa) = 17.44226 26.14541 21.79384
#
# Velocity S-wave (km/s) = 3.33876 4.08773 3.73208
# Velocity P-wave (km/s) = 6.01060 7.07203 6.56281
#
# Compressibility (1/GPa) = 0.03005513
#
# Stress axis : x y z
#
# Youngs Moduli (GPa) = 30.27923 31.07659 82.90418
#
# Poissons Ratio (x) = 0.54521 0.11074
# Poissons Ratio (y) = 0.53122 0.39181
# Poissons Ratio (z) = 0.04044 0.14687
#
# Static dielectric constant tensor:
#      x y z
#    x 1.570880 0.000000 -0.044620 
#    y 0.000000 1.520510 0.000000 
#    z -0.044620 0.000000 1.608600 
# 
# From -- ./inp_files/18312.got.cif
#   From: 2010.05.17/outbox.cif.g08.bks.cpg/sg15_10_cif.got.tgz:18312.got - 2010.06.03 18:47:42.
