data_PCOD9253122
_publ_section_title
;
Structure prediction by ZEFSAII (Michael W. Deem and Ramdas Pophale) SiO2 
 PCOD9253122
Probable space group: P 21/C
;
_chemical_formula_sum "Si O2"
_cell_formula_units_Z 24
_cell_length_a 7.635513
_cell_length_b 11.453975
_cell_length_c 13.728430
_cell_angle_alpha 90.000000
_cell_angle_beta 122.520617
_cell_angle_gamma 90.000000
_cell_volume 1012.383178
_symmetry_space_group_name_H-M "P 21/C"
_symmetry_group_IT_number 14
_symmetry_cell_setting 'monoclinic'
loop_
_space_group_symop_operation_xyz
x,y,z
-x,1/2+y,1/2-z
-x,-y,-z
x,1/2-y,1/2+z
loop_
_atom_site_type_symbol
_atom_site_label
_atom_site_fract_x
_atom_site_fract_y
_atom_site_fract_z
Si Si1 0.639020 0.442438 0.797488
Si Si2 0.689904 0.654763 0.947161
Si Si3 0.584665 0.607826 0.462316
Si Si4 0.869155 0.284387 0.022976
Si Si5 0.917755 0.500967 0.167842
Si Si6 0.055900 0.974331 0.907851
O O1 0.460633 0.421273 0.664824
O O2 0.707334 0.340798 0.895449
O O3 0.848024 0.463433 0.795175
O O4 0.597943 0.561702 0.843975
O O5 0.766201 0.579862 0.060229
O O6 0.899634 0.706540 0.957898
O O7 0.543305 0.755214 0.945507
O O8 0.500000 0.500000 0.500000
O O9 0.815789 0.593096 0.574471
O O10 0.881567 0.370924 0.118662
O O11 0.834233 0.152678 0.049573
O O12 0.893225 0.529153 0.273175
O O13 0.000000 0.000000 0.000000
#
# Coordination Sequence:
#
# PCOD9253122 Si02
#       6
#     4   4   4   4   4   4
#     4   9  20  40  63  88 123 167 204 260 318 363
#     4   9  20  40  64  88 121 165 211 253 306 381
#     4  12  24  39  60  96 130 160 203 260 329 372
#     4   9  20  40  64  88 121 164 212 257 306 372
#     4   9  20  40  65  88 118 168 215 254 307 369
#     4  12  24  37  60  96 125 163 211 257 310 377
#
# _framework density 23.706439
#
# number of rings (size 3 to 8) (size 9 to 14) (size 15 to 20)
#    0.000    2.000    3.333    2.000    4.667    0.000 
#    0.000    0.000    0.000    4.000    0.000    0.000 
#    0.000    0.000    0.000    0.000    0.000    0.000 
#
# Total GULP energy -133704.136881 kJ/mol
# GULP energy per Si atom -5571.005703 kJ/mol
# Density = 2.365248 g / cm^3
# Si number density = 23.706439 Si / 1000 Ang^3
#
#
#
# Elastic Constant Matrix: (Units=GPa)
#
#
# Indices 1 2 3 4 5 6 
#
# 1 27.0056 27.7010 4.0505 0.0000 -6.3761 0.0000
# 2 27.7010 172.3249 64.7628 0.0000 -9.5053 0.0000
# 3 4.0505 64.7628 125.5898 0.0000 -11.2935 0.0000
# 4 0.0000 0.0000 0.0000 5.2719 0.0000 -4.4133
# 5 -6.3761 -9.5053 -11.2935 0.0000 24.4049 0.0000
# 6 0.0000 0.0000 0.0000 -4.4133 0.0000 30.9177
#
#
#
# Elastic Compliance Matrix: (Units=1/GPa)
#
#
# Indices 1 2 3 4 5 6 
#
# 1 0.047774 -0.008517 0.003835 0.000000 0.010939 0.000000
# 2 -0.008517 0.008747 -0.004309 0.000000 -0.000813 0.000000
# 3 0.003835 -0.004309 0.010434 0.000000 0.004152 0.000000
# 4 0.000000 0.000000 0.000000 0.215427 0.000000 0.030751
# 5 0.010939 -0.000813 0.004152 0.000000 0.045438 0.000000
# 6 0.000000 0.000000 0.000000 0.030751 0.000000 0.036734
#
#
# Mechanical properties :
#
#
# Convention : Reuss Voigt Hill
#
# Bulk Modulus (GPa) = 20.41986 57.54986 38.98486
# Shear Modulus (GPa) = 12.53575 27.34597 19.94086
#
# Velocity S-wave (km/s) = 2.30204 3.40004 2.90342
# Velocity P-wave (km/s) = 3.96209 6.30416 5.26501
#
# Compressibility (1/GPa) = 0.04897194
#
# Stress axis : x y z
#
# Youngs Moduli (GPa) = 20.93210 114.32960 95.84047
#
# Poissons Ratio (x) = 0.97379 -0.36755
# Poissons Ratio (y) = 0.17829 0.41295
# Poissons Ratio (z) = -0.08028 0.49262
#
# Static dielectric constant tensor:
#      x y z
#    x 2.106140 0.000000 -0.129290 
#    y 0.000000 1.877840 0.000000 
#    z -0.129290 0.000000 1.743060 
# 
# From -- ./inp_files/24274.got.cif
#   From: 2010.05.17/outbox.cif.g08.bks.cpg/sg14_13_cif.got.tgz:24274.got - 2010.06.03 17:49:19.
