data_PCOD9253201
_publ_section_title
;
Structure prediction by ZEFSAII (Michael W. Deem and Ramdas Pophale) SiO2 
 PCOD9253201
Probable space group: P 21/C
;
_chemical_formula_sum "Si O2"
_cell_formula_units_Z 20
_cell_length_a 7.754702
_cell_length_b 22.155856
_cell_length_c 5.479840
_cell_angle_alpha 90.000000
_cell_angle_beta 122.121316
_cell_angle_gamma 90.000000
_cell_volume 797.381306
_symmetry_space_group_name_H-M "P 21/C"
_symmetry_group_IT_number 14
_symmetry_cell_setting 'monoclinic'
loop_
_space_group_symop_operation_xyz
x,y,z
-x,1/2+y,1/2-z
-x,-y,-z
x,1/2-y,1/2+z
loop_
_atom_site_type_symbol
_atom_site_label
_atom_site_fract_x
_atom_site_fract_y
_atom_site_fract_z
Si Si1 0.789294 0.719882 0.869208
Si Si2 0.720658 0.147239 0.557900
Si Si3 0.369161 0.104179 0.576539
Si Si4 0.120818 0.512094 0.841028
Si Si5 0.339506 0.818865 0.991352
O O1 0.854570 0.740434 0.650028
O O2 0.807019 0.648924 0.958556
O O3 0.538476 0.722772 0.663025
O O4 0.477176 0.135138 0.422294
O O5 0.785536 0.181003 0.854212
O O6 0.814477 0.081366 0.615960
O O7 0.761199 0.183723 0.344211
O O8 0.301290 0.037082 0.482867
O O9 0.553005 0.113836 0.908919
O O10 0.000000 0.500000 0.500000
O O11 0.000000 0.500000 0.000000
#
# Coordination Sequence:
#
# PCOD9253201 Si02
#       5
#     4   4   4   4   4
#     4   9  16  29  51  83 104 120 166 232 267 287
#     4   9  18  36  52  72 105 142 168 206 257 315
#     4   8  22  33  56  76 107 136 179 204 267 321
#     4  12  25  34  51  79 112 143 175 218 252 306
#     4   8  18  29  57  74 103 129 176 204 262 310
#
# _framework density 25.082101999999999
#
# number of rings (size 3 to 8) (size 9 to 14) (size 15 to 20)
#    2.400    0.000    0.000    4.200    2.800    0.800 
#    0.000    0.000    0.000    0.000    0.000   64.400 
#    0.000    0.000    0.000    0.000    0.000    0.000 
#
# Total GULP energy -111546.204625 kJ/mol
# GULP energy per Si atom -5577.310231 kJ/mol
# Density = 2.502501 g / cm^3
# Si number density = 25.082102 Si / 1000 Ang^3
#
#
#
# Elastic Constant Matrix: (Units=GPa)
#
#
# Indices 1 2 3 4 5 6 
#
# 1 91.9418 39.6412 56.0169 0.0000 -30.7811 0.0000
# 2 39.6412 151.7051 57.9943 0.0000 -11.5018 0.0000
# 3 56.0169 57.9943 198.4459 0.0000 -43.4935 0.0000
# 4 0.0000 0.0000 0.0000 28.3555 0.0000 -2.6228
# 5 -30.7811 -11.5018 -43.4935 0.0000 47.8123 0.0000
# 6 0.0000 0.0000 0.0000 -2.6228 0.0000 30.2147
#
#
#
# Elastic Compliance Matrix: (Units=1/GPa)
#
#
# Indices 1 2 3 4 5 6 
#
# 1 0.015883 -0.002812 -0.001959 0.000000 0.007766 0.000000
# 2 -0.002812 0.007921 -0.001874 0.000000 -0.001610 0.000000
# 3 -0.001959 -0.001874 0.007200 0.000000 0.004838 0.000000
# 4 0.000000 0.000000 0.000000 0.035552 0.000000 0.003086
# 5 0.007766 -0.001610 0.004838 0.000000 0.029928 0.000000
# 6 0.000000 0.000000 0.000000 0.003086 0.000000 0.033364
#
#
# Mechanical properties :
#
#
# Convention : Reuss Voigt Hill
#
# Bulk Modulus (GPa) = 56.45609 83.26641 69.86125
# Shear Modulus (GPa) = 33.54719 40.50586 37.02653
#
# Velocity S-wave (km/s) = 3.66115 4.02298 3.84632
# Velocity P-wave (km/s) = 6.35841 7.40600 6.90211
#
# Compressibility (1/GPa) = 0.01771288
#
# Stress axis : x y z
#
# Youngs Moduli (GPa) = 62.96091 126.24841 138.88778
#
# Poissons Ratio (x) = 0.35507 0.27213
# Poissons Ratio (y) = 0.17707 0.26024
# Poissons Ratio (z) = 0.12336 0.23655
#
# Static dielectric constant tensor:
#      x y z
#    x 2.040510 0.000000 0.017440 
#    y 0.000000 1.966660 0.000000 
#    z 0.017440 0.000000 1.930950 
# 
# From -- ./inp_files/1554.got.cif
#   From: 2010.05.17/outbox.cif.g08.bks.cpg/sg14_1_cif.got.tgz:1554.got - 2010.06.03 17:49:19.
