data_PCOD9253366
_publ_section_title
;
Structure prediction by ZEFSAII (Michael W. Deem and Ramdas Pophale) SiO2 
 PCOD9253366
Probable space group: P 21/C
;
_chemical_formula_sum "Si O2"
_cell_formula_units_Z 16
_cell_length_a 8.972230
_cell_length_b 10.463001
_cell_length_c 7.981144
_cell_angle_alpha 90.000000
_cell_angle_beta 128.591624
_cell_angle_gamma 90.000000
_cell_volume 585.615881
_symmetry_space_group_name_H-M "P 21/C"
_symmetry_group_IT_number 14
_symmetry_cell_setting 'monoclinic'
loop_
_space_group_symop_operation_xyz
x,y,z
-x,1/2+y,1/2-z
-x,-y,-z
x,1/2-y,1/2+z
loop_
_atom_site_type_symbol
_atom_site_label
_atom_site_fract_x
_atom_site_fract_y
_atom_site_fract_z
Si Si1 0.385425 0.129912 0.433366
Si Si2 0.854868 0.691912 0.555186
Si Si3 0.242437 0.770124 0.139360
Si Si4 0.720570 0.459100 0.654002
O O1 0.301636 0.156456 0.192846
O O2 0.204836 0.167416 0.422273
O O3 0.555753 0.215177 0.625669
O O4 0.500000 0.000000 0.500000
O O5 0.830981 0.589271 0.686821
O O6 0.061242 0.681697 0.617865
O O7 0.225653 0.615705 0.137335
O O8 0.247810 0.857537 0.977533
O O9 0.500000 0.500000 0.500000
#
# Coordination Sequence:
#
# PCOD9253366 Si02
#       4
#     4   4   4   4
#     4  12  27  48  80 113 160 208 261 330 394 462
#     4  12  28  51  78 119 157 210 267 321 390 476
#     4  12  27  51  80 110 160 208 262 323 393 461
#     4  12  27  50  79 116 159 204 265 327 396 468
#
# _framework density 27.321666
#
# number of rings (size 3 to 8) (size 9 to 14) (size 15 to 20)
#    0.000    0.000    5.000    3.750    3.500    0.000 
#    0.000    2.500    0.000    0.000    0.000    0.000 
#    0.000    0.000    0.000    0.000    0.000    0.000 
#
# Total GULP energy -89608.200665 kJ/mol
# GULP energy per Si atom -5600.512542 kJ/mol
# Density = 2.725948 g / cm^3
# Si number density = 27.321666 Si / 1000 Ang^3
#
#
#
# Elastic Constant Matrix: (Units=GPa)
#
#
# Indices 1 2 3 4 5 6 
#
# 1 209.9933 55.5040 18.1126 0.0000 17.9314 0.0000
# 2 55.5040 116.2691 24.6671 0.0000 -20.4347 0.0000
# 3 18.1126 24.6671 138.7552 0.0000 20.0166 0.0000
# 4 0.0000 0.0000 0.0000 36.4856 0.0000 -10.0707
# 5 17.9314 -20.4347 20.0166 0.0000 35.0974 0.0000
# 6 0.0000 0.0000 0.0000 -10.0707 0.0000 34.4474
#
#
#
# Elastic Compliance Matrix: (Units=1/GPa)
#
#
# Indices 1 2 3 4 5 6 
#
# 1 0.006362 -0.004310 0.000835 0.000000 -0.006236 0.000000
# 2 -0.004310 0.013557 -0.003600 0.000000 0.012149 0.000000
# 3 0.000835 -0.003600 0.008828 0.000000 -0.007558 0.000000
# 4 0.000000 0.000000 0.000000 0.029814 0.000000 0.008716
# 5 -0.006236 0.012149 -0.007558 0.000000 0.043062 0.000000
# 6 0.000000 0.000000 0.000000 0.008716 0.000000 0.031578
#
#
# Mechanical properties :
#
#
# Convention : Reuss Voigt Hill
#
# Bulk Modulus (GPa) = 68.50486 73.50944 71.00715
# Shear Modulus (GPa) = 32.84795 45.65500 39.25147
#
# Velocity S-wave (km/s) = 3.47113 4.09224 3.79442
# Velocity P-wave (km/s) = 6.41817 7.02084 6.72626
#
# Compressibility (1/GPa) = 0.01459750
#
# Stress axis : x y z
#
# Youngs Moduli (GPa) = 157.18905 73.76106 113.27413
#
# Poissons Ratio (x) = 0.31793 -0.09463
# Poissons Ratio (y) = 0.67752 0.40779
# Poissons Ratio (z) = -0.13132 0.26554
#
# Static dielectric constant tensor:
#      x y z
#    x 2.115580 0.000000 -0.089690 
#    y 0.000000 2.384180 0.000000 
#    z -0.089690 0.000000 2.145160 
# 
# From -- ./inp_files/8023.got.cif
#   From: 2010.05.17/outbox.cif.g08.bks.cpg/sg14_5_cif.got.tgz:8023.got - 2010.06.03 17:49:19.
