data_PCOD9253371
_publ_section_title
;
Structure prediction by ZEFSAII (Michael W. Deem and Ramdas Pophale) SiO2 
 PCOD9253371
Probable space group: P 21/C
;
_chemical_formula_sum "Si O2"
_cell_formula_units_Z 16
_cell_length_a 4.773007
_cell_length_b 16.095928
_cell_length_c 8.546028
_cell_angle_alpha 90.000000
_cell_angle_beta 89.999945
_cell_angle_gamma 90.000000
_cell_volume 656.556951
_symmetry_space_group_name_H-M "P 21/C"
_symmetry_group_IT_number 14
_symmetry_cell_setting 'monoclinic'
loop_
_space_group_symop_operation_xyz
x,y,z
-x,1/2+y,1/2-z
-x,-y,-z
x,1/2-y,1/2+z
loop_
_atom_site_type_symbol
_atom_site_label
_atom_site_fract_x
_atom_site_fract_y
_atom_site_fract_z
Si Si1 0.607766 0.593070 0.022030
Si Si2 0.106671 0.156453 0.793549
Si Si3 0.607759 0.093070 0.977969
Si Si4 0.106678 0.843548 0.706451
O O1 0.155971 0.399601 0.844441
O O2 0.500000 0.500000 0.000000
O O3 0.248648 0.374632 0.135270
O O4 0.844016 0.399599 0.344438
O O5 0.751348 0.125368 0.135268
O O6 0.999999 0.250001 0.779242
O O7 0.343835 0.148431 0.926648
O O8 0.656153 0.148431 0.426645
O O9 0.500000 0.000000 0.000000
#
# Coordination Sequence:
#
# PCOD9253371 Si02
#       4
#     4   4   4   4
#     4  12  27  50  78 112 153 202 254 315 381 455
#     4  12  27  50  77 112 153 200 254 315 381 455
#     4  12  27  50  78 112 153 202 254 315 381 455
#     4  12  27  50  77 112 153 200 254 315 381 455
#
# _framework density 24.369555999999999
#
# number of rings (size 3 to 8) (size 9 to 14) (size 15 to 20)
#    0.000    0.000    0.000    9.000    0.000    8.000 
#    0.000    2.500    0.000    0.000    0.000    0.000 
#    0.000    0.000    0.000    0.000    0.000    0.000 
#
# Total GULP energy -89968.021483 kJ/mol
# GULP energy per Si atom -5623.001343 kJ/mol
# Density = 2.431409 g / cm^3
# Si number density = 24.369556 Si / 1000 Ang^3
#
#
#
# Elastic Constant Matrix: (Units=GPa)
#
#
# Indices 1 2 3 4 5 6 
#
# 1 202.3350 117.0712 76.1682 0.0000 5.6032 0.0000
# 2 117.0712 231.8616 125.1843 0.0000 1.3362 0.0000
# 3 76.1682 125.1843 133.0289 0.0000 -17.0065 0.0000
# 4 0.0000 0.0000 0.0000 37.8019 0.0000 -4.6568
# 5 5.6032 1.3362 -17.0065 0.0000 76.3874 0.0000
# 6 0.0000 0.0000 0.0000 -4.6568 0.0000 66.1036
#
#
#
# Elastic Compliance Matrix: (Units=1/GPa)
#
#
# Indices 1 2 3 4 5 6 
#
# 1 0.007160 -0.002721 -0.001647 0.000000 -0.000844 0.000000
# 2 -0.002721 0.010125 -0.008200 0.000000 -0.001803 0.000000
# 3 -0.001647 -0.008200 0.016685 0.000000 0.003979 0.000000
# 4 0.000000 0.000000 0.000000 0.026685 0.000000 0.001880
# 5 -0.000844 -0.001803 0.003979 0.000000 0.014070 0.000000
# 6 0.000000 0.000000 0.000000 0.001880 0.000000 0.015260
#
#
# Mechanical properties :
#
#
# Convention : Reuss Voigt Hill
#
# Bulk Modulus (GPa) = 113.20111 133.78589 123.49350
# Shear Modulus (GPa) = 42.34913 52.64539 47.49726
#
# Velocity S-wave (km/s) = 4.17320 4.65294 4.41958
# Velocity P-wave (km/s) = 8.35305 9.15884 8.76521
#
# Compressibility (1/GPa) = 0.00883384
#
# Stress axis : x y z
#
# Youngs Moduli (GPa) = 139.66177 98.76982 59.93396
#
# Poissons Ratio (x) = 0.26879 0.09870
# Poissons Ratio (y) = 0.38007 0.49145
# Poissons Ratio (z) = 0.22999 0.80990
#
# Static dielectric constant tensor:
#      x y z
#    x 1.927910 0.000000 0.009050 
#    y 0.000000 1.816210 0.000000 
#    z 0.009050 0.000000 1.982920 
# 
# From -- ./inp_files/5095.got.cif
#   From: 2010.05.17/outbox.cif.g08.bks.cpg/sg14_3_cif.got.tgz:5095.got - 2010.06.03 17:49:19.
