data_PCOD9253303
_publ_section_title
;
Structure prediction by ZEFSAII (Michael W. Deem and Ramdas Pophale) SiO2 
 PCOD9253303
Probable space group: P 21/C
;
_chemical_formula_sum "Si O2"
_cell_formula_units_Z 12
_cell_length_a 13.692025
_cell_length_b 7.037493
_cell_length_c 9.334680
_cell_angle_alpha 90.000000
_cell_angle_beta 29.533866
_cell_angle_gamma 90.000000
_cell_volume 443.381247
_symmetry_space_group_name_H-M "P 21/C"
_symmetry_group_IT_number 14
_symmetry_cell_setting 'monoclinic'
loop_
_space_group_symop_operation_xyz
x,y,z
-x,1/2+y,1/2-z
-x,-y,-z
x,1/2-y,1/2+z
loop_
_atom_site_type_symbol
_atom_site_label
_atom_site_fract_x
_atom_site_fract_y
_atom_site_fract_z
Si Si1 0.700042 0.139641 0.085339
Si Si2 0.304958 0.174699 0.142606
Si Si3 0.897043 0.965925 0.308529
O O1 0.867754 0.037793 0.965756
O O2 0.505788 0.209601 0.415896
O O3 0.808004 0.328649 0.888875
O O4 0.642286 0.001041 0.029744
O O5 0.163758 0.309210 0.228797
O O6 0.201639 0.093724 0.414434
#
# Coordination Sequence:
#
# PCOD9253303 Si02
#       3
#     4   4   4
#     4  12  26  48  76 108 148 192 242 304 360 432
#     4  12  28  48  76 110 148 191 246 300 364 433
#     4  12  28  48  76 110 148 191 246 300 364 433
#
# _framework density 27.064744000000001
#
# number of rings (size 3 to 8) (size 9 to 14) (size 15 to 20)
#    0.000    0.000    6.667    2.000    0.000    5.333 
#    0.000    0.000    0.000    0.000    0.000    0.000 
#    0.000    0.000    0.000    0.000    0.000    0.000 
#
# Total GULP energy -67551.079174 kJ/mol
# GULP energy per Si atom -5629.256598 kJ/mol
# Density = 2.700314 g / cm^3
# Si number density = 27.064744 Si / 1000 Ang^3
#
#
#
# Elastic Constant Matrix: (Units=GPa)
#
#
# Indices 1 2 3 4 5 6 
#
# 1 84.6572 27.7554 43.2215 0.0000 -16.3555 0.0000
# 2 27.7554 135.6062 1.6332 0.0000 -1.0596 0.0000
# 3 43.2215 1.6332 143.0972 0.0000 -25.9272 0.0000
# 4 0.0000 0.0000 0.0000 40.3276 0.0000 -10.2092
# 5 -16.3555 -1.0596 -25.9272 0.0000 60.5300 0.0000
# 6 0.0000 0.0000 0.0000 -10.2092 0.0000 58.3950
#
#
#
# Elastic Compliance Matrix: (Units=1/GPa)
#
#
# Indices 1 2 3 4 5 6 
#
# 1 0.015416 -0.003087 -0.004202 0.000000 0.002312 0.000000
# 2 -0.003087 0.007994 0.000776 0.000000 -0.000362 0.000000
# 3 -0.004202 0.000776 0.008722 0.000000 0.002614 0.000000
# 4 0.000000 0.000000 0.000000 0.025945 0.000000 0.004536
# 5 0.002312 -0.000362 0.002614 0.000000 0.018259 0.000000
# 6 0.000000 0.000000 0.000000 0.004536 0.000000 0.017918
#
#
# Mechanical properties :
#
#
# Convention : Reuss Voigt Hill
#
# Bulk Modulus (GPa) = 52.34087 56.50897 54.42492
# Shear Modulus (GPa) = 43.99466 51.23388 47.61427
#
# Velocity S-wave (km/s) = 4.03617 4.35560 4.19892
# Velocity P-wave (km/s) = 6.41108 6.79849 6.60762
#
# Compressibility (1/GPa) = 0.01910553
#
# Stress axis : x y z
#
# Youngs Moduli (GPa) = 64.86583 125.09535 114.64795
#
# Poissons Ratio (x) = 0.38613 0.48179
# Poissons Ratio (y) = 0.20022 -0.08891
# Poissons Ratio (z) = 0.27259 -0.09701
#
# Static dielectric constant tensor:
#      x y z
#    x 2.027020 0.000000 -0.028540 
#    y 0.000000 2.086420 0.000000 
#    z -0.028540 0.000000 2.082370 
# 
# From -- ./inp_files/7241.got.cif
#   From: 2010.05.17/outbox.cif.g08.bks.cpg/sg14_4_cif.got.tgz:7241.got - 2010.06.03 17:49:19.
