data_PCOD9253134
_publ_section_title
;
Structure prediction by ZEFSAII (Michael W. Deem and Ramdas Pophale) SiO2 
 PCOD9253134
Probable space group: P 21/C
;
_chemical_formula_sum "Si O2"
_cell_formula_units_Z 24
_cell_length_a 10.727642
_cell_length_b 7.753027
_cell_length_c 14.177135
_cell_angle_alpha 90.000000
_cell_angle_beta 126.294894
_cell_angle_gamma 90.000000
_cell_volume 950.361572
_symmetry_space_group_name_H-M "P 21/C"
_symmetry_group_IT_number 14
_symmetry_cell_setting 'monoclinic'
loop_
_space_group_symop_operation_xyz
x,y,z
-x,1/2+y,1/2-z
-x,-y,-z
x,1/2-y,1/2+z
loop_
_atom_site_type_symbol
_atom_site_label
_atom_site_fract_x
_atom_site_fract_y
_atom_site_fract_z
Si Si1 0.724382 0.052288 0.366785
Si Si2 0.763259 0.408877 0.437921
Si Si3 0.462413 0.813640 0.554714
Si Si4 0.689270 0.177674 0.711356
Si Si5 0.988377 0.954523 0.173685
Si Si6 0.191106 0.294661 0.243378
O O1 0.833825 0.213972 0.448749
O O2 0.609805 0.045774 0.403938
O O3 0.639756 0.145326 0.240018
O O4 0.792367 0.881785 0.352170
O O5 0.630865 0.358162 0.452654
O O6 0.693133 0.450318 0.304364
O O7 0.878359 0.545186 0.532954
O O8 0.594018 0.144162 0.575254
O O9 0.641203 0.769292 0.646050
O O10 0.869845 0.178708 0.762530
O O11 0.075275 0.135874 0.203835
O O12 0.881907 0.932327 0.216747
#
# Coordination Sequence:
#
# PCOD9253134 Si02
#       6
#     4   4   4   4   4   4
#     4   8  22  41  67  98 134 181 240 286 344 416
#     4   8  21  41  67  96 134 181 233 290 338 422
#     4   9  21  43  69 100 136 184 235 294 344 410
#     4   9  20  44  65 100 140 176 241 289 350 428
#     4  12  24  42  68 103 145 186 231 288 361 421
#     4  12  25  42  72 103 139 190 230 295 353 417
#
# _framework density 25.253544000000002
#
# number of rings (size 3 to 8) (size 9 to 14) (size 15 to 20)
#    2.000    0.000    0.000    3.500    0.000    6.667 
#    0.000    3.333    0.000    0.000    0.000    0.000 
#    0.000    0.000    0.000    0.000    0.000    0.000 
#
# Total GULP energy -133836.821005 kJ/mol
# GULP energy per Si atom -5576.534209 kJ/mol
# Density = 2.519607 g / cm^3
# Si number density = 25.253544 Si / 1000 Ang^3
#
#
#
# Elastic Constant Matrix: (Units=GPa)
#
#
# Indices 1 2 3 4 5 6 
#
# 1 173.8152 53.8068 85.7003 0.0000 -28.4698 0.0000
# 2 53.8068 88.8568 42.0785 0.0000 -10.4931 0.0000
# 3 85.7003 42.0785 143.0162 0.0000 -7.5843 0.0000
# 4 0.0000 0.0000 0.0000 32.2554 0.0000 -4.9392
# 5 -28.4698 -10.4931 -7.5843 0.0000 30.4248 0.0000
# 6 0.0000 0.0000 0.0000 -4.9392 0.0000 37.1015
#
#
#
# Elastic Compliance Matrix: (Units=1/GPa)
#
#
# Indices 1 2 3 4 5 6 
#
# 1 0.010323 -0.003062 -0.004894 0.000000 0.007384 0.000000
# 2 -0.003062 0.014385 -0.002317 0.000000 0.001518 0.000000
# 3 -0.004894 -0.002317 0.010459 0.000000 -0.002771 0.000000
# 4 0.000000 0.000000 0.000000 0.031648 0.000000 0.004213
# 5 0.007384 0.001518 -0.002771 0.000000 0.039611 0.000000
# 6 0.000000 0.000000 0.000000 0.004213 0.000000 0.027514
#
#
# Mechanical properties :
#
#
# Convention : Reuss Voigt Hill
#
# Bulk Modulus (GPa) = 68.38799 85.42882 76.90841
# Shear Modulus (GPa) = 31.37571 34.89653 33.13612
#
# Velocity S-wave (km/s) = 3.52863 3.72135 3.62627
# Velocity P-wave (km/s) = 6.61370 7.23647 6.93208
#
# Compressibility (1/GPa) = 0.01462245
#
# Stress axis : x y z
#
# Youngs Moduli (GPa) = 96.86726 69.51839 95.60745
#
# Poissons Ratio (x) = 0.21286 0.46787
# Poissons Ratio (y) = 0.29659 0.22152
# Poissons Ratio (z) = 0.47404 0.16107
#
# Static dielectric constant tensor:
#      x y z
#    x 1.991570 0.000000 -0.014170 
#    y 0.000000 2.155180 0.000000 
#    z -0.014170 0.000000 1.983860 
# 
# From -- ./inp_files/57115.got.cif
#   From: 2010.05.17/outbox.cif.g08.bks.cpg/sg14_29_cif.got.tgz:57115.got - 2010.06.03 17:49:19.
