data_PCOD9253859
_publ_section_title
;
Structure prediction by ZEFSAII (Michael W. Deem and Ramdas Pophale) SiO2 
 PCOD9253859
Probable space group: C 2/C
;
_chemical_formula_sum "Si O2"
_cell_formula_units_Z 52
_cell_length_a 7.299965
_cell_length_b 31.435918
_cell_length_c 11.664460
_cell_angle_alpha 90.000000
_cell_angle_beta 54.304604
_cell_angle_gamma 90.000000
_cell_volume 2173.888868
_symmetry_space_group_name_H-M "C 2/C"
_symmetry_group_IT_number 15
_symmetry_cell_setting 'monoclinic'
loop_
_space_group_symop_operation_xyz
x,y,z
-x,y,1/2-z
-x,-y,-z
x,-y,1/2+z
1/2+x,1/2+y,z
1/2-x,1/2+y,1/2-z
1/2-x,1/2-y,-z
1/2+x,1/2-y,1/2+z
loop_
_atom_site_type_symbol
_atom_site_label
_atom_site_fract_x
_atom_site_fract_y
_atom_site_fract_z
Si Si1 0.500000 0.083405 0.750000
Si Si2 0.093309 0.653607 0.547300
Si Si3 0.279345 0.996343 0.214557
Si Si4 0.224176 0.027024 0.483497
Si Si5 0.469673 0.304713 0.532522
Si Si6 0.305906 0.234739 0.735603
Si Si7 0.174594 0.879291 0.077199
O O1 0.642192 0.117050 0.624397
O O2 0.633959 0.051682 0.785402
O O3 0.331771 0.678114 0.454117
O O4 0.914522 0.690968 0.647085
O O5 0.938115 0.628033 0.514686
O O6 0.168701 0.010116 0.375957
O O7 0.502473 0.025126 0.121157
O O8 0.182062 0.995869 0.121889
O O9 0.140136 0.074384 0.536098
O O10 0.289278 0.273199 0.654057
O O11 0.594015 0.277007 0.388958
O O12 0.371880 0.344343 0.501497
O O13 0.500000 0.249736 0.750000
O O14 0.000000 0.874515 0.250000
#
# Coordination Sequence:
#
# PCOD9253859 Si02
#       7
#     4   8   8   8   8   8   8
#     4  10  14  30  64  92 116 168 228 250 328 406
#     4  11  19  37  64  94 121 178 224 269 328 403
#     4   9  19  36  65 101 130 178 223 275 351 405
#     4   9  19  37  64  96 134 174 226 277 338 420
#     4  11  24  42  66  96 130 176 229 280 342 410
#     4  10  20  41  66  94 131 173 224 282 342 408
#     4  12  23  40  66  97 130 172 233 274 333 421
#
# _framework density 23.920266000000002
#
# number of rings (size 3 to 8) (size 9 to 14) (size 15 to 20)
#    0.000    1.846    5.385    1.846    0.000    0.615 
#    0.000    6.923    0.000    0.000    0.000    0.000 
#    0.000    0.000    0.000    0.000    0.000    0.000 
#
# Total GULP energy -145021.914206 kJ/mol
# GULP energy per Si atom -5577.765931 kJ/mol
# Density = 2.386582 g / cm^3
# Si number density = 23.920266 Si / 1000 Ang^3
#
#
#
# Elastic Constant Matrix: (Units=GPa)
#
#
# Indices 1 2 3 4 5 6 
#
# 1 114.6356 30.8824 39.2257 0.0000 32.7524 0.0000
# 2 30.8824 98.6462 24.7519 0.0000 14.7664 0.0000
# 3 39.2257 24.7519 97.4372 0.0000 11.9126 0.0000
# 4 0.0000 0.0000 0.0000 55.3409 0.0000 15.4199
# 5 32.7524 14.7664 11.9126 0.0000 35.6762 0.0000
# 6 0.0000 0.0000 0.0000 15.4199 0.0000 32.7808
#
#
#
# Elastic Compliance Matrix: (Units=1/GPa)
#
#
# Indices 1 2 3 4 5 6 
#
# 1 0.013413 -0.001720 -0.003695 0.000000 -0.010368 0.000000
# 2 -0.001720 0.011542 -0.001927 0.000000 -0.002555 0.000000
# 3 -0.003695 -0.001927 0.012227 0.000000 0.000107 0.000000
# 4 0.000000 0.000000 0.000000 0.020795 0.000000 -0.009782
# 5 -0.010368 -0.002555 0.000107 0.000000 0.038570 0.000000
# 6 0.000000 0.000000 0.000000 -0.009782 0.000000 0.035107
#
#
# Mechanical properties :
#
#
# Convention : Reuss Voigt Hill
#
# Bulk Modulus (GPa) = 44.45000 55.60432 50.02716
# Shear Modulus (GPa) = 32.50156 39.15017 35.82586
#
# Velocity S-wave (km/s) = 3.69012 4.05000 3.87424
# Velocity P-wave (km/s) = 6.06456 6.72058 6.40098
#
# Compressibility (1/GPa) = 0.02249719
#
# Stress axis : x y z
#
# Youngs Moduli (GPa) = 74.55209 86.64270 81.78556
#
# Poissons Ratio (x) = 0.14902 0.30223
# Poissons Ratio (y) = 0.12823 0.15761
# Poissons Ratio (z) = 0.27550 0.16698
#
# Static dielectric constant tensor:
#      x y z
#    x 2.101040 0.000000 -0.004370 
#    y 0.000000 1.887350 0.000000 
#    z -0.004370 0.000000 1.948310 
# 
# From -- ./inp_files/82084.got.cif
#   From: 2010.05.17/outbox.cif.g08.bks.cpg/sg15_42_cif.got.tgz:82084.got - 2010.06.03 18:47:42.
