data_PCOD9253202
_publ_section_title
;
Structure prediction by ZEFSAII (Michael W. Deem and Ramdas Pophale) SiO2 
 PCOD9253202
Probable space group: P 21/C
;
_chemical_formula_sum "Si O2"
_cell_formula_units_Z 28
_cell_length_a 11.444911
_cell_length_b 8.754366
_cell_length_c 14.731898
_cell_angle_alpha 90.000000
_cell_angle_beta 60.256197
_cell_angle_gamma 90.000000
_cell_volume 1281.568590
_symmetry_space_group_name_H-M "P 21/C"
_symmetry_group_IT_number 14
_symmetry_cell_setting 'monoclinic'
loop_
_space_group_symop_operation_xyz
x,y,z
-x,1/2+y,1/2-z
-x,-y,-z
x,1/2-y,1/2+z
loop_
_atom_site_type_symbol
_atom_site_label
_atom_site_fract_x
_atom_site_fract_y
_atom_site_fract_z
Si Si1 0.821671 0.733511 0.558734
Si Si2 0.587393 0.579570 0.890138
Si Si3 0.854074 0.037138 0.900126
Si Si4 0.610113 0.560943 0.387508
Si Si5 0.873721 0.228957 0.554454
Si Si6 0.848620 0.000973 0.209717
Si Si7 0.628844 0.503777 0.171468
O O1 0.825392 0.606485 0.478440
O O2 0.819940 0.643094 0.654836
O O3 0.968176 0.816334 0.500747
O O4 0.691692 0.840485 0.605853
O O5 0.617643 0.756635 0.896043
O O6 0.727703 0.491477 0.825633
O O7 0.497253 0.560557 0.834842
O O8 0.500000 0.500000 0.000000
O O9 0.004863 0.021665 0.804751
O O10 0.746701 0.024880 0.862718
O O11 0.850063 0.184448 0.967286
O O12 0.500000 0.500000 0.500000
O O13 0.583888 0.528491 0.292250
O O14 0.856079 0.356182 0.639526
O O15 0.757420 0.107425 0.614743
#
# Coordination Sequence:
#
# PCOD9253202 Si02
#       7
#     4   4   4   4   4   4   4
#     4   9  18  41  69  96 129 171 222 272 332 395
#     4  12  28  45  67  97 135 181 229 276 332 400
#     4   9  20  45  71  92 129 176 219 275 330 403
#     4  12  28  45  65 100 136 179 226 276 336 399
#     4   9  20  39  70  99 127 172 220 273 337 400
#     4   9  20  42  69  94 129 178 221 268 339 391
#     4  12  25  41  67  98 135 174 215 283 334 394
#
# _framework density 21.848227000000001
#
# number of rings (size 3 to 8) (size 9 to 14) (size 15 to 20)
#    0.000    1.714    1.429    3.857    8.000    0.000 
#   10.286    0.000    0.000    0.000    0.000    0.000 
#    0.000    0.000    0.000    0.000    0.000    0.000 
#
# Total GULP energy -156610.472561 kJ/mol
# GULP energy per Si atom -5593.231163 kJ/mol
# Density = 2.179850 g / cm^3
# Si number density = 21.848227 Si / 1000 Ang^3
#
#
#
# Elastic Constant Matrix: (Units=GPa)
#
#
# Indices 1 2 3 4 5 6 
#
# 1 60.0714 -8.7356 26.3146 0.0000 -12.0174 0.0000
# 2 -8.7356 27.5921 5.3833 0.0000 -8.0774 0.0000
# 3 26.3146 5.3833 124.2578 0.0000 -23.8043 0.0000
# 4 0.0000 0.0000 0.0000 20.1053 0.0000 -5.5608
# 5 -12.0174 -8.0774 -23.8043 0.0000 38.0764 0.0000
# 6 0.0000 0.0000 0.0000 -5.5608 0.0000 26.5305
#
#
#
# Elastic Compliance Matrix: (Units=1/GPa)
#
#
# Indices 1 2 3 4 5 6 
#
# 1 0.020801 0.009117 -0.003603 0.000000 0.006246 0.000000
# 2 0.009117 0.042640 -0.001697 0.000000 0.010862 0.000000
# 3 -0.003603 -0.001697 0.009767 0.000000 0.004609 0.000000
# 4 0.000000 0.000000 0.000000 0.052799 0.000000 0.011067
# 5 0.006246 0.010862 0.004609 0.000000 0.033420 0.000000
# 6 0.000000 0.000000 0.000000 0.011067 0.000000 0.040012
#
#
# Mechanical properties :
#
#
# Convention : Reuss Voigt Hill
#
# Bulk Modulus (GPa) = 12.37006 28.64954 20.50980
# Shear Modulus (GPa) = 22.85686 29.53971 26.19828
#
# Velocity S-wave (km/s) = 3.23796 3.68100 3.46656
# Velocity P-wave (km/s) = 4.43320 5.58639 5.04287
#
# Compressibility (1/GPa) = 0.08084038
#
# Stress axis : x y z
#
# Youngs Moduli (GPa) = 48.07527 23.45239 102.38157
#
# Poissons Ratio (x) = -0.21382 0.36893
# Poissons Ratio (y) = -0.43830 0.17377
# Poissons Ratio (z) = 0.17324 0.03980
#
# Static dielectric constant tensor:
#      x y z
#    x 1.778850 0.000000 0.001100 
#    y 0.000000 1.800910 0.000000 
#    z 0.001100 0.000000 1.780980 
# 
# From -- ./inp_files/43616.got.cif
#   From: 2010.05.17/outbox.cif.g08.bks.cpg/sg14_22_cif.got.tgz:43616.got - 2010.06.03 17:49:19.
