data_PCOD9253206
_publ_section_title
;
Structure prediction by ZEFSAII (Michael W. Deem and Ramdas Pophale) SiO2 
 PCOD9253206
Probable space group: P 21/C
;
_chemical_formula_sum "Si O2"
_cell_formula_units_Z 20
_cell_length_a 16.900993
_cell_length_b 5.255323
_cell_length_c 9.712370
_cell_angle_alpha 90.000000
_cell_angle_beta 56.379497
_cell_angle_gamma 90.000000
_cell_volume 718.352318
_symmetry_space_group_name_H-M "P 21/C"
_symmetry_group_IT_number 14
_symmetry_cell_setting 'monoclinic'
loop_
_space_group_symop_operation_xyz
x,y,z
-x,1/2+y,1/2-z
-x,-y,-z
x,1/2-y,1/2+z
loop_
_atom_site_type_symbol
_atom_site_label
_atom_site_fract_x
_atom_site_fract_y
_atom_site_fract_z
Si Si1 0.375459 0.748960 0.832512
Si Si2 0.739165 0.901942 0.850660
Si Si3 0.968927 0.017520 0.865726
Si Si4 0.791789 0.110990 0.192884
Si Si5 0.429662 0.165919 0.475173
O O1 0.311152 0.792290 0.761384
O O2 0.362460 0.507549 0.943894
O O3 0.486748 0.707582 0.693798
O O4 0.331271 0.983255 0.964206
O O5 0.796903 0.637166 0.783620
O O6 0.815237 0.120045 0.740929
O O7 0.644483 0.810236 0.853204
O O8 0.005306 0.265121 0.746336
O O9 0.855753 0.048367 0.999607
O O10 0.000000 0.000000 0.000000
O O11 0.500000 0.000000 0.500000
#
# Coordination Sequence:
#
# PCOD9253206 Si02
#       5
#     4   4   4   4   4
#     4  12  26  42  73 101 156 207 262 324 391 481
#     4  12  26  46  69 109 151 198 269 318 395 469
#     4  12  30  58  93 128 173 218 283 364 456 539
#     4  12  30  47  79 112 152 206 263 340 411 500
#     4  12  25  44  67 106 154 209 266 319 395 467
#
# _framework density 27.84149
#
# number of rings (size 3 to 8) (size 9 to 14) (size 15 to 20)
#    0.000    0.000    6.000    1.800   11.200    1.600 
#    0.000    0.000    0.000    0.000    0.000    0.000 
#    0.000    0.000    0.000    0.000    0.000    0.000 
#
# Total GULP energy -111361.107259 kJ/mol
# GULP energy per Si atom -5568.055363 kJ/mol
# Density = 2.777812 g / cm^3
# Si number density = 27.841490 Si / 1000 Ang^3
#
#
#
# Elastic Constant Matrix: (Units=GPa)
#
#
# Indices 1 2 3 4 5 6 
#
# 1 82.0797 12.1085 5.4276 0.0000 7.2612 0.0000
# 2 12.1085 236.9811 69.7198 0.0000 2.5696 0.0000
# 3 5.4276 69.7198 149.1758 0.0000 -8.6442 0.0000
# 4 0.0000 0.0000 0.0000 60.2534 0.0000 2.1673
# 5 7.2612 2.5696 -8.6442 0.0000 57.5985 0.0000
# 6 0.0000 0.0000 0.0000 2.1673 0.0000 19.3941
#
#
#
# Elastic Compliance Matrix: (Units=1/GPa)
#
#
# Indices 1 2 3 4 5 6 
#
# 1 0.012421 -0.000530 -0.000296 0.000000 -0.001587 0.000000
# 2 -0.000530 0.004933 -0.002315 0.000000 -0.000501 0.000000
# 3 -0.000296 -0.002315 0.007873 0.000000 0.001322 0.000000
# 4 0.000000 0.000000 0.000000 0.016664 0.000000 -0.001862
# 5 -0.001587 -0.000501 0.001322 0.000000 0.017782 0.000000
# 6 0.000000 0.000000 0.000000 -0.001862 0.000000 0.051770
#
#
# Mechanical properties :
#
#
# Convention : Reuss Voigt Hill
#
# Bulk Modulus (GPa) = 52.78633 71.41650 62.10141
# Shear Modulus (GPa) = 40.30873 52.84791 46.57832
#
# Velocity S-wave (km/s) = 3.80912 4.36153 4.09465
# Velocity P-wave (km/s) = 6.19246 7.14638 6.68645
#
# Compressibility (1/GPa) = 0.01894430
#
# Stress axis : x y z
#
# Youngs Moduli (GPa) = 80.50584 202.69650 127.01554
#
# Poissons Ratio (x) = 0.10751 0.03760
# Poissons Ratio (y) = 0.04270 0.29410
# Poissons Ratio (z) = 0.02383 0.46934
#
# Static dielectric constant tensor:
#      x y z
#    x 2.527820 0.000000 0.017570 
#    y 0.000000 4.151720 0.000000 
#    z 0.017570 0.000000 2.394350 
# 
# From -- ./inp_files/33312.got.cif
#   From: 2010.05.17/outbox.cif.g08.bks.cpg/sg14_17_cif.got.tgz:33312.got - 2010.06.03 17:49:19.
