data_PCOD9253551
_publ_section_title
;
Structure prediction by ZEFSAII (Michael W. Deem and Ramdas Pophale) SiO2 
 PCOD9253551
Probable space group: P 21/C
;
_chemical_formula_sum "Si O2"
_cell_formula_units_Z 32
_cell_length_a 12.000000
_cell_length_b 12.000000
_cell_length_c 18.000000
_cell_angle_alpha 90.000000
_cell_angle_beta 40.000000
_cell_angle_gamma 90.000000
_cell_volume 1666.105484
_symmetry_space_group_name_H-M "P 21/C"
_symmetry_group_IT_number 14
_symmetry_cell_setting 'monoclinic'
loop_
_space_group_symop_operation_xyz
x,y,z
-x,1/2+y,1/2-z
-x,-y,-z
x,1/2-y,1/2+z
loop_
_atom_site_type_symbol
_atom_site_label
_atom_site_fract_x
_atom_site_fract_y
_atom_site_fract_z
Si Si1 0.834354 0.047232 0.258968
Si Si2 0.367154 0.550837 0.897021
Si Si3 0.730211 0.593058 0.322307
Si Si4 0.523145 0.428741 0.326123
Si Si5 0.396052 0.337527 0.098664
Si Si6 0.518192 0.166725 0.369998
Si Si7 0.200844 0.955106 0.061040
Si Si8 0.109918 0.812277 0.618114
O O1 0.708577 0.110495 0.265115
O O2 0.844018 0.129224 0.325949
O O3 0.766581 0.923627 0.317789
O O4 0.022916 0.018258 0.131493
O O5 0.427357 0.579095 0.784545
O O6 0.493780 0.609866 0.891579
O O7 0.384469 0.416601 0.896787
O O8 0.191656 0.611679 0.011173
O O9 0.667979 0.503717 0.293678
O O10 0.608769 0.702768 0.391188
O O11 0.745793 0.515907 0.388130
O O12 0.906734 0.660658 0.216513
O O13 0.507837 0.299156 0.360722
O O14 0.350415 0.502277 0.429278
O O15 0.477025 0.354735 0.977021
O O16 0.167287 0.819665 0.084576
#
# Coordination Sequence:
#
# PCOD9253551 Si02
#       8
#     4   4   4   4   4   4   4   4
#     4  10  20  39  65  99 118 163 220 264 316 374
#     4  11  25  41  68  90 128 171 215 260 331 387
#     4  11  24  39  67  96 133 164 216 269 326 375
#     4  12  27  42  61  99 132 173 209 269 328 390
#     4  11  19  43  67  93 122 167 218 268 315 387
#     4  11  22  43  66  94 125 170 218 264 317 389
#     4  11  23  40  67  99 129 166 217 268 322 380
#     4  11  21  40  67  96 128 167 212 271 314 388
#
# _framework density 19.206467
#
# number of rings (size 3 to 8) (size 9 to 14) (size 15 to 20)
#    0.000    1.000    5.000    2.625    3.500    0.500 
#    2.250    3.750    0.000    0.000    0.000    0.000 
#    0.000    0.000    0.000    0.000    0.000    0.000 
#
# Total GULP energy -178198.265624 kJ/mol
# GULP energy per Si atom -5568.695801 kJ/mol
# Density = 1.916275 g / cm^3
# Si number density = 19.206467 Si / 1000 Ang^3
#
#
#
# Elastic Constant Matrix: (Units=GPa)
#
#
# Indices 1 2 3 4 5 6 
#
# 1 -9.4626 -16.1769 -4.1055 0.0000 13.9927 0.0000
# 2 -16.1769 146.7185 -9.5628 0.0000 4.0864 0.0000
# 3 -4.1055 -9.5628 41.2702 0.0000 14.9313 0.0000
# 4 0.0000 0.0000 0.0000 34.2011 0.0000 5.4057
# 5 13.9927 4.0864 14.9313 0.0000 8.1962 0.0000
# 6 0.0000 0.0000 0.0000 5.4057 0.0000 35.6027
#
#
#
# Elastic Compliance Matrix: (Units=1/GPa)
#
#
# Indices 1 2 3 4 5 6 
#
# 1 -0.008091 -0.003842 -0.021665 0.000000 0.055196 0.000000
# 2 -0.003842 0.006233 -0.000547 0.000000 0.004447 0.000000
# 3 -0.021665 -0.000547 0.024841 0.000000 -0.007995 0.000000
# 4 0.000000 0.000000 0.000000 0.029958 0.000000 -0.004549
# 5 0.055196 0.004447 -0.007995 0.000000 0.040123 0.000000
# 6 0.000000 0.000000 0.000000 -0.004549 0.000000 0.028778
#
#
# Mechanical properties :
#
#
# Convention : Reuss Voigt Hill
#
# Bulk Modulus (GPa) = -34.33570 13.20397 -10.56586
# Shear Modulus (GPa) = 30.44333 29.49143 29.96738
#
# Velocity S-wave (km/s) = 3.98560 3.92279 3.95432
# Velocity P-wave (km/s) = 1.80665 5.23521 3.91608
#
# Compressibility (1/GPa) = -0.02912421
#
# Stress axis : x y z
#
# Youngs Moduli (GPa) = -123.58765 160.44418 40.25595
#
# Poissons Ratio (x) = 0.61635 0.87214
# Poissons Ratio (y) = -0.47477 0.02202
# Poissons Ratio (z) = -2.67750 0.08776
#
# Static dielectric constant tensor:
#      x y z
#    x 1.730900 0.000000 -0.089550 
#    y 0.000000 1.671200 0.000000 
#    z -0.089550 0.000000 1.740040 
# 
# From -- ./inp_files/57702.got.cif
#   From: 2010.05.17/outbox.ucp.g08.bks.cvg/sg14_29_cif.got.tgz:57702.got - 2010.06.11 12:31:08.
