data_PCOD9253111
_publ_section_title
;
Structure prediction by ZEFSAII (Michael W. Deem and Ramdas Pophale) SiO2 
 PCOD9253111
Probable space group: P 21/C
;
_chemical_formula_sum "Si O2"
_cell_formula_units_Z 20
_cell_length_a 21.301865
_cell_length_b 10.177835
_cell_length_c 8.144074
_cell_angle_alpha 90.000000
_cell_angle_beta 150.236652
_cell_angle_gamma 90.000000
_cell_volume 876.522206
_symmetry_space_group_name_H-M "P 21/C"
_symmetry_group_IT_number 14
_symmetry_cell_setting 'monoclinic'
loop_
_space_group_symop_operation_xyz
x,y,z
-x,1/2+y,1/2-z
-x,-y,-z
x,1/2-y,1/2+z
loop_
_atom_site_type_symbol
_atom_site_label
_atom_site_fract_x
_atom_site_fract_y
_atom_site_fract_z
Si Si1 0.629007 0.154293 0.738185
Si Si2 0.750000 0.943294 0.250001
Si Si3 0.984649 0.875121 0.583987
Si Si4 0.484650 0.375122 0.583987
Si Si5 0.870993 0.154294 0.761817
O O1 0.518861 0.243319 0.565186
O O2 0.585380 0.110339 0.460203
O O3 0.750001 0.249998 0.000002
O O4 0.665574 0.037407 0.942215
O O5 0.846959 0.868373 0.353133
O O6 0.834426 0.037408 0.557785
O O7 0.653042 0.868372 0.146870
O O8 0.018859 0.743319 0.565182
O O9 0.085380 0.889660 0.960203
O O10 0.000000 0.000000 0.500000
O O11 0.500000 0.500000 0.500000
#
# Coordination Sequence:
#
# PCOD9253111 Si02
#       5
#     4   4   4   4   4
#     4  12  23  47  73 105 148 187 239 295 353 431
#     4  12  26  44  76 106 144 192 236 298 358 422
#     4  12  25  44  75 107 143 194 236 293 364 420
#     4  12  25  44  75 107 143 194 236 293 364 420
#     4  12  23  47  73 105 148 187 239 295 353 431
#
# _framework density 22.817446
#
# number of rings (size 3 to 8) (size 9 to 14) (size 15 to 20)
#    0.000    0.000    8.000    1.200    0.000    1.600 
#    0.000    0.000    0.000    0.000    0.000    0.000 
#    0.000    0.000    0.000    0.000    0.000    0.000 
#
# Total GULP energy -112179.093537 kJ/mol
# GULP energy per Si atom -5608.954677 kJ/mol
# Density = 2.276551 g / cm^3
# Si number density = 22.817446 Si / 1000 Ang^3
#
#
#
# Elastic Constant Matrix: (Units=GPa)
#
#
# Indices 1 2 3 4 5 6 
#
# 1 175.2020 58.4472 71.9266 0.0000 21.2227 0.0000
# 2 58.4472 67.3588 60.1717 0.0000 -0.8132 0.0000
# 3 71.9266 60.1717 120.7278 0.0000 -28.6419 0.0000
# 4 0.0000 0.0000 0.0000 50.4862 0.0000 -0.5978
# 5 21.2227 -0.8132 -28.6419 0.0000 76.5837 0.0000
# 6 0.0000 0.0000 0.0000 -0.5978 0.0000 52.1961
#
#
#
# Elastic Compliance Matrix: (Units=1/GPa)
#
#
# Indices 1 2 3 4 5 6 
#
# 1 0.009552 -0.004179 -0.004660 0.000000 -0.004434 0.000000
# 2 -0.004179 0.030587 -0.013611 0.000000 -0.003608 0.000000
# 3 -0.004660 -0.013611 0.019879 0.000000 0.008582 0.000000
# 4 0.000000 0.000000 0.000000 0.019810 0.000000 0.000227
# 5 -0.004434 -0.003608 0.008582 0.000000 0.017458 0.000000
# 6 0.000000 0.000000 0.000000 0.000227 0.000000 0.019161
#
#
# Mechanical properties :
#
#
# Convention : Reuss Voigt Hill
#
# Bulk Modulus (GPa) = 66.14500 82.70884 74.42692
# Shear Modulus (GPa) = 30.05052 47.36942 38.70997
#
# Velocity S-wave (km/s) = 3.63298 4.56128 4.12334
# Velocity P-wave (km/s) = 6.83007 8.00419 7.44033
#
# Compressibility (1/GPa) = 0.01511830
#
# Stress axis : x y z
#
# Youngs Moduli (GPa) = 104.68960 32.69346 50.30408
#
# Poissons Ratio (x) = 0.13663 0.23442
# Poissons Ratio (y) = 0.43751 0.68469
# Poissons Ratio (z) = 0.48785 0.44499
#
# Static dielectric constant tensor:
#      x y z
#    x 1.913230 0.000000 0.009320 
#    y 0.000000 1.829320 0.000000 
#    z 0.009320 0.000000 1.866270 
# 
# From -- ./inp_files/19386.got.cif
#   From: 2010.05.17/outbox.cif.g08.bks.cpg/sg14_10_cif.got.tgz:19386.got - 2010.06.03 17:49:19.
