data_PCOD9253176
_publ_section_title
;
Structure prediction by ZEFSAII (Michael W. Deem and Ramdas Pophale) SiO2 
 PCOD9253176
Probable space group: P 21/C
;
_chemical_formula_sum "Si O2"
_cell_formula_units_Z 18
_cell_length_a 6.552735
_cell_length_b 5.179962
_cell_length_c 23.006080
_cell_angle_alpha 90.000000
_cell_angle_beta 117.259405
_cell_angle_gamma 90.000000
_cell_volume 694.169001
_symmetry_space_group_name_H-M "P 21/C"
_symmetry_group_IT_number 14
_symmetry_cell_setting 'monoclinic'
loop_
_space_group_symop_operation_xyz
x,y,z
-x,1/2+y,1/2-z
-x,-y,-z
x,1/2-y,1/2+z
loop_
_atom_site_type_symbol
_atom_site_label
_atom_site_fract_x
_atom_site_fract_y
_atom_site_fract_z
Si Si1 0.855218 0.749693 0.964419
Si Si2 0.500000 0.500000 0.000000
Si Si3 0.339591 0.211721 0.893148
Si Si4 0.028333 0.789001 0.365075
Si Si5 0.386725 0.277746 0.263066
O O1 0.621118 0.700796 0.967331
O O2 0.846720 0.741547 0.893318
O O3 0.000000 0.500000 0.000000
O O4 0.000000 0.000000 0.000000
O O5 0.551746 0.252389 0.962747
O O6 0.201912 0.471240 0.899915
O O7 0.405281 0.237944 0.834797
O O8 0.173539 0.970606 0.878169
O O9 0.877736 0.838097 0.288327
O O10 0.538823 0.506771 0.255733
#
# Coordination Sequence:
#
# PCOD9253176 Si02
#       5
#     4   2   4   4   4
#     4  12  25  46  69 108 149 194 252 310 378 455
#     4  12  26  46  76 108 154 200 258 298 394 462
#     4  12  26  45  74 108 146 202 248 314 383 459
#     4  12  24  48  72 106 150 192 254 316 381 452
#     4  12  26  47  73 107 144 193 255 316 381 460
#
# _framework density 25.930285999999999
#
# number of rings (size 3 to 8) (size 9 to 14) (size 15 to 20)
#    0.000    0.000    4.444    5.333    0.000    5.333 
#    0.000    0.000    0.000    0.000    0.000    0.000 
#    0.000    0.000    0.000    0.000    0.000    0.000 
#
# Total GULP energy -100504.401412 kJ/mol
# GULP energy per Si atom -5583.577856 kJ/mol
# Density = 2.587127 g / cm^3
# Si number density = 25.930286 Si / 1000 Ang^3
#
#
#
# Elastic Constant Matrix: (Units=GPa)
#
#
# Indices 1 2 3 4 5 6 
#
# 1 134.4097 42.9204 45.6916 0.0000 -28.1262 0.0000
# 2 42.9204 166.9657 11.4556 0.0000 -10.8457 0.0000
# 3 45.6916 11.4556 103.5854 0.0000 -65.3530 0.0000
# 4 0.0000 0.0000 0.0000 32.5106 0.0000 -4.9662
# 5 -28.1262 -10.8457 -65.3530 0.0000 66.0944 0.0000
# 6 0.0000 0.0000 0.0000 -4.9662 0.0000 51.6288
#
#
#
# Elastic Compliance Matrix: (Units=1/GPa)
#
#
# Indices 1 2 3 4 5 6 
#
# 1 0.009478 -0.002179 -0.004308 0.000000 -0.000584 0.000000
# 2 -0.002179 0.006555 0.000877 0.000000 0.001015 0.000000
# 3 -0.004308 0.000877 0.027624 0.000000 0.025625 0.000000
# 4 0.000000 0.000000 0.000000 0.031218 0.000000 0.003003
# 5 -0.000584 0.001015 0.025625 0.000000 0.040385 0.000000
# 6 0.000000 0.000000 0.000000 0.003003 0.000000 0.019658
#
#
# Mechanical properties :
#
#
# Convention : Reuss Voigt Hill
#
# Bulk Modulus (GPa) = 30.82947 67.23289 49.03118
# Shear Modulus (GPa) = 31.85693 50.37297 41.11495
#
# Velocity S-wave (km/s) = 3.50889 4.41231 3.98627
# Velocity P-wave (km/s) = 5.32274 7.20712 6.33538
#
# Compressibility (1/GPa) = 0.03243649
#
# Stress axis : x y z
#
# Youngs Moduli (GPa) = 105.50699 152.55202 36.19997
#
# Poissons Ratio (x) = 0.33238 0.15597
# Poissons Ratio (y) = 0.22988 -0.03174
# Poissons Ratio (z) = 0.45457 -0.13375
#
# Static dielectric constant tensor:
#      x y z
#    x 1.822770 0.000000 -0.179320 
#    y 0.000000 2.104440 0.000000 
#    z -0.179320 0.000000 1.969630 
# 
# From -- ./inp_files/70858.got.cif
#   From: 2010.05.17/outbox.cif.g08.bks.cpg/sg14_36_cif.got.tgz:70858.got - 2010.06.03 17:49:19.
