data_PCOD9253186
_publ_section_title
;
Structure prediction by ZEFSAII (Michael W. Deem and Ramdas Pophale) SiO2 
 PCOD9253186
Probable space group: P 21/C
;
_chemical_formula_sum "Si O2"
_cell_formula_units_Z 32
_cell_length_a 18.455363
_cell_length_b 14.847805
_cell_length_c 11.540281
_cell_angle_alpha 90.000000
_cell_angle_beta 28.008624
_cell_angle_gamma 90.000000
_cell_volume 1485.023890
_symmetry_space_group_name_H-M "P 21/C"
_symmetry_group_IT_number 14
_symmetry_cell_setting 'monoclinic'
loop_
_space_group_symop_operation_xyz
x,y,z
-x,1/2+y,1/2-z
-x,-y,-z
x,1/2-y,1/2+z
loop_
_atom_site_type_symbol
_atom_site_label
_atom_site_fract_x
_atom_site_fract_y
_atom_site_fract_z
Si Si1 0.133973 0.876145 0.163257
Si Si2 0.343563 0.620796 0.592688
Si Si3 0.679705 0.502679 0.775106
Si Si4 0.791874 0.927289 0.708601
Si Si5 0.164203 0.986602 0.706852
Si Si6 0.811347 0.852480 0.931597
Si Si7 0.698422 0.653434 0.117636
Si Si8 0.863961 0.178392 0.428275
O O1 0.250418 0.864957 0.106032
O O2 0.092665 0.775643 0.181672
O O3 0.975544 0.925427 0.424183
O O4 0.220921 0.931157 0.940051
O O5 0.292926 0.520292 0.701481
O O6 0.524693 0.632999 0.324658
O O7 0.282978 0.684878 0.780554
O O8 0.712094 0.485870 0.864106
O O9 0.741018 0.599175 0.643550
O O10 0.500000 0.500000 0.000000
O O11 0.768351 0.906586 0.876774
O O12 0.716443 0.853458 0.730915
O O13 0.163109 0.895744 0.632851
O O14 0.196779 0.073109 0.580973
O O15 0.000000 0.000000 0.000000
O O16 0.994508 0.853172 0.691422
O O17 0.753833 0.750818 0.999760
#
# Coordination Sequence:
#
# PCOD9253186 Si02
#       8
#     4   4   4   4   4   4   4   4
#     4  12  26  46  75 107 142 194 244 294 353 435
#     4  12  26  49  73 106 143 188 247 302 357 423
#     4  12  28  47  71 106 150 188 232 294 369 426
#     4  12  24  48  78  99 143 190 249 294 351 434
#     4  12  27  46  72 103 150 189 234 293 359 430
#     4  12  27  47  76 106 142 195 241 295 360 430
#     4  12  29  46  73 111 147 188 240 304 366 420
#     4  12  27  45  76 108 141 192 246 295 355 426
#
# _framework density 21.548473999999999
#
# number of rings (size 3 to 8) (size 9 to 14) (size 15 to 20)
#    0.000    0.000    6.250    3.000    7.000    1.000 
#    0.000    0.000    0.000    0.000    0.000    0.000 
#    0.000    0.000    0.000    0.000    0.000    0.000 
#
# Total GULP energy -179221.460321 kJ/mol
# GULP energy per Si atom -5600.670635 kJ/mol
# Density = 2.149943 g / cm^3
# Si number density = 21.548474 Si / 1000 Ang^3
#
#
#
# Elastic Constant Matrix: (Units=GPa)
#
#
# Indices 1 2 3 4 5 6 
#
# 1 108.1463 7.9881 7.2828 0.0000 -7.9335 0.0000
# 2 7.9881 109.5641 15.6870 0.0000 5.2463 0.0000
# 3 7.2828 15.6870 58.5146 0.0000 -16.6205 0.0000
# 4 0.0000 0.0000 0.0000 10.0378 0.0000 3.0170
# 5 -7.9335 5.2463 -16.6205 0.0000 39.6637 0.0000
# 6 0.0000 0.0000 0.0000 3.0170 0.0000 25.3709
#
#
#
# Elastic Compliance Matrix: (Units=1/GPa)
#
#
# Indices 1 2 3 4 5 6 
#
# 1 0.009462 -0.000706 -0.000482 0.000000 0.001784 0.000000
# 2 -0.000706 0.009793 -0.003344 0.000000 -0.002838 0.000000
# 3 -0.000482 -0.003344 0.020596 0.000000 0.008976 0.000000
# 4 0.000000 0.000000 0.000000 0.103317 0.000000 -0.012286
# 5 0.001784 -0.002838 0.008976 0.000000 0.029706 0.000000
# 6 0.000000 0.000000 0.000000 -0.012286 0.000000 0.040876
#
#
# Mechanical properties :
#
#
# Convention : Reuss Voigt Hill
#
# Bulk Modulus (GPa) = 32.47990 37.57119 35.02555
# Shear Modulus (GPa) = 21.45234 31.36562 26.40898
#
# Velocity S-wave (km/s) = 3.15864 3.81935 3.50460
# Velocity P-wave (km/s) = 5.32995 6.07647 5.71541
#
# Compressibility (1/GPa) = 0.03078827
#
# Stress axis : x y z
#
# Youngs Moduli (GPa) = 105.68335 102.11206 48.55394
#
# Poissons Ratio (x) = 0.07213 0.02338
# Poissons Ratio (y) = 0.07465 0.16234
# Poissons Ratio (z) = 0.05089 0.34141
#
# Static dielectric constant tensor:
#      x y z
#    x 1.785930 0.000000 0.010550 
#    y 0.000000 1.773260 0.000000 
#    z 0.010550 0.000000 1.769480 
# 
# From -- ./inp_files/34205.got.cif
#   From: 2010.05.17/outbox.cif.g08.bks.cpg/sg14_18_cif.got.tgz:34205.got - 2010.06.03 17:49:19.
