data_PCOD9253281
_publ_section_title
;
Structure prediction by ZEFSAII (Michael W. Deem and Ramdas Pophale) SiO2 
 PCOD9253281
Probable space group: P 21/C
;
_chemical_formula_sum "Si O2"
_cell_formula_units_Z 16
_cell_length_a 6.090358
_cell_length_b 23.987185
_cell_length_c 5.883292
_cell_angle_alpha 90.000000
_cell_angle_beta 48.737242
_cell_angle_gamma 90.000000
_cell_volume 646.075096
_symmetry_space_group_name_H-M "P 21/C"
_symmetry_group_IT_number 14
_symmetry_cell_setting 'monoclinic'
loop_
_space_group_symop_operation_xyz
x,y,z
-x,1/2+y,1/2-z
-x,-y,-z
x,1/2-y,1/2+z
loop_
_atom_site_type_symbol
_atom_site_label
_atom_site_fract_x
_atom_site_fract_y
_atom_site_fract_z
Si Si1 0.531754 0.703881 0.517809
Si Si2 0.513813 0.395953 0.765464
Si Si3 0.168870 0.685663 0.154971
Si Si4 0.982084 0.030337 0.761760
O O1 0.603817 0.659967 0.271952
O O2 0.392443 0.763245 0.553455
O O3 0.846505 0.708050 0.421810
O O4 0.268824 0.674334 0.831471
O O5 0.763800 0.370140 0.755840
O O6 0.673727 0.437571 0.484833
O O7 0.257580 0.427692 0.068189
O O8 0.000000 0.000000 0.500000
O O9 0.000000 0.000000 0.000000
#
# Coordination Sequence:
#
# PCOD9253281 Si02
#       4
#     4   4   4   4
#     4  12  26  44  74 113 160 200 251 306 388 483
#     4  12  28  48  80 108 154 208 250 326 400 456
#     4  12  26  44  74 113 160 200 251 306 388 483
#     4  12  30  54  80 112 152 206 276 334 388 456
#
# _framework density 24.764925000000002
#
# number of rings (size 3 to 8) (size 9 to 14) (size 15 to 20)
#    0.000    0.000    2.500    6.000   14.000    0.000 
#    0.000    0.000    0.000    0.000    0.000    0.000 
#    0.000    0.000    0.000    0.000    0.000    0.000 
#
# Total GULP energy -89347.357245 kJ/mol
# GULP energy per Si atom -5584.209828 kJ/mol
# Density = 2.470856 g / cm^3
# Si number density = 24.764925 Si / 1000 Ang^3
#
#
#
# Elastic Constant Matrix: (Units=GPa)
#
#
# Indices 1 2 3 4 5 6 
#
# 1 50.5461 23.8436 38.5669 0.0000 -17.0922 0.0000
# 2 23.8436 109.3944 57.5473 0.0000 8.8778 0.0000
# 3 38.5669 57.5473 170.2326 0.0000 -18.1977 0.0000
# 4 0.0000 0.0000 0.0000 49.0520 0.0000 9.4406
# 5 -17.0922 8.8778 -18.1977 0.0000 53.9927 0.0000
# 6 0.0000 0.0000 0.0000 9.4406 0.0000 39.8233
#
#
#
# Elastic Compliance Matrix: (Units=1/GPa)
#
#
# Indices 1 2 3 4 5 6 
#
# 1 0.027698 -0.004708 -0.003800 0.000000 0.008262 0.000000
# 2 -0.004708 0.012483 -0.003664 0.000000 -0.004778 0.000000
# 3 -0.003800 -0.003664 0.008205 0.000000 0.002165 0.000000
# 4 0.000000 0.000000 0.000000 0.021361 0.000000 -0.005064
# 5 0.008262 -0.004778 0.002165 0.000000 0.022652 0.000000
# 6 0.000000 0.000000 0.000000 -0.005064 0.000000 0.026311
#
#
# Mechanical properties :
#
#
# Convention : Reuss Voigt Hill
#
# Bulk Modulus (GPa) = 41.59545 63.34318 52.46931
# Shear Modulus (GPa) = 33.09749 42.58796 37.84272
#
# Velocity S-wave (km/s) = 3.65974 4.15141 3.91330
# Velocity P-wave (km/s) = 5.88989 6.97225 6.45380
#
# Compressibility (1/GPa) = 0.02404109
#
# Stress axis : x y z
#
# Youngs Moduli (GPa) = 36.10337 80.11181 121.87305
#
# Poissons Ratio (x) = 0.37720 0.46316
# Poissons Ratio (y) = 0.16999 0.44652
# Poissons Ratio (z) = 0.13720 0.29351
#
# Static dielectric constant tensor:
#      x y z
#    x 2.213940 0.000000 0.203440 
#    y 0.000000 1.993380 0.000000 
#    z 0.203440 0.000000 2.068050 
# 
# From -- ./inp_files/507.got.cif
#   From: 2010.05.17/outbox.cif.g08.bks.cpg/sg14_1_cif.got.tgz:507.got - 2010.06.03 17:49:19.
