data_PCOD9253921
_publ_section_title
;
Structure prediction by ZEFSAII (Michael W. Deem and Ramdas Pophale) SiO2 
 PCOD9253921
Probable space group: C 2/C
;
_chemical_formula_sum "Si O2"
_cell_formula_units_Z 60
_cell_length_a 26.313890
_cell_length_b 7.006516
_cell_length_c 18.028169
_cell_angle_alpha 90.000000
_cell_angle_beta 52.815836
_cell_angle_gamma 90.000000
_cell_volume 2648.085306
_symmetry_space_group_name_H-M "C 2/C"
_symmetry_group_IT_number 15
_symmetry_cell_setting 'monoclinic'
loop_
_space_group_symop_operation_xyz
x,y,z
-x,y,1/2-z
-x,-y,-z
x,-y,1/2+z
1/2+x,1/2+y,z
1/2-x,1/2+y,1/2-z
1/2-x,1/2-y,-z
1/2+x,1/2-y,1/2+z
loop_
_atom_site_type_symbol
_atom_site_label
_atom_site_fract_x
_atom_site_fract_y
_atom_site_fract_z
Si Si1 0.641330 0.314274 0.798356
Si Si2 0.056898 0.828190 0.747569
Si Si3 0.675075 0.884600 0.732890
Si Si4 0.323362 0.216579 0.954242
Si Si5 0.817380 0.820157 0.580426
Si Si6 0.000000 0.544649 0.250000
Si Si7 0.132329 0.709986 0.115677
Si Si8 0.709241 0.129252 0.362857
O O1 0.583152 0.399822 0.802395
O O2 0.638605 0.365085 0.887602
O O3 0.713768 0.361445 0.708064
O O4 0.640695 0.086528 0.778629
O O5 0.120661 0.818667 0.640690
O O6 0.029162 0.611539 0.781258
O O7 0.000000 0.922760 0.750000
O O8 0.749056 0.921331 0.647038
O O9 0.647102 0.759716 0.689920
O O10 0.682027 0.797626 0.808691
O O11 0.326135 0.238334 0.039933
O O12 0.250000 0.250000 0.000000
O O13 0.334910 0.995172 0.925302
O O14 0.841566 0.836026 0.474801
O O15 0.804277 0.594396 0.609601
O O16 0.942184 0.670075 0.329374
#
# Coordination Sequence:
#
# PCOD9253921 Si02
#       8
#     8   8   8   8   8   4   8   8
#     4  10  16  31  46  66  96 121 149 186 239 270
#     4   9  16  27  44  67  92 123 148 186 237 271
#     4  10  16  29  45  64  96 119 147 189 233 269
#     4  10  15  26  45  65  90 118 151 189 228 273
#     4   9  20  27  44  71  96 114 152 194 227 277
#     4   8  16  28  44  62  90 126 152 184 228 278
#     4  10  17  30  43  66  94 123 153 186 231 275
#     4   9  18  27  43  71  91 120 146 193 230 271
#
# _framework density 22.657882000000001
#
# number of rings (size 3 to 8) (size 9 to 14) (size 15 to 20)
#    0.400    2.133    4.000    0.400    0.000    0.000 
#    0.000    2.000    0.000    0.000    1.733    0.000 
#    0.000   14.933    0.000    0.000    0.000    0.000 
#
# Total GULP energy -167255.457963 kJ/mol
# GULP energy per Si atom -5575.181932 kJ/mol
# Density = 2.260631 g / cm^3
# Si number density = 22.657882 Si / 1000 Ang^3
#
#
#
# Elastic Constant Matrix: (Units=GPa)
#
#
# Indices 1 2 3 4 5 6 
#
# 1 178.3287 12.2014 63.2762 -0.0010 19.7269 0.0002
# 2 12.2014 47.2744 4.0074 0.0022 1.4402 -0.0049
# 3 63.2762 4.0074 77.4475 -0.0029 19.3981 0.0018
# 4 -0.0010 0.0022 -0.0029 21.4665 -0.0004 -2.4856
# 5 19.7269 1.4402 19.3981 -0.0004 46.7308 0.0007
# 6 0.0002 -0.0049 0.0018 -2.4856 0.0007 7.8221
#
#
#
# Elastic Compliance Matrix: (Units=1/GPa)
#
#
# Indices 1 2 3 4 5 6 
#
# 1 0.008026 -0.001516 -0.006297 0.000000 -0.000728 0.000000
# 2 -0.001516 0.021535 0.000145 -0.000001 -0.000084 0.000013
# 3 -0.006297 0.000145 0.019402 0.000002 -0.005400 -0.000003
# 4 0.000000 -0.000001 0.000002 0.048364 0.000000 0.015368
# 5 -0.000728 -0.000084 -0.005400 0.000000 0.023950 -0.000001
# 6 0.000000 0.000013 -0.000003 0.015368 -0.000001 0.132726
#
#
# Mechanical properties :
#
#
# Convention : Reuss Voigt Hill
#
# Bulk Modulus (GPa) = 29.73757 51.33563 40.53660
# Shear Modulus (GPa) = 17.82235 30.10827 23.96531
#
# Velocity S-wave (km/s) = 2.80765 3.64925 3.25576
# Velocity P-wave (km/s) = 4.86453 6.36098 5.66241
#
# Compressibility (1/GPa) = 0.03362750
#
# Stress axis : x y z
#
# Youngs Moduli (GPa) = 124.59347 46.43709 51.54210
#
# Poissons Ratio (x) = 0.07038 0.32455
# Poissons Ratio (y) = 0.18883 -0.00747
# Poissons Ratio (z) = 0.78454 -0.00673
#
# Static dielectric constant tensor:
#      x y z
#    x 1.876270 0.000000 0.068160 
#    y 0.000000 1.939450 0.000000 
#    z 0.068160 0.000000 1.829410 
# 
# From -- ./inp_files/221881.got.cif
#   From: 2010.05.17/outbox.cif.g08.bks.cpg/sg15_111_cif.got.tgz:221881.got - 2010.06.03 18:47:42.
