data_PCOD9253352
_publ_section_title
;
Structure prediction by ZEFSAII (Michael W. Deem and Ramdas Pophale) SiO2 
 PCOD9253352
Probable space group: P 21/C
;
_chemical_formula_sum "Si O2"
_cell_formula_units_Z 24
_cell_length_a 4.936151
_cell_length_b 17.113841
_cell_length_c 10.581878
_cell_angle_alpha 90.000000
_cell_angle_beta 87.919895
_cell_angle_gamma 90.000000
_cell_volume 893.331011
_symmetry_space_group_name_H-M "P 21/C"
_symmetry_group_IT_number 14
_symmetry_cell_setting 'monoclinic'
loop_
_space_group_symop_operation_xyz
x,y,z
-x,1/2+y,1/2-z
-x,-y,-z
x,1/2-y,1/2+z
loop_
_atom_site_type_symbol
_atom_site_label
_atom_site_fract_x
_atom_site_fract_y
_atom_site_fract_z
Si Si1 0.484169 0.494932 0.172002
Si Si2 0.743413 0.955292 0.060493
Si Si3 0.844354 0.641243 0.169491
Si Si4 0.479698 0.217382 0.940877
Si Si5 0.012621 0.092730 0.582025
Si Si6 0.166837 0.753594 0.315202
O O1 0.289750 0.472062 0.291214
O O2 0.602556 0.580887 0.197642
O O3 0.290132 0.456702 0.067955
O O4 0.761080 0.445569 0.157318
O O5 0.500000 0.000000 0.000000
O O6 0.000000 0.000000 0.000000
O O7 0.720387 0.714003 0.096904
O O8 0.055150 0.605146 0.065272
O O9 0.003560 0.675099 0.284936
O O10 0.686601 0.636773 0.543860
O O11 0.637838 0.237814 0.068218
O O12 0.681823 0.217787 0.815478
O O13 0.039411 0.177038 0.645690
#
# Coordination Sequence:
#
# PCOD9253352 Si02
#       6
#     4   4   4   4   4   4
#     4  12  28  53  84 125 174 230 293 372 451 538
#     4  12  30  54  84 123 176 232 296 370 454 536
#     4  12  30  50  87 129 175 230 309 368 455 550
#     4  12  30  55  87 130 178 237 304 374 454 546
#     4  12  26  52  84 122 174 231 288 368 453 533
#     4  12  28  54  88 127 181 237 302 376 458 539
#
# _framework density 26.865739999999999
#
# number of rings (size 3 to 8) (size 9 to 14) (size 15 to 20)
#    0.000    0.000    3.333    4.000    9.333    1.333 
#    0.000    0.000    0.000    0.000    0.000    0.000 
#    0.000    0.000    0.000    0.000    0.000    0.000 
#
# Total GULP energy -134605.396297 kJ/mol
# GULP energy per Si atom -5608.558179 kJ/mol
# Density = 2.680459 g / cm^3
# Si number density = 26.865740 Si / 1000 Ang^3
#
#
#
# Elastic Constant Matrix: (Units=GPa)
#
#
# Indices 1 2 3 4 5 6 
#
# 1 159.7553 69.1804 39.5235 0.0000 -19.1068 0.0000
# 2 69.1804 186.1351 25.9534 0.0000 -10.3401 0.0000
# 3 39.5235 25.9534 122.6477 0.0000 -2.1648 0.0000
# 4 0.0000 0.0000 0.0000 44.5250 0.0000 1.1850
# 5 -19.1068 -10.3401 -2.1648 0.0000 54.1928 0.0000
# 6 0.0000 0.0000 0.0000 1.1850 0.0000 47.4591
#
#
#
# Elastic Compliance Matrix: (Units=1/GPa)
#
#
# Indices 1 2 3 4 5 6 
#
# 1 0.008177 -0.002627 -0.002038 0.000000 0.002300 0.000000
# 2 -0.002627 0.006436 -0.000510 0.000000 0.000281 0.000000
# 3 -0.002038 -0.000510 0.008910 0.000000 -0.000460 0.000000
# 4 0.000000 0.000000 0.000000 0.022474 0.000000 -0.000561
# 5 0.002300 0.000281 -0.000460 0.000000 0.019299 0.000000
# 6 0.000000 0.000000 0.000000 -0.000561 0.000000 0.021085
#
#
# Mechanical properties :
#
#
# Convention : Reuss Voigt Hill
#
# Bulk Modulus (GPa) = 75.92484 81.98362 78.95423
# Shear Modulus (GPa) = 49.44524 51.49410 50.46967
#
# Velocity S-wave (km/s) = 4.29471 4.38279 4.33897
# Velocity P-wave (km/s) = 7.27426 7.49627 7.38610
#
# Compressibility (1/GPa) = 0.01317092
#
# Stress axis : x y z
#
# Youngs Moduli (GPa) = 122.30083 155.38603 112.23105
#
# Poissons Ratio (x) = 0.40819 0.22877
# Poissons Ratio (y) = 0.32128 0.05727
# Poissons Ratio (z) = 0.24930 0.07930
#
# Static dielectric constant tensor:
#      x y z
#    x 2.074540 0.000000 0.139870 
#    y 0.000000 2.148380 0.000000 
#    z 0.139870 0.000000 2.750040 
# 
# From -- ./inp_files/6429.got.cif
#   From: 2010.05.17/outbox.cif.g08.bks.cpg/sg14_4_cif.got.tgz:6429.got - 2010.06.03 17:49:19.
