data_PCOD9253300
_publ_section_title
;
Structure prediction by ZEFSAII (Michael W. Deem and Ramdas Pophale) SiO2 
 PCOD9253300
Probable space group: P 21/C
;
_chemical_formula_sum "Si O2"
_cell_formula_units_Z 20
_cell_length_a 8.837119
_cell_length_b 15.068236
_cell_length_c 11.204433
_cell_angle_alpha 90.000000
_cell_angle_beta 148.153581
_cell_angle_gamma 90.000000
_cell_volume 787.234555
_symmetry_space_group_name_H-M "P 21/C"
_symmetry_group_IT_number 14
_symmetry_cell_setting 'monoclinic'
loop_
_space_group_symop_operation_xyz
x,y,z
-x,1/2+y,1/2-z
-x,-y,-z
x,1/2-y,1/2+z
loop_
_atom_site_type_symbol
_atom_site_label
_atom_site_fract_x
_atom_site_fract_y
_atom_site_fract_z
Si Si1 0.831030 0.815716 0.752618
Si Si2 0.146124 0.976280 0.970868
Si Si3 0.035114 0.232442 0.414086
Si Si4 0.243858 0.574531 0.157575
Si Si5 0.747104 0.107885 0.594394
O O1 0.588129 0.890554 0.607795
O O2 0.785890 0.779392 0.588706
O O3 0.131309 0.869849 0.954480
O O4 0.811257 0.752975 0.856244
O O5 0.932303 0.020005 0.731978
O O6 0.452159 0.022973 0.150311
O O7 0.000000 0.000000 0.000000
O O8 0.827097 0.147400 0.289802
O O9 0.867678 0.321393 0.267661
O O10 0.217963 0.632428 0.019637
O O11 0.000000 0.500000 0.000000
#
# Coordination Sequence:
#
# PCOD9253300 Si02
#       5
#     4   4   4   4   4
#     4  12  28  49  82 112 162 206 267 326 398 474
#     4  12  26  49  77 119 154 211 265 323 397 476
#     4  12  28  48  77 117 159 211 263 327 397 468
#     4  12  29  51  79 116 161 210 269 325 392 475
#     4  12  26  47  79 114 160 206 268 323 398 465
#
# _framework density 25.405389
#
# number of rings (size 3 to 8) (size 9 to 14) (size 15 to 20)
#    0.000    0.000    6.000    1.800    8.400    4.800 
#    0.000    0.000    0.000    0.000    0.000    0.000 
#    0.000    0.000    0.000    0.000    0.000    0.000 
#
# Total GULP energy -111706.768594 kJ/mol
# GULP energy per Si atom -5585.338430 kJ/mol
# Density = 2.534756 g / cm^3
# Si number density = 25.405389 Si / 1000 Ang^3
#
#
#
# Elastic Constant Matrix: (Units=GPa)
#
#
# Indices 1 2 3 4 5 6 
#
# 1 179.5270 38.5345 72.3574 0.0000 -21.3684 0.0000
# 2 38.5345 84.3137 22.3152 0.0000 5.8224 0.0000
# 3 72.3574 22.3152 78.8340 0.0000 11.9894 0.0000
# 4 0.0000 0.0000 0.0000 21.7305 0.0000 -0.3878
# 5 -21.3684 5.8224 11.9894 0.0000 41.8524 0.0000
# 6 0.0000 0.0000 0.0000 -0.3878 0.0000 51.8935
#
#
#
# Elastic Compliance Matrix: (Units=1/GPa)
#
#
# Indices 1 2 3 4 5 6 
#
# 1 0.012227 -0.003144 -0.011865 0.000000 0.010079 0.000000
# 2 -0.003144 0.013654 -0.000467 0.000000 -0.003371 0.000000
# 3 -0.011865 -0.000467 0.025741 0.000000 -0.013367 0.000000
# 4 0.000000 0.000000 0.000000 0.046024 0.000000 0.000344
# 5 0.010079 -0.003371 -0.013367 0.000000 0.033338 0.000000
# 6 0.000000 0.000000 0.000000 0.000344 0.000000 0.019273
#
#
# Mechanical properties :
#
#
# Convention : Reuss Voigt Hill
#
# Bulk Modulus (GPa) = 48.38106 67.67655 58.02880
# Shear Modulus (GPa) = 26.58195 37.05977 31.82086
#
# Velocity S-wave (km/s) = 3.23818 3.82348 3.54294
# Velocity P-wave (km/s) = 5.75031 6.79621 6.29502
#
# Compressibility (1/GPa) = 0.02066925
#
# Stress axis : x y z
#
# Youngs Moduli (GPa) = 81.78641 73.24077 38.84925
#
# Poissons Ratio (x) = 0.23025 0.46096
# Poissons Ratio (y) = 0.25712 0.01813
# Poissons Ratio (z) = 0.97043 0.03418
#
# Static dielectric constant tensor:
#      x y z
#    x 2.034040 0.000000 -0.018330 
#    y 0.000000 2.024800 0.000000 
#    z -0.018330 0.000000 2.026750 
# 
# From -- ./inp_files/26308.got.cif
#   From: 2010.05.17/outbox.cif.g08.bks.cpg/sg14_14_cif.got.tgz:26308.got - 2010.06.03 17:49:19.
