data_PCOD9253168
_publ_section_title
;
Structure prediction by ZEFSAII (Michael W. Deem and Ramdas Pophale) SiO2 
 PCOD9253168
Probable space group: P 21/C
;
_chemical_formula_sum "Si O2"
_cell_formula_units_Z 24
_cell_length_a 8.336965
_cell_length_b 14.101560
_cell_length_c 8.507085
_cell_angle_alpha 90.000000
_cell_angle_beta 93.644800
_cell_angle_gamma 90.000000
_cell_volume 998.105812
_symmetry_space_group_name_H-M "P 21/C"
_symmetry_group_IT_number 14
_symmetry_cell_setting 'monoclinic'
loop_
_space_group_symop_operation_xyz
x,y,z
-x,1/2+y,1/2-z
-x,-y,-z
x,1/2-y,1/2+z
loop_
_atom_site_type_symbol
_atom_site_label
_atom_site_fract_x
_atom_site_fract_y
_atom_site_fract_z
Si Si1 0.093441 0.989236 0.673217
Si Si2 0.524593 0.500328 0.815588
Si Si3 0.371467 0.814654 0.149760
Si Si4 0.654078 0.676793 0.148903
Si Si5 0.852270 0.313522 0.637219
Si Si6 0.868896 0.684641 0.866260
O O1 0.048405 0.895943 0.767078
O O2 0.022270 0.758304 0.434898
O O3 0.072072 0.095951 0.734937
O O4 0.000000 0.000000 0.500000
O O5 0.464107 0.598670 0.738672
O O6 0.412020 0.412622 0.757678
O O7 0.712616 0.478287 0.810098
O O8 0.500000 0.500000 0.000000
O O9 0.500330 0.739654 0.089784
O O10 0.257482 0.752359 0.256733
O O11 0.263164 0.854935 0.002925
O O12 0.761199 0.745245 0.259828
O O13 0.758268 0.649699 0.003062
#
# Coordination Sequence:
#
# PCOD9253168 Si02
#       6
#     4   4   4   4   4   4
#     4  12  26  47  74 107 148 200 247 304 380 442
#     4  12  25  46  77 110 146 199 250 310 372 452
#     4  12  26  48  77 112 151 196 256 307 379 443
#     4  12  24  47  73 108 144 195 247 306 367 443
#     4  12  28  48  76 113 153 200 248 317 375 453
#     4  12  27  47  72 107 150 194 246 308 375 441
#
# _framework density 24.045545000000001
#
# number of rings (size 3 to 8) (size 9 to 14) (size 15 to 20)
#    0.000    0.000    5.000    5.000    2.333    2.000 
#    0.000    2.500    0.000    0.000    0.000    0.000 
#    0.000    0.000    0.000    0.000    0.000    0.000 
#
# Total GULP energy -134269.977851 kJ/mol
# GULP energy per Si atom -5594.582410 kJ/mol
# Density = 2.399082 g / cm^3
# Si number density = 24.045545 Si / 1000 Ang^3
#
#
#
# Elastic Constant Matrix: (Units=GPa)
#
#
# Indices 1 2 3 4 5 6 
#
# 1 94.5737 42.0432 26.7782 0.0000 8.8085 0.0000
# 2 42.0432 157.8720 25.6520 0.0000 7.2660 0.0000
# 3 26.7782 25.6520 78.1891 0.0000 22.3257 0.0000
# 4 0.0000 0.0000 0.0000 42.1416 0.0000 12.6732
# 5 8.8085 7.2660 22.3257 0.0000 31.7943 0.0000
# 6 0.0000 0.0000 0.0000 12.6732 0.0000 51.3478
#
#
#
# Elastic Compliance Matrix: (Units=1/GPa)
#
#
# Indices 1 2 3 4 5 6 
#
# 1 0.012829 -0.002855 -0.003288 0.000000 -0.000593 0.000000
# 2 -0.002855 0.007326 -0.001468 0.000000 0.000147 0.000000
# 3 -0.003288 -0.001468 0.017562 0.000000 -0.011086 0.000000
# 4 0.000000 0.000000 0.000000 0.025632 0.000000 -0.006326
# 5 -0.000593 0.000147 -0.011086 0.000000 0.039367 0.000000
# 6 0.000000 0.000000 0.000000 -0.006326 0.000000 0.021036
#
#
# Mechanical properties :
#
#
# Convention : Reuss Voigt Hill
#
# Bulk Modulus (GPa) = 44.45095 57.73127 51.09111
# Shear Modulus (GPa) = 34.13584 40.80084 37.46834
#
# Velocity S-wave (km/s) = 3.77189 4.12371 3.95172
# Velocity P-wave (km/s) = 6.12338 6.83627 6.48962
#
# Compressibility (1/GPa) = 0.02249671
#
# Stress axis : x y z
#
# Youngs Moduli (GPa) = 77.94761 136.49445 56.93969
#
# Poissons Ratio (x) = 0.38970 0.18720
# Poissons Ratio (y) = 0.22254 0.08358
# Poissons Ratio (z) = 0.25626 0.20036
#
# Static dielectric constant tensor:
#      x y z
#    x 1.928010 0.000000 0.005290 
#    y 0.000000 1.992580 0.000000 
#    z 0.005290 0.000000 1.933600 
# 
# From -- ./inp_files/12507.got.cif
#   From: 2010.05.17/outbox.cif.g08.bks.cpg/sg14_7_cif.got.tgz:12507.got - 2010.06.03 17:49:19.
