data_PCOD9253902
_publ_section_title
;
Structure prediction by ZEFSAII (Michael W. Deem and Ramdas Pophale) SiO2 
 PCOD9253902
Probable space group: C 2/C
;
_chemical_formula_sum "Si O2"
_cell_formula_units_Z 56
_cell_length_a 7.130270
_cell_length_b 24.715329
_cell_length_c 12.120336
_cell_angle_alpha 90.000000
_cell_angle_beta 78.230631
_cell_angle_gamma 90.000000
_cell_volume 2091.025509
_symmetry_space_group_name_H-M "C 2/C"
_symmetry_group_IT_number 15
_symmetry_cell_setting 'monoclinic'
loop_
_space_group_symop_operation_xyz
x,y,z
-x,y,1/2-z
-x,-y,-z
x,-y,1/2+z
1/2+x,1/2+y,z
1/2-x,1/2+y,1/2-z
1/2-x,1/2-y,-z
1/2+x,1/2-y,1/2+z
loop_
_atom_site_type_symbol
_atom_site_label
_atom_site_fract_x
_atom_site_fract_y
_atom_site_fract_z
Si Si1 0.855218 0.042842 0.463547
Si Si2 0.279119 0.288339 0.269127
Si Si3 0.253826 0.075183 0.340272
Si Si4 0.266744 0.472828 0.287238
Si Si5 0.249188 0.129963 0.566495
Si Si6 0.198789 0.851171 0.443401
Si Si7 0.721280 0.328922 0.693240
O O1 0.748567 0.085175 0.554312
O O2 0.018903 0.075443 0.375813
O O3 0.722244 0.009798 0.399031
O O4 0.000000 0.000000 0.500000
O O5 0.500000 0.306076 0.250000
O O6 0.183506 0.312777 0.391028
O O7 0.209388 0.316901 0.165259
O O8 0.288115 0.224869 0.247905
O O9 0.325716 0.100266 0.447488
O O10 0.304213 0.116556 0.236859
O O11 0.300771 0.012681 0.303731
O O12 0.500000 0.471355 0.250000
O O13 0.225556 0.412052 0.333820
O O14 0.029267 0.142303 0.554894
O O15 0.243151 0.827093 0.558584
O O16 0.500000 0.327206 0.750000
#
# Coordination Sequence:
#
# PCOD9253902 Si02
#       7
#     8   8   8   8   8   8   8
#     4  10  15  24  46  76 107 135 154 209 278 334
#     4  10  24  37  51  75 107 149 184 231 269 311
#     4  10  19  28  46  77 106 142 172 214 270 336
#     4  10  16  23  43  71 108 137 159 203 276 337
#     4  10  19  31  47  74 112 142 174 217 277 324
#     4  10  18  33  50  74 108 140 175 221 276 328
#     4  12  20  37  56  75 105 143 194 226 266 320
#
# _framework density 26.781119
#
# number of rings (size 3 to 8) (size 9 to 14) (size 15 to 20)
#    0.000    1.714    7.143    2.143    2.000    0.571 
#    0.000    0.000    0.000    0.000    0.000    1.000 
#    0.000    4.571    0.000    0.000    0.000    0.000 
#
# Total GULP energy -156255.213986 kJ/mol
# GULP energy per Si atom -5580.543357 kJ/mol
# Density = 2.672016 g / cm^3
# Si number density = 26.781119 Si / 1000 Ang^3
#
#
#
# Elastic Constant Matrix: (Units=GPa)
#
#
# Indices 1 2 3 4 5 6 
#
# 1 83.4503 -11.8011 11.6809 0.0000 5.0885 0.0000
# 2 -11.8011 142.4099 69.5099 0.0000 13.1160 0.0000
# 3 11.6809 69.5099 147.2980 0.0000 10.7463 0.0000
# 4 0.0000 0.0000 0.0000 39.2570 0.0000 17.9984
# 5 5.0885 13.1160 10.7463 0.0000 22.6362 0.0000
# 6 0.0000 0.0000 0.0000 17.9984 0.0000 0.8809
#
#
#
# Elastic Compliance Matrix: (Units=1/GPa)
#
#
# Indices 1 2 3 4 5 6 
#
# 1 0.012761 0.002258 -0.001837 0.000000 -0.003305 0.000000
# 2 0.002258 0.009776 -0.004498 0.000000 -0.004037 0.000000
# 3 -0.001837 -0.004498 0.009154 0.000000 -0.001327 0.000000
# 4 0.000000 0.000000 0.000000 -0.003044 0.000000 0.062200
# 5 -0.003305 -0.004037 -0.001327 0.000000 0.047889 0.000000
# 6 0.000000 0.000000 0.000000 0.062200 0.000000 -0.135667
#
#
# Mechanical properties :
#
#
# Convention : Reuss Voigt Hill
#
# Bulk Modulus (GPa) = 42.48265 56.88197 49.68231
# Shear Modulus (GPa) = -115.92294 32.80604 -41.55845
#
# Velocity S-wave (km/s) = -6.58630 3.50375 -3.94354
# Velocity P-wave (km/s) = 6.47624 6.13629 1.46418
#
# Compressibility (1/GPa) = 0.02353902
#
# Stress axis : x y z
#
# Youngs Moduli (GPa) = 78.36286 102.28689 109.24162
#
# Poissons Ratio (x) = -0.23099 0.20063
# Poissons Ratio (y) = -0.17697 0.49138
# Poissons Ratio (z) = 0.14392 0.46009
#
# Static dielectric constant tensor:
#      x y z
#    x 2.232100 0.000000 0.031390 
#    y 0.000000 2.130410 0.000000 
#    z 0.031390 0.000000 2.232730 
# 
# From -- ./inp_files/90415.got.cif
#   From: 2010.05.17/outbox.cif.g08.bks.cpg/sg15_46_cif.got.tgz:90415.got - 2010.06.03 18:47:42.
