data_PCOD9253458
_publ_section_title
;
Structure prediction by ZEFSAII (Michael W. Deem and Ramdas Pophale) SiO2 
 PCOD9253458
Probable space group: P 21/C
;
_chemical_formula_sum "Si O2"
_cell_formula_units_Z 16
_cell_length_a 4.913981
_cell_length_b 5.217349
_cell_length_c 25.441012
_cell_angle_alpha 90.000000
_cell_angle_beta 122.626403
_cell_angle_gamma 90.000000
_cell_volume 549.332205
_symmetry_space_group_name_H-M "P 21/C"
_symmetry_group_IT_number 14
_symmetry_cell_setting 'monoclinic'
loop_
_space_group_symop_operation_xyz
x,y,z
-x,1/2+y,1/2-z
-x,-y,-z
x,1/2-y,1/2+z
loop_
_atom_site_type_symbol
_atom_site_label
_atom_site_fract_x
_atom_site_fract_y
_atom_site_fract_z
Si Si1 0.544053 0.582284 0.575547
Si Si2 0.791404 0.562097 0.827080
Si Si3 0.951384 0.250898 0.045898
Si Si4 0.646495 0.569160 0.702243
O O1 0.298174 0.799315 0.527758
O O2 0.794578 0.498942 0.557746
O O3 0.732490 0.607200 0.650193
O O4 0.294013 0.347642 0.560849
O O5 0.900698 0.578010 0.777192
O O6 0.582562 0.309231 0.810468
O O7 0.027792 0.563169 0.901791
O O8 0.566399 0.812028 0.813419
#
# Coordination Sequence:
#
# PCOD9253458 Si02
#       4
#     4   4   4   4
#     4   9  18  35  58  84 115 151 192 238 288 343
#     4   9  18  35  58  85 117 153 194 240 290 345
#     4   9  18  35  58  84 115 151 192 238 288 343
#     4   9  18  35  58  85 117 153 194 240 290 345
#
# _framework density 29.126273999999999
#
# number of rings (size 3 to 8) (size 9 to 14) (size 15 to 20)
#    0.000    3.000    0.000    0.000    0.000    1.000 
#    0.000   30.000    0.000   27.000    0.000    0.000 
#    0.000    0.000    0.000    0.000    0.000    0.000 
#
# Total GULP energy -89593.343470 kJ/mol
# GULP energy per Si atom -5599.583967 kJ/mol
# Density = 2.905998 g / cm^3
# Si number density = 29.126274 Si / 1000 Ang^3
#
#
#
# Elastic Constant Matrix: (Units=GPa)
#
#
# Indices 1 2 3 4 5 6 
#
# 1 96.9409 20.1358 59.8387 0.0000 -12.2033 0.0000
# 2 20.1358 145.3290 43.8956 0.0000 19.9187 0.0000
# 3 59.8387 43.8956 222.0559 0.0000 -41.5590 0.0000
# 4 0.0000 0.0000 0.0000 -9.6958 0.0000 12.9208
# 5 -12.2033 19.9187 -41.5590 0.0000 57.1225 0.0000
# 6 0.0000 0.0000 0.0000 12.9208 0.0000 13.5564
#
#
#
# Elastic Compliance Matrix: (Units=1/GPa)
#
#
# Indices 1 2 3 4 5 6 
#
# 1 0.012478 -0.000919 -0.003035 0.000000 0.000778 0.000000
# 2 -0.000919 0.008359 -0.002300 0.000000 -0.004784 0.000000
# 3 -0.003035 -0.002300 0.006720 0.000000 0.005043 0.000000
# 4 0.000000 0.000000 0.000000 -0.045432 0.000000 0.043302
# 5 0.000778 -0.004784 0.005043 0.000000 0.023009 0.000000
# 6 0.000000 0.000000 0.000000 0.043302 0.000000 0.032494
#
#
# Mechanical properties :
#
#
# Convention : Reuss Voigt Hill
#
# Bulk Modulus (GPa) = 66.45410 79.11844 72.78627
# Shear Modulus (GPa) = 90.65862 34.89367 62.77615
#
# Velocity S-wave (km/s) = 5.58513 3.46499 4.64757
# Velocity P-wave (km/s) = 8.02851 6.57504 7.33785
#
# Compressibility (1/GPa) = 0.01504798
#
# Stress axis : x y z
#
# Youngs Moduli (GPa) = 80.14171 119.63530 148.81464
#
# Poissons Ratio (x) = 0.10990 0.45170
# Poissons Ratio (y) = 0.07362 0.34231
# Poissons Ratio (z) = 0.24326 0.27519
#
# Static dielectric constant tensor:
#      x y z
#    x 2.020000 0.000000 0.240140 
#    y 0.000000 2.231630 0.000000 
#    z 0.240140 0.000000 1.916030 
# 
# From -- ./inp_files/70753.got.cif
#   From: 2010.05.17/outbox.cif.g08.bks.cpg/sg14_36_cif.got.tgz:70753.got - 2010.06.03 17:49:19.
