data_PCOD9253856
_publ_section_title
;
Structure prediction by ZEFSAII (Michael W. Deem and Ramdas Pophale) SiO2 
 PCOD9253856
Probable space group: C 2/C
;
_chemical_formula_sum "Si O2"
_cell_formula_units_Z 36
_cell_length_a 7.784788
_cell_length_b 6.826663
_cell_length_c 22.798426
_cell_angle_alpha 90.000000
_cell_angle_beta 103.269701
_cell_angle_gamma 90.000000
_cell_volume 1179.253073
_symmetry_space_group_name_H-M "C 2/C"
_symmetry_group_IT_number 15
_symmetry_cell_setting 'monoclinic'
loop_
_space_group_symop_operation_xyz
x,y,z
-x,y,1/2-z
-x,-y,-z
x,-y,1/2+z
1/2+x,1/2+y,z
1/2-x,1/2+y,1/2-z
1/2-x,1/2-y,-z
1/2+x,1/2-y,1/2+z
loop_
_atom_site_type_symbol
_atom_site_label
_atom_site_fract_x
_atom_site_fract_y
_atom_site_fract_z
Si Si1 0.500000 0.500000 0.500000
Si Si2 0.455249 0.729597 0.609707
Si Si3 0.914235 0.607619 0.547116
Si Si4 0.368480 0.104981 0.832522
Si Si5 0.635445 0.481086 0.213808
O O1 0.290096 0.408993 0.463888
O O2 0.496566 0.316915 0.560111
O O3 0.412124 0.664615 0.543217
O O4 0.631847 0.655996 0.656970
O O5 0.500000 0.000000 0.500000
O O6 0.491062 0.977931 0.614825
O O7 0.297863 0.657560 0.639805
O O8 0.434625 0.308335 0.811488
O O9 0.308715 0.997298 0.767643
O O10 0.500000 0.394826 0.250000
#
# Coordination Sequence:
#
# PCOD9253856 Si02
#       5
#     4   8   8   8   8
#     4  10  14  30  60  90 102 158 200 226 300 352
#     4   9  18  33  56  85 118 151 191 241 291 342
#     4   8  16  28  57  84 108 153 193 231 293 343
#     4  10  20  38  56  86 119 152 195 238 291 346
#     4  12  23  37  61  88 120 159 195 238 293 351
#
# _framework density 30.527799000000002
#
# number of rings (size 3 to 8) (size 9 to 14) (size 15 to 20)
#    1.333    0.889    4.444    0.000    0.000    0.889 
#    0.000    0.000    0.000   10.667    0.000    0.000 
#    0.000    0.000    0.000    0.000    0.000    0.000 
#
# Total GULP energy -100331.416403 kJ/mol
# GULP energy per Si atom -5573.967578 kJ/mol
# Density = 3.045832 g / cm^3
# Si number density = 30.527799 Si / 1000 Ang^3
#
#
#
# Elastic Constant Matrix: (Units=GPa)
#
#
# Indices 1 2 3 4 5 6 
#
# 1 156.6787 22.1194 60.9790 0.0000 0.4226 0.0000
# 2 22.1194 171.4670 67.5687 0.0000 10.5533 0.0000
# 3 60.9790 67.5687 251.5765 0.0000 28.1815 0.0000
# 4 0.0000 0.0000 0.0000 66.5545 0.0000 6.4688
# 5 0.4226 10.5533 28.1815 0.0000 59.6957 0.0000
# 6 0.0000 0.0000 0.0000 6.4688 0.0000 63.2957
#
#
#
# Elastic Compliance Matrix: (Units=1/GPa)
#
#
# Indices 1 2 3 4 5 6 
#
# 1 0.007096 -0.000282 -0.001736 0.000000 0.000819 0.000000
# 2 -0.000282 0.006540 -0.001646 0.000000 -0.000377 0.000000
# 3 -0.001736 -0.001646 0.005072 0.000000 -0.002091 0.000000
# 4 0.000000 0.000000 0.000000 0.015176 0.000000 -0.001551
# 5 0.000819 -0.000377 -0.002091 0.000000 0.017800 0.000000
# 6 0.000000 0.000000 0.000000 -0.001551 0.000000 0.015957
#
#
# Mechanical properties :
#
#
# Convention : Reuss Voigt Hill
#
# Bulk Modulus (GPa) = 87.86952 97.89516 92.88234
# Shear Modulus (GPa) = 63.48233 66.51286 64.99760
#
# Velocity S-wave (km/s) = 4.56509 4.67279 4.61925
# Velocity P-wave (km/s) = 7.52547 7.82626 7.67734
#
# Compressibility (1/GPa) = 0.01138051
#
# Stress axis : x y z
#
# Youngs Moduli (GPa) = 140.93052 152.89992 197.15800
#
# Poissons Ratio (x) = 0.04307 0.34227
# Poissons Ratio (y) = 0.03970 0.32453
# Poissons Ratio (z) = 0.24466 0.25168
#
# Static dielectric constant tensor:
#      x y z
#    x 2.412450 0.000000 0.138410 
#    y 0.000000 2.913960 0.000000 
#    z 0.138410 0.000000 3.347110 
# 
# From -- ./inp_files/195276.got.cif
#   From: 2010.05.17/outbox.cif.g08.bks.cpg/sg15_98_cif.got.tgz:195276.got - 2010.06.03 18:47:42.
