data_PCOD9253628
_publ_section_title
;
Structure prediction by ZEFSAII (Michael W. Deem and Ramdas Pophale) SiO2 
 PCOD9253628
Probable space group: P 21/C
;
_chemical_formula_sum "Si O2"
_cell_formula_units_Z 24
_cell_length_a 9.000000
_cell_length_b 15.000000
_cell_length_c 18.000000
_cell_angle_alpha 90.000000
_cell_angle_beta 150.000000
_cell_angle_gamma 90.000000
_cell_volume 1215.000000
_symmetry_space_group_name_H-M "P 21/C"
_symmetry_group_IT_number 14
_symmetry_cell_setting 'monoclinic'
loop_
_space_group_symop_operation_xyz
x,y,z
-x,1/2+y,1/2-z
-x,-y,-z
x,1/2-y,1/2+z
loop_
_atom_site_type_symbol
_atom_site_label
_atom_site_fract_x
_atom_site_fract_y
_atom_site_fract_z
Si Si1 0.926926 0.149381 0.127614
Si Si2 0.272807 0.519488 0.792557
Si Si3 0.645621 0.695351 0.723975
Si Si4 0.101706 0.960506 0.390289
Si Si5 0.093612 0.653473 0.200625
Si Si6 0.532271 0.696561 0.850521
O O1 0.019575 0.046701 0.154084
O O2 0.209369 0.209034 0.228334
O O3 0.906216 0.161591 0.208861
O O4 0.640093 0.176984 0.953536
O O5 0.204488 0.537749 0.849356
O O6 0.308859 0.614917 0.770849
O O7 0.597285 0.471711 0.931573
O O8 0.599520 0.688292 0.792448
O O9 0.905212 0.625152 0.818152
O O10 0.903942 0.048715 0.316246
O O11 0.370133 0.710212 0.293180
O O12 0.802773 0.686703 0.027558
#
# Coordination Sequence:
#
# PCOD9253628 Si02
#       6
#     4   4   4   4   4   4
#     4  11  23  39  61  85 114 156 197 238 281 344
#     4   9  20  39  61  84 115 153 195 237 284 342
#     4  12  24  37  59  89 120 150 189 241 294 340
#     4   9  20  39  61  85 114 154 195 235 285 344
#     4  10  22  40  61  82 112 155 195 232 282 344
#     4  11  23  38  59  87 119 152 187 241 294 341
#
# _framework density 19.753086
#
# number of rings (size 3 to 8) (size 9 to 14) (size 15 to 20)
#    0.000    1.667    0.000    5.000    0.000    8.667 
#    0.000    0.000    0.000    0.000    0.000    0.000 
#    0.000    0.000    0.000    0.000    0.000    0.000 
#
# Total GULP energy -133914.149295 kJ/mol
# GULP energy per Si atom -5579.756221 kJ/mol
# Density = 1.970813 g / cm^3
# Si number density = 19.753086 Si / 1000 Ang^3
#
#
#
# Elastic Constant Matrix: (Units=GPa)
#
#
# Indices 1 2 3 4 5 6 
#
# 1 33.2595 26.7894 16.5423 0.0000 -9.1629 0.0000
# 2 26.7894 49.8959 -12.1162 0.0000 1.8732 0.0000
# 3 16.5423 -12.1162 61.4627 0.0000 -16.4913 0.0000
# 4 0.0000 0.0000 0.0000 38.3019 0.0000 -4.7508
# 5 -9.1629 1.8732 -16.4913 0.0000 21.7265 0.0000
# 6 0.0000 0.0000 0.0000 -4.7508 0.0000 50.9499
#
#
#
# Elastic Compliance Matrix: (Units=1/GPa)
#
#
# Indices 1 2 3 4 5 6 
#
# 1 0.111868 -0.070037 -0.037215 0.000000 0.024970 0.000000
# 2 -0.070037 0.064946 0.027909 0.000000 -0.013953 0.000000
# 3 -0.037215 0.027909 0.033819 0.000000 0.007568 0.000000
# 4 0.000000 0.000000 0.000000 0.026414 0.000000 0.002463
# 5 0.024970 -0.013953 0.007568 0.000000 0.063505 0.000000
# 6 0.000000 0.000000 0.000000 0.002463 0.000000 0.019857
#
#
# Mechanical properties :
#
#
# Convention : Reuss Voigt Hill
#
# Bulk Modulus (GPa) = 19.25059 23.00548 21.12803
# Shear Modulus (GPa) = 10.07230 29.75583 19.91406
#
# Velocity S-wave (km/s) = 2.26057 3.88543 3.17858
# Velocity P-wave (km/s) = 4.07189 5.63920 4.91838
#
# Compressibility (1/GPa) = 0.05194646
#
# Stress axis : x y z
#
# Youngs Moduli (GPa) = 8.93909 15.39738 29.56933
#
# Poissons Ratio (x) = 1.07839 1.10044
# Poissons Ratio (y) = 0.62607 -0.82526
# Poissons Ratio (z) = 0.33267 -0.42973
#
# Static dielectric constant tensor:
#      x y z
#    x 1.717600 0.000000 -0.002510 
#    y 0.000000 1.690940 0.000000 
#    z -0.002510 0.000000 1.683140 
# 
# From -- ./inp_files/8456.got.cif
#   From: 2010.05.17/outbox.ucp.g08.bks.cvg/sg14_5_cif.got.tgz:8456.got - 2010.06.11 12:31:08.
