data_PCOD9253272
_publ_section_title
;
Structure prediction by ZEFSAII (Michael W. Deem and Ramdas Pophale) SiO2 
 PCOD9253272
Probable space group: P 21/C
;
_chemical_formula_sum "Si O2"
_cell_formula_units_Z 28
_cell_length_a 8.846412
_cell_length_b 9.471669
_cell_length_c 18.882328
_cell_angle_alpha 90.000000
_cell_angle_beta 134.480337
_cell_angle_gamma 90.000000
_cell_volume 1128.853748
_symmetry_space_group_name_H-M "P 21/C"
_symmetry_group_IT_number 14
_symmetry_cell_setting 'monoclinic'
loop_
_space_group_symop_operation_xyz
x,y,z
-x,1/2+y,1/2-z
-x,-y,-z
x,1/2-y,1/2+z
loop_
_atom_site_type_symbol
_atom_site_label
_atom_site_fract_x
_atom_site_fract_y
_atom_site_fract_z
Si Si1 0.581622 0.787493 0.967101
Si Si2 0.777426 0.757153 0.682305
Si Si3 0.969535 0.669470 0.489979
Si Si4 0.610563 0.418306 0.717003
Si Si5 0.009109 0.068672 0.580730
Si Si6 0.205873 0.920865 0.355251
Si Si7 0.431819 0.807811 0.188735
O O1 0.796263 0.790139 0.991544
O O2 0.426307 0.653957 0.909753
O O3 0.439027 0.909658 0.882343
O O4 0.660468 0.798079 0.072990
O O5 0.831928 0.476894 0.817909
O O6 0.611817 0.732627 0.691647
O O7 0.003182 0.676869 0.766625
O O8 0.436243 0.732646 0.265166
O O9 0.000000 0.500000 0.500000
O O10 0.203092 0.726843 0.583222
O O11 0.447491 0.524424 0.700590
O O12 0.185471 0.424291 0.815532
O O13 0.802592 0.068700 0.561664
O O14 0.083360 0.231543 0.594772
O O15 0.000000 0.000000 0.500000
#
# Coordination Sequence:
#
# PCOD9253272 Si02
#       7
#     4   4   4   4   4   4   4
#     4  12  29  50  83 117 170 213 273 348 421 499
#     4  12  30  54  81 120 167 215 277 349 425 502
#     4  12  27  49  78 117 158 214 269 338 414 485
#     4  12  27  51  81 121 158 219 275 342 413 504
#     4  12  25  51  82 112 161 211 274 340 408 503
#     4  12  29  53  83 124 161 225 274 347 434 497
#     4  12  28  50  81 118 162 214 279 337 416 501
#
# _framework density 24.803922
#
# number of rings (size 3 to 8) (size 9 to 14) (size 15 to 20)
#    0.000    0.000    4.286    3.857    6.000    1.714 
#    0.000    0.000    0.000    0.000    0.000    0.000 
#    0.000    0.000    0.000    0.000    0.000    0.000 
#
# Total GULP energy -156612.251294 kJ/mol
# GULP energy per Si atom -5593.294689 kJ/mol
# Density = 2.474747 g / cm^3
# Si number density = 24.803922 Si / 1000 Ang^3
#
#
#
# Elastic Constant Matrix: (Units=GPa)
#
#
# Indices 1 2 3 4 5 6 
#
# 1 154.6268 54.1984 76.4659 0.0000 7.5814 0.0000
# 2 54.1984 154.7377 51.0192 0.0000 -2.9013 0.0000
# 3 76.4659 51.0192 135.3160 0.0000 7.3462 0.0000
# 4 0.0000 0.0000 0.0000 45.4111 0.0000 4.4285
# 5 7.5814 -2.9013 7.3462 0.0000 34.3415 0.0000
# 6 0.0000 0.0000 0.0000 4.4285 0.0000 45.1179
#
#
#
# Elastic Compliance Matrix: (Units=1/GPa)
#
#
# Indices 1 2 3 4 5 6 
#
# 1 0.009428 -0.001818 -0.004574 0.000000 -0.001256 0.000000
# 2 -0.001818 0.007782 -0.001988 0.000000 0.001484 0.000000
# 3 -0.004574 -0.001988 0.010804 0.000000 -0.001469 0.000000
# 4 0.000000 0.000000 0.000000 0.022234 0.000000 -0.002182
# 5 -0.001256 0.001484 -0.001469 0.000000 0.029836 0.000000
# 6 0.000000 0.000000 0.000000 -0.002182 0.000000 0.022378
#
#
# Mechanical properties :
#
#
# Convention : Reuss Voigt Hill
#
# Bulk Modulus (GPa) = 88.84514 89.78307 89.31410
# Shear Modulus (GPa) = 40.65917 42.50724 41.58321
#
# Velocity S-wave (km/s) = 4.05312 4.14421 4.09892
# Velocity P-wave (km/s) = 7.60266 7.69253 7.64773
#
# Compressibility (1/GPa) = 0.01125554
#
# Stress axis : x y z
#
# Youngs Moduli (GPa) = 106.06871 128.49542 92.55765
#
# Poissons Ratio (x) = 0.23356 0.42337
# Poissons Ratio (y) = 0.19279 0.18398
# Poissons Ratio (z) = 0.48517 0.25541
#
# Static dielectric constant tensor:
#      x y z
#    x 1.929970 0.000000 0.049790 
#    y 0.000000 2.036190 0.000000 
#    z 0.049790 0.000000 2.065480 
# 
# From -- ./inp_files/67079.got.cif
#   From: 2010.05.17/outbox.cif.g08.bks.cpg/sg14_34_cif.got.tgz:67079.got - 2010.06.03 17:49:19.
