data_PCOD9253262
_publ_section_title
;
Structure prediction by ZEFSAII (Michael W. Deem and Ramdas Pophale) SiO2 
 PCOD9253262
Probable space group: P 21/C
;
_chemical_formula_sum "Si O2"
_cell_formula_units_Z 20
_cell_length_a 4.882658
_cell_length_b 22.666316
_cell_length_c 7.065905
_cell_angle_alpha 90.000000
_cell_angle_beta 110.361898
_cell_angle_gamma 90.000000
_cell_volume 733.132730
_symmetry_space_group_name_H-M "P 21/C"
_symmetry_group_IT_number 14
_symmetry_cell_setting 'monoclinic'
loop_
_space_group_symop_operation_xyz
x,y,z
-x,1/2+y,1/2-z
-x,-y,-z
x,1/2-y,1/2+z
loop_
_atom_site_type_symbol
_atom_site_label
_atom_site_fract_x
_atom_site_fract_y
_atom_site_fract_z
Si Si1 0.619748 0.727778 0.943622
Si Si2 0.316085 0.528442 0.076861
Si Si3 0.607194 0.165563 0.946282
Si Si4 0.328975 0.972638 0.086331
Si Si5 0.792246 0.334367 0.891015
O O1 0.371402 0.701716 0.741762
O O2 0.648346 0.796299 0.009981
O O3 0.493169 0.699258 0.105102
O O4 0.917914 0.696029 0.960022
O O5 0.609366 0.482510 0.151391
O O6 0.393107 0.521384 0.348385
O O7 0.270851 0.598686 0.067704
O O8 0.000000 0.500000 0.000000
O O9 0.591033 0.097126 0.893354
O O10 0.833916 0.168898 0.173587
O O11 0.000000 0.000000 0.000000
#
# Coordination Sequence:
#
# PCOD9253262 Si02
#       5
#     4   4   4   4   4
#     4  12  30  49  80 117 154 215 270 333 404 486
#     4  12  25  49  77 114 157 205 262 328 402 488
#     4  12  28  53  81 114 165 208 277 331 411 481
#     4  12  27  47  78 114 154 208 260 331 408 479
#     4  12  28  51  80 116 160 206 269 335 399 486
#
# _framework density 27.280189
#
# number of rings (size 3 to 8) (size 9 to 14) (size 15 to 20)
#    0.000    0.000    4.000    4.800    5.600    4.800 
#    0.000    0.000    0.000    0.000    0.000    0.000 
#    0.000    0.000    0.000    0.000    0.000    0.000 
#
# Total GULP energy -111493.937905 kJ/mol
# GULP energy per Si atom -5574.696895 kJ/mol
# Density = 2.721810 g / cm^3
# Si number density = 27.280189 Si / 1000 Ang^3
#
#
#
# Elastic Constant Matrix: (Units=GPa)
#
#
# Indices 1 2 3 4 5 6 
#
# 1 191.6974 96.2251 39.8803 0.0000 -7.9758 0.0000
# 2 96.2251 222.2599 66.9467 0.0000 11.9091 0.0000
# 3 39.8803 66.9467 206.6192 0.0000 -16.9838 0.0000
# 4 0.0000 0.0000 0.0000 43.6890 0.0000 -18.7713
# 5 -7.9758 11.9091 -16.9838 0.0000 67.2253 0.0000
# 6 0.0000 0.0000 0.0000 -18.7713 0.0000 44.2837
#
#
#
# Elastic Compliance Matrix: (Units=1/GPa)
#
#
# Indices 1 2 3 4 5 6 
#
# 1 0.006794 -0.002931 -0.000258 0.000000 0.001260 0.000000
# 2 -0.002931 0.006368 -0.001653 0.000000 -0.001893 0.000000
# 3 -0.000258 -0.001653 0.005562 0.000000 0.001667 0.000000
# 4 0.000000 0.000000 0.000000 0.027986 0.000000 0.011863
# 5 0.001260 -0.001893 0.001667 0.000000 0.015782 0.000000
# 6 0.000000 0.000000 0.000000 0.011863 0.000000 0.027610
#
#
# Mechanical properties :
#
#
# Convention : Reuss Voigt Hill
#
# Bulk Modulus (GPa) = 110.62675 114.07562 112.35118
# Shear Modulus (GPa) = 48.63838 58.87454 53.75646
#
# Velocity S-wave (km/s) = 4.22704 4.65062 4.44388
# Velocity P-wave (km/s) = 8.02894 8.41099 8.22219
#
# Compressibility (1/GPa) = 0.00903941
#
# Stress axis : x y z
#
# Youngs Moduli (GPa) = 147.18823 157.04403 179.78194
#
# Poissons Ratio (x) = 0.46033 0.04639
# Poissons Ratio (y) = 0.43144 0.29719
# Poissons Ratio (z) = 0.03798 0.25960
#
# Static dielectric constant tensor:
#      x y z
#    x 2.187450 0.000000 -0.435020 
#    y 0.000000 1.410120 0.000000 
#    z -0.435020 0.000000 2.644700 
# 
# From -- ./inp_files/6332.got.cif
#   From: 2010.05.17/outbox.cif.g08.bks.cpg/sg14_4_cif.got.tgz:6332.got - 2010.06.03 17:49:19.
