data_PCOD9253095
_publ_section_title
;
Structure prediction by ZEFSAII (Michael W. Deem and Ramdas Pophale) SiO2 
 PCOD9253095
Probable space group: P 21/C
;
_chemical_formula_sum "Si O2"
_cell_formula_units_Z 20
_cell_length_a 8.884551
_cell_length_b 5.028694
_cell_length_c 18.839369
_cell_angle_alpha 90.000000
_cell_angle_beta 107.017899
_cell_angle_gamma 90.000000
_cell_volume 804.844276
_symmetry_space_group_name_H-M "P 21/C"
_symmetry_group_IT_number 14
_symmetry_cell_setting 'monoclinic'
loop_
_space_group_symop_operation_xyz
x,y,z
-x,1/2+y,1/2-z
-x,-y,-z
x,1/2-y,1/2+z
loop_
_atom_site_type_symbol
_atom_site_label
_atom_site_fract_x
_atom_site_fract_y
_atom_site_fract_z
Si Si1 0.588964 0.471370 0.677758
Si Si2 0.078854 0.701450 0.225809
Si Si3 0.752144 0.410245 0.377872
Si Si4 0.179798 0.424137 0.020278
Si Si5 0.621935 0.971864 0.581175
O O1 0.745451 0.429146 0.745254
O O2 0.411943 0.505340 0.684078
O O3 0.612825 0.721235 0.630343
O O4 0.595451 0.222370 0.626517
O O5 0.101303 0.855701 0.154165
O O6 0.966711 0.446788 0.227135
O O7 0.787868 0.639577 0.439979
O O8 0.728495 0.141170 0.419331
O O9 0.221518 0.447413 0.943645
O O10 0.000000 0.500000 0.000000
O O11 0.500000 0.000000 0.500000
#
# Coordination Sequence:
#
# PCOD9253095 Si02
#       5
#     4   4   4   4   4
#     4  12  26  47  78 103 145 195 240 300 357 444
#     4  12  30  50  74 107 147 196 251 311 365 424
#     4  12  26  50  73 105 146 193 247 291 364 440
#     4  12  27  43  74 111 147 186 232 307 365 431
#     4  12  23  45  75 110 143 181 243 294 368 436
#
# _framework density 24.849526000000001
#
# number of rings (size 3 to 8) (size 9 to 14) (size 15 to 20)
#    0.000    0.000    4.000    4.800    8.400    4.800 
#    0.000    0.000    0.000    0.000    0.000    0.000 
#    0.000    0.000    0.000    0.000    0.000    0.000 
#
# Total GULP energy -111917.171536 kJ/mol
# GULP energy per Si atom -5595.858577 kJ/mol
# Density = 2.479297 g / cm^3
# Si number density = 24.849526 Si / 1000 Ang^3
#
#
#
# Elastic Constant Matrix: (Units=GPa)
#
#
# Indices 1 2 3 4 5 6 
#
# 1 144.3879 19.7599 9.8042 0.0000 -18.5920 0.0000
# 2 19.7599 194.2085 26.1412 0.0000 -24.0016 0.0000
# 3 9.8042 26.1412 42.1675 0.0000 -14.2958 0.0000
# 4 0.0000 0.0000 0.0000 38.3080 0.0000 -6.4254
# 5 -18.5920 -24.0016 -14.2958 0.0000 46.0332 0.0000
# 6 0.0000 0.0000 0.0000 -6.4254 0.0000 46.1351
#
#
#
# Elastic Compliance Matrix: (Units=1/GPa)
#
#
# Indices 1 2 3 4 5 6 
#
# 1 0.007349 -0.000344 -0.000615 0.000000 0.002598 0.000000
# 2 -0.000344 0.005815 -0.002844 0.000000 0.002010 0.000000
# 3 -0.000615 -0.002844 0.027980 0.000000 0.006958 0.000000
# 4 0.000000 0.000000 0.000000 0.026729 0.000000 0.003723
# 5 0.002598 0.002010 0.006958 0.000000 0.025982 0.000000
# 6 0.000000 0.000000 0.000000 0.003723 0.000000 0.022194
#
#
# Mechanical properties :
#
#
# Convention : Reuss Voigt Hill
#
# Bulk Modulus (GPa) = 29.81557 54.68606 42.25081
# Shear Modulus (GPa) = 37.08292 47.76584 42.42438
#
# Velocity S-wave (km/s) = 3.86722 4.38905 4.13637
# Velocity P-wave (km/s) = 5.65376 6.90939 6.31287
#
# Compressibility (1/GPa) = 0.03353952
#
# Stress axis : x y z
#
# Youngs Moduli (GPa) = 136.07075 171.96062 35.74007
#
# Poissons Ratio (x) = 0.05914 0.02197
# Poissons Ratio (y) = 0.04680 0.10163
# Poissons Ratio (z) = 0.08365 0.48900
#
# Static dielectric constant tensor:
#      x y z
#    x 2.230580 0.000000 -0.071550 
#    y 0.000000 1.957260 0.000000 
#    z -0.071550 0.000000 2.141700 
# 
# From -- ./inp_files/54020.got.cif
#   From: 2010.05.17/outbox.cif.g08.bks.cpg/sg14_28_cif.got.tgz:54020.got - 2010.06.03 17:49:19.
