data_PCOD9253936
_publ_section_title
;
Structure prediction by ZEFSAII (Michael W. Deem and Ramdas Pophale) SiO2 
 PCOD9253936
Probable space group: C 2/C
;
_chemical_formula_sum "Si O2"
_cell_formula_units_Z 48
_cell_length_a 17.898459
_cell_length_b 6.789003
_cell_length_c 15.871445
_cell_angle_alpha 90.000000
_cell_angle_beta 113.265896
_cell_angle_gamma 90.000000
_cell_volume 1771.752914
_symmetry_space_group_name_H-M "C 2/C"
_symmetry_group_IT_number 15
_symmetry_cell_setting 'monoclinic'
loop_
_space_group_symop_operation_xyz
x,y,z
-x,y,1/2-z
-x,-y,-z
x,-y,1/2+z
1/2+x,1/2+y,z
1/2-x,1/2+y,1/2-z
1/2-x,1/2-y,-z
1/2+x,1/2-y,1/2+z
loop_
_atom_site_type_symbol
_atom_site_label
_atom_site_fract_x
_atom_site_fract_y
_atom_site_fract_z
Si Si1 0.064313 0.171172 0.431465
Si Si2 0.119111 0.239871 0.284542
Si Si3 0.615535 0.240836 0.596524
Si Si4 0.924768 0.712795 0.099020
Si Si5 0.393097 0.726741 0.764182
Si Si6 0.797875 0.848387 0.379187
O O1 0.062870 0.283279 0.341168
O O2 0.135749 0.227129 0.525586
O O3 0.977773 0.182935 0.437851
O O4 0.084358 0.946933 0.418150
O O5 0.124171 0.345737 0.195041
O O6 0.209390 0.270630 0.361043
O O7 0.099515 0.011188 0.250292
O O8 0.610467 0.130228 0.504197
O O9 0.681345 0.417234 0.617481
O O10 0.880863 0.672548 0.168230
O O11 0.021501 0.697899 0.159030
O O12 0.321748 0.737770 0.798920
#
# Coordination Sequence:
#
# PCOD9253936 Si02
#       6
#     8   8   8   8   8   8
#     4  10  15  27  43  65  91 117 151 190 223 271
#     4  10  19  24  40  69  98 114 145 193 239 266
#     4  10  17  29  46  65  93 119 156 187 226 271
#     4   9  14  26  47  66  80 117 152 193 215 253
#     4   9  16  27  44  64  92 114 151 186 229 264
#     4  10  17  27  40  66  98 122 140 187 248 267
#
# _framework density 27.091811
#
# number of rings (size 3 to 8) (size 9 to 14) (size 15 to 20)
#    0.000    2.333    5.000    2.000    0.000    0.000 
#    0.000    0.833    0.000    0.000    0.000    4.667 
#   40.000    0.000    0.000    0.000    0.000    0.000 
#
# Total GULP energy -134161.984169 kJ/mol
# GULP energy per Si atom -5590.082674 kJ/mol
# Density = 2.703015 g / cm^3
# Si number density = 27.091811 Si / 1000 Ang^3
#
#
#
# Elastic Constant Matrix: (Units=GPa)
#
#
# Indices 1 2 3 4 5 6 
#
# 1 87.5744 14.4036 16.9413 0.0000 -18.8528 0.0000
# 2 14.4036 113.5691 18.4964 0.0000 9.2586 0.0000
# 3 16.9413 18.4964 154.6348 0.0000 -21.2530 0.0000
# 4 0.0000 0.0000 0.0000 -9.3556 0.0000 12.1409
# 5 -18.8528 9.2586 -21.2530 0.0000 65.9339 0.0000
# 6 0.0000 0.0000 0.0000 12.1409 0.0000 5.7296
#
#
#
# Elastic Compliance Matrix: (Units=1/GPa)
#
#
# Indices 1 2 3 4 5 6 
#
# 1 0.012628 -0.001790 -0.000668 0.000000 0.003647 0.000000
# 2 -0.001790 0.009416 -0.001237 0.000000 -0.002233 0.000000
# 3 -0.000668 -0.001237 0.006996 0.000000 0.002238 0.000000
# 4 0.000000 0.000000 0.000000 -0.028505 0.000000 0.060401
# 5 0.003647 -0.002233 0.002238 0.000000 0.017244 0.000000
# 6 0.000000 0.000000 0.000000 0.060401 0.000000 0.046544
#
#
# Mechanical properties :
#
#
# Convention : Reuss Voigt Hill
#
# Bulk Modulus (GPa) = 46.19244 50.60678 48.39961
# Shear Modulus (GPa) = 63.34790 32.85735 48.10263
#
# Velocity S-wave (km/s) = 4.84081 3.48633 4.21829
# Velocity P-wave (km/s) = 6.95212 5.90984 6.45206
#
# Compressibility (1/GPa) = 0.02164856
#
# Stress axis : x y z
#
# Youngs Moduli (GPa) = 79.19181 106.20535 142.94810
#
# Poissons Ratio (x) = 0.19011 0.09551
# Poissons Ratio (y) = 0.14175 0.17683
# Poissons Ratio (z) = 0.05291 0.13138
#
# Static dielectric constant tensor:
#      x y z
#    x 2.008090 0.000000 -0.061050 
#    y 0.000000 2.170170 0.000000 
#    z -0.061050 0.000000 2.159590 
# 
# From -- ./inp_files/210067.got.cif
#   From: 2010.05.17/outbox.cif.g08.bks.cpg/sg15_106_cif.got.tgz:210067.got - 2010.06.03 18:47:42.
