data_PCOD9253760
_publ_section_title
;
Structure prediction by ZEFSAII (Michael W. Deem and Ramdas Pophale) SiO2 
 PCOD9253760
Probable space group: C 2/C
;
_chemical_formula_sum "Si O2"
_cell_formula_units_Z 60
_cell_length_a 27.355570
_cell_length_b 7.815763
_cell_length_c 20.055593
_cell_angle_alpha 90.000000
_cell_angle_beta 142.621428
_cell_angle_gamma 90.000000
_cell_volume 2603.140743
_symmetry_space_group_name_H-M "C 2/C"
_symmetry_group_IT_number 15
_symmetry_cell_setting 'monoclinic'
loop_
_space_group_symop_operation_xyz
x,y,z
-x,y,1/2-z
-x,-y,-z
x,-y,1/2+z
1/2+x,1/2+y,z
1/2-x,1/2+y,1/2-z
1/2-x,1/2-y,-z
1/2+x,1/2-y,1/2+z
loop_
_atom_site_type_symbol
_atom_site_label
_atom_site_fract_x
_atom_site_fract_y
_atom_site_fract_z
Si Si1 0.000000 0.270475 0.750000
Si Si2 0.027374 0.260071 0.627660
Si Si3 0.741057 0.074538 0.031184
Si Si4 0.634468 0.419944 0.718006
Si Si5 0.631285 0.453682 0.573157
Si Si6 0.974611 0.703249 0.522301
Si Si7 0.855613 0.024794 0.553384
Si Si8 0.570390 0.859188 0.380490
O O1 0.970756 0.330927 0.794365
O O2 0.926169 0.153076 0.646940
O O3 0.040965 0.360673 0.571208
O O4 0.938368 0.184299 0.516830
O O5 0.087433 0.094718 0.688032
O O6 0.649390 0.032702 0.947676
O O7 0.750000 0.250000 0.000000
O O8 0.899962 0.162299 0.098745
O O9 0.787525 0.947531 0.033734
O O10 0.675008 0.423348 0.689313
O O11 0.564570 0.276376 0.635033
O O12 0.704656 0.393238 0.845914
O O13 0.581723 0.627369 0.533149
O O14 0.681318 0.459916 0.560280
O O15 0.950123 0.608522 0.564182
O O16 0.500000 0.888673 0.250000
#
# Coordination Sequence:
#
# PCOD9253760 Si02
#       8
#     4   8   8   8   8   8   8   8
#     4  10  12  18  34  50  74  96 110 132 180 210
#     4   8  13  18  32  50  66  95 115 138 169 214
#     4  10  18  21  31  50  71  97 124 143 164 207
#     4   9  13  23  31  48  68  92 119 143 168 208
#     4   7  13  19  33  46  65  92 116 135 172 215
#     4   8  13  22  32  44  67  94 123 138 167 209
#     4   9  14  22  32  50  70  94 117 140 170 212
#     4  10  17  24  32  44  69 106 125 141 167 198
#
# _framework density 23.04908
#
# number of rings (size 3 to 8) (size 9 to 14) (size 15 to 20)
#    0.000    3.200    2.000    4.000    0.000    0.000 
#    0.000    0.000    0.000    0.000    0.000    0.933 
#    0.000    9.600    0.800    0.000    0.000    0.000 
#
# Total GULP energy -167044.713660 kJ/mol
# GULP energy per Si atom -5568.157122 kJ/mol
# Density = 2.299662 g / cm^3
# Si number density = 23.049080 Si / 1000 Ang^3
#
#
#
# Elastic Constant Matrix: (Units=GPa)
#
#
# Indices 1 2 3 4 5 6 
#
# 1 181.4466 12.2398 109.3161 0.0000 -50.5485 0.0000
# 2 12.2398 38.0032 25.3108 0.0000 -18.1546 0.0000
# 3 109.3161 25.3108 142.7478 0.0000 -42.5498 0.0000
# 4 0.0000 0.0000 0.0000 16.8939 0.0000 -17.2040
# 5 -50.5485 -18.1546 -42.5498 0.0000 49.3973 0.0000
# 6 0.0000 0.0000 0.0000 -17.2040 0.0000 4.4204
#
#
#
# Elastic Compliance Matrix: (Units=1/GPa)
#
#
# Indices 1 2 3 4 5 6 
#
# 1 0.011912 0.004826 -0.007825 0.000000 0.007223 0.000000
# 2 0.004826 0.034797 -0.006164 0.000000 0.012417 0.000000
# 3 -0.007825 -0.006164 0.014839 0.000000 0.002509 0.000000
# 4 0.000000 0.000000 0.000000 -0.019975 0.000000 -0.077740
# 5 0.007223 0.012417 0.002509 0.000000 0.034360 0.000000
# 6 0.000000 0.000000 0.000000 -0.077740 0.000000 -0.076339
#
#
# Mechanical properties :
#
#
# Convention : Reuss Voigt Hill
#
# Bulk Modulus (GPa) = 23.13721 72.88122 48.00921
# Shear Modulus (GPa) = 154.66588 28.49769 91.58179
#
# Velocity S-wave (km/s) = 8.20052 3.52005 6.31028
# Velocity P-wave (km/s) = 9.98623 6.94332 8.60042
#
# Compressibility (1/GPa) = 0.04322043
#
# Stress axis : x y z
#
# Youngs Moduli (GPa) = 83.94628 28.73851 67.39202
#
# Poissons Ratio (x) = -0.13868 0.52735
# Poissons Ratio (y) = -0.40509 0.41541
# Poissons Ratio (z) = 0.65688 0.17714
#
# Static dielectric constant tensor:
#      x y z
#    x 2.061150 0.000000 -0.013260 
#    y 0.000000 1.724550 0.000000 
#    z -0.013260 0.000000 1.807340 
# 
# From -- ./inp_files/219449.got.cif
#   From: 2010.05.17/outbox.cif.g08.bks.cpg/sg15_110_cif.got.tgz:219449.got - 2010.06.03 18:47:42.
