data_PCOD9253380
_publ_section_title
;
Structure prediction by ZEFSAII (Michael W. Deem and Ramdas Pophale) SiO2 
 PCOD9253380
Probable space group: P 21/C
;
_chemical_formula_sum "Si O2"
_cell_formula_units_Z 26
_cell_length_a 5.156902
_cell_length_b 11.230153
_cell_length_c 17.189689
_cell_angle_alpha 90.000000
_cell_angle_beta 105.901604
_cell_angle_gamma 90.000000
_cell_volume 957.408718
_symmetry_space_group_name_H-M "P 21/C"
_symmetry_group_IT_number 14
_symmetry_cell_setting 'monoclinic'
loop_
_space_group_symop_operation_xyz
x,y,z
-x,1/2+y,1/2-z
-x,-y,-z
x,1/2-y,1/2+z
loop_
_atom_site_type_symbol
_atom_site_label
_atom_site_fract_x
_atom_site_fract_y
_atom_site_fract_z
Si Si1 0.000000 0.000000 0.500000
Si Si2 0.825892 0.383683 0.668028
Si Si3 0.803696 0.547654 0.160704
Si Si4 0.972171 0.728746 0.951008
Si Si5 0.483241 0.327123 0.172074
Si Si6 0.847226 0.864504 0.088218
Si Si7 0.573093 0.240439 0.842206
O O1 0.119908 0.051649 0.423599
O O2 0.831397 0.130204 0.498288
O O3 0.550993 0.311491 0.660856
O O4 0.834887 0.501431 0.616756
O O5 0.961858 0.410326 0.761404
O O6 0.971879 0.287470 0.625874
O O7 0.730373 0.413818 0.177998
O O8 0.545433 0.626877 0.165395
O O9 0.736076 0.631737 0.910441
O O10 0.885002 0.831876 0.001608
O O11 0.422754 0.328702 0.258296
O O12 0.559817 0.814648 0.091692
O O13 0.115030 0.796884 0.143085
#
# Coordination Sequence:
#
# PCOD9253380 Si02
#       7
#     2   4   4   4   4   4   4
#     4  12  28  50  82 120 176 212 284 356 430 496
#     4  12  28  53  81 119 170 223 285 351 425 528
#     4  12  27  52  86 121 170 225 289 358 431 520
#     4  12  29  51  78 126 162 220 283 352 432 514
#     4  12  29  48  84 119 164 221 292 348 433 513
#     4  12  30  52  84 118 169 223 280 352 431 506
#     4  12  28  53  81 121 165 229 280 347 427 516
#
# _framework density 27.156638000000001
#
# number of rings (size 3 to 8) (size 9 to 14) (size 15 to 20)
#    0.000    0.000    6.154    1.385   10.769    1.231 
#    0.000    0.000    0.000    0.000    0.000    0.000 
#    0.000    0.000    0.000    0.000    0.000    0.000 
#
# Total GULP energy -145028.617621 kJ/mol
# GULP energy per Si atom -5578.023755 kJ/mol
# Density = 2.709483 g / cm^3
# Si number density = 27.156638 Si / 1000 Ang^3
#
#
#
# Elastic Constant Matrix: (Units=GPa)
#
#
# Indices 1 2 3 4 5 6 
#
# 1 65.5492 17.9725 4.9767 0.0000 -8.4339 0.0000
# 2 17.9725 141.8669 -3.3204 0.0000 -17.5150 0.0000
# 3 4.9767 -3.3204 132.7205 0.0000 -28.9316 0.0000
# 4 0.0000 0.0000 0.0000 47.4696 0.0000 -21.6159
# 5 -8.4339 -17.5150 -28.9316 0.0000 45.6656 0.0000
# 6 0.0000 0.0000 0.0000 -21.6159 0.0000 39.9232
#
#
#
# Elastic Compliance Matrix: (Units=1/GPa)
#
#
# Indices 1 2 3 4 5 6 
#
# 1 0.016033 -0.001767 -0.000171 0.000000 0.002175 0.000000
# 2 -0.001767 0.007695 0.000964 0.000000 0.003236 0.000000
# 3 -0.000171 0.000964 0.008863 0.000000 0.005953 0.000000
# 4 0.000000 0.000000 0.000000 0.027960 0.000000 0.015138
# 5 0.002175 0.003236 0.005953 0.000000 0.027313 0.000000
# 6 0.000000 0.000000 0.000000 0.015138 0.000000 0.033245
#
#
# Mechanical properties :
#
#
# Convention : Reuss Voigt Hill
#
# Bulk Modulus (GPa) = 32.63376 42.15489 37.39432
# Shear Modulus (GPa) = 37.51799 47.97888 42.74844
#
# Velocity S-wave (km/s) = 3.72094 4.20783 3.97185
# Velocity P-wave (km/s) = 5.52300 6.25814 5.90202
#
# Compressibility (1/GPa) = 0.03064311
#
# Stress axis : x y z
#
# Youngs Moduli (GPa) = 62.37155 129.95897 112.82959
#
# Poissons Ratio (x) = 0.22959 0.01932
# Poissons Ratio (y) = 0.11019 -0.10878
# Poissons Ratio (z) = 0.01068 -0.12530
#
# Static dielectric constant tensor:
#      x y z
#    x 2.126970 0.000000 -0.082420 
#    y 0.000000 1.885460 0.000000 
#    z -0.082420 0.000000 1.687070 
# 
# From -- ./inp_files/53010.got.cif
#   From: 2010.05.17/outbox.cif.g08.bks.cpg/sg14_27_cif.got.tgz:53010.got - 2010.06.03 17:49:19.
