data_PCOD9253026
_publ_section_title
;
Structure prediction by ZEFSAII (Michael W. Deem and Ramdas Pophale) SiO2 
 PCOD9253026
Probable space group: P 21/C
;
_chemical_formula_sum "Si O2"
_cell_formula_units_Z 28
_cell_length_a 9.173962
_cell_length_b 14.475621
_cell_length_c 11.544183
_cell_angle_alpha 90.000000
_cell_angle_beta 52.919626
_cell_angle_gamma 90.000000
_cell_volume 1223.055616
_symmetry_space_group_name_H-M "P 21/C"
_symmetry_group_IT_number 14
_symmetry_cell_setting 'monoclinic'
loop_
_space_group_symop_operation_xyz
x,y,z
-x,1/2+y,1/2-z
-x,-y,-z
x,1/2-y,1/2+z
loop_
_atom_site_type_symbol
_atom_site_label
_atom_site_fract_x
_atom_site_fract_y
_atom_site_fract_z
Si Si1 0.219311 0.140143 0.673360
Si Si2 0.032030 0.715367 0.118968
Si Si3 0.238309 0.848924 0.871935
Si Si4 0.323245 0.937488 0.064032
Si Si5 0.834496 0.669245 0.553931
Si Si6 0.972846 0.493808 0.874542
Si Si7 0.495852 0.743180 0.577952
O O1 0.207616 0.107927 0.811917
O O2 0.403728 0.195932 0.566571
O O3 0.184141 0.060921 0.598223
O O4 0.051196 0.214860 0.745712
O O5 0.201633 0.759427 0.971581
O O6 0.000000 0.500000 0.000000
O O7 0.875154 0.729785 0.094770
O O8 0.065261 0.612300 0.135449
O O9 0.390266 0.815478 0.710459
O O10 0.285267 0.926519 0.944610
O O11 0.034424 0.863737 0.916473
O O12 0.153031 0.978099 0.216100
O O13 0.364163 0.836037 0.095290
O O14 0.500000 0.000000 0.000000
O O15 0.663223 0.686049 0.556420
#
# Coordination Sequence:
#
# PCOD9253026 Si02
#       7
#     4   4   4   4   4   4   4
#     4   9  21  37  61  94 127 171 214 266 327 388
#     4   8  19  41  61  86 133 170 205 272 327 377
#     4   9  22  42  61  94 134 174 211 262 339 385
#     4  12  26  41  65 105 132 163 226 289 313 391
#     4   8  20  41  59  85 128 175 202 258 334 379
#     4  12  21  37  70 100 123 171 233 263 322 397
#     4  12  21  37  68  90 130 177 216 261 336 397
#
# _framework density 22.89348
#
# number of rings (size 3 to 8) (size 9 to 14) (size 15 to 20)
#    1.714    0.000    2.857    3.429    6.000    0.000 
#    0.000    0.714    3.143    2.571    0.000    0.000 
#    0.000    0.000    0.000    0.000    0.000    0.000 
#
# Total GULP energy -156147.478310 kJ/mol
# GULP energy per Si atom -5576.695654 kJ/mol
# Density = 2.284137 g / cm^3
# Si number density = 22.893480 Si / 1000 Ang^3
#
#
#
# Elastic Constant Matrix: (Units=GPa)
#
#
# Indices 1 2 3 4 5 6 
#
# 1 79.1230 -8.2475 8.3192 0.0000 3.7685 0.0000
# 2 -8.2475 62.3349 9.7011 0.0000 12.8940 0.0000
# 3 8.3192 9.7011 104.4735 0.0000 -8.8498 0.0000
# 4 0.0000 0.0000 0.0000 33.1992 0.0000 -0.1786
# 5 3.7685 12.8940 -8.8498 0.0000 30.1015 0.0000
# 6 0.0000 0.0000 0.0000 -0.1786 0.0000 30.2878
#
#
#
# Elastic Compliance Matrix: (Units=1/GPa)
#
#
# Indices 1 2 3 4 5 6 
#
# 1 0.013239 0.002673 -0.001579 0.000000 -0.003267 0.000000
# 2 0.002673 0.018713 -0.002726 0.000000 -0.009152 0.000000
# 3 -0.001579 -0.002726 0.010323 0.000000 0.004400 0.000000
# 4 0.000000 0.000000 0.000000 0.030122 0.000000 0.000178
# 5 -0.003267 -0.009152 0.004400 0.000000 0.038844 0.000000
# 6 0.000000 0.000000 0.000000 0.000178 0.000000 0.033018
#
#
# Mechanical properties :
#
#
# Convention : Reuss Voigt Hill
#
# Bulk Modulus (GPa) = 25.63317 29.49744 27.56530
# Shear Modulus (GPa) = 31.14745 34.46160 32.80452
#
# Velocity S-wave (km/s) = 3.69255 3.88403 3.78950
# Velocity P-wave (km/s) = 5.42226 5.74690 5.58694
#
# Compressibility (1/GPa) = 0.03901196
#
# Stress axis : x y z
#
# Youngs Moduli (GPa) = 75.53550 53.43781 96.86726
#
# Poissons Ratio (x) = -0.14284 0.15297
# Poissons Ratio (y) = -0.20191 0.26404
# Poissons Ratio (z) = 0.11928 0.14566
#
# Static dielectric constant tensor:
#      x y z
#    x 1.881430 0.000000 0.050640 
#    y 0.000000 1.871650 0.000000 
#    z 0.050640 0.000000 1.896220 
# 
# From -- ./inp_files/44899.got.cif
#   From: 2010.05.17/outbox.cif.g08.bks.cpg/sg14_23_cif.got.tgz:44899.got - 2010.06.03 17:49:19.
