data_PCOD9253715
_publ_section_title
;
Structure prediction by ZEFSAII (Michael W. Deem and Ramdas Pophale) SiO2 
 PCOD9253715
Probable space group: P 21/C
;
_chemical_formula_sum "Si O2"
_cell_formula_units_Z 32
_cell_length_a 21.000000
_cell_length_b 15.000000
_cell_length_c 15.000000
_cell_angle_alpha 90.000000
_cell_angle_beta 160.000000
_cell_angle_gamma 90.000000
_cell_volume 1616.045177
_symmetry_space_group_name_H-M "P 21/C"
_symmetry_group_IT_number 14
_symmetry_cell_setting 'monoclinic'
loop_
_space_group_symop_operation_xyz
x,y,z
-x,1/2+y,1/2-z
-x,-y,-z
x,1/2-y,1/2+z
loop_
_atom_site_type_symbol
_atom_site_label
_atom_site_fract_x
_atom_site_fract_y
_atom_site_fract_z
Si Si1 0.509774 0.455811 0.913952
Si Si2 0.828633 0.939744 0.737551
Si Si3 0.345948 0.306217 0.243001
Si Si4 0.886551 0.639742 0.631576
Si Si5 0.530667 0.839652 0.909010
Si Si6 0.764872 0.004331 0.455425
Si Si7 0.931627 0.769582 0.381828
Si Si8 0.354901 0.727761 0.989990
O O1 0.298603 0.424884 0.608071
O O2 0.500000 0.500000 0.000000
O O3 0.631456 0.528723 0.020091
O O4 0.624103 0.363562 0.042165
O O5 0.817272 0.964701 0.619761
O O6 0.866047 0.834224 0.798909
O O7 0.000000 0.000000 0.000000
O O8 0.472283 0.292594 0.497866
O O9 0.270029 0.409818 0.144564
O O10 0.487299 0.292347 0.345356
O O11 0.190911 0.225270 0.030817
O O12 0.942711 0.690617 0.796467
O O13 0.064375 0.574711 0.842879
O O14 0.423081 0.797172 0.681028
O O15 0.423661 0.934754 0.783603
O O16 0.755756 0.829259 0.187404
O O17 0.142444 0.765904 0.702086
#
# Coordination Sequence:
#
# PCOD9253715 Si02
#       8
#     4   4   4   4   4   4   4   4
#     4  11  23  41  67 106 147 185 250 315 366 440
#     4  12  22  40  71 106 143 189 243 304 380 429
#     4  11  26  48  73 101 149 196 242 302 377 443
#     4  11  25  46  72 109 149 187 250 312 364 454
#     4  12  25  46  74 103 145 195 243 297 370 445
#     4  12  24  48  71 102 151 193 245 298 373 448
#     4  12  24  46  74 107 150 189 238 315 370 439
#     4  11  24  48  70 107 149 185 245 311 363 445
#
# _framework density 19.801427
#
# number of rings (size 3 to 8) (size 9 to 14) (size 15 to 20)
#    0.000    0.500    6.250    1.875    7.000    0.000 
#    2.250    3.750    0.000    0.000    0.000    0.000 
#    0.000    0.000    0.000    0.000    0.000    0.000 
#
# Total GULP energy -178318.876961 kJ/mol
# GULP energy per Si atom -5572.464905 kJ/mol
# Density = 1.975636 g / cm^3
# Si number density = 19.801427 Si / 1000 Ang^3
#
#
#
# Elastic Constant Matrix: (Units=GPa)
#
#
# Indices 1 2 3 4 5 6 
#
# 1 86.5337 35.5598 37.3265 0.0000 -11.6950 0.0000
# 2 35.5598 130.6007 50.1426 0.0000 14.6058 0.0000
# 3 37.3265 50.1426 143.3630 0.0000 6.1566 0.0000
# 4 0.0000 0.0000 0.0000 47.0930 0.0000 8.0876
# 5 -11.6950 14.6058 6.1566 0.0000 51.6713 0.0000
# 6 0.0000 0.0000 0.0000 8.0876 0.0000 39.8552
#
#
#
# Elastic Compliance Matrix: (Units=1/GPa)
#
#
# Indices 1 2 3 4 5 6 
#
# 1 0.014845 -0.003470 -0.002852 0.000000 0.004681 0.000000
# 2 -0.003470 0.009898 -0.002417 0.000000 -0.003295 0.000000
# 3 -0.002852 -0.002417 0.008606 0.000000 -0.000988 0.000000
# 4 0.000000 0.000000 0.000000 0.022001 0.000000 -0.004465
# 5 0.004681 -0.003295 -0.000988 0.000000 0.021462 0.000000
# 6 0.000000 0.000000 0.000000 -0.004465 0.000000 0.025997
#
#
# Mechanical properties :
#
#
# Convention : Reuss Voigt Hill
#
# Bulk Modulus (GPa) = 63.01240 67.39503 65.20371
# Shear Modulus (GPa) = 39.81569 43.55515 41.68542
#
# Velocity S-wave (km/s) = 4.48900 4.69507 4.59319
# Velocity P-wave (km/s) = 7.66547 7.96875 7.81858
#
# Compressibility (1/GPa) = 0.01586989
#
# Stress axis : x y z
#
# Youngs Moduli (GPa) = 67.36139 101.02688 116.20165
#
# Poissons Ratio (x) = 0.35060 0.33145
# Poissons Ratio (y) = 0.23377 0.28085
# Poissons Ratio (z) = 0.19214 0.24418
#
# Static dielectric constant tensor:
#      x y z
#    x 1.772920 0.000000 0.000680 
#    y 0.000000 1.716390 0.000000 
#    z 0.000680 0.000000 1.725300 
# 
# From -- ./inp_files/50720.got.cif
#   From: 2010.05.17/outbox.ucp.g08.bks.cvg/sg14_26_cif.got.tgz:50720.got - 2010.06.11 12:31:08.
