data_PCOD9253223
_publ_section_title
;
Structure prediction by ZEFSAII (Michael W. Deem and Ramdas Pophale) SiO2 
 PCOD9253223
Probable space group: P 21/C
;
_chemical_formula_sum "Si O2"
_cell_formula_units_Z 20
_cell_length_a 7.810140
_cell_length_b 8.527453
_cell_length_c 20.058041
_cell_angle_alpha 90.000000
_cell_angle_beta 138.564331
_cell_angle_gamma 90.000000
_cell_volume 884.055359
_symmetry_space_group_name_H-M "P 21/C"
_symmetry_group_IT_number 14
_symmetry_cell_setting 'monoclinic'
loop_
_space_group_symop_operation_xyz
x,y,z
-x,1/2+y,1/2-z
-x,-y,-z
x,1/2-y,1/2+z
loop_
_atom_site_type_symbol
_atom_site_label
_atom_site_fract_x
_atom_site_fract_y
_atom_site_fract_z
Si Si1 0.648373 0.828688 0.773724
Si Si2 0.659973 0.084587 0.606110
Si Si3 0.825658 0.653031 0.949060
Si Si4 0.943032 0.705791 0.233821
Si Si5 0.880006 0.324556 0.353048
O O1 0.807441 0.719166 0.870098
O O2 0.702079 0.774034 0.713699
O O3 0.352005 0.802089 0.707704
O O4 0.752054 0.004103 0.815774
O O5 0.453978 0.103035 0.605047
O O6 0.805478 0.252758 0.647563
O O7 0.500000 0.000000 0.500000
O O8 0.896195 0.969228 0.693039
O O9 0.000000 0.500000 0.000000
O O10 0.933819 0.784328 0.031128
O O11 0.970761 0.799848 0.172932
#
# Coordination Sequence:
#
# PCOD9253223 Si02
#       5
#     4   4   4   4   4
#     4  12  26  45  72 107 144 195 243 312 370 438
#     4  12  25  47  75 105 147 198 240 309 368 437
#     4  12  25  47  73 107 148 192 249 308 376 447
#     4  12  25  46  73 105 148 190 252 298 372 444
#     4  12  26  46  73 104 148 192 247 307 370 446
#
# _framework density 22.623018999999999
#
# number of rings (size 3 to 8) (size 9 to 14) (size 15 to 20)
#    0.000    0.000    6.000    4.200    2.800    0.000 
#    0.000    4.000    0.000    0.000    0.000    0.000 
#    0.000    0.000    0.000    0.000    0.000    0.000 
#
# Total GULP energy -111719.391611 kJ/mol
# GULP energy per Si atom -5585.969581 kJ/mol
# Density = 2.257153 g / cm^3
# Si number density = 22.623019 Si / 1000 Ang^3
#
#
#
# Elastic Constant Matrix: (Units=GPa)
#
#
# Indices 1 2 3 4 5 6 
#
# 1 94.7257 36.7110 20.8564 0.0000 -17.9682 0.0000
# 2 36.7110 106.9488 30.1479 0.0000 11.5528 0.0000
# 3 20.8564 30.1479 84.5684 0.0000 -4.3532 0.0000
# 4 0.0000 0.0000 0.0000 58.3370 0.0000 8.2294
# 5 -17.9682 11.5528 -4.3532 0.0000 41.0674 0.0000
# 6 0.0000 0.0000 0.0000 8.2294 0.0000 31.9342
#
#
#
# Elastic Compliance Matrix: (Units=1/GPa)
#
#
# Indices 1 2 3 4 5 6 
#
# 1 0.014387 -0.005426 -0.001218 0.000000 0.007692 0.000000
# 2 -0.005426 0.012916 -0.003595 0.000000 -0.006389 0.000000
# 3 -0.001218 -0.003595 0.013505 0.000000 0.001910 0.000000
# 4 0.000000 0.000000 0.000000 0.017788 0.000000 -0.004584
# 5 0.007692 -0.006389 0.001910 0.000000 0.029715 0.000000
# 6 0.000000 0.000000 0.000000 -0.004584 0.000000 0.032496
#
#
# Mechanical properties :
#
#
# Convention : Reuss Voigt Hill
#
# Bulk Modulus (GPa) = 49.18810 51.29704 50.24257
# Shear Modulus (GPa) = 33.76948 39.50289 36.63618
#
# Velocity S-wave (km/s) = 3.86774 4.18321 4.02857
# Velocity P-wave (km/s) = 6.46031 6.78648 6.62540
#
# Compressibility (1/GPa) = 0.02033012
#
# Stress axis : x y z
#
# Youngs Moduli (GPa) = 69.50797 77.42119 74.04608
#
# Poissons Ratio (x) = 0.42009 0.09018
# Poissons Ratio (y) = 0.37715 0.26621
# Poissons Ratio (z) = 0.08465 0.27835
#
# Static dielectric constant tensor:
#      x y z
#    x 1.827440 0.000000 -0.004590 
#    y 0.000000 1.947000 0.000000 
#    z -0.004590 0.000000 1.902470 
# 
# From -- ./inp_files/48373.got.cif
#   From: 2010.05.17/outbox.cif.g08.bks.cpg/sg14_25_cif.got.tgz:48373.got - 2010.06.03 17:49:19.
