data_PCOD9253450
_publ_section_title
;
Structure prediction by ZEFSAII (Michael W. Deem and Ramdas Pophale) SiO2 
 PCOD9253450
Probable space group: P 21/C
;
_chemical_formula_sum "Si O2"
_cell_formula_units_Z 24
_cell_length_a 8.378721
_cell_length_b 9.545716
_cell_length_c 25.650886
_cell_angle_alpha 90.000000
_cell_angle_beta 25.027940
_cell_angle_gamma 90.000000
_cell_volume 867.942084
_symmetry_space_group_name_H-M "P 21/C"
_symmetry_group_IT_number 14
_symmetry_cell_setting 'monoclinic'
loop_
_space_group_symop_operation_xyz
x,y,z
-x,1/2+y,1/2-z
-x,-y,-z
x,1/2-y,1/2+z
loop_
_atom_site_type_symbol
_atom_site_label
_atom_site_fract_x
_atom_site_fract_y
_atom_site_fract_z
Si Si1 0.197383 0.336235 0.020708
Si Si2 0.389348 0.609023 0.319436
Si Si3 0.087911 0.584567 0.787733
Si Si4 0.202940 0.881825 0.025763
Si Si5 0.169517 0.597835 0.651982
Si Si6 0.716104 0.831304 0.616517
O O1 0.799578 0.259227 0.127133
O O2 0.173590 0.406252 0.084238
O O3 0.510747 0.215968 0.934890
O O4 0.275980 0.406290 0.941650
O O5 0.690599 0.563033 0.273007
O O6 0.579599 0.582734 0.206783
O O7 0.036619 0.505309 0.429566
O O8 0.933928 0.599973 0.775083
O O9 0.400434 0.707475 0.703057
O O10 0.031368 0.869241 0.134975
O O11 0.096458 0.746879 0.023560
O O12 0.621852 0.944180 0.910691
#
# Coordination Sequence:
#
# PCOD9253450 Si02
#       6
#     4   4   4   4   4   4
#     4   9  17  30  48  69  94 124 155 191 234 274
#     4   9  17  30  48  70  91 120 158 193 231 270
#     4   9  17  30  47  68  95 124 155 192 232 274
#     4   9  17  31  51  72  91 120 159 193 228 272
#     4   9  17  31  50  70  94 123 156 191 229 277
#     4   9  17  30  48  69  93 120 157 196 228 271
#
# _framework density 27.651615
#
# number of rings (size 3 to 8) (size 9 to 14) (size 15 to 20)
#    0.000    3.000    0.000    1.000    0.000    4.667 
#    0.000   13.333    0.000    2.000    0.000    0.000 
#    0.000    0.000    0.000    0.000    0.000    0.000 
#
# Total GULP energy -134156.683390 kJ/mol
# GULP energy per Si atom -5589.861808 kJ/mol
# Density = 2.758868 g / cm^3
# Si number density = 27.651615 Si / 1000 Ang^3
#
#
#
# Elastic Constant Matrix: (Units=GPa)
#
#
# Indices 1 2 3 4 5 6 
#
# 1 142.9034 33.5904 72.1678 0.0000 50.2476 0.0000
# 2 33.5904 61.1963 19.3593 0.0000 -15.5634 0.0000
# 3 72.1678 19.3593 83.2798 0.0000 33.1818 0.0000
# 4 0.0000 0.0000 0.0000 24.4940 0.0000 -4.5206
# 5 50.2476 -15.5634 33.1818 0.0000 61.8020 0.0000
# 6 0.0000 0.0000 0.0000 -4.5206 0.0000 41.2298
#
#
#
# Elastic Compliance Matrix: (Units=1/GPa)
#
#
# Indices 1 2 3 4 5 6 
#
# 1 0.018276 -0.010880 -0.008010 0.000000 -0.013299 0.000000
# 2 -0.010880 0.028434 -0.004528 0.000000 0.018437 0.000000
# 3 -0.008010 -0.004528 0.022721 0.000000 -0.006827 0.000000
# 4 0.000000 0.000000 0.000000 0.041669 0.000000 0.004569
# 5 -0.013299 0.018437 -0.006827 0.000000 0.035302 0.000000
# 6 0.000000 0.000000 0.000000 0.004569 0.000000 0.024755
#
#
# Mechanical properties :
#
#
# Convention : Reuss Voigt Hill
#
# Bulk Modulus (GPa) = 44.25368 59.73494 51.99431
# Shear Modulus (GPa) = 22.17045 36.32263 29.24654
#
# Velocity S-wave (km/s) = 2.83464 3.62827 3.25573
# Velocity P-wave (km/s) = 5.17227 6.26115 5.74258
#
# Compressibility (1/GPa) = 0.02259699
#
# Stress axis : x y z
#
# Youngs Moduli (GPa) = 54.71563 35.16902 44.01134
#
# Poissons Ratio (x) = 0.38264 0.35252
# Poissons Ratio (y) = 0.59531 0.19927
# Poissons Ratio (z) = 0.43826 0.15923
#
# Static dielectric constant tensor:
#      x y z
#    x 2.090830 0.000000 0.005700 
#    y 0.000000 2.161830 0.000000 
#    z 0.005700 0.000000 2.228500 
# 
# From -- ./inp_files/24066.got.cif
#   From: 2010.05.17/outbox.cif.g08.bks.cpg/sg14_13_cif.got.tgz:24066.got - 2010.06.03 17:49:19.
