data_PCOD9253852
_publ_section_title
;
Structure prediction by ZEFSAII (Michael W. Deem and Ramdas Pophale) SiO2 
 PCOD9253852
Probable space group: C 2/C
;
_chemical_formula_sum "Si O2"
_cell_formula_units_Z 52
_cell_length_a 14.246914
_cell_length_b 7.410195
_cell_length_c 19.540415
_cell_angle_alpha 90.000000
_cell_angle_beta 97.709853
_cell_angle_gamma 90.000000
_cell_volume 2044.280142
_symmetry_space_group_name_H-M "C 2/C"
_symmetry_group_IT_number 15
_symmetry_cell_setting 'monoclinic'
loop_
_space_group_symop_operation_xyz
x,y,z
-x,y,1/2-z
-x,-y,-z
x,-y,1/2+z
1/2+x,1/2+y,z
1/2-x,1/2+y,1/2-z
1/2-x,1/2-y,-z
1/2+x,1/2-y,1/2+z
loop_
_atom_site_type_symbol
_atom_site_label
_atom_site_fract_x
_atom_site_fract_y
_atom_site_fract_z
Si Si1 0.856488 0.409512 0.886370
Si Si2 0.435388 0.851677 0.607766
Si Si3 0.611224 0.300643 0.543896
Si Si4 0.250000 0.250000 0.500000
Si Si5 0.744638 0.094380 0.343016
Si Si6 0.315195 0.301475 0.712943
Si Si7 0.426216 0.290192 0.600933
O O1 0.872226 0.604738 0.920494
O O2 0.772942 0.418194 0.823372
O O3 0.954377 0.335454 0.863917
O O4 0.830364 0.289094 0.948856
O O5 0.409002 0.742664 0.536801
O O6 0.355857 0.806952 0.656187
O O7 0.424296 0.069504 0.592820
O O8 0.704784 0.407950 0.577468
O O9 0.517266 0.369787 0.572885
O O10 0.329445 0.349785 0.556061
O O11 0.815499 0.174769 0.293833
O O12 0.718365 0.896605 0.314253
O O13 0.410600 0.334286 0.679331
#
# Coordination Sequence:
#
# PCOD9253852 Si02
#       7
#     8   8   8   4   8   8   8
#     4  10  19  35  65  86 117 148 201 235 291 340
#     4  10  19  37  59  91 116 156 187 241 292 362
#     4  11  19  37  62  93 113 153 189 253 287 349
#     4  10  14  30  56  90 114 144 180 242 270 346
#     4  11  24  40  59  81 125 152 203 235 296 345
#     4  10  23  41  57  87 111 165 194 243 288 350
#     4   9  18  33  62  85 115 146 201 235 285 341
#
# _framework density 25.436826
#
# number of rings (size 3 to 8) (size 9 to 14) (size 15 to 20)
#    0.000    1.846    3.077    2.308    0.000    1.231 
#    0.000   11.538    0.000    0.000    0.000    0.000 
#    0.000    0.000    0.000    0.000    0.000    0.000 
#
# Total GULP energy -144958.124949 kJ/mol
# GULP energy per Si atom -5575.312498 kJ/mol
# Density = 2.537893 g / cm^3
# Si number density = 25.436826 Si / 1000 Ang^3
#
#
#
# Elastic Constant Matrix: (Units=GPa)
#
#
# Indices 1 2 3 4 5 6 
#
# 1 103.1468 -0.3451 -0.9651 0.0000 -25.7520 0.0000
# 2 -0.3451 61.7159 3.5351 0.0000 -4.4801 0.0000
# 3 -0.9651 3.5351 65.1238 0.0000 -10.9971 0.0000
# 4 0.0000 0.0000 0.0000 25.0359 0.0000 12.4237
# 5 -25.7520 -4.4801 -10.9971 0.0000 40.1729 0.0000
# 6 0.0000 0.0000 0.0000 12.4237 0.0000 9.2163
#
#
#
# Elastic Compliance Matrix: (Units=1/GPa)
#
#
# Indices 1 2 3 4 5 6 
#
# 1 0.011701 0.000559 0.001489 0.000000 0.007970 0.000000
# 2 0.000559 0.016385 -0.000537 0.000000 0.002038 0.000000
# 3 0.001489 -0.000537 0.016312 0.000000 0.005360 0.000000
# 4 0.000000 0.000000 0.000000 0.120647 0.000000 -0.162634
# 5 0.007970 0.002038 0.005360 0.000000 0.031696 0.000000
# 6 0.000000 0.000000 0.000000 -0.162634 0.000000 0.327737
#
#
# Mechanical properties :
#
#
# Convention : Reuss Voigt Hill
#
# Bulk Modulus (GPa) = 21.08862 26.04849 23.56855
# Shear Modulus (GPa) = 9.30643 30.06914 19.68779
#
# Velocity S-wave (km/s) = 1.91483 3.44191 2.78508
# Velocity P-wave (km/s) = 3.63282 5.10474 4.43034
#
# Compressibility (1/GPa) = 0.04741895
#
# Stress axis : x y z
#
# Youngs Moduli (GPa) = 85.46546 61.03095 61.30586
#
# Poissons Ratio (x) = -0.03410 -0.09128
# Poissons Ratio (y) = -0.04775 0.03292
# Poissons Ratio (z) = -0.12726 0.03277
#
# Static dielectric constant tensor:
#      x y z
#    x 1.876460 0.000000 -0.025060 
#    y 0.000000 2.039190 0.000000 
#    z -0.025060 0.000000 2.011620 
# 
# From -- ./inp_files/242458.got.cif
#   From: 2010.05.17/outbox.cif.g08.bks.cpg/sg15_122_cif.got.tgz:242458.got - 2010.06.03 18:47:42.
