data_PCOD9253280
_publ_section_title
;
Structure prediction by ZEFSAII (Michael W. Deem and Ramdas Pophale) SiO2 
 PCOD9253280
Probable space group: P 21/C
;
_chemical_formula_sum "Si O2"
_cell_formula_units_Z 24
_cell_length_a 4.743343
_cell_length_b 17.004782
_cell_length_c 12.838552
_cell_angle_alpha 90.000000
_cell_angle_beta 83.958700
_cell_angle_gamma 90.000000
_cell_volume 1029.800209
_symmetry_space_group_name_H-M "P 21/C"
_symmetry_group_IT_number 14
_symmetry_cell_setting 'monoclinic'
loop_
_space_group_symop_operation_xyz
x,y,z
-x,1/2+y,1/2-z
-x,-y,-z
x,1/2-y,1/2+z
loop_
_atom_site_type_symbol
_atom_site_label
_atom_site_fract_x
_atom_site_fract_y
_atom_site_fract_z
Si Si1 0.004076 0.171586 0.871632
Si Si2 0.062296 0.649112 0.091106
Si Si3 0.843499 0.939606 0.802728
Si Si4 0.564638 0.106705 0.754055
Si Si5 0.662831 0.070522 0.053484
Si Si6 0.594691 0.589250 0.976592
O O1 0.035522 0.261408 0.901883
O O2 0.300534 0.129349 0.837623
O O3 0.816253 0.165932 0.773940
O O4 0.407306 0.108488 0.130219
O O5 0.972816 0.605085 0.199767
O O6 0.912789 0.603972 0.001280
O O7 0.395888 0.642034 0.058397
O O8 0.093846 0.956250 0.875257
O O9 0.695407 0.020359 0.770936
O O10 0.821655 0.126065 0.965872
O O11 0.457257 0.109739 0.640797
O O12 0.500000 0.000000 0.000000
O O13 0.500000 0.500000 0.000000
#
# Coordination Sequence:
#
# PCOD9253280 Si02
#       6
#     4   4   4   4   4   4
#     4  12  28  47  70 108 151 187 237 302 374 419
#     4  12  28  49  72 110 149 188 239 312 358 430
#     4  12  26  44  77 106 141 188 250 293 357 433
#     4  12  26  45  77 105 141 192 241 297 357 441
#     4  12  26  44  74 108 141 193 244 297 358 440
#     4  12  26  47  79 107 142 191 254 292 361 429
#
# _framework density 23.305491
#
# number of rings (size 3 to 8) (size 9 to 14) (size 15 to 20)
#    0.000    0.000    3.333    6.000    2.333    4.000 
#    0.000    0.000    0.000    0.000    0.000    0.000 
#    0.000    0.000    0.000    0.000    0.000    0.000 
#
# Total GULP energy -134557.462204 kJ/mol
# GULP energy per Si atom -5606.560925 kJ/mol
# Density = 2.325245 g / cm^3
# Si number density = 23.305491 Si / 1000 Ang^3
#
#
#
# Elastic Constant Matrix: (Units=GPa)
#
#
# Indices 1 2 3 4 5 6 
#
# 1 136.4820 29.3013 33.4164 0.0000 0.9013 0.0000
# 2 29.3013 119.4705 36.2250 0.0000 -2.6766 0.0000
# 3 33.4164 36.2250 123.5862 0.0000 7.1177 0.0000
# 4 0.0000 0.0000 0.0000 21.4910 0.0000 0.0465
# 5 0.9013 -2.6766 7.1177 0.0000 49.1548 0.0000
# 6 0.0000 0.0000 0.0000 0.0465 0.0000 29.0306
#
#
#
# Elastic Compliance Matrix: (Units=1/GPa)
#
#
# Indices 1 2 3 4 5 6 
#
# 1 0.008068 -0.001445 -0.001760 0.000000 0.000028 0.000000
# 2 -0.001445 0.009485 -0.002441 0.000000 0.000896 0.000000
# 3 -0.001760 -0.002441 0.009367 0.000000 -0.001457 0.000000
# 4 0.000000 0.000000 0.000000 0.046531 0.000000 -0.000075
# 5 0.000028 0.000896 -0.001457 0.000000 0.020603 0.000000
# 6 0.000000 0.000000 0.000000 -0.000075 0.000000 0.034447
#
#
# Mechanical properties :
#
#
# Convention : Reuss Voigt Hill
#
# Bulk Modulus (GPa) = 63.98511 64.15823 64.07167
# Shear Modulus (GPa) = 34.48260 38.64167 36.56214
#
# Velocity S-wave (km/s) = 3.85072 4.07633 3.96513
# Velocity P-wave (km/s) = 6.87643 7.05297 6.96526
#
# Compressibility (1/GPa) = 0.01562864
#
# Stress axis : x y z
#
# Youngs Moduli (GPa) = 123.95043 105.43140 106.76032
#
# Poissons Ratio (x) = 0.15230 0.18786
# Poissons Ratio (y) = 0.17905 0.26062
# Poissons Ratio (z) = 0.21811 0.25738
#
# Static dielectric constant tensor:
#      x y z
#    x 1.859930 0.000000 -0.015020 
#    y 0.000000 1.850790 0.000000 
#    z -0.015020 0.000000 1.897510 
# 
# From -- ./inp_files/21305.got.cif
#   From: 2010.05.17/outbox.cif.g08.bks.cpg/sg14_11_cif.got.tgz:21305.got - 2010.06.03 17:49:19.
