data_PCOD9253640
_publ_section_title
;
Structure prediction by ZEFSAII (Michael W. Deem and Ramdas Pophale) SiO2 
 PCOD9253640
Probable space group: P 21/C
;
_chemical_formula_sum "Si O2"
_cell_formula_units_Z 32
_cell_length_a 15.000000
_cell_length_b 21.000000
_cell_length_c 15.000000
_cell_angle_alpha 90.000000
_cell_angle_beta 20.000000
_cell_angle_gamma 90.000000
_cell_volume 1616.045177
_symmetry_space_group_name_H-M "P 21/C"
_symmetry_group_IT_number 14
_symmetry_cell_setting 'monoclinic'
loop_
_space_group_symop_operation_xyz
x,y,z
-x,1/2+y,1/2-z
-x,-y,-z
x,1/2-y,1/2+z
loop_
_atom_site_type_symbol
_atom_site_label
_atom_site_fract_x
_atom_site_fract_y
_atom_site_fract_z
Si Si1 0.587724 0.174474 0.056046
Si Si2 0.412402 0.949313 0.860499
Si Si3 0.762296 0.040770 0.267720
Si Si4 0.335504 0.706187 0.719401
Si Si5 0.888204 0.661513 0.259016
Si Si6 0.899891 0.034310 0.346034
Si Si7 0.141700 0.206818 0.616399
Si Si8 0.560273 0.148193 0.331017
O O1 0.611149 0.204923 0.936516
O O2 0.875940 0.179697 0.827213
O O3 0.526836 0.098827 0.115188
O O4 0.369458 0.205142 0.326703
O O5 0.388103 0.901428 0.798377
O O6 0.645123 0.999376 0.625660
O O7 0.141486 0.985675 0.124431
O O8 0.832871 0.048010 0.305357
O O9 0.681327 0.108501 0.299482
O O10 0.500000 0.000000 0.500000
O O11 0.000000 0.000000 0.000000
O O12 0.578662 0.665389 0.530276
O O13 0.338132 0.778893 0.755096
O O14 0.062316 0.676197 0.007632
O O15 0.920829 0.722015 0.293672
O O16 0.002897 0.598141 0.195949
O O17 0.255264 0.165613 0.593741
#
# Coordination Sequence:
#
# PCOD9253640 Si02
#       8
#     4   4   4   4   4   4   4   4
#     4  11  23  42  68  97 125 168 232 269 314 393
#     4  11  22  41  65  90 129 173 213 254 328 394
#     4  12  24  40  62  97 134 164 216 257 319 402
#     4  11  25  44  68  97 130 170 225 282 324 373
#     4  11  24  44  64  93 135 171 217 274 333 388
#     4  12  24  42  64  94 132 176 208 262 325 396
#     4  10  22  41  67  93 128 173 217 268 337 381
#     4  10  22  42  65  93 132 170 205 267 332 389
#
# _framework density 19.801427
#
# number of rings (size 3 to 8) (size 9 to 14) (size 15 to 20)
#    0.000    1.000    2.500    5.250    1.750    3.000 
#    2.250    3.750    0.000    0.000    0.000    0.000 
#    0.000    0.000    0.000    0.000    0.000    0.000 
#
# Total GULP energy -178564.704685 kJ/mol
# GULP energy per Si atom -5580.147021 kJ/mol
# Density = 1.975636 g / cm^3
# Si number density = 19.801427 Si / 1000 Ang^3
#
#
#
# Elastic Constant Matrix: (Units=GPa)
#
#
# Indices 1 2 3 4 5 6 
#
# 1 45.1859 31.7010 15.0375 0.0000 -0.3919 0.0000
# 2 31.7010 95.3287 22.8412 0.0000 2.7731 0.0000
# 3 15.0375 22.8412 118.3324 0.0000 -3.1744 0.0000
# 4 0.0000 0.0000 0.0000 25.5271 0.0000 -3.0525
# 5 -0.3919 2.7731 -3.1744 0.0000 29.2586 0.0000
# 6 0.0000 0.0000 0.0000 -3.0525 0.0000 40.2011
#
#
#
# Elastic Compliance Matrix: (Units=1/GPa)
#
#
# Indices 1 2 3 4 5 6 
#
# 1 0.029313 -0.009325 -0.001896 0.000000 0.001071 0.000000
# 2 -0.009325 0.014013 -0.001563 0.000000 -0.001623 0.000000
# 3 -0.001896 -0.001563 0.009023 0.000000 0.001102 0.000000
# 4 0.000000 0.000000 0.000000 0.039533 0.000000 0.003002
# 5 0.001071 -0.001623 0.001102 0.000000 0.034466 0.000000
# 6 0.000000 0.000000 0.000000 0.003002 0.000000 0.025103
#
#
# Mechanical properties :
#
#
# Convention : Reuss Voigt Hill
#
# Bulk Modulus (GPa) = 37.34139 44.22293 40.78216
# Shear Modulus (GPa) = 26.88952 31.61517 29.25234
#
# Velocity S-wave (km/s) = 3.68905 4.00010 3.84772
# Velocity P-wave (km/s) = 6.08640 6.61181 6.35454
#
# Compressibility (1/GPa) = 0.02677994
#
# Stress axis : x y z
#
# Youngs Moduli (GPa) = 34.11444 71.36396 110.82675
#
# Poissons Ratio (x) = 0.66544 0.21018
# Poissons Ratio (y) = 0.31811 0.17326
# Poissons Ratio (z) = 0.06470 0.11157
#
# Static dielectric constant tensor:
#      x y z
#    x 1.733480 0.000000 0.022380 
#    y 0.000000 1.706140 0.000000 
#    z 0.022380 0.000000 1.701960 
# 
# From -- ./inp_files/47658.got.cif
#   From: 2010.05.17/outbox.ucp.g08.bks.cvg/sg14_24_cif.got.tgz:47658.got - 2010.06.11 12:31:08.
