data_PCOD9253645
_publ_section_title
;
Structure prediction by ZEFSAII (Michael W. Deem and Ramdas Pophale) SiO2 
 PCOD9253645
Probable space group: P 21/C
;
_chemical_formula_sum "Si O2"
_cell_formula_units_Z 28
_cell_length_a 12.000000
_cell_length_b 6.000000
_cell_length_c 21.000000
_cell_angle_alpha 90.000000
_cell_angle_beta 60.000000
_cell_angle_gamma 90.000000
_cell_volume 1309.430411
_symmetry_space_group_name_H-M "P 21/C"
_symmetry_group_IT_number 14
_symmetry_cell_setting 'monoclinic'
loop_
_space_group_symop_operation_xyz
x,y,z
-x,1/2+y,1/2-z
-x,-y,-z
x,1/2-y,1/2+z
loop_
_atom_site_type_symbol
_atom_site_label
_atom_site_fract_x
_atom_site_fract_y
_atom_site_fract_z
Si Si1 0.132862 0.155405 0.659929
Si Si2 0.639874 0.525408 0.108367
Si Si3 0.102658 0.260190 0.024294
Si Si4 0.262419 0.284093 0.308001
Si Si5 0.826104 0.353642 0.566234
Si Si6 0.843151 0.034905 0.758213
Si Si7 0.351203 0.914774 0.670761
O O1 0.109735 0.157569 0.592995
O O2 0.183793 0.388375 0.672135
O O3 0.245937 0.986074 0.647529
O O4 0.986614 0.129660 0.728234
O O5 0.640426 0.638400 0.177667
O O6 0.689797 0.271196 0.098210
O O7 0.504454 0.583772 0.113079
O O8 0.771224 0.631262 0.042944
O O9 0.955021 0.289273 0.043255
O O10 0.133362 0.997899 0.006463
O O11 0.192165 0.471003 0.370688
O O12 0.158571 0.127741 0.302534
O O13 0.338403 0.404279 0.230208
O O14 0.721146 0.195197 0.782885
#
# Coordination Sequence:
#
# PCOD9253645 Si02
#       7
#     4   4   4   4   4   4   4
#     4  11  23  41  67  93 128 169 215 273 320 385
#     4  11  24  41  63  94 133 170 214 261 328 389
#     4  10  23  40  66  94 129 172 217 268 314 385
#     4  10  23  37  66  93 126 167 209 275 321 382
#     4  10  22  42  65  97 127 169 222 263 322 381
#     4  11  23  42  64  98 124 167 219 267 329 378
#     4  11  25  39  62  96 131 167 215 267 328 384
#
# _framework density 21.383343
#
# number of rings (size 3 to 8) (size 9 to 14) (size 15 to 20)
#    0.000    1.429    1.429    3.000    6.000    7.429 
#    0.000    1.429    0.000    0.000    0.000    0.000 
#    0.000    0.000    0.000    0.000    0.000    0.000 
#
# Total GULP energy -155905.211454 kJ/mol
# GULP energy per Si atom -5568.043266 kJ/mol
# Density = 2.133467 g / cm^3
# Si number density = 21.383343 Si / 1000 Ang^3
#
#
#
# Elastic Constant Matrix: (Units=GPa)
#
#
# Indices 1 2 3 4 5 6 
#
# 1 136.2311 30.1803 15.0713 0.0000 -45.2206 0.0000
# 2 30.1803 53.7686 11.7068 0.0000 -15.6166 0.0000
# 3 15.0713 11.7068 18.0870 0.0000 -20.1432 0.0000
# 4 0.0000 0.0000 0.0000 12.3116 0.0000 -1.8331
# 5 -45.2206 -15.6166 -20.1432 0.0000 17.2306 0.0000
# 6 0.0000 0.0000 0.0000 -1.8331 0.0000 20.1821
#
#
#
# Elastic Compliance Matrix: (Units=1/GPa)
#
#
# Indices 1 2 3 4 5 6 
#
# 1 0.003937 -0.002863 -0.023813 0.000000 -0.020100 0.000000
# 2 -0.002863 0.023148 -0.007947 0.000000 0.004175 0.000000
# 3 -0.023813 -0.007947 -0.008788 0.000000 -0.079971 0.000000
# 4 0.000000 0.000000 0.000000 0.082337 0.000000 0.007478
# 5 -0.020100 0.004175 -0.079971 0.000000 -0.084420 0.000000
# 6 0.000000 0.000000 0.000000 0.007478 0.000000 0.050228
#
#
# Mechanical properties :
#
#
# Convention : Reuss Voigt Hill
#
# Bulk Modulus (GPa) = -19.62764 35.77815 8.07525
# Shear Modulus (GPa) = 42.12049 20.02010 31.07029
#
# Velocity S-wave (km/s) = 4.44304 3.06314 3.81598
# Velocity P-wave (km/s) = 4.13786 5.41096 4.81666
#
# Compressibility (1/GPa) = -0.05094855
#
# Stress axis : x y z
#
# Youngs Moduli (GPa) = 253.99036 43.19988 -113.79800
#
# Poissons Ratio (x) = 0.12369 -2.70984
# Poissons Ratio (y) = 0.72721 -0.90439
# Poissons Ratio (z) = 6.04820 0.34333
#
# Static dielectric constant tensor:
#      x y z
#    x 1.737950 0.000000 0.013570 
#    y 0.000000 1.935330 0.000000 
#    z 0.013570 0.000000 1.839910 
# 
# From -- ./inp_files/66404.got.cif
#   From: 2010.05.17/outbox.ucp.g08.bks.cvg/sg14_34_cif.got.tgz:66404.got - 2010.06.11 12:31:08.
