data_PCOD9253710
_publ_section_title
;
Structure prediction by ZEFSAII (Michael W. Deem and Ramdas Pophale) SiO2 
 PCOD9253710
Probable space group: P 21/C
;
_chemical_formula_sum "Si O2"
_cell_formula_units_Z 32
_cell_length_a 12.000000
_cell_length_b 18.000000
_cell_length_c 15.000000
_cell_angle_alpha 90.000000
_cell_angle_beta 150.000000
_cell_angle_gamma 90.000000
_cell_volume 1620.000000
_symmetry_space_group_name_H-M "P 21/C"
_symmetry_group_IT_number 14
_symmetry_cell_setting 'monoclinic'
loop_
_space_group_symop_operation_xyz
x,y,z
-x,1/2+y,1/2-z
-x,-y,-z
x,1/2-y,1/2+z
loop_
_atom_site_type_symbol
_atom_site_label
_atom_site_fract_x
_atom_site_fract_y
_atom_site_fract_z
Si Si1 0.028081 0.214624 0.589221
Si Si2 0.511315 0.088070 0.502791
Si Si3 0.527371 0.700640 0.716453
Si Si4 0.928109 0.171724 0.865447
Si Si5 0.770387 0.901796 0.525019
Si Si6 0.434512 0.370277 0.740420
Si Si7 0.915655 0.286391 0.695071
Si Si8 0.157434 0.954375 0.536379
O O1 0.903685 0.272048 0.433605
O O2 0.039703 0.253116 0.693795
O O3 0.946299 0.128825 0.544093
O O4 0.266076 0.207729 0.707309
O O5 0.729284 0.115065 0.707687
O O6 0.312197 0.109917 0.431193
O O7 0.490282 0.115228 0.385078
O O8 0.500000 0.000000 0.500000
O O9 0.597046 0.638744 0.837209
O O10 0.498468 0.784550 0.734963
O O11 0.313102 0.686489 0.507939
O O12 0.916295 0.220511 0.767358
O O13 0.167056 0.130541 0.041912
O O14 0.990659 0.852722 0.679657
O O15 0.825451 0.985286 0.532220
O O16 0.578511 0.427509 0.779235
O O17 0.000000 0.000000 0.500000
#
# Coordination Sequence:
#
# PCOD9253710 Si02
#       8
#     4   4   4   4   4   4   4   4
#     4  11  23  44  73  99 138 185 235 290 346 424
#     4  12  25  44  70 101 143 181 228 297 350 408
#     4  11  22  44  69 103 131 179 240 280 337 418
#     4  11  24  44  72 106 127 184 244 285 345 416
#     4  12  25  44  70 103 137 184 230 287 361 412
#     4  11  23  47  71 100 138 182 236 288 346 418
#     4  12  23  43  72  99 136 179 236 289 338 425
#     4  12  23  46  70  99 148 184 217 294 365 411
#
# _framework density 19.753086
#
# number of rings (size 3 to 8) (size 9 to 14) (size 15 to 20)
#    0.000    0.500    7.500    2.250    0.000    0.500 
#    4.500    0.625    0.000    0.000    0.000    0.000 
#    0.000    0.000    0.000    0.000    0.000    0.000 
#
# Total GULP energy -178185.690736 kJ/mol
# GULP energy per Si atom -5568.302835 kJ/mol
# Density = 1.970813 g / cm^3
# Si number density = 19.753086 Si / 1000 Ang^3
#
#
#
# Elastic Constant Matrix: (Units=GPa)
#
#
# Indices 1 2 3 4 5 6 
#
# 1 88.3990 28.2648 10.1903 0.0000 -6.2092 0.0000
# 2 28.2648 132.4194 37.8769 0.0000 5.2092 0.0000
# 3 10.1903 37.8769 76.2445 0.0000 0.4873 0.0000
# 4 0.0000 0.0000 0.0000 29.7477 0.0000 6.5033
# 5 -6.2092 5.2092 0.4873 0.0000 31.9073 0.0000
# 6 0.0000 0.0000 0.0000 6.5033 0.0000 37.3461
#
#
#
# Elastic Compliance Matrix: (Units=1/GPa)
#
#
# Indices 1 2 3 4 5 6 
#
# 1 0.012404 -0.002658 -0.000356 0.000000 0.002853 0.000000
# 2 -0.002658 0.009433 -0.004318 0.000000 -0.001991 0.000000
# 3 -0.000356 -0.004318 0.015306 0.000000 0.000402 0.000000
# 4 0.000000 0.000000 0.000000 0.034946 0.000000 -0.006085
# 5 0.002853 -0.001991 0.000402 0.000000 0.032215 0.000000
# 6 0.000000 0.000000 0.000000 -0.006085 0.000000 0.027836
#
#
# Mechanical properties :
#
#
# Convention : Reuss Voigt Hill
#
# Bulk Modulus (GPa) = 44.48633 49.96965 47.22799
# Shear Modulus (GPa) = 32.40533 34.51561 33.46047
#
# Velocity S-wave (km/s) = 4.05473 4.18467 4.12021
# Velocity P-wave (km/s) = 6.67017 6.97859 6.82612
#
# Compressibility (1/GPa) = 0.02247882
#
# Stress axis : x y z
#
# Youngs Moduli (GPa) = 80.62148 106.01581 65.33506
#
# Poissons Ratio (x) = 0.28180 0.02323
# Poissons Ratio (y) = 0.21430 0.28211
# Poissons Ratio (z) = 0.02866 0.45777
#
# Static dielectric constant tensor:
#      x y z
#    x 1.746230 0.000000 0.109440 
#    y 0.000000 1.740080 0.000000 
#    z 0.109440 0.000000 1.684430 
# 
# From -- ./inp_files/45476.got.cif
#   From: 2010.05.17/outbox.ucp.g08.bks.cvg/sg14_23_cif.got.tgz:45476.got - 2010.06.11 12:31:08.
