data_PCOD9253770
_publ_section_title
;
Structure prediction by ZEFSAII (Michael W. Deem and Ramdas Pophale) SiO2 
 PCOD9253770
Probable space group: C 2/C
;
_chemical_formula_sum "Si O2"
_cell_formula_units_Z 48
_cell_length_a 6.929655
_cell_length_b 17.397126
_cell_length_c 15.084333
_cell_angle_alpha 90.000000
_cell_angle_beta 78.396681
_cell_angle_gamma 90.000000
_cell_volume 1781.344315
_symmetry_space_group_name_H-M "C 2/C"
_symmetry_group_IT_number 15
_symmetry_cell_setting 'monoclinic'
loop_
_space_group_symop_operation_xyz
x,y,z
-x,y,1/2-z
-x,-y,-z
x,-y,1/2+z
1/2+x,1/2+y,z
1/2-x,1/2+y,1/2-z
1/2-x,1/2-y,-z
1/2+x,1/2-y,1/2+z
loop_
_atom_site_type_symbol
_atom_site_label
_atom_site_fract_x
_atom_site_fract_y
_atom_site_fract_z
Si Si1 0.845526 0.791105 0.653492
Si Si2 0.765992 0.496373 0.535303
Si Si3 0.944888 0.232904 0.540650
Si Si4 0.763515 0.084630 0.635794
Si Si5 0.731349 0.852142 0.834834
Si Si6 0.706117 0.885308 0.330447
O O1 0.731885 0.852322 0.727391
O O2 0.763139 0.705707 0.681192
O O3 0.884013 0.789904 0.543959
O O4 0.073176 0.801823 0.663772
O O5 0.686011 0.477050 0.444753
O O6 0.734663 0.428589 0.610490
O O7 0.713034 0.574666 0.589268
O O8 0.000000 0.500000 0.500000
O O9 0.750000 0.250000 0.500000
O O10 0.879746 0.161770 0.605027
O O11 0.953526 0.307440 0.603803
O O12 0.531016 0.104361 0.645189
O O13 0.782571 0.068653 0.737656
#
# Coordination Sequence:
#
# PCOD9253770 Si02
#       6
#     8   8   8   8   8   8
#     4  10  16  24  44  68  91 127 159 197 243 288
#     4  10  19  27  40  67 101 129 156 198 252 290
#     4  10  13  22  41  64  89 118 157 191 231 282
#     4  10  15  26  40  60  95 129 153 191 239 288
#     4  10  16  26  42  68  96 126 159 199 240 298
#     4  10  17  26  41  67  98 129 156 197 248 285
#
# _framework density 26.94594
#
# number of rings (size 3 to 8) (size 9 to 14) (size 15 to 20)
#    0.000    2.000    8.333    2.000    0.000    0.000 
#    0.000    0.000    0.000    1.000    0.000    1.167 
#    0.000   10.667    0.000    1.333    0.000    0.000 
#
# Total GULP energy -134156.439680 kJ/mol
# GULP energy per Si atom -5589.851653 kJ/mol
# Density = 2.688461 g / cm^3
# Si number density = 26.945940 Si / 1000 Ang^3
#
#
#
# Elastic Constant Matrix: (Units=GPa)
#
#
# Indices 1 2 3 4 5 6 
#
# 1 91.6541 24.6978 34.7772 0.0000 -6.9838 0.0000
# 2 24.6978 88.2051 53.6032 0.0000 -1.4465 0.0000
# 3 34.7772 53.6032 207.9758 0.0000 -34.2999 0.0000
# 4 0.0000 0.0000 0.0000 50.4107 0.0000 -0.3614
# 5 -6.9838 -1.4465 -34.2999 0.0000 40.1722 0.0000
# 6 0.0000 0.0000 0.0000 -0.3614 0.0000 16.5965
#
#
#
# Elastic Compliance Matrix: (Units=1/GPa)
#
#
# Indices 1 2 3 4 5 6 
#
# 1 0.012154 -0.002671 -0.001177 0.000000 0.001012 0.000000
# 2 -0.002671 0.014322 -0.003767 0.000000 -0.003165 0.000000
# 3 -0.001177 -0.003767 0.006890 0.000000 0.005543 0.000000
# 4 0.000000 0.000000 0.000000 0.019840 0.000000 0.000432
# 5 0.001012 -0.003165 0.005543 0.000000 0.029687 0.000000
# 6 0.000000 0.000000 0.000000 0.000432 0.000000 0.060263
#
#
# Mechanical properties :
#
#
# Convention : Reuss Voigt Hill
#
# Bulk Modulus (GPa) = 55.13760 68.22125 61.67943
# Shear Modulus (GPa) = 30.40765 39.75301 35.08033
#
# Velocity S-wave (km/s) = 3.36291 3.84511 3.61207
# Velocity P-wave (km/s) = 5.96537 6.71461 6.35105
#
# Compressibility (1/GPa) = 0.01813644
#
# Stress axis : x y z
#
# Youngs Moduli (GPa) = 82.27666 69.82111 145.13853
#
# Poissons Ratio (x) = 0.18651 0.17083
# Poissons Ratio (y) = 0.21979 0.54669
# Poissons Ratio (z) = 0.09684 0.26299
#
# Static dielectric constant tensor:
#      x y z
#    x 2.154550 0.000000 0.034230 
#    y 0.000000 2.020420 0.000000 
#    z 0.034230 0.000000 2.191600 
# 
# From -- ./inp_files/144987.got.cif
#   From: 2010.05.17/outbox.cif.g08.bks.cpg/sg15_73_cif.got.tgz:144987.got - 2010.06.03 18:47:42.
