data_PCOD9253823
_publ_section_title
;
Structure prediction by ZEFSAII (Michael W. Deem and Ramdas Pophale) SiO2 
 PCOD9253823
Probable space group: C 2/C
;
_chemical_formula_sum "Si O2"
_cell_formula_units_Z 60
_cell_length_a 14.114836
_cell_length_b 12.297747
_cell_length_c 18.405861
_cell_angle_alpha 90.000000
_cell_angle_beta 124.990346
_cell_angle_gamma 90.000000
_cell_volume 2617.419160
_symmetry_space_group_name_H-M "C 2/C"
_symmetry_group_IT_number 15
_symmetry_cell_setting 'monoclinic'
loop_
_space_group_symop_operation_xyz
x,y,z
-x,y,1/2-z
-x,-y,-z
x,-y,1/2+z
1/2+x,1/2+y,z
1/2-x,1/2+y,1/2-z
1/2-x,1/2-y,-z
1/2+x,1/2-y,1/2+z
loop_
_atom_site_type_symbol
_atom_site_label
_atom_site_fract_x
_atom_site_fract_y
_atom_site_fract_z
Si Si1 0.000000 0.297873 0.250000
Si Si2 0.109062 0.485822 0.628671
Si Si3 0.388564 0.978687 0.093018
Si Si4 0.145433 0.896812 0.007069
Si Si5 0.803302 0.143365 0.734889
Si Si6 0.665564 0.860859 0.801925
Si Si7 0.247003 0.716482 0.143441
Si Si8 0.599708 0.456691 0.631787
O O1 0.953435 0.380744 0.166016
O O2 0.885607 0.224453 0.209178
O O3 0.178167 0.598694 0.655933
O O4 0.116898 0.436314 0.715409
O O5 0.184952 0.398094 0.620259
O O6 0.971105 0.494086 0.562099
O O7 0.256401 0.948495 0.017284
O O8 0.370548 0.079118 0.140764
O O9 0.190924 0.780130 0.051497
O O10 0.115981 0.965352 0.067821
O O11 0.024675 0.902984 0.913322
O O12 0.861286 0.232999 0.708950
O O13 0.790847 0.212186 0.803470
O O14 0.871362 0.034562 0.787739
O O15 0.802334 0.868570 0.843331
#
# Coordination Sequence:
#
# PCOD9253823 Si02
#       8
#     4   8   8   8   8   8   8   8
#     4  10  14  28  44  68  88 116 160 202 232 272
#     4  10  16  27  44  69  94 117 157 200 238 281
#     4  10  15  26  48  70  91 120 160 200 230 283
#     4   8  15  26  45  69  91 127 161 194 229 274
#     4   9  16  27  44  71  93 123 151 197 245 276
#     4   9  16  25  46  71  91 121 158 196 240 278
#     4   9  17  25  46  69  90 119 160 201 238 273
#     4   8  14  27  44  67  99 123 161 192 233 284
#
# _framework density 22.923345999999999
#
# number of rings (size 3 to 8) (size 9 to 14) (size 15 to 20)
#    0.000    2.933    2.667    1.600    0.000    0.000 
#    0.000    0.000    5.867   24.800    0.000    0.000 
#    0.000    0.000    0.000    0.400    0.000    0.000 
#
# Total GULP energy -167298.735515 kJ/mol
# GULP energy per Si atom -5576.624517 kJ/mol
# Density = 2.287117 g / cm^3
# Si number density = 22.923346 Si / 1000 Ang^3
#
#
#
# Elastic Constant Matrix: (Units=GPa)
#
#
# Indices 1 2 3 4 5 6 
#
# 1 140.3939 59.2720 57.0501 0.0000 35.2008 0.0000
# 2 59.2720 109.6424 27.2548 0.0000 10.6317 0.0000
# 3 57.0501 27.2548 56.8883 0.0000 34.5471 0.0000
# 4 0.0000 0.0000 0.0000 11.8350 0.0000 2.9518
# 5 35.2008 10.6317 34.5471 0.0000 43.3751 0.0000
# 6 0.0000 0.0000 0.0000 2.9518 0.0000 20.5937
#
#
#
# Elastic Compliance Matrix: (Units=1/GPa)
#
#
# Indices 1 2 3 4 5 6 
#
# 1 0.013825 -0.004668 -0.010670 0.000000 -0.001577 0.000000
# 2 -0.004668 0.012101 -0.003128 0.000000 0.003314 0.000000
# 3 -0.010670 -0.003128 0.046586 0.000000 -0.027679 0.000000
# 4 0.000000 0.000000 0.000000 0.087628 0.000000 -0.012560
# 5 -0.001577 0.003314 -0.027679 0.000000 0.045567 0.000000
# 6 0.000000 0.000000 0.000000 -0.012560 0.000000 0.050359
#
#
# Mechanical properties :
#
#
# Convention : Reuss Voigt Hill
#
# Bulk Modulus (GPa) = 28.10721 66.00871 47.05796
# Shear Modulus (GPa) = 16.40107 26.05062 21.22584
#
# Velocity S-wave (km/s) = 2.67774 3.37474 3.04624
# Velocity P-wave (km/s) = 4.67422 6.63650 5.73984
#
# Compressibility (1/GPa) = 0.03557806
#
# Stress axis : x y z
#
# Youngs Moduli (GPa) = 72.33277 82.64106 21.46560
#
# Poissons Ratio (x) = 0.38580 0.22904
# Poissons Ratio (y) = 0.33768 0.06715
# Poissons Ratio (z) = 0.77180 0.25852
#
# Static dielectric constant tensor:
#      x y z
#    x 1.870770 0.000000 -0.018970 
#    y 0.000000 1.843380 0.000000 
#    z -0.018970 0.000000 1.959740 
# 
# From -- ./inp_files/273868.got.cif
#   From: 2010.05.17/outbox.cif.g08.bks.cpg/sg15_137_cif.got.tgz:273868.got - 2010.06.03 18:47:42.
