data_PCOD9253094
_publ_section_title
;
Structure prediction by ZEFSAII (Michael W. Deem and Ramdas Pophale) SiO2 
 PCOD9253094
Probable space group: P 21/C
;
_chemical_formula_sum "Si O2"
_cell_formula_units_Z 24
_cell_length_a 6.551149
_cell_length_b 12.574552
_cell_length_c 14.362681
_cell_angle_alpha 90.000000
_cell_angle_beta 59.164978
_cell_angle_gamma 90.000000
_cell_volume 1015.921248
_symmetry_space_group_name_H-M "P 21/C"
_symmetry_group_IT_number 14
_symmetry_cell_setting 'monoclinic'
loop_
_space_group_symop_operation_xyz
x,y,z
-x,1/2+y,1/2-z
-x,-y,-z
x,1/2-y,1/2+z
loop_
_atom_site_type_symbol
_atom_site_label
_atom_site_fract_x
_atom_site_fract_y
_atom_site_fract_z
Si Si1 0.553968 0.050899 0.246195
Si Si2 0.211498 0.738239 0.716604
Si Si3 0.810026 0.734827 0.946717
Si Si4 0.072669 0.346248 0.880926
Si Si5 0.438125 0.909099 0.441995
Si Si6 0.391863 0.431434 0.443817
O O1 0.678662 0.151214 0.268112
O O2 0.282903 0.086342 0.284935
O O3 0.527069 0.952079 0.323042
O O4 0.678447 0.007112 0.124851
O O5 0.409848 0.652820 0.641034
O O6 0.039898 0.695202 0.837884
O O7 0.041792 0.767399 0.668532
O O8 0.580000 0.694712 0.943269
O O9 0.806347 0.697217 0.053786
O O10 0.808804 0.860890 0.959789
O O11 0.842287 0.400968 0.979619
O O12 0.500000 0.000000 0.500000
O O13 0.500000 0.500000 0.500000
#
# Coordination Sequence:
#
# PCOD9253094 Si02
#       6
#     4   4   4   4   4   4
#     4  12  27  47  78 110 148 200 253 305 379 448
#     4  12  28  49  73 114 150 199 249 310 379 446
#     4  12  28  47  74 108 154 200 245 315 372 443
#     4  12  23  47  75 104 153 192 251 312 369 445
#     4  12  23  45  73 110 146 191 257 301 368 450
#     4  12  28  51  74 112 153 195 252 310 377 446
#
# _framework density 23.623878000000001
#
# number of rings (size 3 to 8) (size 9 to 14) (size 15 to 20)
#    0.000    0.000    6.667    2.500    7.000    4.667 
#    0.000    0.000    0.000    0.000    0.000    0.000 
#    0.000    0.000    0.000    0.000    0.000    0.000 
#
# Total GULP energy -134237.265803 kJ/mol
# GULP energy per Si atom -5593.219408 kJ/mol
# Density = 2.357011 g / cm^3
# Si number density = 23.623878 Si / 1000 Ang^3
#
#
#
# Elastic Constant Matrix: (Units=GPa)
#
#
# Indices 1 2 3 4 5 6 
#
# 1 80.6645 23.8488 14.7991 0.0000 -6.5965 0.0000
# 2 23.8488 72.3549 21.0534 0.0000 -0.2502 0.0000
# 3 14.7991 21.0534 87.4575 0.0000 6.0210 0.0000
# 4 0.0000 0.0000 0.0000 46.0399 0.0000 5.2359
# 5 -6.5965 -0.2502 6.0210 0.0000 42.6633 0.0000
# 6 0.0000 0.0000 0.0000 5.2359 0.0000 40.8266
#
#
#
# Elastic Compliance Matrix: (Units=1/GPa)
#
#
# Indices 1 2 3 4 5 6 
#
# 1 0.014115 -0.004195 -0.001542 0.000000 0.002375 0.000000
# 2 -0.004195 0.016124 -0.003164 0.000000 -0.000108 0.000000
# 3 -0.001542 -0.003164 0.012597 0.000000 -0.002035 0.000000
# 4 0.000000 0.000000 0.000000 0.022042 0.000000 -0.002827
# 5 0.002375 -0.000108 -0.002035 0.000000 0.024093 0.000000
# 6 0.000000 0.000000 0.000000 -0.002827 0.000000 0.024856
#
#
# Mechanical properties :
#
#
# Convention : Reuss Voigt Hill
#
# Bulk Modulus (GPa) = 39.94840 39.98660 39.96750
# Shear Modulus (GPa) = 35.72100 37.95767 36.83934
#
# Velocity S-wave (km/s) = 3.89276 4.01278 3.95322
# Velocity P-wave (km/s) = 6.09521 6.19943 6.14754
#
# Compressibility (1/GPa) = 0.02503229
#
# Stress axis : x y z
#
# Youngs Moduli (GPa) = 70.84878 62.01968 79.38503
#
# Poissons Ratio (x) = 0.26020 0.12241
# Poissons Ratio (y) = 0.29724 0.25119
# Poissons Ratio (z) = 0.10925 0.19624
#
# Static dielectric constant tensor:
#      x y z
#    x 1.928750 0.000000 -0.032170 
#    y 0.000000 2.043200 0.000000 
#    z -0.032170 0.000000 1.883300 
# 
# From -- ./inp_files/37243.got.cif
#   From: 2010.05.17/outbox.cif.g08.bks.cpg/sg14_19_cif.got.tgz:37243.got - 2010.06.03 17:49:19.
