data_PCOD9253591
_publ_section_title
;
Structure prediction by ZEFSAII (Michael W. Deem and Ramdas Pophale) SiO2 
 PCOD9253591
Probable space group: P 21/C
;
_chemical_formula_sum "Si O2"
_cell_formula_units_Z 32
_cell_length_a 12.000000
_cell_length_b 12.000000
_cell_length_c 21.000000
_cell_angle_alpha 90.000000
_cell_angle_beta 150.000000
_cell_angle_gamma 90.000000
_cell_volume 1512.000000
_symmetry_space_group_name_H-M "P 21/C"
_symmetry_group_IT_number 14
_symmetry_cell_setting 'monoclinic'
loop_
_space_group_symop_operation_xyz
x,y,z
-x,1/2+y,1/2-z
-x,-y,-z
x,1/2-y,1/2+z
loop_
_atom_site_type_symbol
_atom_site_label
_atom_site_fract_x
_atom_site_fract_y
_atom_site_fract_z
Si Si1 0.891105 0.904577 0.358668
Si Si2 0.477513 0.460758 0.161284
Si Si3 0.404512 0.902303 0.138758
Si Si4 0.366568 0.822597 0.930684
Si Si5 0.160949 0.677896 0.724373
Si Si6 0.698677 0.310217 0.977973
Si Si7 0.261415 0.455271 0.452086
Si Si8 0.989892 0.136856 0.440374
O O1 0.649548 0.853396 0.243078
O O2 0.018963 0.878555 0.488211
O O3 0.057015 0.863212 0.387143
O O4 0.849749 0.036968 0.339307
O O5 0.588535 0.445668 0.285888
O O6 0.620394 0.391617 0.182520
O O7 0.439906 0.588557 0.121907
O O8 0.241021 0.398288 0.048106
O O9 0.258278 0.796021 0.046993
O O10 0.350867 0.001488 0.064143
O O11 0.202948 0.767089 0.799751
O O12 0.271462 0.937280 0.911988
O O13 0.401978 0.739276 0.007213
O O14 0.588334 0.858849 0.003698
O O15 0.980193 0.590744 0.656724
O O16 0.081378 0.746008 0.622707
#
# Coordination Sequence:
#
# PCOD9253591 Si02
#       8
#     4   4   4   4   4   4   4   4
#     4   9  18  35  59  83 115 156 189 229 294 360
#     4  10  23  38  60  94 119 148 194 250 303 351
#     4  10  21  39  63  87 122 156 191 243 299 361
#     4  10  24  42  58  81 119 163 202 242 290 352
#     4  12  23  37  62  87 118 153 194 253 303 338
#     4  10  22  38  58  88 121 153 199 247 290 348
#     4  10  24  42  60  86 115 159 209 238 288 370
#     4   9  19  35  56  86 117 150 192 231 289 366
#
# _framework density 21.164021000000002
#
# number of rings (size 3 to 8) (size 9 to 14) (size 15 to 20)
#    0.000    2.000    0.000    3.000    0.000   12.000 
#    0.000    0.000    0.000    0.000    0.000    0.000 
#    0.000    0.000    0.000    0.000    0.000    0.000 
#
# Total GULP energy -178514.798764 kJ/mol
# GULP energy per Si atom -5578.587461 kJ/mol
# Density = 2.111585 g / cm^3
# Si number density = 21.164021 Si / 1000 Ang^3
#
#
#
# Elastic Constant Matrix: (Units=GPa)
#
#
# Indices 1 2 3 4 5 6 
#
# 1 -124.5401 30.2563 -1.4407 0.0000 -16.1362 0.0000
# 2 30.2563 42.4599 17.0778 0.0000 8.4727 0.0000
# 3 -1.4407 17.0778 37.8359 0.0000 -6.1020 0.0000
# 4 0.0000 0.0000 0.0000 14.7781 0.0000 5.6347
# 5 -16.1362 8.4727 -6.1020 0.0000 21.8541 0.0000
# 6 0.0000 0.0000 0.0000 5.6347 0.0000 20.2596
#
#
#
# Elastic Compliance Matrix: (Units=1/GPa)
#
#
# Indices 1 2 3 4 5 6 
#
# 1 -0.005199 0.007190 -0.004725 0.000000 -0.007945 0.000000
# 2 0.007190 0.024884 -0.012207 0.000000 -0.007747 0.000000
# 3 -0.004725 -0.012207 0.033468 0.000000 0.010589 0.000000
# 4 0.000000 0.000000 0.000000 0.075695 0.000000 -0.021053
# 5 -0.007945 -0.007747 0.010589 0.000000 0.045851 0.000000
# 6 0.000000 0.000000 0.000000 -0.021053 0.000000 0.055215
#
#
# Mechanical properties :
#
#
# Convention : Reuss Voigt Hill
#
# Bulk Modulus (GPa) = 29.70070 5.28250 17.49160
# Shear Modulus (GPa) = 19.18501 5.36918 12.27709
#
# Velocity S-wave (km/s) = 3.01407 1.59450 2.41112
# Velocity P-wave (km/s) = 5.11633 2.42721 4.00426
#
# Compressibility (1/GPa) = 0.03366924
#
# Stress axis : x y z
#
# Youngs Moduli (GPa) = -192.35896 40.18706 29.87958
#
# Poissons Ratio (x) = -0.28896 0.14117
# Poissons Ratio (y) = 1.38311 0.36475
# Poissons Ratio (z) = -0.90885 0.49057
#
# Static dielectric constant tensor:
#      x y z
#    x 1.784170 0.000000 0.018820 
#    y 0.000000 1.723150 0.000000 
#    z 0.018820 0.000000 1.794950 
# 
# From -- ./inp_files/67440.got.cif
#   From: 2010.05.17/outbox.ucp.g08.bks.cvg/sg14_34_cif.got.tgz:67440.got - 2010.06.11 12:31:08.
