data_PCOD9253971
_publ_section_title
;
Structure prediction by ZEFSAII (Michael W. Deem and Ramdas Pophale) SiO2 
 PCOD9253971
Probable space group: C 2/C
;
_chemical_formula_sum "Si O2"
_cell_formula_units_Z 48
_cell_length_a 25.703619
_cell_length_b 14.193954
_cell_length_c 9.192637
_cell_angle_alpha 90.000000
_cell_angle_beta 40.370545
_cell_angle_gamma 90.000000
_cell_volume 2172.354332
_symmetry_space_group_name_H-M "C 2/C"
_symmetry_group_IT_number 15
_symmetry_cell_setting 'monoclinic'
loop_
_space_group_symop_operation_xyz
x,y,z
-x,y,1/2-z
-x,-y,-z
x,-y,1/2+z
1/2+x,1/2+y,z
1/2-x,1/2+y,1/2-z
1/2-x,1/2-y,-z
1/2+x,1/2-y,1/2+z
loop_
_atom_site_type_symbol
_atom_site_label
_atom_site_fract_x
_atom_site_fract_y
_atom_site_fract_z
Si Si1 0.184274 0.395469 0.822036
Si Si2 0.921722 0.791684 0.015716
Si Si3 0.199201 0.227578 0.252133
Si Si4 0.531277 0.771628 0.531351
Si Si5 0.747831 0.347703 0.100986
Si Si6 0.554100 0.059553 0.775458
O O1 0.259876 0.358814 0.751224
O O2 0.210645 0.418280 0.601878
O O3 0.122828 0.305499 0.938337
O O4 0.136542 0.470111 0.021279
O O5 0.000000 0.811391 0.750000
O O6 0.847096 0.864137 0.169727
O O7 0.958236 0.775476 0.098695
O O8 0.107129 0.207838 0.409859
O O9 0.208540 0.316516 0.343713
O O10 0.250000 0.250000 0.000000
O O11 0.500000 0.813454 0.750000
O O12 0.567652 0.848528 0.344733
O O13 0.750000 0.250000 0.000000
O O14 0.500000 0.074826 0.750000
O O15 0.500000 0.000000 0.000000
#
# Coordination Sequence:
#
# PCOD9253971 Si02
#       6
#     8   8   8   8   8   8
#     4  10  17  35  47  64 100 139 184 212 262 326
#     4  10  15  29  47  68 100 140 166 205 257 330
#     4  10  17  27  47  76  96 123 177 213 265 323
#     4  12  19  29  49  74 100 131 179 222 264 317
#     4   8  17  27  44  66  93 136 174 192 266 326
#     4  12  24  38  50  66  96 143 194 229 259 294
#
# _framework density 22.095842000000001
#
# number of rings (size 3 to 8) (size 9 to 14) (size 15 to 20)
#    0.000    2.000    5.000    4.500    0.000    0.000 
#    0.000    0.000    0.000    0.000    0.000    0.000 
#    0.000    0.000    0.000   19.500    9.333    3.500 
#
# Total GULP energy -133713.087798 kJ/mol
# GULP energy per Si atom -5571.378658 kJ/mol
# Density = 2.204555 g / cm^3
# Si number density = 22.095842 Si / 1000 Ang^3
#
#
#
# Elastic Constant Matrix: (Units=GPa)
#
#
# Indices 1 2 3 4 5 6 
#
# 1 128.2862 14.4242 30.8645 0.0000 10.7858 0.0000
# 2 14.4242 9.9803 17.8894 0.0000 -1.3067 0.0000
# 3 30.8645 17.8894 161.8645 0.0000 18.9230 0.0000
# 4 0.0000 0.0000 0.0000 22.4879 0.0000 5.2854
# 5 10.7858 -1.3067 18.9230 0.0000 56.9212 0.0000
# 6 0.0000 0.0000 0.0000 5.2854 0.0000 17.4460
#
#
#
# Elastic Compliance Matrix: (Units=1/GPa)
#
#
# Indices 1 2 3 4 5 6 
#
# 1 0.009559 -0.014058 -0.000020 0.000000 -0.002127 0.000000
# 2 -0.014058 0.149010 -0.015086 0.000000 0.011100 0.000000
# 3 -0.000020 -0.015086 0.008208 0.000000 -0.003071 0.000000
# 4 0.000000 0.000000 0.000000 0.047878 0.000000 -0.014505
# 5 -0.002127 0.011100 -0.003071 0.000000 0.019247 0.000000
# 6 0.000000 0.000000 0.000000 -0.014505 0.000000 0.061714
#
#
# Mechanical properties :
#
#
# Convention : Reuss Voigt Hill
#
# Bulk Modulus (GPa) = 9.22092 47.38747 28.30420
# Shear Modulus (GPa) = 12.81743 35.16789 23.99266
#
# Velocity S-wave (km/s) = 2.41110 3.99382 3.29879
# Velocity P-wave (km/s) = 3.45448 6.53914 5.22943
#
# Compressibility (1/GPa) = 0.10844903
#
# Stress axis : x y z
#
# Youngs Moduli (GPa) = 104.60800 6.71098 121.82908
#
# Poissons Ratio (x) = 0.09434 0.00249
# Poissons Ratio (y) = 1.47059 1.83787
# Poissons Ratio (z) = 0.00214 0.10124
#
# Static dielectric constant tensor:
#      x y z
#    x 1.809540 0.000000 0.016140 
#    y 0.000000 2.016880 0.000000 
#    z 0.016140 0.000000 1.929580 
# 
# From -- ./inp_files/63187.got.cif
#   From: 2010.05.17/outbox.cif.g08.bks.cpg/sg15_32_cif.got.tgz:63187.got - 2010.06.03 18:47:42.
