data_PCOD9253342
_publ_section_title
;
Structure prediction by ZEFSAII (Michael W. Deem and Ramdas Pophale) SiO2 
 PCOD9253342
Probable space group: P 21/C
;
_chemical_formula_sum "Si O2"
_cell_formula_units_Z 16
_cell_length_a 4.623205
_cell_length_b 8.284549
_cell_length_c 17.072914
_cell_angle_alpha 90.000000
_cell_angle_beta 71.044904
_cell_angle_gamma 90.000000
_cell_volume 618.453125
_symmetry_space_group_name_H-M "P 21/C"
_symmetry_group_IT_number 14
_symmetry_cell_setting 'monoclinic'
loop_
_space_group_symop_operation_xyz
x,y,z
-x,1/2+y,1/2-z
-x,-y,-z
x,1/2-y,1/2+z
loop_
_atom_site_type_symbol
_atom_site_label
_atom_site_fract_x
_atom_site_fract_y
_atom_site_fract_z
Si Si1 0.774276 0.134307 0.554933
Si Si2 0.701205 0.445496 0.794745
Si Si3 0.807101 0.721722 0.675469
Si Si4 0.321938 0.165263 0.995887
O O1 0.548196 0.051079 0.636328
O O2 0.557504 0.202775 0.506474
O O3 0.067173 0.852568 0.669358
O O4 0.000000 0.000000 0.500000
O O5 0.871304 0.563837 0.720566
O O6 0.504575 0.307963 0.769205
O O7 0.002755 0.781298 0.936912
O O8 0.750561 0.677103 0.590034
O O9 0.500000 0.000000 0.000000
#
# Coordination Sequence:
#
# PCOD9253342 Si02
#       4
#     4   4   4   4
#     4  12  26  51  80 113 157 214 264 325 396 480
#     4  12  28  52  80 115 158 213 268 328 407 477
#     4  12  28  52  77 116 159 208 266 331 398 485
#     4  12  28  50  78 118 164 202 269 331 395 473
#
# _framework density 25.870999999999999
#
# number of rings (size 3 to 8) (size 9 to 14) (size 15 to 20)
#    0.000    0.000    2.500    6.000    3.500    0.000 
#    0.000    0.000    0.000    0.000    0.000    0.000 
#    0.000    0.000    0.000    0.000    0.000    0.000 
#
# Total GULP energy -89727.961442 kJ/mol
# GULP energy per Si atom -5607.997590 kJ/mol
# Density = 2.581212 g / cm^3
# Si number density = 25.871000 Si / 1000 Ang^3
#
#
#
# Elastic Constant Matrix: (Units=GPa)
#
#
# Indices 1 2 3 4 5 6 
#
# 1 193.1597 75.1095 56.9598 0.0000 25.2073 0.0000
# 2 75.1095 159.0510 79.6967 0.0000 20.3336 0.0000
# 3 56.9598 79.6967 90.3228 0.0000 8.4853 0.0000
# 4 0.0000 0.0000 0.0000 34.2158 0.0000 12.6804
# 5 25.2073 20.3336 8.4853 0.0000 24.1224 0.0000
# 6 0.0000 0.0000 0.0000 12.6804 0.0000 81.3881
#
#
#
# Elastic Compliance Matrix: (Units=1/GPa)
#
#
# Indices 1 2 3 4 5 6 
#
# 1 0.007248 -0.001235 -0.002965 0.000000 -0.005490 0.000000
# 2 -0.001235 0.012457 -0.009667 0.000000 -0.005809 0.000000
# 3 -0.002965 -0.009667 0.021112 0.000000 0.003821 0.000000
# 4 0.000000 0.000000 0.000000 0.031017 0.000000 -0.004833
# 5 -0.005490 -0.005809 0.003821 0.000000 0.050745 0.000000
# 6 0.000000 0.000000 0.000000 -0.004833 0.000000 0.013040
#
#
# Mechanical properties :
#
#
# Convention : Reuss Voigt Hill
#
# Bulk Modulus (GPa) = 76.43699 96.22949 86.33324
# Shear Modulus (GPa) = 29.81248 43.32977 36.57113
#
# Velocity S-wave (km/s) = 3.39831 4.09692 3.76386
# Velocity P-wave (km/s) = 6.70877 7.72375 7.23408
#
# Compressibility (1/GPa) = 0.01308267
#
# Stress axis : x y z
#
# Youngs Moduli (GPa) = 137.96506 80.27521 47.36621
#
# Poissons Ratio (x) = 0.09915 0.14045
# Poissons Ratio (y) = 0.17041 0.45789
# Poissons Ratio (z) = 0.40911 0.77602
#
# Static dielectric constant tensor:
#      x y z
#    x 2.024370 0.000000 -0.048800 
#    y 0.000000 2.106680 0.000000 
#    z -0.048800 0.000000 2.019220 
# 
# From -- ./inp_files/33513.got.cif
#   From: 2010.05.17/outbox.cif.g08.bks.cpg/sg14_17_cif.got.tgz:33513.got - 2010.06.03 17:49:19.
