data_PCOD9253374
_publ_section_title
;
Structure prediction by ZEFSAII (Michael W. Deem and Ramdas Pophale) SiO2 
 PCOD9253374
Probable space group: P 21/C
;
_chemical_formula_sum "Si O2"
_cell_formula_units_Z 16
_cell_length_a 25.914785
_cell_length_b 4.974694
_cell_length_c 28.284669
_cell_angle_alpha 90.000000
_cell_angle_beta 9.525965
_cell_angle_gamma 90.000000
_cell_volume 603.460399
_symmetry_space_group_name_H-M "P 21/C"
_symmetry_group_IT_number 14
_symmetry_cell_setting 'monoclinic'
loop_
_space_group_symop_operation_xyz
x,y,z
-x,1/2+y,1/2-z
-x,-y,-z
x,1/2-y,1/2+z
loop_
_atom_site_type_symbol
_atom_site_label
_atom_site_fract_x
_atom_site_fract_y
_atom_site_fract_z
Si Si1 0.238094 0.088054 0.636312
Si Si2 0.643481 0.558565 0.247548
Si Si3 0.142184 0.912293 0.822148
Si Si4 0.651272 0.345269 0.134068
O O1 0.489081 0.321345 0.416757
O O2 0.046186 0.035488 0.857771
O O3 0.422829 0.819132 0.455508
O O4 0.989663 0.206562 0.823868
O O5 0.633534 0.477692 0.201874
O O6 0.995346 0.617276 0.946855
O O7 0.500000 0.000000 0.500000
O O8 0.000000 0.000000 0.000000
O O9 0.582834 0.595514 0.161660
#
# Coordination Sequence:
#
# PCOD9253374 Si02
#       4
#     4   4   4   4
#     4  12  27  52  81 119 164 213 278 339 402 501
#     4  12  27  52  81 119 164 213 278 339 402 501
#     4  12  27  52  84 124 164 222 269 336 414 486
#     4  12  27  50  82 118 164 218 271 342 418 478
#
# _framework density 26.513756000000001
#
# number of rings (size 3 to 8) (size 9 to 14) (size 15 to 20)
#    0.000    0.000    2.500    7.500    0.000    6.000 
#    0.000    5.000    0.000    0.000    0.000    0.000 
#    0.000    0.000    0.000    0.000    0.000    0.000 
#
# Total GULP energy -89666.260249 kJ/mol
# GULP energy per Si atom -5604.141266 kJ/mol
# Density = 2.645341 g / cm^3
# Si number density = 26.513756 Si / 1000 Ang^3
#
#
#
# Elastic Constant Matrix: (Units=GPa)
#
#
# Indices 1 2 3 4 5 6 
#
# 1 89.9404 43.0350 58.1550 0.0000 4.7672 0.0000
# 2 43.0350 196.2172 64.0861 0.0000 -1.9294 0.0000
# 3 58.1550 64.0861 144.7107 0.0000 13.4679 0.0000
# 4 0.0000 0.0000 0.0000 72.3431 0.0000 -11.4384
# 5 4.7672 -1.9294 13.4679 0.0000 49.2851 0.0000
# 6 0.0000 0.0000 0.0000 -11.4384 0.0000 56.7792
#
#
#
# Elastic Compliance Matrix: (Units=1/GPa)
#
#
# Indices 1 2 3 4 5 6 
#
# 1 0.015435 -0.001592 -0.005493 0.000000 -0.000054 0.000000
# 2 -0.001592 0.006169 -0.002185 0.000000 0.000992 0.000000
# 3 -0.005493 -0.002185 0.010306 0.000000 -0.002370 0.000000
# 4 0.000000 0.000000 0.000000 0.014278 0.000000 0.002876
# 5 -0.000054 0.000992 -0.002370 0.000000 0.020982 0.000000
# 6 0.000000 0.000000 0.000000 0.002876 0.000000 0.018192
#
#
# Mechanical properties :
#
#
# Convention : Reuss Voigt Hill
#
# Bulk Modulus (GPa) = 74.78864 84.60229 79.69546
# Shear Modulus (GPa) = 46.14444 53.38762 49.76603
#
# Velocity S-wave (km/s) = 4.17633 4.49216 4.33712
# Velocity P-wave (km/s) = 7.17805 7.67360 7.42996
#
# Compressibility (1/GPa) = 0.01337101
#
# Stress axis : x y z
#
# Youngs Moduli (GPa) = 64.78975 162.10735 97.03300
#
# Poissons Ratio (x) = 0.25803 0.53298
# Poissons Ratio (y) = 0.10313 0.21198
# Poissons Ratio (z) = 0.35587 0.35414
#
# Static dielectric constant tensor:
#      x y z
#    x 2.086120 0.000000 -0.068210 
#    y 0.000000 2.087110 0.000000 
#    z -0.068210 0.000000 2.152530 
# 
# From -- ./inp_files/80731.got.cif
#   From: 2010.05.17/outbox.cif.g08.bks.cpg/sg14_41_cif.got.tgz:80731.got - 2010.06.03 17:49:19.
