data_PCOD9253845
_publ_section_title
;
Structure prediction by ZEFSAII (Michael W. Deem and Ramdas Pophale) SiO2 
 PCOD9253845
Probable space group: C 2/C
;
_chemical_formula_sum "Si O2"
_cell_formula_units_Z 52
_cell_length_a 6.969383
_cell_length_b 12.482873
_cell_length_c 20.344707
_cell_angle_alpha 90.000000
_cell_angle_beta 81.837680
_cell_angle_gamma 90.000000
_cell_volume 1752.017358
_symmetry_space_group_name_H-M "C 2/C"
_symmetry_group_IT_number 15
_symmetry_cell_setting 'monoclinic'
loop_
_space_group_symop_operation_xyz
x,y,z
-x,y,1/2-z
-x,-y,-z
x,-y,1/2+z
1/2+x,1/2+y,z
1/2-x,1/2+y,1/2-z
1/2-x,1/2-y,-z
1/2+x,1/2-y,1/2+z
loop_
_atom_site_type_symbol
_atom_site_label
_atom_site_fract_x
_atom_site_fract_y
_atom_site_fract_z
Si Si1 0.500000 0.500000 0.000000
Si Si2 0.563351 0.295638 0.927590
Si Si3 0.239865 0.848644 0.783110
Si Si4 0.500000 0.827236 0.250000
Si Si5 0.508438 0.836941 0.954364
Si Si6 0.448378 0.002809 0.360930
Si Si7 0.500000 0.543590 0.750000
Si Si8 0.061466 0.873311 0.387258
O O1 0.437110 0.392387 0.962032
O O2 0.411237 0.579969 0.946610
O O3 0.588012 0.314112 0.848874
O O4 0.785634 0.314076 0.940994
O O5 0.487891 0.190090 0.968603
O O6 0.193523 0.746800 0.739799
O O7 0.424617 0.890947 0.814981
O O8 0.172378 0.958053 0.751441
O O9 0.514198 0.905178 0.312315
O O10 0.547634 0.951866 0.920713
O O11 0.620462 0.743251 0.909032
O O12 0.231706 0.961838 0.391605
O O13 0.512171 0.611678 0.682993
#
# Coordination Sequence:
#
# PCOD9253845 Si02
#       8
#     4   8   8   4   8   8   4   8
#     4  10  14  30  54  82 112 156 178 240 284 332
#     4   9  16  30  53  84 115 147 194 233 286 340
#     4   9  19  37  55  81 112 148 190 235 281 346
#     4  11  24  37  62  78 118 155 184 235 308 320
#     4   9  18  31  54  84 112 153 191 234 285 350
#     4  10  21  39  54  85 113 150 189 242 281 352
#     4   9  16  31  50  86 110 145 190 241 274 354
#     4  10  19  30  56  83 118 146 196 237 289 337
#
# _framework density 29.680071000000002
#
# number of rings (size 3 to 8) (size 9 to 14) (size 15 to 20)
#    0.000    2.462    4.615    0.000    0.000    6.769 
#    0.000    0.769    0.000    3.692    0.000    0.000 
#    0.000    0.000    0.000    0.000    0.000    0.000 
#
# Total GULP energy -144916.976064 kJ/mol
# GULP energy per Si atom -5573.729849 kJ/mol
# Density = 2.961252 g / cm^3
# Si number density = 29.680071 Si / 1000 Ang^3
#
#
#
# Elastic Constant Matrix: (Units=GPa)
#
#
# Indices 1 2 3 4 5 6 
#
# 1 97.6897 22.7679 8.2090 0.0000 16.5821 0.0000
# 2 22.7679 187.5743 53.9529 0.0000 -1.0633 0.0000
# 3 8.2090 53.9529 143.8398 0.0000 16.3129 0.0000
# 4 0.0000 0.0000 0.0000 37.1597 0.0000 5.7473
# 5 16.5821 -1.0633 16.3129 0.0000 28.9594 0.0000
# 6 0.0000 0.0000 0.0000 5.7473 0.0000 50.8804
#
#
#
# Elastic Compliance Matrix: (Units=1/GPa)
#
#
# Indices 1 2 3 4 5 6 
#
# 1 0.011799 -0.001700 0.000788 0.000000 -0.007262 0.000000
# 2 -0.001700 0.006290 -0.002562 0.000000 0.002648 0.000000
# 3 0.000788 -0.002562 0.008471 0.000000 -0.005317 0.000000
# 4 0.000000 0.000000 0.000000 0.027389 0.000000 -0.003094
# 5 -0.007262 0.002648 -0.005317 0.000000 0.041782 0.000000
# 6 0.000000 0.000000 0.000000 -0.003094 0.000000 0.020003
#
#
# Mechanical properties :
#
#
# Convention : Reuss Voigt Hill
#
# Bulk Modulus (GPa) = 50.99134 66.55149 58.77142
# Shear Modulus (GPa) = 38.69335 46.34483 42.51909
#
# Velocity S-wave (km/s) = 3.61457 3.95584 3.78905
# Velocity P-wave (km/s) = 5.88539 6.58305 6.24397
#
# Compressibility (1/GPa) = 0.01961117
#
# Stress axis : x y z
#
# Youngs Moduli (GPa) = 84.75122 158.99201 118.04450
#
# Poissons Ratio (x) = 0.27029 -0.09301
# Poissons Ratio (y) = 0.14408 0.30248
# Poissons Ratio (z) = -0.06678 0.40741
#
# Static dielectric constant tensor:
#      x y z
#    x 1.425070 0.000000 0.664560 
#    y 0.000000 2.268730 0.000000 
#    z 0.664560 0.000000 1.914050 
# 
# From -- ./inp_files/236933.got.cif
#   From: 2010.05.17/outbox.cif.g08.bks.cpg/sg15_119_cif.got.tgz:236933.got - 2010.06.03 18:47:42.
