data_PCOD9253242
_publ_section_title
;
Structure prediction by ZEFSAII (Michael W. Deem and Ramdas Pophale) SiO2 
 PCOD9253242
Probable space group: P 21/C
;
_chemical_formula_sum "Si O2"
_cell_formula_units_Z 24
_cell_length_a 14.409100
_cell_length_b 8.393550
_cell_length_c 14.619582
_cell_angle_alpha 90.000000
_cell_angle_beta 40.412176
_cell_angle_gamma 90.000000
_cell_volume 1146.255070
_symmetry_space_group_name_H-M "P 21/C"
_symmetry_group_IT_number 14
_symmetry_cell_setting 'monoclinic'
loop_
_space_group_symop_operation_xyz
x,y,z
-x,1/2+y,1/2-z
-x,-y,-z
x,1/2-y,1/2+z
loop_
_atom_site_type_symbol
_atom_site_label
_atom_site_fract_x
_atom_site_fract_y
_atom_site_fract_z
Si Si1 0.598892 0.814061 0.575342
Si Si2 0.910178 0.185004 0.869648
Si Si3 0.912160 0.851254 0.604618
Si Si4 0.587839 0.648751 0.395387
Si Si5 0.098875 0.185930 0.075343
Si Si6 0.410166 0.685004 0.869661
O O1 0.592613 0.779457 0.472584
O O2 0.473742 0.719162 0.721822
O O3 0.750004 0.749988 0.500005
O O4 0.585730 0.999148 0.609522
O O5 0.750004 0.249991 0.999997
O O6 0.973740 0.219152 0.721816
O O7 0.914304 0.999153 0.890461
O O8 0.010697 0.279798 0.864855
O O9 0.907405 0.720533 0.527414
O O10 0.749997 0.897819 0.749998
O O11 0.000000 0.000000 0.500000
O O12 0.500000 0.500000 0.500000
O O13 0.510687 0.720225 0.364876
#
# Coordination Sequence:
#
# PCOD9253242 Si02
#       6
#     4   4   4   4   4   4
#     4  12  25  48  72 104 142 184 239 289 355 421
#     4  12  27  46  75 104 141 187 234 296 352 419
#     4  12  27  47  73 106 144 186 238 293 352 421
#     4  12  27  47  73 106 144 186 238 293 352 421
#     4  12  25  48  72 104 142 184 239 289 355 421
#     4  12  27  46  75 104 141 187 234 296 352 419
#
# _framework density 20.937750000000001
#
# number of rings (size 3 to 8) (size 9 to 14) (size 15 to 20)
#    0.000    0.000    3.333    7.000    4.667    0.000 
#    0.000    0.000    0.000    0.000    0.000    0.000 
#    0.000    0.000    0.000    0.000    0.000    0.000 
#
# Total GULP energy -134549.678845 kJ/mol
# GULP energy per Si atom -5606.236619 kJ/mol
# Density = 2.089009 g / cm^3
# Si number density = 20.937750 Si / 1000 Ang^3
#
#
#
# Elastic Constant Matrix: (Units=GPa)
#
#
# Indices 1 2 3 4 5 6 
#
# 1 101.3893 2.9639 33.6578 0.0000 -19.8065 0.0000
# 2 2.9639 139.7902 28.3520 0.0000 -21.5066 0.0000
# 3 33.6578 28.3520 150.0663 0.0000 -28.7858 0.0000
# 4 0.0000 0.0000 0.0000 39.2771 0.0000 1.8744
# 5 -19.8065 -21.5066 -28.7858 0.0000 50.9026 0.0000
# 6 0.0000 0.0000 0.0000 1.8744 0.0000 28.2155
#
#
#
# Elastic Compliance Matrix: (Units=1/GPa)
#
#
# Indices 1 2 3 4 5 6 
#
# 1 0.011186 0.000706 -0.001963 0.000000 0.003540 0.000000
# 2 0.000706 0.007812 -0.001064 0.000000 0.002974 0.000000
# 3 -0.001963 -0.001064 0.007933 0.000000 0.003273 0.000000
# 4 0.000000 0.000000 0.000000 0.025541 0.000000 -0.001697
# 5 0.003540 0.002974 0.003273 0.000000 0.024130 0.000000
# 6 0.000000 0.000000 0.000000 -0.001697 0.000000 0.035554
#
#
# Mechanical properties :
#
#
# Convention : Reuss Voigt Hill
#
# Bulk Modulus (GPa) = 44.86710 57.91036 51.38873
# Shear Modulus (GPa) = 40.24885 45.43051 42.83968
#
# Velocity S-wave (km/s) = 4.38917 4.66315 4.52824
# Velocity P-wave (km/s) = 6.86744 7.53072 7.20672
#
# Compressibility (1/GPa) = 0.02228805
#
# Stress axis : x y z
#
# Youngs Moduli (GPa) = 89.40056 128.01073 126.05964
#
# Poissons Ratio (x) = -0.09033 0.24745
# Poissons Ratio (y) = -0.06309 0.13410
# Poissons Ratio (z) = 0.17549 0.13617
#
# Static dielectric constant tensor:
#      x y z
#    x 1.716290 0.000000 0.018200 
#    y 0.000000 1.715970 0.000000 
#    z 0.018200 0.000000 1.748500 
# 
# From -- ./inp_files/42872.got.cif
#   From: 2010.05.17/outbox.cif.g08.bks.cpg/sg14_22_cif.got.tgz:42872.got - 2010.06.03 17:49:19.
