data_PCOD9253597
_publ_section_title
;
Structure prediction by ZEFSAII (Michael W. Deem and Ramdas Pophale) SiO2 
 PCOD9253597
Probable space group: P 21/C
;
_chemical_formula_sum "Si O2"
_cell_formula_units_Z 32
_cell_length_a 24.000000
_cell_length_b 12.000000
_cell_length_c 30.000000
_cell_angle_alpha 90.000000
_cell_angle_beta 10.000000
_cell_angle_gamma 90.000000
_cell_volume 1500.320255
_symmetry_space_group_name_H-M "P 21/C"
_symmetry_group_IT_number 14
_symmetry_cell_setting 'monoclinic'
loop_
_space_group_symop_operation_xyz
x,y,z
-x,1/2+y,1/2-z
-x,-y,-z
x,1/2-y,1/2+z
loop_
_atom_site_type_symbol
_atom_site_label
_atom_site_fract_x
_atom_site_fract_y
_atom_site_fract_z
Si Si1 0.821110 0.365263 0.806211
Si Si2 0.770126 0.765368 0.458229
Si Si3 0.168658 0.313143 0.690291
Si Si4 0.706717 0.849261 0.206478
Si Si5 0.848096 0.951388 0.463282
Si Si6 0.204732 0.915465 0.884747
Si Si7 0.855105 0.208600 0.697567
Si Si8 0.925504 0.414823 0.420246
O O1 0.770261 0.309420 0.798476
O O2 0.163122 0.323263 0.555910
O O3 0.856757 0.497600 0.777844
O O4 0.558795 0.320858 0.047832
O O5 0.864847 0.714472 0.336068
O O6 0.927153 0.876082 0.356886
O O7 0.412448 0.808226 0.733001
O O8 0.541627 0.315949 0.413918
O O9 0.984960 0.425974 0.847694
O O10 0.996480 0.208657 0.848997
O O11 0.602613 0.967937 0.267609
O O12 0.030725 0.886911 0.976476
O O13 0.830386 0.752905 0.076900
O O14 0.459289 0.942248 0.777689
O O15 0.031924 0.893239 0.360020
O O16 0.965801 0.929570 0.114065
#
# Coordination Sequence:
#
# PCOD9253597 Si02
#       8
#     4   4   4   4   4   4   4   4
#     4  11  25  41  69 101 142 175 240 285 353 414
#     4  10  24  41  66  99 134 177 234 285 346 413
#     4  12  25  44  75  96 142 191 231 290 361 417
#     4  11  22  39  70  97 136 179 219 292 343 408
#     4  10  27  45  69 103 144 184 237 290 354 428
#     4  10  21  40  62  99 136 167 229 286 340 404
#     4  11  24  48  69 104 143 187 231 289 354 428
#     4  11  25  40  71 103 137 185 235 290 355 409
#
# _framework density 21.328779999999998
#
# number of rings (size 3 to 8) (size 9 to 14) (size 15 to 20)
#    0.000    1.250    2.500    1.875   14.000    1.000 
#    0.000    0.000    0.000    3.750    0.000    0.000 
#    0.000    0.000    0.000    0.000    0.000    0.000 
#
# Total GULP energy -178500.262077 kJ/mol
# GULP energy per Si atom -5578.133190 kJ/mol
# Density = 2.128023 g / cm^3
# Si number density = 21.328780 Si / 1000 Ang^3
#
#
#
# Elastic Constant Matrix: (Units=GPa)
#
#
# Indices 1 2 3 4 5 6 
#
# 1 81.8955 40.4043 5.8779 0.0000 -0.4477 0.0000
# 2 40.4043 134.8125 31.3658 0.0000 14.8319 0.0000
# 3 5.8779 31.3658 62.5374 0.0000 16.1985 0.0000
# 4 0.0000 0.0000 0.0000 30.6182 0.0000 4.2085
# 5 -0.4477 14.8319 16.1985 0.0000 31.9480 0.0000
# 6 0.0000 0.0000 0.0000 4.2085 0.0000 25.6579
#
#
#
# Elastic Compliance Matrix: (Units=1/GPa)
#
#
# Indices 1 2 3 4 5 6 
#
# 1 0.014503 -0.004683 0.000426 0.000000 0.002162 0.000000
# 2 -0.004683 0.010026 -0.003875 0.000000 -0.002756 0.000000
# 3 0.000426 -0.003875 0.020061 0.000000 -0.008367 0.000000
# 4 0.000000 0.000000 0.000000 0.033414 0.000000 -0.005481
# 5 0.002162 -0.002756 -0.008367 0.000000 0.036853 0.000000
# 6 0.000000 0.000000 0.000000 -0.005481 0.000000 0.039873
#
#
# Mechanical properties :
#
#
# Convention : Reuss Voigt Hill
#
# Bulk Modulus (GPa) = 35.30403 48.28238 41.79321
# Shear Modulus (GPa) = 27.71082 31.08463 29.39773
#
# Velocity S-wave (km/s) = 3.60838 3.82174 3.71659
# Velocity P-wave (km/s) = 5.82656 6.49312 6.16885
#
# Compressibility (1/GPa) = 0.02832538
#
# Stress axis : x y z
#
# Youngs Moduli (GPa) = 68.95323 99.74035 49.84831
#
# Poissons Ratio (x) = 0.46713 -0.02124
# Poissons Ratio (y) = 0.32294 0.19314
# Poissons Ratio (z) = -0.02938 0.38645
#
# Static dielectric constant tensor:
#      x y z
#    x 1.839330 0.000000 -0.003160 
#    y 0.000000 1.776030 0.000000 
#    z -0.003160 0.000000 1.803820 
# 
# From -- ./inp_files/80677.got.cif
#   From: 2010.05.17/outbox.ucp.g08.bks.cvg/sg14_41_cif.got.tgz:80677.got - 2010.06.11 12:31:08.
