data_PCOD9253290
_publ_section_title
;
Structure prediction by ZEFSAII (Michael W. Deem and Ramdas Pophale) SiO2 
 PCOD9253290
Probable space group: P 21/C
;
_chemical_formula_sum "Si O2"
_cell_formula_units_Z 22
_cell_length_a 14.541314
_cell_length_b 11.310162
_cell_length_c 12.597528
_cell_angle_alpha 90.000000
_cell_angle_beta 26.268572
_cell_angle_gamma 90.000000
_cell_volume 916.957038
_symmetry_space_group_name_H-M "P 21/C"
_symmetry_group_IT_number 14
_symmetry_cell_setting 'monoclinic'
loop_
_space_group_symop_operation_xyz
x,y,z
-x,1/2+y,1/2-z
-x,-y,-z
x,1/2-y,1/2+z
loop_
_atom_site_type_symbol
_atom_site_label
_atom_site_fract_x
_atom_site_fract_y
_atom_site_fract_z
Si Si1 0.000000 0.500000 0.500000
Si Si2 0.294004 0.297631 0.819532
Si Si3 0.072863 0.387830 0.854712
Si Si4 0.411105 0.926710 0.491770
Si Si5 0.403118 0.542747 0.399435
Si Si6 0.938338 0.183954 0.865506
O O1 0.026110 0.580621 0.584353
O O2 0.169783 0.586304 0.264924
O O3 0.171405 0.297454 0.836683
O O4 0.443333 0.185983 0.668528
O O5 0.447788 0.409289 0.663798
O O6 0.133918 0.304629 0.082913
O O7 0.249302 0.440611 0.596164
O O8 0.914109 0.310329 0.949869
O O9 0.000000 0.500000 0.000000
O O10 0.500000 0.000000 0.500000
O O11 0.450764 0.000480 0.345815
O O12 0.258672 0.646481 0.500983
#
# Coordination Sequence:
#
# PCOD9253290 Si02
#       6
#     2   4   4   4   4   4
#     4  12  26  48  82 112 156 204 278 326 396 478
#     4  12  28  49  76 116 159 205 263 339 408 482
#     4  12  28  50  77 116 163 209 262 332 412 481
#     4  12  26  46  78 112 152 208 271 329 395 482
#     4  12  27  48  77 113 157 210 262 327 409 479
#     4  12  27  49  80 115 154 210 270 329 398 494
#
# _framework density 23.992398999999999
#
# number of rings (size 3 to 8) (size 9 to 14) (size 15 to 20)
#    0.000    0.000    7.273    1.636    2.545    4.364 
#    0.000    0.000    0.000    0.000    0.000    0.000 
#    0.000    0.000    0.000    0.000    0.000    0.000 
#
# Total GULP energy -122698.005763 kJ/mol
# GULP energy per Si atom -5577.182080 kJ/mol
# Density = 2.393779 g / cm^3
# Si number density = 23.992399 Si / 1000 Ang^3
#
#
#
# Elastic Constant Matrix: (Units=GPa)
#
#
# Indices 1 2 3 4 5 6 
#
# 1 72.0432 18.7219 22.1134 0.0000 10.5609 0.0000
# 2 18.7219 44.3575 34.4466 0.0000 -3.0783 0.0000
# 3 22.1134 34.4466 147.3189 0.0000 24.3966 0.0000
# 4 0.0000 0.0000 0.0000 41.9579 0.0000 14.4123
# 5 10.5609 -3.0783 24.3966 0.0000 32.2560 0.0000
# 6 0.0000 0.0000 0.0000 14.4123 0.0000 31.1288
#
#
#
# Elastic Compliance Matrix: (Units=1/GPa)
#
#
# Indices 1 2 3 4 5 6 
#
# 1 0.016752 -0.007834 0.000399 0.000000 -0.006534 0.000000
# 2 -0.007834 0.033453 -0.008688 0.000000 0.012328 0.000000
# 3 0.000399 -0.008688 0.010195 0.000000 -0.008671 0.000000
# 4 0.000000 0.000000 0.000000 0.028341 0.000000 -0.013121
# 5 -0.006534 0.012328 -0.008671 0.000000 0.040876 0.000000
# 6 0.000000 0.000000 0.000000 -0.013121 0.000000 0.038200
#
#
# Mechanical properties :
#
#
# Convention : Reuss Voigt Hill
#
# Bulk Modulus (GPa) = 35.51746 46.03150 40.77448
# Shear Modulus (GPa) = 23.87255 33.63106 28.75180
#
# Velocity S-wave (km/s) = 3.15779 3.74804 3.46551
# Velocity P-wave (km/s) = 5.30389 6.16100 5.74844
#
# Compressibility (1/GPa) = 0.02815517
#
# Stress axis : x y z
#
# Youngs Moduli (GPa) = 59.69563 29.89298 98.08336
#
# Poissons Ratio (x) = 0.23418 -0.03917
# Poissons Ratio (y) = 0.46765 0.85212
# Poissons Ratio (z) = -0.02384 0.25970
#
# Static dielectric constant tensor:
#      x y z
#    x 1.896360 0.000000 -0.031370 
#    y 0.000000 1.960840 0.000000 
#    z -0.031370 0.000000 1.869010 
# 
# From -- ./inp_files/48862.got.cif
#   From: 2010.05.17/outbox.cif.g08.bks.cpg/sg14_25_cif.got.tgz:48862.got - 2010.06.03 17:49:19.
