data_PCOD9253131
_publ_section_title
;
Structure prediction by ZEFSAII (Michael W. Deem and Ramdas Pophale) SiO2 
 PCOD9253131
Probable space group: P 21/C
;
_chemical_formula_sum "Si O2"
_cell_formula_units_Z 28
_cell_length_a 15.582090
_cell_length_b 8.726350
_cell_length_c 12.835988
_cell_angle_alpha 90.000000
_cell_angle_beta 137.768493
_cell_angle_gamma 90.000000
_cell_volume 1173.112154
_symmetry_space_group_name_H-M "P 21/C"
_symmetry_group_IT_number 14
_symmetry_cell_setting 'monoclinic'
loop_
_space_group_symop_operation_xyz
x,y,z
-x,1/2+y,1/2-z
-x,-y,-z
x,1/2-y,1/2+z
loop_
_atom_site_type_symbol
_atom_site_label
_atom_site_fract_x
_atom_site_fract_y
_atom_site_fract_z
Si Si1 0.422045 0.680114 0.109486
Si Si2 0.815169 0.727891 0.835335
Si Si3 0.357132 0.509729 0.622869
Si Si4 0.905888 0.229107 0.866570
Si Si5 0.102731 0.480728 0.285771
Si Si6 0.330479 0.976198 0.328375
Si Si7 0.823720 0.439539 0.989049
O O1 0.547902 0.633182 0.286502
O O2 0.405289 0.862218 0.085566
O O3 0.297755 0.617924 0.058022
O O4 0.421284 0.591606 0.998697
O O5 0.850015 0.634706 0.762016
O O6 0.793284 0.601617 0.905743
O O7 0.699773 0.843430 0.710650
O O8 0.946608 0.811933 0.985770
O O9 0.210036 0.470759 0.469833
O O10 0.364189 0.583633 0.743893
O O11 0.894372 0.350232 0.762154
O O12 0.807059 0.094259 0.765340
O O13 0.862814 0.325343 0.930469
O O14 0.953752 0.452166 0.174071
#
# Coordination Sequence:
#
# PCOD9253131 Si02
#       7
#     4   4   4   4   4   4   4
#     4  12  28  48  68  96 136 179 228 277 331 397
#     4   9  21  36  70 107 138 167 219 274 335 403
#     4  12  28  48  68  96 136 179 228 277 331 397
#     4   9  17  40  66 102 136 174 218 278 332 386
#     4   9  20  44  71  97 135 181 221 267 336 403
#     4  12  24  42  65 100 135 171 222 288 320 395
#     4   9  20  44  71  97 135 181 221 267 336 403
#
# _framework density 23.868134999999999
#
# number of rings (size 3 to 8) (size 9 to 14) (size 15 to 20)
#    0.000    1.714    2.857    2.571    4.000    2.286 
#    0.000    3.571    0.000    0.000    0.000    0.000 
#    0.000    0.000    0.000    0.000    0.000    0.000 
#
# Total GULP energy -156691.429914 kJ/mol
# GULP energy per Si atom -5596.122497 kJ/mol
# Density = 2.381381 g / cm^3
# Si number density = 23.868135 Si / 1000 Ang^3
#
#
#
# Elastic Constant Matrix: (Units=GPa)
#
#
# Indices 1 2 3 4 5 6 
#
# 1 66.6446 -1.7821 19.4358 0.0000 4.9337 0.0000
# 2 -1.7821 76.4848 26.9736 0.0000 12.2912 0.0000
# 3 19.4358 26.9736 137.6029 0.0000 7.5729 0.0000
# 4 0.0000 0.0000 0.0000 28.0893 0.0000 9.2896
# 5 4.9337 12.2912 7.5729 0.0000 26.0862 0.0000
# 6 0.0000 0.0000 0.0000 9.2896 0.0000 32.0279
#
#
#
# Elastic Compliance Matrix: (Units=1/GPa)
#
#
# Indices 1 2 3 4 5 6 
#
# 1 0.015991 0.001732 -0.002426 0.000000 -0.003136 0.000000
# 2 0.001732 0.015192 -0.002856 0.000000 -0.006656 0.000000
# 3 -0.002426 -0.002856 0.008202 0.000000 -0.000576 0.000000
# 4 0.000000 0.000000 0.000000 0.039378 0.000000 -0.011422
# 5 -0.003136 -0.006656 -0.000576 0.000000 0.042231 0.000000
# 6 0.000000 0.000000 0.000000 -0.011422 0.000000 0.034536
#
#
# Mechanical properties :
#
#
# Convention : Reuss Voigt Hill
#
# Bulk Modulus (GPa) = 30.97456 41.10964 36.04210
# Shear Modulus (GPa) = 28.83668 32.98102 30.90885
#
# Velocity S-wave (km/s) = 3.47964 3.72129 3.60249
# Velocity P-wave (km/s) = 5.39902 5.97704 5.69537
#
# Compressibility (1/GPa) = 0.03228456
#
# Stress axis : x y z
#
# Youngs Moduli (GPa) = 62.53586 65.82473 121.92877
#
# Poissons Ratio (x) = -0.11401 0.29574
# Poissons Ratio (y) = -0.10831 0.34826
# Poissons Ratio (z) = 0.15168 0.18801
#
# Static dielectric constant tensor:
#      x y z
#    x 1.892440 0.000000 -0.007860 
#    y 0.000000 1.892960 0.000000 
#    z -0.007860 0.000000 1.939140 
# 
# From -- ./inp_files/48591.got.cif
#   From: 2010.05.17/outbox.cif.g08.bks.cpg/sg14_25_cif.got.tgz:48591.got - 2010.06.03 17:49:19.
