data_PCOD9253170
_publ_section_title
;
Structure prediction by ZEFSAII (Michael W. Deem and Ramdas Pophale) SiO2 
 PCOD9253170
Probable space group: P 21/C
;
_chemical_formula_sum "Si O2"
_cell_formula_units_Z 20
_cell_length_a 6.264762
_cell_length_b 8.719288
_cell_length_c 16.093650
_cell_angle_alpha 90.000000
_cell_angle_beta 74.911019
_cell_angle_gamma 90.000000
_cell_volume 848.794675
_symmetry_space_group_name_H-M "P 21/C"
_symmetry_group_IT_number 14
_symmetry_cell_setting 'monoclinic'
loop_
_space_group_symop_operation_xyz
x,y,z
-x,1/2+y,1/2-z
-x,-y,-z
x,1/2-y,1/2+z
loop_
_atom_site_type_symbol
_atom_site_label
_atom_site_fract_x
_atom_site_fract_y
_atom_site_fract_z
Si Si1 0.193631 0.905498 0.930081
Si Si2 0.712729 0.899024 0.237645
Si Si3 0.332939 0.394481 0.846932
Si Si4 0.017658 0.127755 0.639570
Si Si5 0.529754 0.814365 0.493932
O O1 0.281758 0.025282 0.853376
O O2 0.353513 0.809839 0.977597
O O3 0.130211 0.769213 0.872341
O O4 0.000000 0.000000 0.000000
O O5 0.511149 0.976145 0.307073
O O6 0.685756 0.718385 0.228351
O O7 0.935340 0.916876 0.269858
O O8 0.098965 0.477908 0.888718
O O9 0.418190 0.293890 0.914780
O O10 0.249331 0.190170 0.581954
O O11 0.500000 0.000000 0.500000
#
# Coordination Sequence:
#
# PCOD9253170 Si02
#       5
#     4   4   4   4   4
#     4  12  29  48  74 114 150 198 261 320 386 466
#     4  12  27  45  71 109 148 193 254 317 382 468
#     4  12  26  45  75 105 152 197 255 314 388 465
#     4  12  24  47  75 105 148 199 251 310 396 456
#     4  12  25  47  75 106 148 197 249 311 382 469
#
# _framework density 23.562823999999999
#
# number of rings (size 3 to 8) (size 9 to 14) (size 15 to 20)
#    0.000    0.000    4.000    5.400    2.800    8.000 
#    0.000    0.000    0.000    0.000    0.000    0.000 
#    0.000    0.000    0.000    0.000    0.000    0.000 
#
# Total GULP energy -111495.858475 kJ/mol
# GULP energy per Si atom -5574.792924 kJ/mol
# Density = 2.350919 g / cm^3
# Si number density = 23.562824 Si / 1000 Ang^3
#
#
#
# Elastic Constant Matrix: (Units=GPa)
#
#
# Indices 1 2 3 4 5 6 
#
# 1 117.2341 76.9200 53.6415 0.0000 19.3515 0.0000
# 2 76.9200 128.1903 46.2174 0.0000 12.8701 0.0000
# 3 53.6415 46.2174 107.0628 0.0000 3.4829 0.0000
# 4 0.0000 0.0000 0.0000 31.6986 0.0000 24.0153
# 5 19.3515 12.8701 3.4829 0.0000 24.9517 0.0000
# 6 0.0000 0.0000 0.0000 24.0153 0.0000 44.5633
#
#
#
# Elastic Compliance Matrix: (Units=1/GPa)
#
#
# Indices 1 2 3 4 5 6 
#
# 1 0.017360 -0.007701 -0.005088 0.000000 -0.008782 0.000000
# 2 -0.007701 0.013121 -0.001788 0.000000 -0.000546 0.000000
# 3 -0.005088 -0.001788 0.012560 0.000000 0.003115 0.000000
# 4 0.000000 0.000000 0.000000 0.053314 0.000000 -0.028731
# 5 -0.008782 -0.000546 0.003115 0.000000 0.046735 0.000000
# 6 0.000000 0.000000 0.000000 -0.028731 0.000000 0.037923
#
#
# Mechanical properties :
#
#
# Convention : Reuss Voigt Hill
#
# Bulk Modulus (GPa) = 72.00629 78.44946 75.22788
# Shear Modulus (GPa) = 23.27776 31.95663 27.61719
#
# Velocity S-wave (km/s) = 3.14650 3.68670 3.42726
# Velocity P-wave (km/s) = 6.62014 7.17554 6.90343
#
# Compressibility (1/GPa) = 0.01388768
#
# Stress axis : x y z
#
# Youngs Moduli (GPa) = 57.60277 76.21205 79.61727
#
# Poissons Ratio (x) = 0.58690 0.40509
# Poissons Ratio (y) = 0.44359 0.14237
# Poissons Ratio (z) = 0.29308 0.13628
#
# Static dielectric constant tensor:
#      x y z
#    x 2.138380 0.000000 0.090330 
#    y 0.000000 1.510590 0.000000 
#    z 0.090330 0.000000 1.961370 
# 
# From -- ./inp_files/52664.got.cif
#   From: 2010.05.17/outbox.cif.g08.bks.cpg/sg14_27_cif.got.tgz:52664.got - 2010.06.03 17:49:19.
