data_PCOD9253475
_publ_section_title
;
Structure prediction by ZEFSAII (Michael W. Deem and Ramdas Pophale) SiO2 
 PCOD9253475
Probable space group: P 21/C
;
_chemical_formula_sum "Si O2"
_cell_formula_units_Z 32
_cell_length_a 12.000000
_cell_length_b 12.000000
_cell_length_c 12.000000
_cell_angle_alpha 90.000000
_cell_angle_beta 110.000000
_cell_angle_gamma 90.000000
_cell_volume 1623.788849
_symmetry_space_group_name_H-M "P 21/C"
_symmetry_group_IT_number 14
_symmetry_cell_setting 'monoclinic'
loop_
_space_group_symop_operation_xyz
x,y,z
-x,1/2+y,1/2-z
-x,-y,-z
x,1/2-y,1/2+z
loop_
_atom_site_type_symbol
_atom_site_label
_atom_site_fract_x
_atom_site_fract_y
_atom_site_fract_z
Si Si1 0.461754 0.635977 0.580200
Si Si2 0.117869 0.318728 0.272649
Si Si3 0.689049 0.940695 0.021541
Si Si4 0.743050 0.728412 0.371862
Si Si5 0.369956 0.629767 0.997433
Si Si6 0.954223 0.839298 0.573066
Si Si7 0.895055 0.092093 0.561289
Si Si8 0.542346 0.908753 0.352119
O O1 0.350214 0.568160 0.493028
O O2 0.575702 0.619700 0.539822
O O3 0.425787 0.763681 0.577405
O O4 0.494526 0.583326 0.710360
O O5 0.192612 0.407278 0.371040
O O6 0.222442 0.252819 0.242845
O O7 0.043420 0.224297 0.310796
O O8 0.017569 0.380702 0.167175
O O9 0.706385 0.892061 0.903069
O O10 0.866310 0.760453 0.473310
O O11 0.642334 0.813055 0.379028
O O12 0.228316 0.637689 0.935549
O O13 0.438022 0.619962 0.903115
O O14 0.398570 0.521031 0.080989
O O15 0.077486 0.859801 0.552465
O O16 0.890996 0.958677 0.557325
#
# Coordination Sequence:
#
# PCOD9253475 Si02
#       8
#     4   4   4   4   4   4   4   4
#     4  11  24  37  60  91 127 162 194 262 312 358
#     4  10  21  37  67  88 118 168 206 251 303 369
#     4  10  22  38  58  90 125 157 210 247 308 368
#     4  10  18  38  61  86 117 160 206 248 293 368
#     4  11  25  41  61  92 129 157 209 255 307 375
#     4   9  20  37  59  87 116 157 210 248 293 371
#     4  10  21  39  61  88 119 162 201 256 309 354
#     4  11  23  39  62  91 122 168 198 250 309 374
#
# _framework density 19.706996
#
# number of rings (size 3 to 8) (size 9 to 14) (size 15 to 20)
#    0.000    1.750    3.750    0.000    1.750    3.000 
#    0.000    0.000    0.000    5.250    0.000    0.000 
#    0.000    0.000    0.000    0.000    0.000    0.000 
#
# Total GULP energy -178332.067923 kJ/mol
# GULP energy per Si atom -5572.877123 kJ/mol
# Density = 1.966214 g / cm^3
# Si number density = 19.706996 Si / 1000 Ang^3
#
#
#
# Elastic Constant Matrix: (Units=GPa)
#
#
# Indices 1 2 3 4 5 6 
#
# 1 81.7969 23.6029 12.3832 0.0000 5.1169 0.0000
# 2 23.6029 44.5578 2.7224 0.0000 -5.8751 0.0000
# 3 12.3832 2.7224 40.0715 0.0000 -7.9964 0.0000
# 4 0.0000 0.0000 0.0000 33.4622 0.0000 -90.6975
# 5 5.1169 -5.8751 -7.9964 0.0000 16.4391 0.0000
# 6 0.0000 0.0000 0.0000 -90.6975 0.0000 433.9348
#
#
#
# Elastic Compliance Matrix: (Units=1/GPa)
#
#
# Indices 1 2 3 4 5 6 
#
# 1 0.017009 -0.010211 -0.007030 0.000000 -0.012363 0.000000
# 2 -0.010211 0.029682 0.004308 0.000000 0.015882 0.000000
# 3 -0.007030 0.004308 0.030544 0.000000 0.018585 0.000000
# 4 0.000000 0.000000 0.000000 0.068940 0.000000 0.014409
# 5 -0.012363 0.015882 0.018585 0.000000 0.079395 0.000000
# 6 0.000000 0.000000 0.000000 0.014409 0.000000 0.005316
#
#
# Mechanical properties :
#
#
# Convention : Reuss Voigt Hill
#
# Bulk Modulus (GPa) = 19.46631 27.09370 23.28000
# Shear Modulus (GPa) = 18.25652 105.28174 61.76913
#
# Velocity S-wave (km/s) = 3.04698 7.31707 5.60462
# Velocity P-wave (km/s) = 4.71997 9.22844 7.32947
#
# Compressibility (1/GPa) = 0.05137079
#
# Stress axis : x y z
#
# Youngs Moduli (GPa) = 58.79119 33.69003 32.73993
#
# Poissons Ratio (x) = 0.34400 0.23015
# Poissons Ratio (y) = 0.60030 -0.14105
# Poissons Ratio (z) = 0.41328 -0.14514
#
# Static dielectric constant tensor:
#      x y z
#    x 1.686420 0.000000 -0.021180 
#    y 0.000000 1.703610 0.000000 
#    z -0.021180 0.000000 1.806800 
# 
# From -- ./inp_files/29412.got.cif
#   From: 2010.05.17/outbox.ucp.g08.bks.cvg/sg14_15_cif.got.tgz:29412.got - 2010.06.11 12:31:08.
