data_PCOD9253527
_publ_section_title
;
Structure prediction by ZEFSAII (Michael W. Deem and Ramdas Pophale) SiO2 
 PCOD9253527
Probable space group: P 21/C
;
_chemical_formula_sum "Si O2"
_cell_formula_units_Z 32
_cell_length_a 21.000000
_cell_length_b 15.000000
_cell_length_c 15.000000
_cell_angle_alpha 90.000000
_cell_angle_beta 160.000000
_cell_angle_gamma 90.000000
_cell_volume 1616.045177
_symmetry_space_group_name_H-M "P 21/C"
_symmetry_group_IT_number 14
_symmetry_cell_setting 'monoclinic'
loop_
_space_group_symop_operation_xyz
x,y,z
-x,1/2+y,1/2-z
-x,-y,-z
x,1/2-y,1/2+z
loop_
_atom_site_type_symbol
_atom_site_label
_atom_site_fract_x
_atom_site_fract_y
_atom_site_fract_z
Si Si1 0.285228 0.308329 0.666591
Si Si2 0.151583 0.490316 0.421175
Si Si3 0.077189 0.668184 0.688710
Si Si4 0.657727 0.243167 0.744113
Si Si5 0.940855 0.385182 0.536297
Si Si6 0.340192 0.377278 0.138854
Si Si7 0.695178 0.340901 0.483691
Si Si8 0.255991 0.565822 0.092086
O O1 0.257423 0.395594 0.567674
O O2 0.273300 0.209339 0.607591
O O3 0.128131 0.320662 0.536896
O O4 0.495380 0.305742 0.977480
O O5 0.145561 0.537946 0.512208
O O6 0.226122 0.564470 0.449883
O O7 0.938551 0.464573 0.119638
O O8 0.090947 0.618978 0.611544
O O9 0.193994 0.611679 0.915992
O O10 0.157382 0.768974 0.783800
O O11 0.852659 0.205085 0.963069
O O12 0.631206 0.210056 0.810011
O O13 0.652717 0.350773 0.735768
O O14 0.161791 0.392023 0.840539
O O15 0.526495 0.354581 0.329960
O O16 0.363974 0.472994 0.219445
#
# Coordination Sequence:
#
# PCOD9253527 Si02
#       8
#     4   4   4   4   4   4   4   4
#     4  11  22  37  59  83 113 150 189 233 280 330
#     4   9  20  37  59  83 112 149 188 233 279 331
#     4  10  20  37  59  85 115 146 183 233 285 335
#     4  10  21  37  57  83 114 147 184 234 283 333
#     4  10  20  36  59  85 113 145 186 232 282 334
#     4  11  22  36  57  82 111 151 190 231 279 334
#     4  10  21  37  57  84 115 145 185 231 282 337
#     4   9  20  38  57  78 111 148 185 230 282 334
#
# _framework density 19.801427
#
# number of rings (size 3 to 8) (size 9 to 14) (size 15 to 20)
#    0.000    2.000    0.000    5.250    0.000   11.000 
#    0.000    1.250    0.000    5.250    0.000    0.000 
#    0.000    0.000    0.000    0.000    0.000    0.000 
#
# Total GULP energy -178473.947038 kJ/mol
# GULP energy per Si atom -5577.310845 kJ/mol
# Density = 1.975636 g / cm^3
# Si number density = 19.801427 Si / 1000 Ang^3
#
#
#
# Elastic Constant Matrix: (Units=GPa)
#
#
# Indices 1 2 3 4 5 6 
#
# 1 62.0943 16.4586 0.2641 0.0000 23.4944 0.0000
# 2 16.4586 143.4938 11.1107 0.0000 21.7325 0.0000
# 3 0.2641 11.1107 44.4281 0.0000 20.5933 0.0000
# 4 0.0000 0.0000 0.0000 35.7795 0.0000 2.6441
# 5 23.4944 21.7325 20.5933 0.0000 23.1138 0.0000
# 6 0.0000 0.0000 0.0000 2.6441 0.0000 21.2139
#
#
#
# Elastic Compliance Matrix: (Units=1/GPa)
#
#
# Indices 1 2 3 4 5 6 
#
# 1 0.048534 0.004904 0.040014 0.000000 -0.089595 0.000000
# 2 0.004904 0.008798 0.006670 0.000000 -0.019200 0.000000
# 3 0.040014 0.006670 0.072163 0.000000 -0.111238 0.000000
# 4 0.000000 0.000000 0.000000 0.028209 0.000000 -0.003516
# 5 -0.089595 -0.019200 -0.111238 0.000000 0.251494 0.000000
# 6 0.000000 0.000000 0.000000 -0.003516 0.000000 0.047577
#
#
# Mechanical properties :
#
#
# Convention : Reuss Voigt Hill
#
# Bulk Modulus (GPa) = 4.29790 33.96477 19.13133
# Shear Modulus (GPa) = 11.59674 30.83362 21.21518
#
# Velocity S-wave (km/s) = 2.42265 3.95034 3.27677
# Velocity P-wave (km/s) = 3.16241 6.16416 4.89886
#
# Compressibility (1/GPa) = 0.23267161
#
# Stress axis : x y z
#
# Youngs Moduli (GPa) = 20.60406 113.66456 13.85748
#
# Poissons Ratio (x) = -0.55744 -0.55449
# Poissons Ratio (y) = -0.10105 -0.09243
# Poissons Ratio (z) = -0.82445 -0.75816
#
# Static dielectric constant tensor:
#      x y z
#    x 1.688900 0.000000 -0.038950 
#    y 0.000000 1.724290 0.000000 
#    z -0.038950 0.000000 1.730830 
# 
# From -- ./inp_files/50705.got.cif
#   From: 2010.05.17/outbox.ucp.g08.bks.cvg/sg14_26_cif.got.tgz:50705.got - 2010.06.11 12:31:08.
