data_PCOD9253588
_publ_section_title
;
Structure prediction by ZEFSAII (Michael W. Deem and Ramdas Pophale) SiO2 
 PCOD9253588
Probable space group: P 21/C
;
_chemical_formula_sum "Si O2"
_cell_formula_units_Z 24
_cell_length_a 18.000000
_cell_length_b 9.000000
_cell_length_c 15.000000
_cell_angle_alpha 90.000000
_cell_angle_beta 30.000000
_cell_angle_gamma 90.000000
_cell_volume 1215.000000
_symmetry_space_group_name_H-M "P 21/C"
_symmetry_group_IT_number 14
_symmetry_cell_setting 'monoclinic'
loop_
_space_group_symop_operation_xyz
x,y,z
-x,1/2+y,1/2-z
-x,-y,-z
x,1/2-y,1/2+z
loop_
_atom_site_type_symbol
_atom_site_label
_atom_site_fract_x
_atom_site_fract_y
_atom_site_fract_z
Si Si1 0.843553 0.495306 0.806034
Si Si2 0.686157 0.178048 0.966795
Si Si3 0.949957 0.784461 0.618875
Si Si4 0.226963 0.973144 0.303489
Si Si5 0.341893 0.157739 0.348402
Si Si6 0.851237 0.932293 0.906792
O O1 0.772091 0.333917 0.859654
O O2 0.892059 0.614481 0.678993
O O3 0.998392 0.469384 0.697260
O O4 0.725368 0.576171 0.994460
O O5 0.687790 0.081481 0.873511
O O6 0.769948 0.081518 0.956110
O O7 0.515603 0.196851 0.173117
O O8 0.896617 0.848506 0.768929
O O9 0.123011 0.831704 0.436305
O O10 0.875767 0.887165 0.620237
O O11 0.315358 0.041478 0.294803
O O12 0.251236 0.313431 0.434404
#
# Coordination Sequence:
#
# PCOD9253588 Si02
#       6
#     4   4   4   4   4   4
#     4  11  22  39  64  92 118 162 215 253 305 368
#     4  11  23  39  61  91 127 162 199 257 321 366
#     4   9  20  37  60  88 116 158 203 261 295 361
#     4  10  21  39  61  88 126 161 205 251 316 364
#     4  11  22  40  62  88 124 163 206 257 309 369
#     4  10  21  38  61  89 116 158 209 253 298 365
#
# _framework density 19.753086
#
# number of rings (size 3 to 8) (size 9 to 14) (size 15 to 20)
#    0.000    1.667    1.667    3.500    4.667    0.667 
#    0.000    0.833    0.000    0.000    0.000    0.000 
#    0.000    0.000    0.000    0.000    0.000    0.000 
#
# Total GULP energy -133927.762116 kJ/mol
# GULP energy per Si atom -5580.323422 kJ/mol
# Density = 1.970813 g / cm^3
# Si number density = 19.753086 Si / 1000 Ang^3
#
#
#
# Elastic Constant Matrix: (Units=GPa)
#
#
# Indices 1 2 3 4 5 6 
#
# 1 41.2768 17.6520 28.8112 0.0000 -3.0144 0.0000
# 2 17.6520 129.4629 43.1958 0.0000 -3.0352 0.0000
# 3 28.8112 43.1958 108.5126 0.0000 -25.2960 0.0000
# 4 0.0000 0.0000 0.0000 40.3889 0.0000 2.4813
# 5 -3.0144 -3.0352 -25.2960 0.0000 22.5162 0.0000
# 6 0.0000 0.0000 0.0000 2.4813 0.0000 22.6453
#
#
#
# Elastic Compliance Matrix: (Units=1/GPa)
#
#
# Indices 1 2 3 4 5 6 
#
# 1 0.030668 -0.001295 -0.009092 0.000000 -0.006283 0.000000
# 2 -0.001295 0.009205 -0.004161 0.000000 -0.003608 0.000000
# 3 -0.009092 -0.004161 0.017438 0.000000 0.017813 0.000000
# 4 0.000000 0.000000 0.000000 0.024927 0.000000 -0.002731
# 5 -0.006283 -0.003608 0.017813 0.000000 0.063098 0.000000
# 6 0.000000 0.000000 0.000000 -0.002731 0.000000 0.044458
#
#
# Mechanical properties :
#
#
# Convention : Reuss Voigt Hill
#
# Bulk Modulus (GPa) = 35.44264 50.95226 43.19745
# Shear Modulus (GPa) = 21.90147 29.74964 25.82555
#
# Velocity S-wave (km/s) = 3.33342 3.88503 3.61975
# Velocity P-wave (km/s) = 5.72690 6.78050 6.27585
#
# Compressibility (1/GPa) = 0.02821460
#
# Stress axis : x y z
#
# Youngs Moduli (GPa) = 32.60751 108.64081 57.34449
#
# Poissons Ratio (x) = 0.14072 0.52136
# Poissons Ratio (y) = 0.04224 0.23862
# Poissons Ratio (z) = 0.29646 0.45207
#
# Static dielectric constant tensor:
#      x y z
#    x 1.693840 0.000000 0.008400 
#    y 0.000000 1.719790 0.000000 
#    z 0.008400 0.000000 1.697340 
# 
# From -- ./inp_files/39007.got.cif
#   From: 2010.05.17/outbox.ucp.g08.bks.cvg/sg14_20_cif.got.tgz:39007.got - 2010.06.11 12:31:08.
