data_PCOD9253295
_publ_section_title
;
Structure prediction by ZEFSAII (Michael W. Deem and Ramdas Pophale) SiO2 
 PCOD9253295
Probable space group: P 21/C
;
_chemical_formula_sum "Si O2"
_cell_formula_units_Z 14
_cell_length_a 9.327513
_cell_length_b 8.574789
_cell_length_c 8.552325
_cell_angle_alpha 90.000000
_cell_angle_beta 132.466046
_cell_angle_gamma 90.000000
_cell_volume 504.591672
_symmetry_space_group_name_H-M "P 21/C"
_symmetry_group_IT_number 14
_symmetry_cell_setting 'monoclinic'
loop_
_space_group_symop_operation_xyz
x,y,z
-x,1/2+y,1/2-z
-x,-y,-z
x,1/2-y,1/2+z
loop_
_atom_site_type_symbol
_atom_site_label
_atom_site_fract_x
_atom_site_fract_y
_atom_site_fract_z
Si Si1 0.344916 0.362799 0.737653
Si Si2 0.006308 0.126765 0.364736
Si Si3 0.424634 0.666419 0.379304
Si Si4 0.000000 0.500000 0.500000
O O1 0.535769 0.352902 0.774057
O O2 0.154584 0.236082 0.031529
O O3 0.237310 0.525544 0.652811
O O4 0.417485 0.292136 0.950561
O O5 0.788962 0.190791 0.215065
O O6 0.000000 0.000000 0.500000
O O7 0.039998 0.060211 0.216458
O O8 0.500000 0.500000 0.500000
#
# Coordination Sequence:
#
# PCOD9253295 Si02
#       4
#     4   4   4   2
#     4  12  26  49  75 113 154 200 259 320 384 461
#     4  12  27  51  77 110 159 202 257 325 377 463
#     4  12  26  47  75 111 154 201 257 317 385 461
#     4  12  26  48  80 108 152 206 252 314 398 444
#
# _framework density 27.745208999999999
#
# number of rings (size 3 to 8) (size 9 to 14) (size 15 to 20)
#    0.000    0.000    8.571    0.000    4.000    0.000 
#    0.000    5.714    0.000    0.000    0.000    0.000 
#    0.000    0.000    0.000    0.000    0.000    0.000 
#
# Total GULP energy -77951.795077 kJ/mol
# GULP energy per Si atom -5567.985363 kJ/mol
# Density = 2.768206 g / cm^3
# Si number density = 27.745209 Si / 1000 Ang^3
#
#
#
# Elastic Constant Matrix: (Units=GPa)
#
#
# Indices 1 2 3 4 5 6 
#
# 1 172.6783 -1.6771 48.4781 0.0000 3.7216 0.0000
# 2 -1.6771 56.2463 40.5930 0.0000 -1.4695 0.0000
# 3 48.4781 40.5930 156.7087 0.0000 0.7381 0.0000
# 4 0.0000 0.0000 0.0000 56.8641 0.0000 6.9868
# 5 3.7216 -1.4695 0.7381 0.0000 60.5356 0.0000
# 6 0.0000 0.0000 0.0000 6.9868 0.0000 43.2679
#
#
#
# Elastic Compliance Matrix: (Units=1/GPa)
#
#
# Indices 1 2 3 4 5 6 
#
# 1 0.006531 0.002021 -0.002543 0.000000 -0.000321 0.000000
# 2 0.002021 0.022514 -0.006460 0.000000 0.000501 0.000000
# 3 -0.002543 -0.006460 0.008842 0.000000 -0.000108 0.000000
# 4 0.000000 0.000000 0.000000 0.017942 0.000000 -0.002897
# 5 -0.000321 0.000501 -0.000108 0.000000 0.016552 0.000000
# 6 0.000000 0.000000 0.000000 -0.002897 0.000000 0.023580
#
#
# Mechanical properties :
#
#
# Convention : Reuss Voigt Hill
#
# Bulk Modulus (GPa) = 41.79632 62.26903 52.03268
# Shear Modulus (GPa) = 42.40945 52.01612 47.21279
#
# Velocity S-wave (km/s) = 3.91389 4.33457 4.12959
# Velocity P-wave (km/s) = 5.96001 6.89516 6.44457
#
# Compressibility (1/GPa) = 0.02392555
#
# Stress axis : x y z
#
# Youngs Moduli (GPa) = 153.10430 44.41632 113.10157
#
# Poissons Ratio (x) = -0.08978 0.28757
# Poissons Ratio (y) = -0.30948 0.73060
# Poissons Ratio (z) = 0.38929 0.28691
#
# Static dielectric constant tensor:
#      x y z
#    x 2.253830 0.000000 -0.013970 
#    y 0.000000 1.516940 0.000000 
#    z -0.013970 0.000000 2.135810 
# 
# From -- ./inp_files/7549.got.cif
#   From: 2010.05.17/outbox.cif.g08.bks.cpg/sg14_4_cif.got.tgz:7549.got - 2010.06.03 17:49:19.
