data_PCOD9253108
_publ_section_title
;
Structure prediction by ZEFSAII (Michael W. Deem and Ramdas Pophale) SiO2 
 PCOD9253108
Probable space group: P 21/C
;
_chemical_formula_sum "Si O2"
_cell_formula_units_Z 20
_cell_length_a 8.092329
_cell_length_b 4.782121
_cell_length_c 21.407980
_cell_angle_alpha 90.000000
_cell_angle_beta 93.060170
_cell_angle_gamma 90.000000
_cell_volume 827.275278
_symmetry_space_group_name_H-M "P 21/C"
_symmetry_group_IT_number 14
_symmetry_cell_setting 'monoclinic'
loop_
_space_group_symop_operation_xyz
x,y,z
-x,1/2+y,1/2-z
-x,-y,-z
x,1/2-y,1/2+z
loop_
_atom_site_type_symbol
_atom_site_label
_atom_site_fract_x
_atom_site_fract_y
_atom_site_fract_z
Si Si1 0.484053 0.569093 0.571938
Si Si2 0.984852 0.106189 0.070638
Si Si3 0.621809 0.204662 0.249666
Si Si4 0.675137 0.408606 0.119980
Si Si5 0.174348 0.630714 0.122598
O O1 0.500000 0.500000 0.500000
O O2 0.509246 0.275873 0.607001
O O3 0.312430 0.717268 0.583482
O O4 0.626434 0.783429 0.597718
O O5 0.813447 0.264552 0.080312
O O6 0.879806 0.661729 0.907631
O O7 0.016896 0.838737 0.115466
O O8 0.000000 0.000000 0.000000
O O9 0.486254 0.432030 0.269902
O O10 0.713372 0.351271 0.193253
O O11 0.747186 0.121384 0.307053
#
# Coordination Sequence:
#
# PCOD9253108 Si02
#       5
#     4   4   4   4   4
#     4  12  25  44  73 107 140 192 253 293 355 443
#     4  12  28  47  69 106 156 192 238 300 369 444
#     4  12  23  46  77 107 145 181 250 321 362 432
#     4  12  25  47  72 106 147 193 240 308 371 428
#     4  12  25  46  75 106 143 197 244 297 374 430
#
# _framework density 24.175754000000001
#
# number of rings (size 3 to 8) (size 9 to 14) (size 15 to 20)
#    0.000    0.000    4.000    6.000    0.000    4.800 
#    0.000    0.000    0.000    0.000    0.000    0.000 
#    0.000    0.000    0.000    0.000    0.000    0.000 
#
# Total GULP energy -112091.483793 kJ/mol
# GULP energy per Si atom -5604.574190 kJ/mol
# Density = 2.412073 g / cm^3
# Si number density = 24.175754 Si / 1000 Ang^3
#
#
#
# Elastic Constant Matrix: (Units=GPa)
#
#
# Indices 1 2 3 4 5 6 
#
# 1 83.7863 19.1948 22.2248 0.0000 3.2690 0.0000
# 2 19.1948 135.7979 29.4013 0.0000 14.3946 0.0000
# 3 22.2248 29.4013 161.4642 0.0000 -1.1400 0.0000
# 4 0.0000 0.0000 0.0000 50.4960 0.0000 11.3450
# 5 3.2690 14.3946 -1.1400 0.0000 42.9371 0.0000
# 6 0.0000 0.0000 0.0000 11.3450 0.0000 42.1524
#
#
#
# Elastic Compliance Matrix: (Units=1/GPa)
#
#
# Indices 1 2 3 4 5 6 
#
# 1 0.012675 -0.001412 -0.001491 0.000000 -0.000531 0.000000
# 2 -0.001412 0.008127 -0.001304 0.000000 -0.002652 0.000000
# 3 -0.001491 -0.001304 0.006641 0.000000 0.000727 0.000000
# 4 0.000000 0.000000 0.000000 0.021078 0.000000 -0.005673
# 5 -0.000531 -0.002652 0.000727 0.000000 0.024239 0.000000
# 6 0.000000 0.000000 0.000000 -0.005673 0.000000 0.025250
#
#
# Mechanical properties :
#
#
# Convention : Reuss Voigt Hill
#
# Bulk Modulus (GPa) = 52.55542 58.07669 55.31606
# Shear Modulus (GPa) = 44.33872 47.79893 46.06882
#
# Velocity S-wave (km/s) = 4.28719 4.45133 4.37003
# Velocity P-wave (km/s) = 6.80388 7.10591 6.95653
#
# Compressibility (1/GPa) = 0.01902753
#
# Stress axis : x y z
#
# Youngs Moduli (GPa) = 78.89557 123.04721 150.57539
#
# Poissons Ratio (x) = 0.17380 0.22454
# Poissons Ratio (y) = 0.11143 0.19637
# Poissons Ratio (z) = 0.11765 0.16047
#
# Static dielectric constant tensor:
#      x y z
#    x 1.989000 0.000000 0.012980 
#    y 0.000000 1.906960 0.000000 
#    z 0.012980 0.000000 1.947800 
# 
# From -- ./inp_files/64223.got.cif
#   From: 2010.05.17/outbox.cif.g08.bks.cpg/sg14_33_cif.got.tgz:64223.got - 2010.06.03 17:49:19.
