data_PCOD9253651
_publ_section_title
;
Structure prediction by ZEFSAII (Michael W. Deem and Ramdas Pophale) SiO2 
 PCOD9253651
Probable space group: P 21/C
;
_chemical_formula_sum "Si O2"
_cell_formula_units_Z 28
_cell_length_a 9.000000
_cell_length_b 12.000000
_cell_length_c 15.000000
_cell_angle_alpha 90.000000
_cell_angle_beta 120.000000
_cell_angle_gamma 90.000000
_cell_volume 1402.961154
_symmetry_space_group_name_H-M "P 21/C"
_symmetry_group_IT_number 14
_symmetry_cell_setting 'monoclinic'
loop_
_space_group_symop_operation_xyz
x,y,z
-x,1/2+y,1/2-z
-x,-y,-z
x,1/2-y,1/2+z
loop_
_atom_site_type_symbol
_atom_site_label
_atom_site_fract_x
_atom_site_fract_y
_atom_site_fract_z
Si Si1 0.075913 0.888263 0.121973
Si Si2 0.488557 0.189141 0.496296
Si Si3 0.766656 0.271272 0.698919
Si Si4 0.133831 0.598962 0.435994
Si Si5 0.141856 0.996852 0.671910
Si Si6 0.254572 0.506320 0.003686
Si Si7 0.260918 0.111353 0.888112
O O1 0.190108 0.840466 0.234664
O O2 0.889304 0.837609 0.092903
O O3 0.142588 0.865383 0.042020
O O4 0.036120 0.020408 0.118361
O O5 0.575955 0.250805 0.606648
O O6 0.633770 0.117025 0.487311
O O7 0.403121 0.293934 0.420588
O O8 0.351944 0.097853 0.487936
O O9 0.867686 0.304229 0.637795
O O10 0.808541 0.373473 0.777212
O O11 0.279912 0.509474 0.445445
O O12 0.195489 0.076702 0.770231
O O13 0.938679 0.011071 0.593207
O O14 0.234769 0.011438 0.604356
#
# Coordination Sequence:
#
# PCOD9253651 Si02
#       7
#     4   4   4   4   4   4   4
#     4   9  18  41  62  91 128 173 219 265 318 389
#     4  11  24  41  63  96 139 166 206 276 345 372
#     4  11  22  37  66  95 127 175 212 262 334 386
#     4   8  20  38  62  95 122 166 228 269 297 395
#     4  10  22  43  69  90 125 175 231 258 311 404
#     4  10  24  44  61  94 134 172 214 276 319 391
#     4   9  19  41  64  92 124 168 215 268 318 385
#
# _framework density 19.957787
#
# number of rings (size 3 to 8) (size 9 to 14) (size 15 to 20)
#    0.857    1.429    0.000    1.714    2.000    3.429 
#    5.143    0.000    0.000    0.000    0.000    0.000 
#    0.000    0.000    0.000    0.000    0.000    0.000 
#
# Total GULP energy -155913.528203 kJ/mol
# GULP energy per Si atom -5568.340293 kJ/mol
# Density = 1.991236 g / cm^3
# Si number density = 19.957787 Si / 1000 Ang^3
#
#
#
# Elastic Constant Matrix: (Units=GPa)
#
#
# Indices 1 2 3 4 5 6 
#
# 1 85.6102 46.1201 47.5615 0.0000 -14.2286 0.0000
# 2 46.1201 76.7369 58.5698 0.0000 -4.6251 0.0000
# 3 47.5615 58.5698 111.7954 0.0000 -17.7880 0.0000
# 4 0.0000 0.0000 0.0000 47.3388 0.0000 9.0190
# 5 -14.2286 -4.6251 -17.7880 0.0000 33.4797 0.0000
# 6 0.0000 0.0000 0.0000 9.0190 0.0000 20.8006
#
#
#
# Elastic Compliance Matrix: (Units=1/GPa)
#
#
# Indices 1 2 3 4 5 6 
#
# 1 0.018856 -0.009243 -0.002302 0.000000 0.005513 0.000000
# 2 -0.009243 0.026590 -0.010966 0.000000 -0.006081 0.000000
# 3 -0.002302 -0.010966 0.016683 0.000000 0.006371 0.000000
# 4 0.000000 0.000000 0.000000 0.023027 0.000000 -0.009984
# 5 0.005513 -0.006081 0.006371 0.000000 0.034757 0.000000
# 6 0.000000 0.000000 0.000000 -0.009984 0.000000 0.052405
#
#
# Mechanical properties :
#
#
# Convention : Reuss Voigt Hill
#
# Bulk Modulus (GPa) = 58.45721 64.29392 61.37556
# Shear Modulus (GPa) = 22.41747 28.44991 25.43369
#
# Velocity S-wave (km/s) = 3.35512 3.77968 3.57371
# Velocity P-wave (km/s) = 6.66056 7.16470 6.91722
#
# Compressibility (1/GPa) = 0.01710653
#
# Stress axis : x y z
#
# Youngs Moduli (GPa) = 53.03462 37.60813 59.94157
#
# Poissons Ratio (x) = 0.34762 0.13799
# Poissons Ratio (y) = 0.49021 0.65731
# Poissons Ratio (z) = 0.12209 0.41240
#
# Static dielectric constant tensor:
#      x y z
#    x 1.727310 0.000000 0.037750 
#    y 0.000000 1.741080 0.000000 
#    z 0.037750 0.000000 1.705990 
# 
# From -- ./inp_files/40173.got.cif
#   From: 2010.05.17/outbox.ucp.g08.bks.cvg/sg14_21_cif.got.tgz:40173.got - 2010.06.11 12:31:08.
