data_PCOD9253302
_publ_section_title
;
Structure prediction by ZEFSAII (Michael W. Deem and Ramdas Pophale) SiO2 
 PCOD9253302
Probable space group: P 21/C
;
_chemical_formula_sum "Si O2"
_cell_formula_units_Z 16
_cell_length_a 16.417963
_cell_length_b 4.893575
_cell_length_c 10.141014
_cell_angle_alpha 90.000000
_cell_angle_beta 51.853318
_cell_angle_gamma 90.000000
_cell_volume 640.749234
_symmetry_space_group_name_H-M "P 21/C"
_symmetry_group_IT_number 14
_symmetry_cell_setting 'monoclinic'
loop_
_space_group_symop_operation_xyz
x,y,z
-x,1/2+y,1/2-z
-x,-y,-z
x,1/2-y,1/2+z
loop_
_atom_site_type_symbol
_atom_site_label
_atom_site_fract_x
_atom_site_fract_y
_atom_site_fract_z
Si Si1 0.126926 0.718557 0.623073
Si Si2 0.000000 0.000000 0.500000
Si Si3 0.421914 0.250000 0.078086
Si Si4 0.000000 0.000000 0.000000
Si Si5 0.274254 0.219554 0.475746
O O1 0.179978 0.430425 0.570022
O O2 0.055856 0.753810 0.562025
O O3 0.219051 0.928563 0.530949
O O4 0.055855 0.753814 0.826261
O O5 0.088575 0.249999 0.411426
O O6 0.347613 0.255221 0.277657
O O7 0.500000 0.500000 0.000000
O O8 0.347614 0.244779 0.027115
O O9 0.500000 0.000000 0.000000
#
# Coordination Sequence:
#
# PCOD9253302 Si02
#       5
#     4   2   4   2   4
#     4  12  28  48  74 113 157 210 264 317 383 456
#     4  12  26  48  72 106 154 216 256 324 384 450
#     4  12  26  52  82 114 152 198 248 330 420 476
#     4  12  26  48  72 106 154 216 256 324 384 450
#     4  12  28  48  80 117 151 200 264 325 381 494
#
# _framework density 24.970769000000001
#
# number of rings (size 3 to 8) (size 9 to 14) (size 15 to 20)
#    0.000    0.000    0.000    9.000   10.500    0.000 
#    0.000    0.000    0.000    0.000    0.000    0.000 
#    0.000    0.000    0.000    0.000    0.000    0.000 
#
# Total GULP energy -89295.909739 kJ/mol
# GULP energy per Si atom -5580.994359 kJ/mol
# Density = 2.491393 g / cm^3
# Si number density = 24.970769 Si / 1000 Ang^3
#
#
#
# Elastic Constant Matrix: (Units=GPa)
#
#
# Indices 1 2 3 4 5 6 
#
# 1 206.3319 6.2525 91.5912 0.0000 49.1662 0.0000
# 2 6.2525 215.1180 14.3268 0.0000 9.5225 0.0000
# 3 91.5912 14.3268 272.6129 0.0000 28.9929 0.0000
# 4 0.0000 0.0000 0.0000 39.2180 0.0000 -26.7389
# 5 49.1662 9.5225 28.9929 0.0000 54.4304 0.0000
# 6 0.0000 0.0000 0.0000 -26.7389 0.0000 61.8969
#
#
#
# Elastic Compliance Matrix: (Units=1/GPa)
#
#
# Indices 1 2 3 4 5 6 
#
# 1 0.006888 0.000152 -0.001757 0.000000 -0.005312 0.000000
# 2 0.000152 0.004696 -0.000208 0.000000 -0.000848 0.000000
# 3 -0.001757 -0.000208 0.004343 0.000000 -0.000690 0.000000
# 4 0.000000 0.000000 0.000000 0.036144 0.000000 0.015614
# 5 -0.005312 -0.000848 -0.000690 0.000000 0.023686 0.000000
# 6 0.000000 0.000000 0.000000 0.015614 0.000000 0.022901
#
#
# Mechanical properties :
#
#
# Convention : Reuss Voigt Hill
#
# Bulk Modulus (GPa) = 81.29674 102.04485 91.67079
# Shear Modulus (GPa) = 46.99984 69.90189 58.45087
#
# Velocity S-wave (km/s) = 4.34313 5.29663 4.84340
# Velocity P-wave (km/s) = 7.60117 8.85212 8.25039
#
# Compressibility (1/GPa) = 0.01230062
#
# Stress axis : x y z
#
# Youngs Moduli (GPa) = 145.18416 212.96679 230.26471
#
# Poissons Ratio (x) = -0.03237 0.40461
# Poissons Ratio (y) = -0.02207 0.04781
# Poissons Ratio (z) = 0.25511 0.04422
#
# Static dielectric constant tensor:
#      x y z
#    x 1.903490 0.000000 0.216460 
#    y 0.000000 2.554260 0.000000 
#    z 0.216460 0.000000 2.087100 
# 
# From -- ./inp_files/14778.got.cif
#   From: 2010.05.17/outbox.cif.g08.bks.cpg/sg14_8_cif.got.tgz:14778.got - 2010.06.03 17:49:19.
