data_PCOD9253247
_publ_section_title
;
Structure prediction by ZEFSAII (Michael W. Deem and Ramdas Pophale) SiO2 
 PCOD9253247
Probable space group: P 21/C
;
_chemical_formula_sum "Si O2"
_cell_formula_units_Z 24
_cell_length_a 8.295982
_cell_length_b 8.592801
_cell_length_c 14.113210
_cell_angle_alpha 90.000000
_cell_angle_beta 90.629395
_cell_angle_gamma 90.000000
_cell_volume 1006.009670
_symmetry_space_group_name_H-M "P 21/C"
_symmetry_group_IT_number 14
_symmetry_cell_setting 'monoclinic'
loop_
_space_group_symop_operation_xyz
x,y,z
-x,1/2+y,1/2-z
-x,-y,-z
x,1/2-y,1/2+z
loop_
_atom_site_type_symbol
_atom_site_label
_atom_site_fract_x
_atom_site_fract_y
_atom_site_fract_z
Si Si1 0.370877 0.920826 0.390184
Si Si2 0.863662 0.631094 0.003945
Si Si3 0.233544 0.974886 0.203759
Si Si4 0.648916 0.382509 0.488888
Si Si5 0.888056 0.564170 0.623507
Si Si6 0.699000 0.825906 0.305349
O O1 0.242721 0.892198 0.304882
O O2 0.382540 0.781984 0.464607
O O3 0.540467 0.918675 0.336944
O O4 0.297972 0.066824 0.445478
O O5 0.921730 0.776039 0.066815
O O6 0.816668 0.670539 0.896619
O O7 0.000000 0.500000 0.000000
O O8 0.051391 0.001920 0.168895
O O9 0.324370 0.140988 0.212421
O O10 0.314334 0.874646 0.121755
O O11 0.500000 0.500000 0.500000
O O12 0.798241 0.455909 0.547494
O O13 0.772218 0.601869 0.711103
#
# Coordination Sequence:
#
# PCOD9253247 Si02
#       6
#     4   4   4   4   4   4
#     4  12  27  47  75 109 147 191 254 310 375 450
#     4  12  26  48  74 111 146 195 249 312 375 449
#     4  12  26  47  74 107 149 196 247 308 381 448
#     4  12  25  48  75 108 147 194 247 307 379 446
#     4  12  27  44  75 106 150 195 249 307 376 449
#     4  12  27  47  73 105 151 192 249 307 375 450
#
# _framework density 23.856629000000002
#
# number of rings (size 3 to 8) (size 9 to 14) (size 15 to 20)
#    0.000    0.000    5.000    4.000    4.667    1.333 
#    0.000    0.000    0.000    0.000    0.000    0.000 
#    0.000    0.000    0.000    0.000    0.000    0.000 
#
# Total GULP energy -134553.967516 kJ/mol
# GULP energy per Si atom -5606.415313 kJ/mol
# Density = 2.380233 g / cm^3
# Si number density = 23.856629 Si / 1000 Ang^3
#
#
#
# Elastic Constant Matrix: (Units=GPa)
#
#
# Indices 1 2 3 4 5 6 
#
# 1 88.7795 29.1382 7.3583 0.0000 2.7684 0.0000
# 2 29.1382 56.3998 33.5584 0.0000 -4.2364 0.0000
# 3 7.3583 33.5584 138.3536 0.0000 -8.7275 0.0000
# 4 0.0000 0.0000 0.0000 30.0441 0.0000 -2.0117
# 5 2.7684 -4.2364 -8.7275 0.0000 42.9807 0.0000
# 6 0.0000 0.0000 0.0000 -2.0117 0.0000 36.7141
#
#
#
# Elastic Compliance Matrix: (Units=1/GPa)
#
#
# Indices 1 2 3 4 5 6 
#
# 1 0.013808 -0.007890 0.001088 0.000000 -0.001446 0.000000
# 2 -0.007890 0.025275 -0.005593 0.000000 0.001864 0.000000
# 3 0.001088 -0.005593 0.008598 0.000000 0.001124 0.000000
# 4 0.000000 0.000000 0.000000 0.033407 0.000000 0.001831
# 5 -0.001446 0.001864 0.001124 0.000000 0.023771 0.000000
# 6 0.000000 0.000000 0.000000 0.001831 0.000000 0.027338
#
#
# Mechanical properties :
#
#
# Convention : Reuss Voigt Hill
#
# Bulk Modulus (GPa) = 43.68635 47.07140 45.37887
# Shear Modulus (GPa) = 30.37343 36.17963 33.27653
#
# Velocity S-wave (km/s) = 3.57201 3.89851 3.73883
# Velocity P-wave (km/s) = 5.94678 6.32758 6.14013
#
# Compressibility (1/GPa) = 0.02289045
#
# Stress axis : x y z
#
# Youngs Moduli (GPa) = 72.42009 39.56497 116.31135
#
# Poissons Ratio (x) = 0.31217 -0.12656
# Poissons Ratio (y) = 0.57139 0.65057
# Poissons Ratio (z) = -0.07880 0.22130
#
# Static dielectric constant tensor:
#      x y z
#    x 1.935470 0.000000 0.001970 
#    y 0.000000 1.891690 0.000000 
#    z 0.001970 0.000000 1.860460 
# 
# From -- ./inp_files/38996.got.cif
#   From: 2010.05.17/outbox.cif.g08.bks.cpg/sg14_20_cif.got.tgz:38996.got - 2010.06.03 17:49:19.
