data_PCOD9253865
_publ_section_title
;
Structure prediction by ZEFSAII (Michael W. Deem and Ramdas Pophale) SiO2 
 PCOD9253865
Probable space group: C 2/C
;
_chemical_formula_sum "Si O2"
_cell_formula_units_Z 52
_cell_length_a 14.796641
_cell_length_b 11.734745
_cell_length_c 12.496482
_cell_angle_alpha 90.000000
_cell_angle_beta 73.111124
_cell_angle_gamma 90.000000
_cell_volume 2076.239758
_symmetry_space_group_name_H-M "C 2/C"
_symmetry_group_IT_number 15
_symmetry_cell_setting 'monoclinic'
loop_
_space_group_symop_operation_xyz
x,y,z
-x,y,1/2-z
-x,-y,-z
x,-y,1/2+z
1/2+x,1/2+y,z
1/2-x,1/2+y,1/2-z
1/2-x,1/2-y,-z
1/2+x,1/2-y,1/2+z
loop_
_atom_site_type_symbol
_atom_site_label
_atom_site_fract_x
_atom_site_fract_y
_atom_site_fract_z
Si Si1 0.108032 0.053396 0.676971
Si Si2 0.030871 0.791157 0.034050
Si Si3 0.597408 0.072978 0.945283
Si Si4 0.198287 0.559827 0.121867
Si Si5 0.168178 0.144434 0.884576
Si Si6 0.500000 0.871946 0.750000
Si Si7 0.756563 0.384857 0.675589
O O1 0.104795 0.125295 0.567851
O O2 0.156750 0.119211 0.760514
O O3 0.162015 0.934290 0.657826
O O4 0.000000 0.038421 0.750000
O O5 0.061934 0.701124 0.932782
O O6 0.938297 0.862129 0.034058
O O7 0.996322 0.710022 0.147033
O O8 0.671627 0.105665 0.015521
O O9 0.500000 0.000000 0.000000
O O10 0.665654 0.985033 0.862492
O O11 0.256387 0.444259 0.097210
O O12 0.251000 0.633471 0.193632
O O13 0.090050 0.550217 0.200434
O O14 0.206010 0.270717 0.888510
#
# Coordination Sequence:
#
# PCOD9253865 Si02
#       7
#     8   8   8   8   8   4   8
#     4   9  19  34  59  80 107 154 188 219 276 334
#     4  10  16  33  56  78 105 143 186 224 274 326
#     4  11  21  34  58  85 110 144 186 240 275 319
#     4  10  21  33  57  83 110 142 192 228 275 328
#     4  10  17  33  55  79 107 145 179 230 273 331
#     4  10  14  32  54  74 102 138 188 230 260 312
#     4  11  20  36  56  85 115 143 188 231 277 329
#
# _framework density 25.045276999999999
#
# number of rings (size 3 to 8) (size 9 to 14) (size 15 to 20)
#    0.000    1.846    5.385    1.846    0.000    1.231 
#    1.385    0.000    0.000    8.308    0.000    0.000 
#    0.000    0.000    0.000    0.000    0.000    0.000 
#
# Total GULP energy -145064.139898 kJ/mol
# GULP energy per Si atom -5579.389996 kJ/mol
# Density = 2.498827 g / cm^3
# Si number density = 25.045277 Si / 1000 Ang^3
#
#
#
# Elastic Constant Matrix: (Units=GPa)
#
#
# Indices 1 2 3 4 5 6 
#
# 1 136.9733 65.9985 4.8735 0.0000 -4.7796 0.0000
# 2 65.9985 67.6626 -3.6339 0.0000 -8.6016 0.0000
# 3 4.8735 -3.6339 28.4400 0.0000 2.7784 0.0000
# 4 0.0000 0.0000 0.0000 18.0464 0.0000 -13.6490
# 5 -4.7796 -8.6016 2.7784 0.0000 26.8702 0.0000
# 6 0.0000 0.0000 0.0000 -13.6490 0.0000 45.3670
#
#
#
# Elastic Compliance Matrix: (Units=1/GPa)
#
#
# Indices 1 2 3 4 5 6 
#
# 1 0.014336 -0.014413 -0.004138 0.000000 -0.001636 0.000000
# 2 -0.014413 0.029961 0.005669 0.000000 0.006441 0.000000
# 3 -0.004138 0.005669 0.036862 0.000000 -0.002733 0.000000
# 4 0.000000 0.000000 0.000000 0.071736 0.000000 0.021582
# 5 -0.001636 0.006441 -0.002733 0.000000 0.039269 0.000000
# 6 0.000000 0.000000 0.000000 0.021582 0.000000 0.028536
#
#
# Mechanical properties :
#
#
# Convention : Reuss Voigt Hill
#
# Bulk Modulus (GPa) = 18.05262 40.83913 29.44588
# Shear Modulus (GPa) = 18.87285 29.11259 23.99272
#
# Velocity S-wave (km/s) = 2.74806 3.41310 3.09847
# Velocity P-wave (km/s) = 4.15846 5.64569 4.95815
#
# Compressibility (1/GPa) = 0.05539363
#
# Stress axis : x y z
#
# Youngs Moduli (GPa) = 69.75573 33.37619 27.12806
#
# Poissons Ratio (x) = 0.48107 0.11227
# Poissons Ratio (y) = 1.00542 -0.15379
# Poissons Ratio (z) = 0.28868 -0.18921
#
# Static dielectric constant tensor:
#      x y z
#    x 1.998020 0.000000 -0.014940 
#    y 0.000000 1.974030 0.000000 
#    z -0.014940 0.000000 2.209220 
# 
# From -- ./inp_files/203532.got.cif
#   From: 2010.05.17/outbox.cif.g08.bks.cpg/sg15_102_cif.got.tgz:203532.got - 2010.06.03 18:47:42.
