data_PCOD9253033
_publ_section_title
;
Structure prediction by ZEFSAII (Michael W. Deem and Ramdas Pophale) SiO2 
 PCOD9253033
Probable space group: P 21/C
;
_chemical_formula_sum "Si O2"
_cell_formula_units_Z 32
_cell_length_a 28.356534
_cell_length_b 11.035195
_cell_length_c 14.885740
_cell_angle_alpha 90.000000
_cell_angle_beta 19.229697
_cell_angle_gamma 90.000000
_cell_volume 1534.155127
_symmetry_space_group_name_H-M "P 21/C"
_symmetry_group_IT_number 14
_symmetry_cell_setting 'monoclinic'
loop_
_space_group_symop_operation_xyz
x,y,z
-x,1/2+y,1/2-z
-x,-y,-z
x,1/2-y,1/2+z
loop_
_atom_site_type_symbol
_atom_site_label
_atom_site_fract_x
_atom_site_fract_y
_atom_site_fract_z
Si Si1 0.859248 0.674701 0.163406
Si Si2 0.645580 0.266778 0.085828
Si Si3 0.818447 0.229879 0.959133
Si Si4 0.328453 0.198116 0.654218
Si Si5 0.066630 0.509751 0.190021
Si Si6 0.162314 0.923236 0.326783
Si Si7 0.259291 0.944613 0.736251
Si Si8 0.114750 0.247779 0.693281
O O1 0.763614 0.733872 0.257340
O O2 0.843721 0.758518 0.278216
O O3 0.824025 0.538858 0.262012
O O4 0.027557 0.669165 0.836202
O O5 0.721645 0.238415 0.044255
O O6 0.696003 0.155174 0.932738
O O7 0.703987 0.381330 0.924424
O O8 0.476299 0.269132 0.400900
O O9 0.866000 0.367905 0.892950
O O10 0.750901 0.156168 0.165162
O O11 0.361697 0.057900 0.571415
O O12 0.234667 0.196467 0.913376
O O13 0.135732 0.507850 0.967558
O O14 0.093631 0.387363 0.195026
O O15 0.895525 0.510260 0.489510
O O16 0.030038 0.829580 0.552950
#
# Coordination Sequence:
#
# PCOD9253033 Si02
#       8
#     4   4   4   4   4   4   4   4
#     4  12  24  42  74 101 132 185 235 287 344 412
#     4  12  30  45  67 106 142 183 229 287 356 413
#     4  12  24  44  75 106 134 180 236 291 345 415
#     4  12  28  47  66 101 145 185 229 288 351 422
#     4  12  21  42  75 104 136 177 235 294 344 405
#     4  12  22  44  69 103 138 178 233 291 341 411
#     4  12  24  45  72 101 145 185 231 289 352 411
#     4  12  24  43  71 103 135 183 238 283 344 417
#
# _framework density 20.858385999999999
#
# number of rings (size 3 to 8) (size 9 to 14) (size 15 to 20)
#    0.000    0.000    8.750    0.375    5.250    2.500 
#    0.000    0.625    0.000    0.000    0.000    0.000 
#    0.000    0.000    0.000    0.000    0.000    0.000 
#
# Total GULP energy -178705.757037 kJ/mol
# GULP energy per Si atom -5584.554907 kJ/mol
# Density = 2.081091 g / cm^3
# Si number density = 20.858386 Si / 1000 Ang^3
#
#
#
# Elastic Constant Matrix: (Units=GPa)
#
#
# Indices 1 2 3 4 5 6 
#
# 1 91.7545 12.5405 30.7657 0.0000 -1.8296 0.0000
# 2 12.5405 110.6073 -2.4921 0.0000 -0.0246 0.0000
# 3 30.7657 -2.4921 76.0940 0.0000 0.9897 0.0000
# 4 0.0000 0.0000 0.0000 23.1996 0.0000 6.1690
# 5 -1.8296 -0.0246 0.9897 0.0000 11.6380 0.0000
# 6 0.0000 0.0000 0.0000 6.1690 0.0000 26.4246
#
#
#
# Elastic Compliance Matrix: (Units=1/GPa)
#
#
# Indices 1 2 3 4 5 6 
#
# 1 0.012949 -0.001587 -0.005320 0.000000 0.002485 0.000000
# 2 -0.001587 0.009242 0.000949 0.000000 -0.000311 0.000000
# 3 -0.005320 0.000949 0.015351 0.000000 -0.002140 0.000000
# 4 0.000000 0.000000 0.000000 0.045957 0.000000 -0.010729
# 5 0.002485 -0.000311 -0.002140 0.000000 0.086497 0.000000
# 6 0.000000 0.000000 0.000000 -0.010729 0.000000 0.040348
#
#
# Mechanical properties :
#
#
# Convention : Reuss Voigt Hill
#
# Bulk Modulus (GPa) = 39.02386 40.00934 39.51660
# Shear Modulus (GPa) = 21.66340 28.09522 24.87931
#
# Velocity S-wave (km/s) = 3.22622 3.67406 3.45740
# Velocity P-wave (km/s) = 5.71205 6.10093 5.90969
#
# Compressibility (1/GPa) = 0.02562535
#
# Stress axis : x y z
#
# Youngs Moduli (GPa) = 77.22684 108.19842 65.14091
#
# Poissons Ratio (x) = 0.17176 0.34653
# Poissons Ratio (y) = 0.12259 -0.06179
# Poissons Ratio (z) = 0.41082 -0.10263
#
# Static dielectric constant tensor:
#      x y z
#    x 1.805360 0.000000 0.019230 
#    y 0.000000 1.892030 0.000000 
#    z 0.019230 0.000000 1.733420 
# 
# From -- ./inp_files/52029.got.cif
#   From: 2010.05.17/outbox.cif.g08.bks.cpg/sg14_27_cif.got.tgz:52029.got - 2010.06.03 17:49:19.
