data_PCOD9253008
_publ_section_title
;
Structure prediction by ZEFSAII (Michael W. Deem and Ramdas Pophale) SiO2 
 PCOD9253008
Probable space group: P 21/C
;
_chemical_formula_sum "Si O2"
_cell_formula_units_Z 16
_cell_length_a 9.506117
_cell_length_b 10.025681
_cell_length_c 13.253506
_cell_angle_alpha 90.000000
_cell_angle_beta 28.348408
_cell_angle_gamma 90.000000
_cell_volume 599.774141
_symmetry_space_group_name_H-M "P 21/C"
_symmetry_group_IT_number 14
_symmetry_cell_setting 'monoclinic'
loop_
_space_group_symop_operation_xyz
x,y,z
-x,1/2+y,1/2-z
-x,-y,-z
x,1/2-y,1/2+z
loop_
_atom_site_type_symbol
_atom_site_label
_atom_site_fract_x
_atom_site_fract_y
_atom_site_fract_z
Si Si1 0.399928 0.303534 0.280270
Si Si2 0.266668 0.349087 0.133345
Si Si3 0.272098 0.445235 0.560939
Si Si4 0.804301 0.133463 0.141735
O O1 0.641270 0.191984 0.147817
O O2 0.436195 0.408846 0.350253
O O3 0.056903 0.261244 0.514604
O O4 0.392566 0.341339 0.167895
O O5 0.165794 0.199075 0.169186
O O6 0.547129 0.378328 0.884935
O O7 0.500000 0.500000 0.500000
O O8 0.992446 0.543499 0.722804
O O9 0.000000 0.000000 0.000000
#
# Coordination Sequence:
#
# PCOD9253008 Si02
#       4
#     4   4   4   4
#     4  11  28  51  90 123 176 234 294 363 447 528
#     4  11  28  55  92 127 183 233 294 368 440 532
#     4  11  28  54  90 137 176 234 297 364 449 525
#     4  11  28  52  86 128 172 230 298 363 442 527
#
# _framework density 26.676708999999999
#
# number of rings (size 3 to 8) (size 9 to 14) (size 15 to 20)
#    0.000    1.000    0.000    2.250   21.000    6.000 
#    0.000    6.250    0.000    0.000    0.000    0.000 
#    0.000    0.000    0.000    0.000    0.000    0.000 
#
# Total GULP energy -89523.799180 kJ/mol
# GULP energy per Si atom -5595.237449 kJ/mol
# Density = 2.661599 g / cm^3
# Si number density = 26.676709 Si / 1000 Ang^3
#
#
#
# Elastic Constant Matrix: (Units=GPa)
#
#
# Indices 1 2 3 4 5 6 
#
# 1 269.9368 115.3175 100.1422 0.0000 -2.8699 0.0000
# 2 115.3175 215.9136 81.6378 0.0000 -20.6124 0.0000
# 3 100.1422 81.6378 177.0034 0.0000 -3.5138 0.0000
# 4 0.0000 0.0000 0.0000 55.5951 0.0000 -22.0164
# 5 -2.8699 -20.6124 -3.5138 0.0000 67.4056 0.0000
# 6 0.0000 0.0000 0.0000 -22.0164 0.0000 63.0616
#
#
#
# Elastic Compliance Matrix: (Units=1/GPa)
#
#
# Indices 1 2 3 4 5 6 
#
# 1 0.005381 -0.002144 -0.002066 0.000000 -0.000534 0.000000
# 2 -0.002144 0.006638 -0.001812 0.000000 0.001844 0.000000
# 3 -0.002066 -0.001812 0.007650 0.000000 -0.000243 0.000000
# 4 0.000000 0.000000 0.000000 0.020873 0.000000 0.007287
# 5 -0.000534 0.001844 -0.000243 0.000000 0.015364 0.000000
# 6 0.000000 0.000000 0.000000 0.007287 0.000000 0.018402
#
#
# Mechanical properties :
#
#
# Convention : Reuss Voigt Hill
#
# Bulk Modulus (GPa) = 131.16010 139.67210 135.41610
# Shear Modulus (GPa) = 56.24743 61.59623 58.92183
#
# Velocity S-wave (km/s) = 4.59681 4.81041 4.70482
# Velocity P-wave (km/s) = 8.80042 9.12822 8.96582
#
# Compressibility (1/GPa) = 0.00762427
#
# Stress axis : x y z
#
# Youngs Moduli (GPa) = 185.82778 150.65683 130.72630
#
# Poissons Ratio (x) = 0.32298 0.27013
# Poissons Ratio (y) = 0.39838 0.23687
# Poissons Ratio (z) = 0.38399 0.27298
#
# Static dielectric constant tensor:
#      x y z
#    x 2.173300 0.000000 0.042040 
#    y 0.000000 2.384770 0.000000 
#    z 0.042040 0.000000 2.145260 
# 
# From -- ./inp_files/8234.got.cif
#   From: 2010.05.17/outbox.cif.g08.bks.cpg/sg14_5_cif.got.tgz:8234.got - 2010.06.03 17:49:19.
