data_PCOD9253735
_publ_section_title
;
Structure prediction by ZEFSAII (Michael W. Deem and Ramdas Pophale) SiO2 
 PCOD9253735
Probable space group: P 21/C
;
_chemical_formula_sum "Si O2"
_cell_formula_units_Z 24
_cell_length_a 9.000000
_cell_length_b 21.000000
_cell_length_c 9.000000
_cell_angle_alpha 90.000000
_cell_angle_beta 130.000000
_cell_angle_gamma 90.000000
_cell_volume 1303.041598
_symmetry_space_group_name_H-M "P 21/C"
_symmetry_group_IT_number 14
_symmetry_cell_setting 'monoclinic'
loop_
_space_group_symop_operation_xyz
x,y,z
-x,1/2+y,1/2-z
-x,-y,-z
x,1/2-y,1/2+z
loop_
_atom_site_type_symbol
_atom_site_label
_atom_site_fract_x
_atom_site_fract_y
_atom_site_fract_z
Si Si1 0.895008 0.427227 0.264785
Si Si2 0.870303 0.684168 0.734827
Si Si3 0.497940 0.653552 0.026745
Si Si4 0.961412 0.306234 0.834538
Si Si5 0.906137 0.921084 0.783184
Si Si6 0.473352 0.779373 0.833530
O O1 0.893172 0.503609 0.230272
O O2 0.034146 0.382655 0.253554
O O3 0.977836 0.419747 0.485869
O O4 0.684715 0.393883 0.110019
O O5 0.649119 0.687459 0.536551
O O6 0.977092 0.744524 0.723566
O O7 0.904854 0.692962 0.932155
O O8 0.692956 0.611163 0.162325
O O9 0.483804 0.696710 0.168714
O O10 0.499405 0.704226 0.890816
O O11 0.739293 0.297949 0.743211
O O12 0.989620 0.372232 0.763491
#
# Coordination Sequence:
#
# PCOD9253735 Si02
#       6
#     4   4   4   4   4   4
#     4  11  24  45  67  91 134 179 219 263 325 391
#     4  12  23  41  67  96 133 166 215 275 322 383
#     4  12  24  42  67  98 130 168 219 270 326 386
#     4  12  24  41  67  97 129 168 216 273 325 381
#     4  11  26  44  67  94 131 179 220 264 326 389
#     4  12  24  39  67 100 127 162 215 274 323 380
#
# _framework density 18.418444999999998
#
# number of rings (size 3 to 8) (size 9 to 14) (size 15 to 20)
#    0.000    0.333    6.667    2.500    2.333    0.667 
#    0.000    0.833    0.000    0.000    0.000    0.000 
#    0.000    0.000    0.000    0.000    0.000    0.000 
#
# Total GULP energy -134190.351107 kJ/mol
# GULP energy per Si atom -5591.264629 kJ/mol
# Density = 1.837652 g / cm^3
# Si number density = 18.418445 Si / 1000 Ang^3
#
#
#
# Elastic Constant Matrix: (Units=GPa)
#
#
# Indices 1 2 3 4 5 6 
#
# 1 73.4561 45.8490 34.4477 0.0000 9.4201 0.0000
# 2 45.8490 168.9954 52.9337 0.0000 -13.2271 0.0000
# 3 34.4477 52.9337 106.4296 0.0000 7.7020 0.0000
# 4 0.0000 0.0000 0.0000 40.0660 0.0000 -1.4926
# 5 9.4201 -13.2271 7.7020 0.0000 46.8404 0.0000
# 6 0.0000 0.0000 0.0000 -1.4926 0.0000 37.8918
#
#
#
# Elastic Compliance Matrix: (Units=1/GPa)
#
#
# Indices 1 2 3 4 5 6 
#
# 1 0.018484 -0.004238 -0.003562 0.000000 -0.004328 0.000000
# 2 -0.004238 0.008304 -0.003026 0.000000 0.003695 0.000000
# 3 -0.003562 -0.003026 0.012209 0.000000 -0.002146 0.000000
# 4 0.000000 0.000000 0.000000 0.024995 0.000000 0.000985
# 5 -0.004328 0.003695 -0.002146 0.000000 0.023616 0.000000
# 6 0.000000 0.000000 0.000000 0.000985 0.000000 0.026430
#
#
# Mechanical properties :
#
#
# Convention : Reuss Voigt Hill
#
# Bulk Modulus (GPa) = 57.64957 68.37132 63.01045
# Shear Modulus (GPa) = 35.34297 39.33637 37.33967
#
# Velocity S-wave (km/s) = 4.38527 4.62638 4.50744
# Velocity P-wave (km/s) = 7.55040 8.10800 7.83416
#
# Compressibility (1/GPa) = 0.01734618
#
# Stress axis : x y z
#
# Youngs Moduli (GPa) = 54.10047 120.42334 81.90789
#
# Poissons Ratio (x) = 0.51035 0.29173
# Poissons Ratio (y) = 0.22928 0.24783
# Poissons Ratio (z) = 0.19269 0.36437
#
# Static dielectric constant tensor:
#      x y z
#    x 1.664170 0.000000 0.003120 
#    y 0.000000 1.608190 0.000000 
#    z 0.003120 0.000000 1.630300 
# 
# From -- ./inp_files/10113.got.cif
#   From: 2010.05.17/outbox.ucp.g08.bks.cvg/sg14_6_cif.got.tgz:10113.got - 2010.06.11 12:31:08.
