data_PCOD9253269
_publ_section_title
;
Structure prediction by ZEFSAII (Michael W. Deem and Ramdas Pophale) SiO2 
 PCOD9253269
Probable space group: P 21/C
;
_chemical_formula_sum "Si O2"
_cell_formula_units_Z 22
_cell_length_a 23.053586
_cell_length_b 4.765583
_cell_length_c 13.820976
_cell_angle_alpha 90.000000
_cell_angle_beta 33.294345
_cell_angle_gamma 90.000000
_cell_volume 833.524507
_symmetry_space_group_name_H-M "P 21/C"
_symmetry_group_IT_number 14
_symmetry_cell_setting 'monoclinic'
loop_
_space_group_symop_operation_xyz
x,y,z
-x,1/2+y,1/2-z
-x,-y,-z
x,1/2-y,1/2+z
loop_
_atom_site_type_symbol
_atom_site_label
_atom_site_fract_x
_atom_site_fract_y
_atom_site_fract_z
Si Si1 0.539238 0.696529 0.142575
Si Si2 0.500000 0.000000 0.000000
Si Si3 0.235764 0.442527 0.612903
Si Si4 0.737022 0.767355 0.637063
Si Si5 0.837485 0.469329 0.675329
Si Si6 0.058486 0.849955 0.626773
O O1 0.528153 0.369909 0.182837
O O2 0.655806 0.816262 0.995071
O O3 0.498168 0.776260 0.094797
O O4 0.622207 0.901588 0.805117
O O5 0.238020 0.061889 0.808409
O O6 0.216739 0.752353 0.676651
O O7 0.145619 0.249460 0.787109
O O8 0.751622 0.600130 0.517638
O O9 0.829020 0.002523 0.511751
O O10 0.931614 0.314945 0.488010
O O11 0.022588 0.609887 0.752401
#
# Coordination Sequence:
#
# PCOD9253269 Si02
#       6
#     4   2   4   4   4   4
#     4  12  26  45  69 108 157 207 261 317 378 473
#     4  12  26  52  78 122 158 222 256 330 408 482
#     4  12  27  46  77 118 162 207 275 322 401 492
#     4  12  28  51  87 120 163 220 272 333 412 488
#     4  12  25  50  79 116 160 206 258 344 398 473
#     4  12  25  52  88 114 158 215 271 338 408 479
#
# _framework density 26.393944000000001
#
# number of rings (size 3 to 8) (size 9 to 14) (size 15 to 20)
#    0.000    0.000    7.273    1.091    2.545    2.182 
#    0.000    5.455    0.000    0.000    0.000    0.000 
#    0.000    0.000    0.000    0.000    0.000    0.000 
#
# Total GULP energy -122932.604508 kJ/mol
# GULP energy per Si atom -5587.845659 kJ/mol
# Density = 2.633387 g / cm^3
# Si number density = 26.393944 Si / 1000 Ang^3
#
#
#
# Elastic Constant Matrix: (Units=GPa)
#
#
# Indices 1 2 3 4 5 6 
#
# 1 125.4160 37.4064 63.1887 0.0000 14.1280 0.0000
# 2 37.4064 138.7564 49.7477 0.0000 -1.2382 0.0000
# 3 63.1887 49.7477 121.3408 0.0000 8.1488 0.0000
# 4 0.0000 0.0000 0.0000 20.5628 0.0000 9.9710
# 5 14.1280 -1.2382 8.1488 0.0000 48.7247 0.0000
# 6 0.0000 0.0000 0.0000 9.9710 0.0000 25.7673
#
#
#
# Elastic Compliance Matrix: (Units=1/GPa)
#
#
# Indices 1 2 3 4 5 6 
#
# 1 0.011215 -0.001183 -0.005193 0.000000 -0.002413 0.000000
# 2 -0.001183 0.008605 -0.002983 0.000000 0.001061 0.000000
# 3 -0.005193 -0.002983 0.012210 0.000000 -0.000612 0.000000
# 4 0.000000 0.000000 0.000000 0.059865 0.000000 -0.023165
# 5 -0.002413 0.001061 -0.000612 0.000000 0.021353 0.000000
# 6 0.000000 0.000000 0.000000 -0.023165 0.000000 0.047773
#
#
# Mechanical properties :
#
#
# Convention : Reuss Voigt Hill
#
# Bulk Modulus (GPa) = 75.12570 76.24433 75.68501
# Shear Modulus (GPa) = 27.14827 34.68898 30.91862
#
# Velocity S-wave (km/s) = 3.21063 3.62923 3.42633
# Velocity P-wave (km/s) = 6.50148 6.81993 6.66261
#
# Compressibility (1/GPa) = 0.01331102
#
# Stress axis : x y z
#
# Youngs Moduli (GPa) = 89.17006 116.21517 81.90301
#
# Poissons Ratio (x) = 0.13748 0.42532
# Poissons Ratio (y) = 0.10549 0.24431
# Poissons Ratio (z) = 0.46305 0.34667
#
# Static dielectric constant tensor:
#      x y z
#    x 2.079350 0.000000 -0.015910 
#    y 0.000000 2.016150 0.000000 
#    z -0.015910 0.000000 2.108740 
# 
# From -- ./inp_files/50975.got.cif
#   From: 2010.05.17/outbox.cif.g08.bks.cpg/sg14_26_cif.got.tgz:50975.got - 2010.06.03 17:49:19.
