data_PCOD9253925
_publ_section_title
;
Structure prediction by ZEFSAII (Michael W. Deem and Ramdas Pophale) SiO2 
 PCOD9253925
Probable space group: C 2/C
;
_chemical_formula_sum "Si O2"
_cell_formula_units_Z 56
_cell_length_a 20.090799
_cell_length_b 23.403357
_cell_length_c 12.789999
_cell_angle_alpha 90.000000
_cell_angle_beta 143.064091
_cell_angle_gamma 90.000000
_cell_volume 3613.794649
_symmetry_space_group_name_H-M "C 2/C"
_symmetry_group_IT_number 15
_symmetry_cell_setting 'monoclinic'
loop_
_space_group_symop_operation_xyz
x,y,z
-x,y,1/2-z
-x,-y,-z
x,-y,1/2+z
1/2+x,1/2+y,z
1/2-x,1/2+y,1/2-z
1/2-x,1/2-y,-z
1/2+x,1/2-y,1/2+z
loop_
_atom_site_type_symbol
_atom_site_label
_atom_site_fract_x
_atom_site_fract_y
_atom_site_fract_z
Si Si1 0.693615 0.415263 0.847342
Si Si2 0.500000 0.382384 0.750000
Si Si3 0.216855 0.735000 0.785258
Si Si4 0.500000 0.407899 0.250000
Si Si5 0.129374 0.318948 0.387125
Si Si6 0.375873 0.648823 0.892947
Si Si7 0.915776 0.163824 0.469419
Si Si8 0.892737 0.029501 0.811771
O O1 0.601855 0.415443 0.824886
O O2 0.637520 0.380027 0.681749
O O3 0.699985 0.480971 0.820446
O O4 0.800168 0.378131 0.014326
O O5 0.446041 0.347007 0.588619
O O6 0.149039 0.707608 0.796611
O O7 0.268839 0.685496 0.780567
O O8 0.146031 0.777316 0.625157
O O9 0.312108 0.774071 0.959790
O O10 0.583464 0.367223 0.418892
O O11 0.564126 0.445325 0.244333
O O12 0.000000 0.325779 0.250000
O O13 0.357404 0.582641 0.839970
O O14 0.456529 0.671666 0.904199
O O15 0.000000 0.000000 0.000000
#
# Coordination Sequence:
#
# PCOD9253925 Si02
#       8
#     8   4   8   4   8   8   8   8
#     4  10  18  30  47  79 106 132 163 211 257 312
#     4  10  15  26  48  76 106 122 159 204 260 306
#     4  10  19  31  50  74 102 135 168 217 248 307
#     4  10  19  32  50  74 106 136 159 214 272 300
#     4  10  20  31  50  78 106 136 167 209 268 306
#     4  10  19  29  47  77 101 129 166 202 257 313
#     4   9  19  32  45  71 105 133 167 205 261 306
#     4  11  19  30  50  77 104 130 165 214 262 309
#
# _framework density 15.496176
#
# number of rings (size 3 to 8) (size 9 to 14) (size 15 to 20)
#    0.000    2.000    5.714    1.286    3.000    0.000 
#    0.000    2.857    0.000    0.857    5.571    0.000 
#    0.000    0.000    0.000    0.000    0.000    0.000 
#
# Total GULP energy -155938.079783 kJ/mol
# GULP energy per Si atom -5569.217135 kJ/mol
# Density = 1.546091 g / cm^3
# Si number density = 15.496176 Si / 1000 Ang^3
#
#
#
# Elastic Constant Matrix: (Units=GPa)
#
#
# Indices 1 2 3 4 5 6 
#
# 1 73.8330 51.2817 39.5938 0.0000 3.8357 0.0000
# 2 51.2817 128.8102 44.9788 0.0000 9.0568 0.0000
# 3 39.5938 44.9788 59.6869 0.0000 2.3608 0.0000
# 4 0.0000 0.0000 0.0000 24.3288 0.0000 0.5367
# 5 3.8357 9.0568 2.3608 0.0000 28.9191 0.0000
# 6 0.0000 0.0000 0.0000 0.5367 0.0000 22.9567
#
#
#
# Elastic Compliance Matrix: (Units=1/GPa)
#
#
# Indices 1 2 3 4 5 6 
#
# 1 0.023414 -0.005250 -0.011555 0.000000 -0.000518 0.000000
# 2 -0.005250 0.011921 -0.005398 0.000000 -0.002596 0.000000
# 3 -0.011555 -0.005398 0.028451 0.000000 0.000900 0.000000
# 4 0.000000 0.000000 0.000000 0.041125 0.000000 -0.000961
# 5 -0.000518 -0.002596 0.000900 0.000000 0.035388 0.000000
# 6 0.000000 0.000000 0.000000 -0.000961 0.000000 0.043583
#
#
# Mechanical properties :
#
#
# Convention : Reuss Voigt Hill
#
# Bulk Modulus (GPa) = 51.59922 59.33761 55.46842
# Shear Modulus (GPa) = 21.29944 23.67264 22.48604
#
# Velocity S-wave (km/s) = 3.71144 3.91275 3.81342
# Velocity P-wave (km/s) = 7.19282 7.66731 7.43386
#
# Compressibility (1/GPa) = 0.01938014
#
# Stress axis : x y z
#
# Youngs Moduli (GPa) = 42.70914 83.88527 35.14776
#
# Poissons Ratio (x) = 0.44043 0.40613
# Poissons Ratio (y) = 0.22424 0.18972
# Poissons Ratio (z) = 0.49350 0.45280
#
# Static dielectric constant tensor:
#      x y z
#    x 1.535700 0.000000 -0.010280 
#    y 0.000000 1.547500 0.000000 
#    z -0.010280 0.000000 1.517680 
# 
# From -- ./inp_files/107856.got.cif
#   From: 2010.05.17/outbox.cif.g08.bks.cpg/sg15_54_cif.got.tgz:107856.got - 2010.06.03 18:47:42.
