data_PCOD9253049
_publ_section_title
;
Structure prediction by ZEFSAII (Michael W. Deem and Ramdas Pophale) SiO2 
 PCOD9253049
Probable space group: P 21/C
;
_chemical_formula_sum "Si O2"
_cell_formula_units_Z 20
_cell_length_a 7.698964
_cell_length_b 21.118808
_cell_length_c 5.748983
_cell_angle_alpha 90.000000
_cell_angle_beta 67.777308
_cell_angle_gamma 90.000000
_cell_volume 865.312085
_symmetry_space_group_name_H-M "P 21/C"
_symmetry_group_IT_number 14
_symmetry_cell_setting 'monoclinic'
loop_
_space_group_symop_operation_xyz
x,y,z
-x,1/2+y,1/2-z
-x,-y,-z
x,1/2-y,1/2+z
loop_
_atom_site_type_symbol
_atom_site_label
_atom_site_fract_x
_atom_site_fract_y
_atom_site_fract_z
Si Si1 0.736626 0.624492 0.989550
Si Si2 0.864338 0.373180 0.068260
Si Si3 0.444768 0.569587 0.435296
Si Si4 0.838117 0.486123 0.766082
Si Si5 0.572867 0.285784 0.025654
O O1 0.761253 0.553568 0.881580
O O2 0.603526 0.666556 0.896912
O O3 0.944337 0.651924 0.917180
O O4 0.623322 0.612675 0.287175
O O5 0.701902 0.393472 0.329857
O O6 0.768267 0.324232 0.942610
O O7 0.918104 0.439696 0.920750
O O8 0.500000 0.500000 0.500000
O O9 0.332007 0.553360 0.258179
O O10 0.000000 0.500000 0.500000
O O11 0.565735 0.248899 0.277020
#
# Coordination Sequence:
#
# PCOD9253049 Si02
#       5
#     4   4   4   4   4
#     4  12  25  48  77 114 153 204 252 318 401 464
#     4  12  26  48  75 111 156 200 249 324 393 466
#     4  12  22  41  71 109 164 199 241 304 387 480
#     4  12  23  41  73 119 157 192 242 309 403 483
#     4  12  30  54  78 109 150 210 280 326 374 451
#
# _framework density 23.113049
#
# number of rings (size 3 to 8) (size 9 to 14) (size 15 to 20)
#    0.000    0.000    6.000    4.800    0.000    3.200 
#    0.000    0.000    0.000    0.000    0.000    0.000 
#    0.000    0.000    0.000    0.000    0.000    0.000 
#
# Total GULP energy -111924.923060 kJ/mol
# GULP energy per Si atom -5596.246153 kJ/mol
# Density = 2.306044 g / cm^3
# Si number density = 23.113049 Si / 1000 Ang^3
#
#
#
# Elastic Constant Matrix: (Units=GPa)
#
#
# Indices 1 2 3 4 5 6 
#
# 1 137.8272 54.4905 37.9214 0.0000 -8.0710 0.0000
# 2 54.4905 83.8208 38.6333 0.0000 15.7804 0.0000
# 3 37.9214 38.6333 128.2446 0.0000 -17.8339 0.0000
# 4 0.0000 0.0000 0.0000 29.6522 0.0000 22.7157
# 5 -8.0710 15.7804 -17.8339 0.0000 45.3312 0.0000
# 6 0.0000 0.0000 0.0000 22.7157 0.0000 48.2548
#
#
#
# Elastic Compliance Matrix: (Units=1/GPa)
#
#
# Indices 1 2 3 4 5 6 
#
# 1 0.010590 -0.007623 -0.000215 0.000000 0.004455 0.000000
# 2 -0.007623 0.021685 -0.005836 0.000000 -0.011202 0.000000
# 3 -0.000215 -0.005836 0.010469 0.000000 0.006112 0.000000
# 4 0.000000 0.000000 0.000000 0.052746 0.000000 -0.024830
# 5 0.004455 -0.011202 0.006112 0.000000 0.029157 0.000000
# 6 0.000000 0.000000 0.000000 -0.024830 0.000000 0.032412
#
#
# Mechanical properties :
#
#
# Convention : Reuss Voigt Hill
#
# Bulk Modulus (GPa) = 64.95992 67.99810 66.47901
# Shear Modulus (GPa) = 26.37976 39.23746 32.80861
#
# Velocity S-wave (km/s) = 3.38203 4.12470 3.77169
# Velocity P-wave (km/s) = 6.58917 7.22273 6.91321
#
# Compressibility (1/GPa) = 0.01539411
#
# Stress axis : x y z
#
# Youngs Moduli (GPa) = 94.43301 46.11501 95.51739
#
# Poissons Ratio (x) = 0.35156 0.02056
# Poissons Ratio (y) = 0.71991 0.55745
# Poissons Ratio (z) = 0.02033 0.26913
#
# Static dielectric constant tensor:
#      x y z
#    x 1.938890 0.000000 -0.012110 
#    y 0.000000 1.901940 0.000000 
#    z -0.012110 0.000000 1.962570 
# 
# From -- ./inp_files/1367.got.cif
#   From: 2010.05.17/outbox.cif.g08.bks.cpg/sg14_1_cif.got.tgz:1367.got - 2010.06.03 17:49:19.
