data_PCOD9253554
_publ_section_title
;
Structure prediction by ZEFSAII (Michael W. Deem and Ramdas Pophale) SiO2 
 PCOD9253554
Probable space group: P 21/C
;
_chemical_formula_sum "Si O2"
_cell_formula_units_Z 28
_cell_length_a 6.000000
_cell_length_b 18.000000
_cell_length_c 15.000000
_cell_angle_alpha 90.000000
_cell_angle_beta 60.000000
_cell_angle_gamma 90.000000
_cell_volume 1402.961154
_symmetry_space_group_name_H-M "P 21/C"
_symmetry_group_IT_number 14
_symmetry_cell_setting 'monoclinic'
loop_
_space_group_symop_operation_xyz
x,y,z
-x,1/2+y,1/2-z
-x,-y,-z
x,1/2-y,1/2+z
loop_
_atom_site_type_symbol
_atom_site_label
_atom_site_fract_x
_atom_site_fract_y
_atom_site_fract_z
Si Si1 0.648501 0.541954 0.645636
Si Si2 0.177614 0.890913 0.964448
Si Si3 0.292308 0.672537 0.779973
Si Si4 0.473735 0.247564 0.094850
Si Si5 0.931952 0.329885 0.714791
Si Si6 0.625346 0.466468 0.844711
Si Si7 0.745092 0.892921 0.450432
O O1 0.651193 0.467407 0.581248
O O2 0.440713 0.610079 0.691079
O O3 0.616688 0.504059 0.749155
O O4 0.923207 0.581989 0.568941
O O5 0.316177 0.815913 0.974074
O O6 0.103142 0.862603 0.879101
O O7 0.453441 0.705545 0.831045
O O8 0.215360 0.750139 0.746118
O O9 0.039720 0.632898 0.874278
O O10 0.407423 0.315238 0.040168
O O11 0.225769 0.196261 0.165543
O O12 0.829005 0.397443 0.797133
O O13 0.694439 0.536834 0.894169
O O14 0.364190 0.427062 0.934683
#
# Coordination Sequence:
#
# PCOD9253554 Si02
#       7
#     4   4   4   4   4   4   4
#     4  10  20  40  61  88 120 157 199 249 303 358
#     4   9  21  39  60  87 121 155 202 250 297 360
#     4  10  21  37  61  87 121 156 201 248 297 356
#     4  10  20  40  59  88 123 159 200 246 302 357
#     4   9  21  38  59  88 120 154 204 245 294 361
#     4  10  21  41  60  88 122 157 200 247 299 361
#     4  10  22  39  59  88 123 155 203 250 293 359
#
# _framework density 19.957787
#
# number of rings (size 3 to 8) (size 9 to 14) (size 15 to 20)
#    0.000    2.286    1.429    0.000    2.000    5.143 
#    2.571    2.143    0.000    0.000    0.000    0.000 
#    0.000    0.000    0.000    0.000    0.000    0.000 
#
# Total GULP energy -155948.257311 kJ/mol
# GULP energy per Si atom -5569.580618 kJ/mol
# Density = 1.991236 g / cm^3
# Si number density = 19.957787 Si / 1000 Ang^3
#
#
#
# Elastic Constant Matrix: (Units=GPa)
#
#
# Indices 1 2 3 4 5 6 
#
# 1 41.1231 33.5134 12.0787 0.0000 -18.1016 0.0000
# 2 33.5134 183.8244 47.5079 0.0000 -25.4688 0.0000
# 3 12.0787 47.5079 96.1005 0.0000 -21.6878 0.0000
# 4 0.0000 0.0000 0.0000 48.5566 0.0000 -21.2261
# 5 -18.1016 -25.4688 -21.6878 0.0000 21.6348 0.0000
# 6 0.0000 0.0000 0.0000 -21.2261 0.0000 37.0549
#
#
#
# Elastic Compliance Matrix: (Units=1/GPa)
#
#
# Indices 1 2 3 4 5 6 
#
# 1 0.041403 -0.003933 0.004541 0.000000 0.034563 0.000000
# 2 -0.003933 0.007160 -0.002437 0.000000 0.002695 0.000000
# 3 0.004541 -0.002437 0.014539 0.000000 0.015505 0.000000
# 4 0.000000 0.000000 0.000000 0.027474 0.000000 0.015738
# 5 0.034563 0.002695 0.015505 0.000000 0.093856 0.000000
# 6 0.000000 0.000000 0.000000 0.015738 0.000000 0.036002
#
#
# Mechanical properties :
#
#
# Convention : Reuss Voigt Hill
#
# Bulk Modulus (GPa) = 16.82284 56.36090 36.59187
# Shear Modulus (GPa) = 20.49951 36.64578 28.57265
#
# Velocity S-wave (km/s) = 3.20838 4.28970 3.78783
# Velocity P-wave (km/s) = 4.70877 7.26889 6.12410
#
# Compressibility (1/GPa) = 0.05944299
#
# Stress axis : x y z
#
# Youngs Moduli (GPa) = 24.15295 139.65869 68.78087
#
# Poissons Ratio (x) = 0.54928 -0.31230
# Poissons Ratio (y) = 0.09499 0.16763
# Poissons Ratio (z) = -0.10967 0.34036
#
# Static dielectric constant tensor:
#      x y z
#    x 1.762160 0.000000 0.000780 
#    y 0.000000 1.690130 0.000000 
#    z 0.000780 0.000000 1.707810 
# 
# From -- ./inp_files/37767.got.cif
#   From: 2010.05.17/outbox.ucp.g08.bks.cvg/sg14_19_cif.got.tgz:37767.got - 2010.06.11 12:31:08.
