data_PCOD9253522
_publ_section_title
;
Structure prediction by ZEFSAII (Michael W. Deem and Ramdas Pophale) SiO2 
 PCOD9253522
Probable space group: P 21/C
;
_chemical_formula_sum "Si O2"
_cell_formula_units_Z 32
_cell_length_a 12.000000
_cell_length_b 9.000000
_cell_length_c 15.000000
_cell_angle_alpha 90.000000
_cell_angle_beta 90.000000
_cell_angle_gamma 90.000000
_cell_volume 1620.000000
_symmetry_space_group_name_H-M "P 21/C"
_symmetry_group_IT_number 14
_symmetry_cell_setting 'monoclinic'
loop_
_space_group_symop_operation_xyz
x,y,z
-x,1/2+y,1/2-z
-x,-y,-z
x,1/2-y,1/2+z
loop_
_atom_site_type_symbol
_atom_site_label
_atom_site_fract_x
_atom_site_fract_y
_atom_site_fract_z
Si Si1 0.013239 0.515907 0.187375
Si Si2 0.249012 0.638132 0.540457
Si Si3 0.189673 0.679844 0.863106
Si Si4 0.592048 0.119161 0.393993
Si Si5 0.013298 0.854892 0.130926
Si Si6 0.218689 0.133480 0.932262
Si Si7 0.758756 0.035453 0.252343
Si Si8 0.342569 0.064131 0.428757
O O1 0.988916 0.687189 0.165645
O O2 0.145554 0.490534 0.176256
O O3 0.929071 0.403592 0.138906
O O4 0.998666 0.475835 0.291262
O O5 0.210737 0.732683 0.454294
O O6 0.349821 0.722424 0.587743
O O7 0.139131 0.636269 0.599758
O O8 0.275585 0.475687 0.502967
O O9 0.204292 0.803333 0.786772
O O10 0.283693 0.552581 0.862506
O O11 0.644355 0.052448 0.304477
O O12 0.459558 0.123382 0.391964
O O13 0.629426 0.018024 0.478254
O O14 0.915302 0.882726 0.059825
O O15 0.259498 0.299729 0.943408
O O16 0.244786 0.074984 0.831824
#
# Coordination Sequence:
#
# PCOD9253522 Si02
#       8
#     4   4   4   4   4   4   4   4
#     4  11  19  34  56  80 112 144 180 220 276 331
#     4  10  21  38  56  78 114 149 179 223 281 330
#     4  10  20  36  56  79 111 148 181 228 275 329
#     4  10  21  40  58  79 110 149 188 229 281 325
#     4  11  21  36  55  84 114 144 176 224 274 335
#     4  10  22  38  56  86 114 141 186 230 269 330
#     4  10  21  38  57  80 115 149 181 223 282 330
#     4  10  22  38  58  82 110 143 191 237 270 322
#
# _framework density 19.753086
#
# number of rings (size 3 to 8) (size 9 to 14) (size 15 to 20)
#    0.000    1.750    3.750    0.375    0.000    3.000 
#    4.500    0.000    0.000    0.000    0.000    0.000 
#    0.000    0.000    0.000    0.000    0.000    0.000 
#
# Total GULP energy -178579.207297 kJ/mol
# GULP energy per Si atom -5580.600228 kJ/mol
# Density = 1.970813 g / cm^3
# Si number density = 19.753086 Si / 1000 Ang^3
#
#
#
# Elastic Constant Matrix: (Units=GPa)
#
#
# Indices 1 2 3 4 5 6 
#
# 1 39.5948 -2.6308 -12.1054 0.0000 -7.1472 0.0000
# 2 -2.6308 52.6412 -14.1673 0.0000 3.4132 0.0000
# 3 -12.1054 -14.1673 -1.1117 0.0000 -6.1250 0.0000
# 4 0.0000 0.0000 0.0000 0.7211 0.0000 -3.7660
# 5 -7.1472 3.4132 -6.1250 0.0000 25.0494 0.0000
# 6 0.0000 0.0000 0.0000 -3.7660 0.0000 19.1592
#
#
#
# Elastic Compliance Matrix: (Units=1/GPa)
#
#
# Indices 1 2 3 4 5 6 
#
# 1 0.014009 -0.008050 -0.033244 0.000000 -0.003035 0.000000
# 2 -0.008050 0.012938 -0.023371 0.000000 -0.009774 0.000000
# 3 -0.033244 -0.023371 -0.087329 0.000000 -0.027654 0.000000
# 4 0.000000 0.000000 0.000000-52.136487 0.000000-10.248164
# 5 -0.003035 -0.009774 -0.027654 0.000000 0.033625 0.000000
# 6 0.000000 0.000000 0.000000-10.248164 0.000000 -1.962227
#
#
# Mechanical properties :
#
#
# Convention : Reuss Voigt Hill
#
# Bulk Modulus (GPa) = -5.27117 3.70192 -0.78463
# Shear Modulus (GPa) = -0.09249 16.98779 8.44765
#
# Velocity S-wave (km/s) = -0.21662 2.93577 2.07024
# Velocity P-wave (km/s) = 1.65435 3.65648 2.30575
#
# Compressibility (1/GPa) = -0.18971116
#
# Stress axis : x y z
#
# Youngs Moduli (GPa) = 71.38027 77.29082 -11.45098
#
# Poissons Ratio (x) = 0.62219 -0.38068
# Poissons Ratio (y) = 0.57461 -0.26762
# Poissons Ratio (z) = 2.37296 1.80637
#
# Static dielectric constant tensor:
#      x y z
#    x 1.698200 0.000000 0.002880 
#    y 0.000000 1.695690 0.000000 
#    z 0.002880 0.000000 1.711860 
# 
# From -- ./inp_files/43729.got.cif
#   From: 2010.05.17/outbox.ucp.g08.bks.cvg/sg14_22_cif.got.tgz:43729.got - 2010.06.11 12:31:08.
