data_PCOD9253079
_publ_section_title
;
Structure prediction by ZEFSAII (Michael W. Deem and Ramdas Pophale) SiO2 
 PCOD9253079
Probable space group: P 21/C
;
_chemical_formula_sum "Si O2"
_cell_formula_units_Z 28
_cell_length_a 20.101181
_cell_length_b 8.340405
_cell_length_c 14.161342
_cell_angle_alpha 90.000000
_cell_angle_beta 147.704822
_cell_angle_gamma 90.000000
_cell_volume 1268.478255
_symmetry_space_group_name_H-M "P 21/C"
_symmetry_group_IT_number 14
_symmetry_cell_setting 'monoclinic'
loop_
_space_group_symop_operation_xyz
x,y,z
-x,1/2+y,1/2-z
-x,-y,-z
x,1/2-y,1/2+z
loop_
_atom_site_type_symbol
_atom_site_label
_atom_site_fract_x
_atom_site_fract_y
_atom_site_fract_z
Si Si1 0.450735 0.712638 0.986730
Si Si2 0.268714 0.582209 0.610467
Si Si3 0.137986 0.611646 0.897013
Si Si4 0.396786 0.548554 0.564381
Si Si5 0.308816 0.238100 0.848370
Si Si6 0.123039 0.253584 0.972539
Si Si7 0.633460 0.014292 0.451257
O O1 0.374674 0.615226 0.816396
O O2 0.460763 0.618073 0.097510
O O3 0.374026 0.861677 0.937350
O O4 0.579395 0.764254 0.093873
O O5 0.176561 0.736881 0.510545
O O6 0.328273 0.596724 0.577813
O O7 0.208093 0.403726 0.544714
O O8 0.124294 0.428119 0.920845
O O9 0.252667 0.596099 0.963312
O O10 0.013448 0.676818 0.697990
O O11 0.351566 0.373277 0.484710
O O12 0.543639 0.557202 0.763675
O O13 0.179856 0.203176 0.642733
O O14 0.304219 0.406353 0.894632
#
# Coordination Sequence:
#
# PCOD9253079 Si02
#       7
#     4   4   4   4   4   4   4
#     4  12  23  44  71 107 147 184 236 305 374 436
#     4  12  24  49  76 105 149 190 241 304 372 429
#     4  12  26  48  73 104 141 201 245 295 362 427
#     4  12  24  43  73 110 146 186 237 303 373 439
#     4  12  24  43  69 109 143 186 244 301 362 438
#     4  12  26  47  74 102 146 195 249 301 355 432
#     4  12  23  43  69 104 148 187 237 301 371 435
#
# _framework density 22.073692999999999
#
# number of rings (size 3 to 8) (size 9 to 14) (size 15 to 20)
#    0.000    0.000    5.714    6.000    0.000    0.571 
#    0.000    0.714    0.000    0.000    0.000    0.000 
#    0.000    0.000    0.000    0.000    0.000    0.000 
#
# Total GULP energy -156066.410122 kJ/mol
# GULP energy per Si atom -5573.800361 kJ/mol
# Density = 2.202345 g / cm^3
# Si number density = 22.073693 Si / 1000 Ang^3
#
#
#
# Elastic Constant Matrix: (Units=GPa)
#
#
# Indices 1 2 3 4 5 6 
#
# 1 60.2313 42.8664 35.5645 0.0000 -11.8557 0.0000
# 2 42.8664 101.2747 43.5512 0.0000 0.5232 0.0000
# 3 35.5645 43.5512 142.8607 0.0000 -5.8966 0.0000
# 4 0.0000 0.0000 0.0000 34.8670 0.0000 -10.4441
# 5 -11.8557 0.5232 -5.8966 0.0000 20.0848 0.0000
# 6 0.0000 0.0000 0.0000 -10.4441 0.0000 36.4788
#
#
#
# Elastic Compliance Matrix: (Units=1/GPa)
#
#
# Indices 1 2 3 4 5 6 
#
# 1 0.029990 -0.011363 -0.003299 0.000000 0.017030 0.000000
# 2 -0.011363 0.015704 -0.002280 0.000000 -0.007786 0.000000
# 3 -0.003299 -0.002280 0.008542 0.000000 0.000620 0.000000
# 4 0.000000 0.000000 0.000000 0.031371 0.000000 0.008982
# 5 0.017030 -0.007786 0.000620 0.000000 0.060226 0.000000
# 6 0.000000 0.000000 0.000000 0.008982 0.000000 0.029985
#
#
# Mechanical properties :
#
#
# Convention : Reuss Voigt Hill
#
# Bulk Modulus (GPa) = 49.13550 60.92564 55.03057
# Shear Modulus (GPa) = 23.09623 30.44509 26.77066
#
# Velocity S-wave (km/s) = 3.23820 3.71785 3.48629
# Velocity P-wave (km/s) = 6.02406 6.78902 6.41795
#
# Compressibility (1/GPa) = 0.02035189
#
# Stress axis : x y z
#
# Youngs Moduli (GPa) = 33.34484 63.67604 117.07216
#
# Poissons Ratio (x) = 0.72355 0.38620
# Poissons Ratio (y) = 0.37890 0.26694
# Poissons Ratio (z) = 0.11000 0.14519
#
# Static dielectric constant tensor:
#      x y z
#    x 1.762330 0.000000 0.008390 
#    y 0.000000 1.932290 0.000000 
#    z 0.008390 0.000000 1.786370 
# 
# From -- ./inp_files/50276.got.cif
#   From: 2010.05.17/outbox.cif.g08.bks.cpg/sg14_26_cif.got.tgz:50276.got - 2010.06.03 17:49:19.
