data_PCOD9253683
_publ_section_title
;
Structure prediction by ZEFSAII (Michael W. Deem and Ramdas Pophale) SiO2 
 PCOD9253683
Probable space group: P 21/C
;
_chemical_formula_sum "Si O2"
_cell_formula_units_Z 32
_cell_length_a 30.000000
_cell_length_b 6.000000
_cell_length_c 9.000000
_cell_angle_alpha 90.000000
_cell_angle_beta 70.000000
_cell_angle_gamma 90.000000
_cell_volume 1522.302046
_symmetry_space_group_name_H-M "P 21/C"
_symmetry_group_IT_number 14
_symmetry_cell_setting 'monoclinic'
loop_
_space_group_symop_operation_xyz
x,y,z
-x,1/2+y,1/2-z
-x,-y,-z
x,1/2-y,1/2+z
loop_
_atom_site_type_symbol
_atom_site_label
_atom_site_fract_x
_atom_site_fract_y
_atom_site_fract_z
Si Si1 0.947595 0.018894 0.490793
Si Si2 0.815205 0.046621 0.930993
Si Si3 0.708340 0.435224 0.502494
Si Si4 0.372298 0.952023 0.413772
Si Si5 0.671414 0.776993 0.789621
Si Si6 0.856516 0.738073 0.640495
Si Si7 0.100499 0.653429 0.224341
Si Si8 0.515694 0.457698 0.158145
O O1 0.909263 0.816607 0.528935
O O2 0.944959 0.098644 0.324847
O O3 0.920318 0.197515 0.621945
O O4 0.000000 0.000000 0.500000
O O5 0.762115 0.143960 0.975819
O O6 0.858285 0.216772 0.911146
O O7 0.828746 0.930421 0.759520
O O8 0.823122 0.865614 0.052030
O O9 0.665442 0.254085 0.549483
O O10 0.697544 0.618464 0.641880
O O11 0.704944 0.560377 0.347509
O O12 0.427668 0.912128 0.386054
O O13 0.354174 0.118304 0.562752
O O14 0.365429 0.075851 0.263665
O O15 0.871108 0.553250 0.743195
O O16 0.505361 0.709565 0.252505
O O17 0.500000 0.500000 0.000000
#
# Coordination Sequence:
#
# PCOD9253683 Si02
#       8
#     4   4   4   4   4   4   4   4
#     4  11  26  42  66  95 126 172 219 274 336 404
#     4  11  24  42  67  94 133 175 222 275 344 414
#     4  11  24  42  70 101 137 186 230 290 355 424
#     4  11  25  45  72 100 148 178 246 291 359 426
#     4  10  24  43  67 103 138 182 232 294 353 415
#     4  11  23  44  64  93 135 168 222 276 337 405
#     4  11  24  43  63  96 128 168 214 278 329 404
#     4  12  29  49  81 116 155 209 259 318 393 459
#
# _framework density 21.020796000000001
#
# number of rings (size 3 to 8) (size 9 to 14) (size 15 to 20)
#    0.000    1.000    2.500    2.625    8.750    4.500 
#    0.000    0.000    0.000    0.000    0.000    0.000 
#    0.000    0.000    0.000    0.000    0.000    0.000 
#
# Total GULP energy -178430.218578 kJ/mol
# GULP energy per Si atom -5575.944331 kJ/mol
# Density = 2.097295 g / cm^3
# Si number density = 21.020796 Si / 1000 Ang^3
#
#
#
# Elastic Constant Matrix: (Units=GPa)
#
#
# Indices 1 2 3 4 5 6 
#
# 1 157.7155 28.9326 29.7657 0.0000 5.9672 0.0000
# 2 28.9326 83.3703 24.9557 0.0000 2.9288 0.0000
# 3 29.7657 24.9557 73.9610 0.0000 27.4141 0.0000
# 4 0.0000 0.0000 0.0000 32.2062 0.0000 4.6827
# 5 5.9672 2.9288 27.4141 0.0000 38.5879 0.0000
# 6 0.0000 0.0000 0.0000 4.6827 0.0000 35.3738
#
#
#
# Elastic Compliance Matrix: (Units=1/GPa)
#
#
# Indices 1 2 3 4 5 6 
#
# 1 0.007115 -0.001719 -0.002612 0.000000 0.000886 0.000000
# 2 -0.001719 0.014012 -0.005078 0.000000 0.002810 0.000000
# 3 -0.002612 -0.005078 0.021709 0.000000 -0.014634 0.000000
# 4 0.000000 0.000000 0.000000 0.031659 0.000000 -0.004191
# 5 0.000886 0.002810 -0.014634 0.000000 0.035961 0.000000
# 6 0.000000 0.000000 0.000000 -0.004191 0.000000 0.028824
#
#
# Mechanical properties :
#
#
# Convention : Reuss Voigt Hill
#
# Bulk Modulus (GPa) = 41.63167 53.59497 47.61332
# Shear Modulus (GPa) = 30.10150 36.65976 33.38063
#
# Velocity S-wave (km/s) = 3.78827 4.18062 3.98927
# Velocity P-wave (km/s) = 6.24360 6.98964 6.62713
#
# Compressibility (1/GPa) = 0.02402018
#
# Stress axis : x y z
#
# Youngs Moduli (GPa) = 140.54337 71.36568 46.06329
#
# Poissons Ratio (x) = 0.12264 0.12032
# Poissons Ratio (y) = 0.24152 0.23390
# Poissons Ratio (z) = 0.36710 0.36238
#
# Static dielectric constant tensor:
#      x y z
#    x 1.713940 0.000000 0.012560 
#    y 0.000000 1.864310 0.000000 
#    z 0.012560 0.000000 1.817930 
# 
# From -- ./inp_files/19892.got.cif
#   From: 2010.05.17/outbox.ucp.g08.bks.cvg/sg14_10_cif.got.tgz:19892.got - 2010.06.11 12:31:08.
