data_PCOD9253372
_publ_section_title
;
Structure prediction by ZEFSAII (Michael W. Deem and Ramdas Pophale) SiO2 
 PCOD9253372
Probable space group: P 21/C
;
_chemical_formula_sum "Si O2"
_cell_formula_units_Z 20
_cell_length_a 18.110215
_cell_length_b 5.149810
_cell_length_c 25.695662
_cell_angle_alpha 90.000000
_cell_angle_beta 160.119770
_cell_angle_gamma 90.000000
_cell_volume 814.936731
_symmetry_space_group_name_H-M "P 21/C"
_symmetry_group_IT_number 14
_symmetry_cell_setting 'monoclinic'
loop_
_space_group_symop_operation_xyz
x,y,z
-x,1/2+y,1/2-z
-x,-y,-z
x,1/2-y,1/2+z
loop_
_atom_site_type_symbol
_atom_site_label
_atom_site_fract_x
_atom_site_fract_y
_atom_site_fract_z
Si Si1 0.060688 0.856181 0.593317
Si Si2 0.392388 0.411191 0.159187
Si Si3 0.132059 0.213698 0.824218
Si Si4 0.345102 0.181127 0.862730
Si Si5 0.515625 0.435055 0.128744
O O1 0.230998 0.627494 0.694462
O O2 0.838715 0.798325 0.476269
O O3 0.199036 0.031567 0.724479
O O4 0.000000 0.000000 0.500000
O O5 0.452069 0.658967 0.234366
O O6 0.414380 0.526786 0.115736
O O7 0.184916 0.297458 0.800118
O O8 0.986486 0.438701 0.752983
O O9 0.356083 0.202351 0.005589
O O10 0.484248 0.380639 0.921233
O O11 0.500000 0.000000 0.000000
#
# Coordination Sequence:
#
# PCOD9253372 Si02
#       5
#     4   4   4   4   4
#     4  12  27  51  81 113 160 215 268 335 412 490
#     4  12  29  50  78 118 164 214 273 337 410 495
#     4  12  28  49  79 119 160 212 269 336 410 492
#     4  12  27  50  81 117 162 213 274 340 414 497
#     4  12  28  48  82 115 167 209 281 338 415 491
#
# _framework density 24.541782000000001
#
# number of rings (size 3 to 8) (size 9 to 14) (size 15 to 20)
#    0.000    0.000    4.000    4.200    8.400    1.600 
#    0.000    0.000    0.000    0.000    0.000    0.000 
#    0.000    0.000    0.000    0.000    0.000    0.000 
#
# Total GULP energy -111983.345839 kJ/mol
# GULP energy per Si atom -5599.167292 kJ/mol
# Density = 2.448592 g / cm^3
# Si number density = 24.541782 Si / 1000 Ang^3
#
#
#
# Elastic Constant Matrix: (Units=GPa)
#
#
# Indices 1 2 3 4 5 6 
#
# 1 160.8940 4.9627 46.7077 0.0000 11.5578 0.0000
# 2 4.9627 64.2822 32.7658 0.0000 2.7789 0.0000
# 3 46.7077 32.7658 120.8361 0.0000 3.3602 0.0000
# 4 0.0000 0.0000 0.0000 33.1551 0.0000 4.3828
# 5 11.5578 2.7789 3.3602 0.0000 52.1612 0.0000
# 6 0.0000 0.0000 0.0000 4.3828 0.0000 35.8733
#
#
#
# Elastic Compliance Matrix: (Units=1/GPa)
#
#
# Indices 1 2 3 4 5 6 
#
# 1 0.007161 0.001045 -0.003011 0.000000 -0.001448 0.000000
# 2 0.001045 0.018226 -0.005322 0.000000 -0.000860 0.000000
# 3 -0.003011 -0.005322 0.010876 0.000000 0.000250 0.000000
# 4 0.000000 0.000000 0.000000 0.030656 0.000000 -0.003745
# 5 -0.001448 -0.000860 0.000250 0.000000 0.019522 0.000000
# 6 0.000000 0.000000 0.000000 -0.003745 0.000000 0.028333
#
#
# Mechanical properties :
#
#
# Convention : Reuss Voigt Hill
#
# Bulk Modulus (GPa) = 46.11330 57.20941 51.66136
# Shear Modulus (GPa) = 36.60868 41.67633 39.14250
#
# Velocity S-wave (km/s) = 3.86643 4.12537 3.99799
# Velocity P-wave (km/s) = 6.22598 6.78625 6.51214
#
# Compressibility (1/GPa) = 0.02168572
#
# Stress axis : x y z
#
# Youngs Moduli (GPa) = 139.64119 54.86791 91.94840
#
# Poissons Ratio (x) = -0.05731 0.27686
# Poissons Ratio (y) = -0.14586 0.48934
# Poissons Ratio (z) = 0.42046 0.29200
#
# Static dielectric constant tensor:
#      x y z
#    x 1.971830 0.000000 0.041910 
#    y 0.000000 2.025460 0.000000 
#    z 0.041910 0.000000 1.996400 
# 
# From -- ./inp_files/77733.got.cif
#   From: 2010.05.17/outbox.cif.g08.bks.cpg/sg14_39_cif.got.tgz:77733.got - 2010.06.03 17:49:19.
