data_PCOD9253703
_publ_section_title
;
Structure prediction by ZEFSAII (Michael W. Deem and Ramdas Pophale) SiO2 
 PCOD9253703
Probable space group: P 21/C
;
_chemical_formula_sum "Si O2"
_cell_formula_units_Z 32
_cell_length_a 15.000000
_cell_length_b 21.000000
_cell_length_c 15.000000
_cell_angle_alpha 90.000000
_cell_angle_beta 160.000000
_cell_angle_gamma 90.000000
_cell_volume 1616.045177
_symmetry_space_group_name_H-M "P 21/C"
_symmetry_group_IT_number 14
_symmetry_cell_setting 'monoclinic'
loop_
_space_group_symop_operation_xyz
x,y,z
-x,1/2+y,1/2-z
-x,-y,-z
x,1/2-y,1/2+z
loop_
_atom_site_type_symbol
_atom_site_label
_atom_site_fract_x
_atom_site_fract_y
_atom_site_fract_z
Si Si1 0.927745 0.408419 0.334217
Si Si2 0.631238 0.597754 0.112907
Si Si3 0.843739 0.973358 0.636957
Si Si4 0.237893 0.238269 0.317198
Si Si5 0.919086 0.239465 0.772453
Si Si6 0.312800 0.718635 0.631893
Si Si7 0.607700 0.085195 0.889499
Si Si8 0.397333 0.188204 0.814760
O O1 0.901877 0.456051 0.226783
O O2 0.938777 0.334259 0.316969
O O3 0.187157 0.422902 0.634137
O O4 0.668738 0.419683 0.150975
O O5 0.759245 0.567332 0.145213
O O6 0.644771 0.674328 0.117434
O O7 0.596313 0.965429 0.340244
O O8 0.101803 0.943032 0.834557
O O9 0.419308 0.245018 0.575331
O O10 0.263870 0.301957 0.284135
O O11 0.932703 0.221213 0.033534
O O12 0.819068 0.246267 0.576559
O O13 0.671688 0.274547 0.584676
O O14 0.187806 0.276993 0.050621
O O15 0.369264 0.646194 0.655445
O O16 0.481360 0.119636 0.856892
#
# Coordination Sequence:
#
# PCOD9253703 Si02
#       8
#     4   4   4   4   4   4   4   4
#     4  12  23  37  53  79 113 154 184 218 261 320
#     4  12  21  36  51  82 115 148 186 210 256 331
#     4  12  23  35  55  76 113 152 188 215 258 321
#     4  12  20  35  57  82 107 147 174 223 282 326
#     4  11  21  37  53  80 108 144 182 226 271 318
#     4  11  21  34  55  77 108 140 181 223 274 324
#     4  11  21  37  51  79 105 144 183 226 266 314
#     4  11  22  35  57  77 110 139 181 230 278 320
#
# _framework density 19.801427
#
# number of rings (size 3 to 8) (size 9 to 14) (size 15 to 20)
#    0.000    0.500    5.000    6.750    0.000    0.000 
#    0.000    0.000    0.000    0.000    0.000    5.250 
#    0.000    0.000    0.000    0.000    0.000    0.000 
#
# Total GULP energy -178646.055440 kJ/mol
# GULP energy per Si atom -5582.689232 kJ/mol
# Density = 1.975636 g / cm^3
# Si number density = 19.801427 Si / 1000 Ang^3
#
#
#
# Elastic Constant Matrix: (Units=GPa)
#
#
# Indices 1 2 3 4 5 6 
#
# 1 13.6561 -11.9995 12.4021 0.0000 -2.0909 0.0000
# 2 -11.9995 26.3555 3.6373 0.0000 -1.5952 0.0000
# 3 12.4021 3.6373 111.4471 0.0000 4.5531 0.0000
# 4 0.0000 0.0000 0.0000 26.6840 0.0000 -2.6793
# 5 -2.0909 -1.5952 4.5531 0.0000 26.1747 0.0000
# 6 0.0000 0.0000 0.0000 -2.6793 0.0000 21.1308
#
#
#
# Elastic Compliance Matrix: (Units=1/GPa)
#
#
# Indices 1 2 3 4 5 6 
#
# 1 0.167819 0.080817 -0.022220 0.000000 0.022196 0.000000
# 2 0.080817 0.077204 -0.012055 0.000000 0.013258 0.000000
# 3 -0.022220 -0.012055 0.012027 0.000000 -0.004602 0.000000
# 4 0.000000 0.000000 0.000000 0.037959 0.000000 0.004813
# 5 0.022196 0.013258 -0.004602 0.000000 0.041586 0.000000
# 6 0.000000 0.000000 0.000000 0.004813 0.000000 0.047934
#
#
# Mechanical properties :
#
#
# Convention : Reuss Voigt Hill
#
# Bulk Modulus (GPa) = 2.85604 17.72651 10.29128
# Shear Modulus (GPa) = 12.25018 24.62582 18.43800
#
# Velocity S-wave (km/s) = 2.48997 3.53035 3.05478
# Velocity P-wave (km/s) = 3.11642 5.05860 4.20128
#
# Compressibility (1/GPa) = 0.35013492
#
# Stress axis : x y z
#
# Youngs Moduli (GPa) = 5.95881 12.95262 83.14639
#
# Poissons Ratio (x) = -1.04679 1.84749
# Poissons Ratio (y) = -0.48157 1.00232
# Poissons Ratio (z) = 0.13240 0.15614
#
# Static dielectric constant tensor:
#      x y z
#    x 1.849040 0.000000 0.011360 
#    y 0.000000 1.678490 0.000000 
#    z 0.011360 0.000000 1.697760 
# 
# From -- ./inp_files/47604.got.cif
#   From: 2010.05.17/outbox.ucp.g08.bks.cvg/sg14_24_cif.got.tgz:47604.got - 2010.06.11 12:31:08.
