data_PCOD9253979
_publ_section_title
;
Structure prediction by ZEFSAII (Michael W. Deem and Ramdas Pophale) SiO2 
 PCOD9253979
Probable space group: C 2/C
;
_chemical_formula_sum "Si O2"
_cell_formula_units_Z 64
_cell_length_a 12.314804
_cell_length_b 17.321064
_cell_length_c 18.668133
_cell_angle_alpha 90.000000
_cell_angle_beta 50.188295
_cell_angle_gamma 90.000000
_cell_volume 3058.796188
_symmetry_space_group_name_H-M "C 2/C"
_symmetry_group_IT_number 15
_symmetry_cell_setting 'monoclinic'
loop_
_space_group_symop_operation_xyz
x,y,z
-x,y,1/2-z
-x,-y,-z
x,-y,1/2+z
1/2+x,1/2+y,z
1/2-x,1/2+y,1/2-z
1/2-x,1/2-y,-z
1/2+x,1/2-y,1/2+z
loop_
_atom_site_type_symbol
_atom_site_label
_atom_site_fract_x
_atom_site_fract_y
_atom_site_fract_z
Si Si1 0.183910 0.132911 0.474641
Si Si2 0.566685 0.015362 0.874449
Si Si3 0.997126 0.645512 0.333274
Si Si4 0.134502 0.961109 0.238761
Si Si5 0.903726 0.193465 0.669095
Si Si6 0.263999 0.959997 0.480862
Si Si7 0.462869 0.444992 0.584397
Si Si8 0.148186 0.379907 0.203175
O O1 0.335538 0.172527 0.414499
O O2 0.052045 0.171531 0.569297
O O3 0.134980 0.117881 0.413058
O O4 0.218237 0.049743 0.496717
O O5 0.539460 0.927005 0.863895
O O6 0.711003 0.022396 0.858709
O O7 0.412037 0.048412 0.961383
O O8 0.612247 0.065183 0.785479
O O9 0.093151 0.719759 0.305065
O O10 0.000000 0.618049 0.250000
O O11 0.119831 0.869889 0.259127
O O12 0.000000 0.986164 0.250000
O O13 0.117181 0.005827 0.321807
O O14 0.776481 0.175834 0.668259
O O15 0.112612 0.918142 0.555366
O O16 0.308647 0.932854 0.382047
O O17 0.500000 0.500000 0.500000
O O18 0.000000 0.338162 0.250000
#
# Coordination Sequence:
#
# PCOD9253979 Si02
#       8
#     8   8   8   8   8   8   8   8
#     4  10  17  30  53  78 102 136 179 221 255 307
#     4   9  18  32  49  71 102 139 178 217 255 310
#     4  11  21  32  48  77 111 143 173 216 271 321
#     4  11  21  34  52  79 111 138 173 223 274 314
#     4  11  19  32  50  80 112 136 170 216 278 319
#     4   9  14  26  50  73  98 126 174 222 249 290
#     4  10  15  29  53  75 101 134 179 216 250 307
#     4   9  16  29  52  79 101 128 179 231 253 292
#
# _framework density 20.923264
#
# number of rings (size 3 to 8) (size 9 to 14) (size 15 to 20)
#    0.000    2.000    3.750    5.625    0.000    0.000 
#    0.000    1.250    0.000    0.000    0.000    1.750 
#    0.000    0.000    0.000    0.000    0.000    0.000 
#
# Total GULP energy -178364.248524 kJ/mol
# GULP energy per Si atom -5573.882766 kJ/mol
# Density = 2.087564 g / cm^3
# Si number density = 20.923264 Si / 1000 Ang^3
#
#
#
# Elastic Constant Matrix: (Units=GPa)
#
#
# Indices 1 2 3 4 5 6 
#
# 1 131.5588 26.2600 35.6040 0.0000 -49.2604 0.0000
# 2 26.2600 56.3213 1.7009 0.0000 -4.8633 0.0000
# 3 35.6040 1.7009 51.8349 0.0001 -21.0505 -0.0001
# 4 0.0000 0.0000 0.0001 9.6471 0.0000 -5.4025
# 5 -49.2604 -4.8633 -21.0505 0.0000 45.8143 0.0000
# 6 0.0000 0.0000 -0.0001 -5.4025 0.0000 17.1200
#
#
#
# Elastic Compliance Matrix: (Units=1/GPa)
#
#
# Indices 1 2 3 4 5 6 
#
# 1 0.015026 -0.005708 -0.004694 0.000000 0.013393 0.000000
# 2 -0.005708 0.020090 0.002010 0.000000 -0.003081 0.000000
# 3 -0.004694 0.002010 0.025187 0.000000 0.006739 0.000000
# 4 0.000000 0.000000 0.000000 0.125909 0.000000 0.039732
# 5 0.013393 -0.003081 0.006739 0.000000 0.038997 0.000000
# 6 0.000000 0.000000 0.000000 0.039732 0.000000 0.070949
#
#
# Mechanical properties :
#
#
# Convention : Reuss Voigt Hill
#
# Bulk Modulus (GPa) = 22.97866 40.76054 31.86960
# Shear Modulus (GPa) = 15.26959 26.25962 20.76460
#
# Velocity S-wave (km/s) = 2.70439 3.54650 3.15368
# Velocity P-wave (km/s) = 4.55608 6.02441 5.34094
#
# Compressibility (1/GPa) = 0.04351863
#
# Stress axis : x y z
#
# Youngs Moduli (GPa) = 66.55221 49.77670 39.70273
#
# Poissons Ratio (x) = 0.28410 0.18638
# Poissons Ratio (y) = 0.37985 -0.07980
# Poissons Ratio (z) = 0.31243 -0.10005
#
# Static dielectric constant tensor:
#      x y z
#    x 1.889240 0.000000 -0.031450 
#    y 0.000000 1.702720 0.000000 
#    z -0.031450 0.000000 1.797700 
# 
# From -- ./inp_files/239805.got.cif
#   From: 2010.05.17/outbox.cif.g08.bks.cpg/sg15_120_cif.got.tgz:239805.got - 2010.06.03 18:47:42.
