data_PCOD9253992
_publ_section_title
;
Structure prediction by ZEFSAII (Michael W. Deem and Ramdas Pophale) SiO2 
 PCOD9253992
Probable space group: C 2/C
;
_chemical_formula_sum "Si O2"
_cell_formula_units_Z 48
_cell_length_a 5.822616
_cell_length_b 23.227472
_cell_length_c 19.515292
_cell_angle_alpha 90.000000
_cell_angle_beta 81.420541
_cell_angle_gamma 90.000000
_cell_volume 2609.804444
_symmetry_space_group_name_H-M "C 2/C"
_symmetry_group_IT_number 15
_symmetry_cell_setting 'monoclinic'
loop_
_space_group_symop_operation_xyz
x,y,z
-x,y,1/2-z
-x,-y,-z
x,-y,1/2+z
1/2+x,1/2+y,z
1/2-x,1/2+y,1/2-z
1/2-x,1/2-y,-z
1/2+x,1/2-y,1/2+z
loop_
_atom_site_type_symbol
_atom_site_label
_atom_site_fract_x
_atom_site_fract_y
_atom_site_fract_z
Si Si1 0.230828 0.125000 0.788344
Si Si2 0.315249 0.795364 0.406952
Si Si3 0.279421 0.436909 0.954399
Si Si4 0.983820 0.813091 0.545601
Si Si5 0.867621 0.375000 0.014757
Si Si6 0.027800 0.954636 0.406952
O O1 0.500000 0.120622 0.750000
O O2 0.235536 0.180597 0.838093
O O3 0.000000 0.129378 0.750000
O O4 0.176372 0.069403 0.838093
O O5 0.457067 0.735894 0.402596
O O6 0.474349 0.843991 0.436104
O O7 0.102153 0.791367 0.469511
O O8 0.404823 0.375000 0.940353
O O9 0.390337 0.485894 0.902596
O O10 0.321664 0.458633 0.030489
O O11 0.008805 0.422272 0.965235
O O12 0.724040 0.827728 0.534765
O O13 0.660452 0.406009 0.063896
#
# Coordination Sequence:
#
# PCOD9253992 Si02
#       6
#     8   8   8   8   8   8
#     4  12  25  40  58  84 122 170 210 246 297 373
#     4  10  19  34  52  81 119 148 199 247 302 362
#     4   9  18  31  55  85 114 147 184 257 318 353
#     4   9  18  31  55  85 114 147 184 257 318 353
#     4  10  15  30  52  88 114 149 183 246 326 361
#     4  10  19  34  52  81 119 148 199 247 302 362
#
# _framework density 18.392181000000001
#
# number of rings (size 3 to 8) (size 9 to 14) (size 15 to 20)
#    0.000    2.000    5.000    2.000    0.000    0.000 
#    0.000    0.000    0.000    1.000    0.000    7.000 
#    0.000    0.000    0.000    0.000    0.000    0.000 
#
# Total GULP energy -133661.080284 kJ/mol
# GULP energy per Si atom -5569.211678 kJ/mol
# Density = 1.835032 g / cm^3
# Si number density = 18.392181 Si / 1000 Ang^3
#
#
#
# Elastic Constant Matrix: (Units=GPa)
#
#
# Indices 1 2 3 4 5 6 
#
# 1 94.8663 32.3598 38.1371 0.0000 -0.0360 0.0000
# 2 32.3598 109.6646 34.7749 0.0000 0.0081 0.0000
# 3 38.1371 34.7749 66.1781 0.0000 -0.0599 0.0000
# 4 0.0000 0.0000 0.0000 20.2347 0.0000 -0.0488
# 5 -0.0360 0.0081 -0.0599 0.0000 22.9832 0.0000
# 6 0.0000 0.0000 0.0000 -0.0488 0.0000 34.8375
#
#
#
# Elastic Compliance Matrix: (Units=1/GPa)
#
#
# Indices 1 2 3 4 5 6 
#
# 1 0.014039 -0.001893 -0.007096 0.000000 0.000004 0.000000
# 2 -0.001893 0.011197 -0.004793 0.000000 -0.000019 0.000000
# 3 -0.007096 -0.004793 0.021719 0.000000 0.000047 0.000000
# 4 0.000000 0.000000 0.000000 0.049420 0.000000 0.000069
# 5 0.000004 -0.000019 0.000047 0.000000 0.043510 0.000000
# 6 0.000000 0.000000 0.000000 0.000069 0.000000 0.028705
#
#
# Mechanical properties :
#
#
# Convention : Reuss Voigt Hill
#
# Bulk Modulus (GPa) = 51.56861 53.47249 52.52055
# Shear Modulus (GPa) = 24.67695 26.64023 25.65859
#
# Velocity S-wave (km/s) = 3.66691 3.80998 3.73913
# Velocity P-wave (km/s) = 6.78436 6.96357 6.87455
#
# Compressibility (1/GPa) = 0.01939164
#
# Stress axis : x y z
#
# Youngs Moduli (GPa) = 71.22799 89.30894 46.04296
#
# Poissons Ratio (x) = 0.16902 0.32673
# Poissons Ratio (y) = 0.13480 0.22069
# Poissons Ratio (z) = 0.50544 0.42807
#
# Static dielectric constant tensor:
#      x y z
#    x 1.743520 0.000000 -0.000390 
#    y 0.000000 1.690560 0.000000 
#    z -0.000390 0.000000 1.626200 
# 
# From -- ./inp_files/185214.got.cif
#   From: 2010.05.17/outbox.cif.g08.bks.cpg/sg15_93_cif.got.tgz:185214.got - 2010.06.03 18:47:42.
