data_PCOD9253946
_publ_section_title
;
Structure prediction by ZEFSAII (Michael W. Deem and Ramdas Pophale) SiO2 
 PCOD9253946
Probable space group: C 2/C
;
_chemical_formula_sum "Si O2"
_cell_formula_units_Z 40
_cell_length_a 7.329348
_cell_length_b 23.799567
_cell_length_c 11.519439
_cell_angle_alpha 90.000000
_cell_angle_beta 124.945789
_cell_angle_gamma 90.000000
_cell_volume 1647.091331
_symmetry_space_group_name_H-M "C 2/C"
_symmetry_group_IT_number 15
_symmetry_cell_setting 'monoclinic'
loop_
_space_group_symop_operation_xyz
x,y,z
-x,y,1/2-z
-x,-y,-z
x,-y,1/2+z
1/2+x,1/2+y,z
1/2-x,1/2+y,1/2-z
1/2-x,1/2-y,-z
1/2+x,1/2-y,1/2+z
loop_
_atom_site_type_symbol
_atom_site_label
_atom_site_fract_x
_atom_site_fract_y
_atom_site_fract_z
Si Si1 0.964395 0.578919 0.602216
Si Si2 0.995873 0.225822 0.614020
Si Si3 0.160600 0.022067 0.905428
Si Si4 0.356256 0.621583 0.441156
Si Si5 0.362104 0.846527 0.862358
O O1 0.816708 0.523928 0.521507
O O2 0.860871 0.629573 0.490793
O O3 0.000000 0.588988 0.750000
O O4 0.197152 0.563561 0.625796
O O5 0.750000 0.250000 0.500000
O O6 0.016308 0.170868 0.543936
O O7 0.000000 0.209296 0.750000
O O8 0.155524 0.279068 0.651637
O O9 0.000000 0.995704 0.750000
O O10 0.074185 0.062585 0.976977
O O11 0.313411 0.624995 0.288627
O O12 0.107899 0.636534 0.401335
#
# Coordination Sequence:
#
# PCOD9253946 Si02
#       5
#     8   8   8   8   8
#     4  10  23  39  59  83 125 166 193 241 309 365
#     4  10  15  27  51  84 111 138 185 254 296 325
#     4  10  22  38  61  89 116 155 209 251 293 352
#     4   9  17  30  55  87 113 144 195 254 296 333
#     4   9  17  32  52  81 119 150 188 240 303 356
#
# _framework density 24.285236999999999
#
# number of rings (size 3 to 8) (size 9 to 14) (size 15 to 20)
#    0.000    2.400    4.000    0.600    8.400    0.800 
#    0.000    0.000    0.000    1.200    0.000    0.000 
#    0.000    0.000    0.000    0.000    0.000    0.000 
#
# Total GULP energy -111842.835656 kJ/mol
# GULP energy per Si atom -5592.141783 kJ/mol
# Density = 2.422996 g / cm^3
# Si number density = 24.285237 Si / 1000 Ang^3
#
#
#
# Elastic Constant Matrix: (Units=GPa)
#
#
# Indices 1 2 3 4 5 6 
#
# 1 56.2599 13.9279 34.6924 0.0000 -25.3651 0.0000
# 2 13.9279 94.5023 49.3997 0.0000 -26.9248 0.0000
# 3 34.6924 49.3997 217.8199 0.0000 -49.9444 0.0000
# 4 0.0000 0.0000 0.0000 27.2748 0.0000 -18.1689
# 5 -25.3651 -26.9248 -49.9444 0.0000 37.9868 0.0000
# 6 0.0000 0.0000 0.0000 -18.1689 0.0000 -14.3131
#
#
#
# Elastic Compliance Matrix: (Units=1/GPa)
#
#
# Indices 1 2 3 4 5 6 
#
# 1 0.025591 0.001441 -0.000358 0.000000 0.017638 0.000000
# 2 0.001441 0.013571 -0.001261 0.000000 0.008923 0.000000
# 3 -0.000358 -0.001261 0.006692 0.000000 0.007665 0.000000
# 4 0.000000 0.000000 0.000000 0.019866 0.000000 -0.025217
# 5 0.017638 0.008923 0.007665 0.000000 0.054504 0.000000
# 6 0.000000 0.000000 0.000000 -0.025217 0.000000 -0.037856
#
#
# Mechanical properties :
#
#
# Convention : Reuss Voigt Hill
#
# Bulk Modulus (GPa) = 21.97980 62.73579 42.35780
# Shear Modulus (GPa) = 51.07720 28.22718 39.65219
#
# Velocity S-wave (km/s) = 4.59106 3.41298 4.04514
# Velocity P-wave (km/s) = 6.09706 6.43585 6.26875
#
# Compressibility (1/GPa) = 0.04549631
#
# Stress axis : x y z
#
# Youngs Moduli (GPa) = 39.07580 73.68690 149.44286
#
# Poissons Ratio (x) = -0.10619 0.05356
# Poissons Ratio (y) = -0.05631 0.18850
# Poissons Ratio (z) = 0.01401 0.09295
#
# Static dielectric constant tensor:
#      x y z
#    x 2.014380 0.000000 0.013340 
#    y 0.000000 1.932040 0.000000 
#    z 0.013340 0.000000 1.890140 
# 
# From -- ./inp_files/81006.got.cif
#   From: 2010.05.17/outbox.cif.g08.bks.cpg/sg15_41_cif.got.tgz:81006.got - 2010.06.03 18:47:42.
