data_PCOD9253540
_publ_section_title
;
Structure prediction by ZEFSAII (Michael W. Deem and Ramdas Pophale) SiO2 
 PCOD9253540
Probable space group: P 21/C
;
_chemical_formula_sum "Si O2"
_cell_formula_units_Z 28
_cell_length_a 30.000000
_cell_length_b 9.000000
_cell_length_c 30.000000
_cell_angle_alpha 90.000000
_cell_angle_beta 170.000000
_cell_angle_gamma 90.000000
_cell_volume 1406.550239
_symmetry_space_group_name_H-M "P 21/C"
_symmetry_group_IT_number 14
_symmetry_cell_setting 'monoclinic'
loop_
_space_group_symop_operation_xyz
x,y,z
-x,1/2+y,1/2-z
-x,-y,-z
x,1/2-y,1/2+z
loop_
_atom_site_type_symbol
_atom_site_label
_atom_site_fract_x
_atom_site_fract_y
_atom_site_fract_z
Si Si1 0.102081 0.203786 0.470955
Si Si2 0.279181 0.411023 0.048394
Si Si3 0.790799 0.601889 0.569647
Si Si4 0.393148 0.867744 0.494482
Si Si5 0.249971 0.602224 0.754452
Si Si6 0.059604 0.378426 0.178996
Si Si7 0.428831 0.712551 0.839884
O O1 0.204830 0.151933 0.523962
O O2 0.344732 0.279263 0.735305
O O3 0.007419 0.048657 0.400018
O O4 0.854357 0.312701 0.220788
O O5 0.551493 0.494997 0.321442
O O6 0.273133 0.265932 0.011323
O O7 0.055916 0.526557 0.813516
O O8 0.843431 0.615361 0.674330
O O9 0.274838 0.833975 0.328636
O O10 0.476360 0.043070 0.578889
O O11 0.291135 0.707817 0.752693
O O12 0.000000 0.500000 0.500000
O O13 0.500000 0.500000 0.000000
O O14 0.308207 0.307687 0.399522
O O15 0.796856 0.281492 0.913816
#
# Coordination Sequence:
#
# PCOD9253540 Si02
#       7
#     4   4   4   4   4   4   4
#     4  11  23  41  60  88 128 161 191 247 311 356
#     4  11  24  43  64  90 123 161 199 248 302 356
#     4  11  24  43  64  90 123 161 199 248 302 356
#     4  11  22  39  64  90 117 161 209 248 290 356
#     4  10  20  38  59  88 123 154 197 258 303 336
#     4  11  23  41  60  88 128 161 191 247 311 356
#     4  11  22  39  64  90 117 161 209 248 290 356
#
# _framework density 19.906860999999999
#
# number of rings (size 3 to 8) (size 9 to 14) (size 15 to 20)
#    0.000    1.143    0.000    9.429    0.000    3.429 
#    0.000    4.286    0.000    0.000    0.000    0.000 
#    0.000    0.000    0.000    0.000    0.000    0.000 
#
# Total GULP energy -156306.887488 kJ/mol
# GULP energy per Si atom -5582.388839 kJ/mol
# Density = 1.986155 g / cm^3
# Si number density = 19.906861 Si / 1000 Ang^3
#
#
#
# Elastic Constant Matrix: (Units=GPa)
#
#
# Indices 1 2 3 4 5 6 
#
# 1 23.8573 3.5138 10.0168 0.0000 -9.4501 0.0000
# 2 3.5138 66.4352 39.7077 0.0000 -11.0130 0.0000
# 3 10.0168 39.7077 189.7148 0.0000 -9.3890 0.0000
# 4 0.0000 0.0000 0.0000 64.9131 0.0000 0.9600
# 5 -9.4501 -11.0130 -9.3890 0.0000 29.4849 0.0000
# 6 0.0000 0.0000 0.0000 0.9600 0.0000 30.3110
#
#
#
# Elastic Compliance Matrix: (Units=1/GPa)
#
#
# Indices 1 2 3 4 5 6 
#
# 1 0.048706 0.001211 -0.002063 0.000000 0.015406 0.000000
# 2 0.001211 0.018112 -0.003557 0.000000 0.006021 0.000000
# 3 -0.002063 -0.003557 0.006122 0.000000 -0.000040 0.000000
# 4 0.000000 0.000000 0.000000 0.015412 0.000000 -0.000488
# 5 0.015406 0.006021 -0.000040 0.000000 0.041090 0.000000
# 6 0.000000 0.000000 0.000000 -0.000488 0.000000 0.033007
#
#
# Mechanical properties :
#
#
# Convention : Reuss Voigt Hill
#
# Bulk Modulus (GPa) = 15.59503 42.94267 29.26885
# Shear Modulus (GPa) = 25.95493 40.05973 33.00733
#
# Velocity S-wave (km/s) = 3.61476 4.49080 4.07638
# Velocity P-wave (km/s) = 5.02722 6.96479 6.07377
#
# Compressibility (1/GPa) = 0.06412301
#
# Stress axis : x y z
#
# Youngs Moduli (GPa) = 20.53127 55.21150 163.33324
#
# Poissons Ratio (x) = -0.06684 0.33688
# Poissons Ratio (y) = -0.02485 0.58096
# Poissons Ratio (z) = 0.04235 0.19638
#
# Static dielectric constant tensor:
#      x y z
#    x 1.811440 0.000000 0.022190 
#    y 0.000000 1.716740 0.000000 
#    z 0.022190 0.000000 1.670980 
# 
# From -- ./inp_files/80951.got.cif
#   From: 2010.05.17/outbox.ucp.g08.bks.cvg/sg14_41_cif.got.tgz:80951.got - 2010.06.11 12:31:08.
