data_PCOD9253542
_publ_section_title
;
Structure prediction by ZEFSAII (Michael W. Deem and Ramdas Pophale) SiO2 
 PCOD9253542
Probable space group: P 21/C
;
_chemical_formula_sum "Si O2"
_cell_formula_units_Z 32
_cell_length_a 15.000000
_cell_length_b 12.000000
_cell_length_c 9.000000
_cell_angle_alpha 90.000000
_cell_angle_beta 90.000000
_cell_angle_gamma 90.000000
_cell_volume 1620.000000
_symmetry_space_group_name_H-M "P 21/C"
_symmetry_group_IT_number 14
_symmetry_cell_setting 'monoclinic'
loop_
_space_group_symop_operation_xyz
x,y,z
-x,1/2+y,1/2-z
-x,-y,-z
x,1/2-y,1/2+z
loop_
_atom_site_type_symbol
_atom_site_label
_atom_site_fract_x
_atom_site_fract_y
_atom_site_fract_z
Si Si1 0.780556 0.825939 0.344118
Si Si2 0.042193 0.739523 0.243421
Si Si3 0.091126 0.921074 0.995876
Si Si4 0.049294 0.384630 0.003737
Si Si5 0.398981 0.409048 0.009440
Si Si6 0.240338 0.105400 0.990117
Si Si7 0.451355 0.343145 0.485011
Si Si8 0.521796 0.507230 0.251052
O O1 0.851218 0.892939 0.441234
O O2 0.687193 0.869275 0.404515
O O3 0.785177 0.696224 0.386124
O O4 0.788997 0.847470 0.170525
O O5 0.094663 0.644277 0.336847
O O6 0.997822 0.811468 0.370953
O O7 0.086013 0.826677 0.126172
O O8 0.966129 0.676639 0.150660
O O9 0.179800 0.996305 0.013863
O O10 0.000000 0.000000 0.000000
O O11 0.000000 0.500000 0.000000
O O12 0.448320 0.490507 0.124042
O O13 0.447775 0.290113 0.978476
O O14 0.390965 0.469346 0.849733
O O15 0.349340 0.105976 0.981451
O O16 0.509506 0.399176 0.354687
O O17 0.489879 0.388840 0.639672
#
# Coordination Sequence:
#
# PCOD9253542 Si02
#       8
#     4   4   4   4   4   4   4   4
#     4  11  22  36  59  96 120 149 203 257 299 344
#     4  10  22  38  59  86 120 165 204 242 296 358
#     4  11  22  40  63  88 123 168 203 251 301 358
#     4  11  21  37  59  86 119 160 198 245 293 348
#     4  10  21  37  62  92 120 150 195 252 297 358
#     4  11  23  38  62  92 124 152 202 255 301 348
#     4  10  21  38  64  89 119 154 196 249 299 357
#     4  10  20  38  62  87 120 156 187 238 316 364
#
# _framework density 19.753086
#
# number of rings (size 3 to 8) (size 9 to 14) (size 15 to 20)
#    0.000    1.500    1.250    5.250    5.250    1.000 
#    0.000    0.000   11.000    0.000    0.000    0.000 
#    0.000    0.000    0.000    0.000    0.000    0.000 
#
# Total GULP energy -178414.442931 kJ/mol
# GULP energy per Si atom -5575.451342 kJ/mol
# Density = 1.970813 g / cm^3
# Si number density = 19.753086 Si / 1000 Ang^3
#
#
#
# Elastic Constant Matrix: (Units=GPa)
#
#
# Indices 1 2 3 4 5 6 
#
# 1 27.7573 40.6158 15.3915 0.0000 4.5209 0.0000
# 2 40.6158 85.3825 23.1205 0.0000 7.7596 0.0000
# 3 15.3915 23.1205 91.8876 0.0000 6.2769 0.0000
# 4 0.0000 0.0000 0.0000 40.2047 0.0000 2.9133
# 5 4.5209 7.7596 6.2769 0.0000 19.0393 0.0000
# 6 0.0000 0.0000 0.0000 2.9133 0.0000 25.5890
#
#
#
# Elastic Compliance Matrix: (Units=1/GPa)
#
#
# Indices 1 2 3 4 5 6 
#
# 1 0.122095 -0.056061 -0.006062 0.000000 -0.004145 0.000000
# 2 -0.056061 0.038642 -0.000170 0.000000 -0.002381 0.000000
# 3 -0.006062 -0.000170 0.012111 0.000000 -0.002484 0.000000
# 4 0.000000 0.000000 0.000000 0.025080 0.000000 -0.002855
# 5 -0.004145 -0.002381 -0.002484 0.000000 0.055296 0.000000
# 6 0.000000 0.000000 0.000000 -0.002855 0.000000 0.039404
#
#
# Mechanical properties :
#
#
# Convention : Reuss Voigt Hill
#
# Bulk Modulus (GPa) = 20.72066 40.36477 30.54271
# Shear Modulus (GPa) = 11.53929 25.35990 18.44960
#
# Velocity S-wave (km/s) = 2.41960 3.58697 3.05947
# Velocity P-wave (km/s) = 4.28002 6.13467 5.28927
#
# Compressibility (1/GPa) = 0.04826101
#
# Stress axis : x y z
#
# Youngs Moduli (GPa) = 8.19036 25.87833 82.57141
#
# Poissons Ratio (x) = 1.45077 0.50056
# Poissons Ratio (y) = 0.45916 0.01404
# Poissons Ratio (z) = 0.04965 0.00440
#
# Static dielectric constant tensor:
#      x y z
#    x 1.744860 0.000000 -0.023990 
#    y 0.000000 1.701360 0.000000 
#    z -0.023990 0.000000 1.693700 
# 
# From -- ./inp_files/15792.got.cif
#   From: 2010.05.17/outbox.ucp.g08.bks.cvg/sg14_8_cif.got.tgz:15792.got - 2010.06.11 12:31:08.
