data_PCOD9253570
_publ_section_title
;
Structure prediction by ZEFSAII (Michael W. Deem and Ramdas Pophale) SiO2 
 PCOD9253570
Probable space group: P 21/C
;
_chemical_formula_sum "Si O2"
_cell_formula_units_Z 30
_cell_length_a 30.000000
_cell_length_b 9.000000
_cell_length_c 30.000000
_cell_angle_alpha 90.000000
_cell_angle_beta 10.000000
_cell_angle_gamma 90.000000
_cell_volume 1406.550239
_symmetry_space_group_name_H-M "P 21/C"
_symmetry_group_IT_number 14
_symmetry_cell_setting 'monoclinic'
loop_
_space_group_symop_operation_xyz
x,y,z
-x,1/2+y,1/2-z
-x,-y,-z
x,1/2-y,1/2+z
loop_
_atom_site_type_symbol
_atom_site_label
_atom_site_fract_x
_atom_site_fract_y
_atom_site_fract_z
Si Si1 0.461855 0.173188 0.921767
Si Si2 0.000000 0.500000 0.500000
Si Si3 0.489687 0.010010 0.655168
Si Si4 0.769397 0.604168 0.444251
Si Si5 0.298759 0.446571 0.955472
Si Si6 0.976259 0.137432 0.123347
Si Si7 0.222868 0.322634 0.754297
Si Si8 0.818750 0.944778 0.612738
O O1 0.554432 0.336997 0.815393
O O2 0.654198 0.033864 0.738232
O O3 0.260354 0.131384 0.080353
O O4 0.389847 0.196074 0.045111
O O5 0.000346 0.448768 0.552844
O O6 0.101398 0.334746 0.385975
O O7 0.703454 0.091121 0.413573
O O8 0.608541 0.008417 0.587571
O O9 0.214486 0.088527 0.920187
O O10 0.532164 0.497916 0.693177
O O11 0.740889 0.767962 0.496481
O O12 0.035999 0.524891 0.196632
O O13 0.021742 0.310777 0.066727
O O14 0.334094 0.380580 0.692760
O O15 0.009659 0.436938 0.946855
#
# Coordination Sequence:
#
# PCOD9253570 Si02
#       8
#     4   2   4   4   4   4   4   4
#     4  11  24  41  69  97 132 184 225 284 335 420
#     4  10  20  42  68  98 138 186 230 270 340 398
#     4  11  25  45  71  95 142 175 238 271 344 412
#     4  11  26  45  75  99 143 176 235 285 366 403
#     4  11  25  48  69 107 134 186 224 301 344 430
#     4  11  24  42  66 104 133 189 220 286 329 409
#     4  10  21  43  63  97 138 181 226 282 330 411
#     4  10  24  40  64  98 142 173 232 277 345 386
#
# _framework density 21.328779999999998
#
# number of rings (size 3 to 8) (size 9 to 14) (size 15 to 20)
#    0.000    1.333    1.333    2.800    3.733    5.867 
#    7.200    0.000    0.000    0.000    0.000    0.000 
#    0.000    0.000    0.000    0.000    0.000    0.000 
#
# Total GULP energy -167095.781747 kJ/mol
# GULP energy per Si atom -5569.859392 kJ/mol
# Density = 2.128023 g / cm^3
# Si number density = 21.328780 Si / 1000 Ang^3
#
#
#
# Elastic Constant Matrix: (Units=GPa)
#
#
# Indices 1 2 3 4 5 6 
#
# 1 78.5681 9.6591 2.5836 0.0000 2.4317 0.0000
# 2 9.6591 93.9897 35.3491 0.0000 8.2320 0.0000
# 3 2.5836 35.3491 61.6296 0.0000 -18.0400 0.0000
# 4 0.0000 0.0000 0.0000 -5.5420 0.0000 18.5787
# 5 2.4317 8.2320 -18.0400 0.0000 9.0977 0.0000
# 6 0.0000 0.0000 0.0000 18.5787 0.0000 25.7956
#
#
#
# Elastic Compliance Matrix: (Units=1/GPa)
#
#
# Indices 1 2 3 4 5 6 
#
# 1 0.012655 -0.005556 0.007479 0.000000 0.016476 0.000000
# 2 -0.005556 -0.057381 0.116257 0.000000 0.283933 0.000000
# 3 0.007479 0.116257 -0.195788 0.000000 -0.495422 0.000000
# 4 0.000000 0.000000 0.000000 -0.052846 0.000000 0.038061
# 5 0.016476 0.283933 -0.495422 0.000000 -1.133776 0.000000
# 6 0.000000 0.000000 0.000000 0.038061 0.000000 0.011354
#
#
# Mechanical properties :
#
#
# Convention : Reuss Voigt Hill
#
# Bulk Modulus (GPa) = -240.72965 36.59676 -102.06645
# Shear Modulus (GPa) = -3.02384 18.30998 7.64307
#
# Velocity S-wave (km/s) = -1.19198 2.93313 1.89505
# Velocity P-wave (km/s) = 10.72406 5.35413 6.57035
#
# Compressibility (1/GPa) = -0.00415404
#
# Stress axis : x y z
#
# Youngs Moduli (GPa) = 79.01990 -17.42733 -5.10758
#
# Poissons Ratio (x) = -0.09683 0.03820
# Poissons Ratio (y) = 0.43907 0.59379
# Poissons Ratio (z) = -0.59101 2.02605
#
# Static dielectric constant tensor:
#      x y z
#    x 1.781390 0.000000 0.041340 
#    y 0.000000 1.790780 0.000000 
#    z 0.041340 0.000000 1.824080 
# 
# From -- ./inp_files/80983.got.cif
#   From: 2010.05.17/outbox.ucp.g08.bks.cvg/sg14_41_cif.got.tgz:80983.got - 2010.06.11 12:31:08.
