data_PCOD9253218
_publ_section_title
;
Structure prediction by ZEFSAII (Michael W. Deem and Ramdas Pophale) SiO2 
 PCOD9253218
Probable space group: P 21/C
;
_chemical_formula_sum "Si O2"
_cell_formula_units_Z 16
_cell_length_a 18.597597
_cell_length_b 4.743218
_cell_length_c 12.641132
_cell_angle_alpha 90.000000
_cell_angle_beta 148.110225
_cell_angle_gamma 90.000000
_cell_volume 589.095438
_symmetry_space_group_name_H-M "P 21/C"
_symmetry_group_IT_number 14
_symmetry_cell_setting 'monoclinic'
loop_
_space_group_symop_operation_xyz
x,y,z
-x,1/2+y,1/2-z
-x,-y,-z
x,1/2-y,1/2+z
loop_
_atom_site_type_symbol
_atom_site_label
_atom_site_fract_x
_atom_site_fract_y
_atom_site_fract_z
Si Si1 0.940610 0.381022 0.317562
Si Si2 0.687934 0.380117 0.521518
Si Si3 0.398646 0.155730 0.451016
Si Si4 0.213175 0.278054 0.533194
O O1 0.854928 0.101658 0.243940
O O2 0.827990 0.548079 0.105801
O O3 0.000000 0.500000 0.500000
O O4 0.068820 0.372525 0.399762
O O5 0.578157 0.594301 0.436567
O O6 0.693343 0.483349 0.406355
O O7 0.659487 0.093716 0.548848
O O8 0.500000 0.000000 0.500000
O O9 0.294429 0.310356 0.239360
#
# Coordination Sequence:
#
# PCOD9253218 Si02
#       4
#     4   4   4   4
#     4  12  25  45  77 122 162 197 256 326 409 495
#     4  12  26  49  74 114 151 202 261 325 394 468
#     4  12  30  51  76 107 153 212 275 323 376 471
#     4  12  26  44  81 111 162 202 253 323 416 460
#
# _framework density 27.160285999999999
#
# number of rings (size 3 to 8) (size 9 to 14) (size 15 to 20)
#    0.000    0.000    7.500    0.750    7.000    4.000 
#    0.000    0.000    0.000    0.000    0.000    0.000 
#    0.000    0.000    0.000    0.000    0.000    0.000 
#
# Total GULP energy -89187.464862 kJ/mol
# GULP energy per Si atom -5574.216554 kJ/mol
# Density = 2.709847 g / cm^3
# Si number density = 27.160286 Si / 1000 Ang^3
#
#
#
# Elastic Constant Matrix: (Units=GPa)
#
#
# Indices 1 2 3 4 5 6 
#
# 1 248.4835 25.8663 18.2368 0.0000 -8.6952 0.0000
# 2 25.8663 57.9537 2.5324 0.0000 -16.2509 0.0000
# 3 18.2368 2.5324 95.6527 0.0000 -24.5009 0.0000
# 4 0.0000 0.0000 0.0000 36.7654 0.0000 6.0274
# 5 -8.6952 -16.2509 -24.5009 0.0000 30.0547 0.0000
# 6 0.0000 0.0000 0.0000 6.0274 0.0000 52.7725
#
#
#
# Elastic Compliance Matrix: (Units=1/GPa)
#
#
# Indices 1 2 3 4 5 6 
#
# 1 0.004283 -0.002044 -0.000920 0.000000 -0.000617 0.000000
# 2 -0.002044 0.021962 0.003411 0.000000 0.014064 0.000000
# 3 -0.000920 0.003411 0.013832 0.000000 0.012854 0.000000
# 4 0.000000 0.000000 0.000000 0.027719 0.000000 -0.003166
# 5 -0.000617 0.014064 0.012854 0.000000 0.051178 0.000000
# 6 0.000000 0.000000 0.000000 -0.003166 0.000000 0.019311
#
#
# Mechanical properties :
#
#
# Convention : Reuss Voigt Hill
#
# Bulk Modulus (GPa) = 24.40822 55.04009 39.72415
# Shear Modulus (GPa) = 33.10171 47.61546 40.35859
#
# Velocity S-wave (km/s) = 3.49485 4.19158 3.85897
# Velocity P-wave (km/s) = 5.02907 6.61322 5.87479
#
# Compressibility (1/GPa) = 0.04096980
#
# Stress axis : x y z
#
# Youngs Moduli (GPa) = 233.47018 45.53237 72.29522
#
# Poissons Ratio (x) = 0.09309 0.06654
# Poissons Ratio (y) = 0.47730 -0.24659
# Poissons Ratio (z) = 0.21489 -0.15530
#
# Static dielectric constant tensor:
#      x y z
#    x 2.139420 0.000000 0.018040 
#    y 0.000000 2.342530 0.000000 
#    z 0.018040 0.000000 2.234150 
# 
# From -- ./inp_files/33298.got.cif
#   From: 2010.05.17/outbox.cif.g08.bks.cpg/sg14_17_cif.got.tgz:33298.got - 2010.06.03 17:49:19.
