data_PCOD9253222
_publ_section_title
;
Structure prediction by ZEFSAII (Michael W. Deem and Ramdas Pophale) SiO2 
 PCOD9253222
Probable space group: P 21/C
;
_chemical_formula_sum "Si O2"
_cell_formula_units_Z 16
_cell_length_a 7.361138
_cell_length_b 18.918396
_cell_length_c 8.020096
_cell_angle_alpha 90.000000
_cell_angle_beta 144.908199
_cell_angle_gamma 90.000000
_cell_volume 642.084535
_symmetry_space_group_name_H-M "P 21/C"
_symmetry_group_IT_number 14
_symmetry_cell_setting 'monoclinic'
loop_
_space_group_symop_operation_xyz
x,y,z
-x,1/2+y,1/2-z
-x,-y,-z
x,1/2-y,1/2+z
loop_
_atom_site_type_symbol
_atom_site_label
_atom_site_fract_x
_atom_site_fract_y
_atom_site_fract_z
Si Si1 0.176245 0.815791 0.797219
Si Si2 0.518483 0.180160 0.637409
Si Si3 0.403772 0.945121 0.783569
Si Si4 0.915793 0.445436 0.289547
O O1 0.282640 0.746877 0.777623
O O2 0.177844 0.883832 0.680595
O O3 0.853891 0.808752 0.659465
O O4 0.439173 0.828982 0.133980
O O5 0.662652 0.111792 0.657894
O O6 0.234902 0.977642 0.493052
O O7 0.742915 0.911295 0.991069
O O8 0.500000 0.000000 0.000000
O O9 0.000000 0.500000 0.500000
#
# Coordination Sequence:
#
# PCOD9253222 Si02
#       4
#     4   4   4   4
#     4  12  25  46  73 105 141 187 239 295 355 424
#     4  12  25  46  73 105 141 187 239 295 355 424
#     4  12  26  46  71 105 145 191 238 293 356 426
#     4  12  26  46  71 105 145 191 238 293 356 426
#
# _framework density 24.918835999999999
#
# number of rings (size 3 to 8) (size 9 to 14) (size 15 to 20)
#    0.000    0.000    0.000   10.500    0.000    4.000 
#    0.000    0.000    0.000    0.000    0.000    0.000 
#    0.000    0.000    0.000    0.000    0.000    0.000 
#
# Total GULP energy -89709.666635 kJ/mol
# GULP energy per Si atom -5606.854165 kJ/mol
# Density = 2.486212 g / cm^3
# Si number density = 24.918836 Si / 1000 Ang^3
#
#
#
# Elastic Constant Matrix: (Units=GPa)
#
#
# Indices 1 2 3 4 5 6 
#
# 1 123.4423 79.2584 43.1297 0.0000 14.2476 0.0000
# 2 79.2584 149.0987 38.8813 0.0000 -0.0028 0.0000
# 3 43.1297 38.8813 155.7587 0.0000 -20.1706 0.0000
# 4 0.0000 0.0000 0.0000 26.9654 0.0000 -5.9700
# 5 14.2476 -0.0028 -20.1706 0.0000 73.4161 0.0000
# 6 0.0000 0.0000 0.0000 -5.9700 0.0000 24.5346
#
#
#
# Elastic Compliance Matrix: (Units=1/GPa)
#
#
# Indices 1 2 3 4 5 6 
#
# 1 0.013591 -0.006557 -0.002559 0.000000 -0.003341 0.000000
# 2 -0.006557 0.010356 -0.000627 0.000000 0.001101 0.000000
# 3 -0.002559 -0.000627 0.007621 0.000000 0.002590 0.000000
# 4 0.000000 0.000000 0.000000 0.039196 0.000000 0.009538
# 5 -0.003341 0.001101 0.002590 0.000000 0.014981 0.000000
# 6 0.000000 0.000000 0.000000 0.009538 0.000000 0.043080
#
#
# Mechanical properties :
#
#
# Convention : Reuss Voigt Hill
#
# Bulk Modulus (GPa) = 82.77350 83.42651 83.10001
# Shear Modulus (GPa) = 32.82154 42.78522 37.80338
#
# Velocity S-wave (km/s) = 3.63318 4.14814 3.89917
# Velocity P-wave (km/s) = 7.13367 7.51630 7.32749
#
# Compressibility (1/GPa) = 0.01208116
#
# Stress axis : x y z
#
# Youngs Moduli (GPa) = 73.57787 96.55940 131.22094
#
# Poissons Ratio (x) = 0.63319 0.33581
# Poissons Ratio (y) = 0.48249 0.08226
# Poissons Ratio (z) = 0.18829 0.06053
#
# Static dielectric constant tensor:
#      x y z
#    x 2.041220 0.000000 -0.017170 
#    y 0.000000 4.239030 0.000000 
#    z -0.017170 0.000000 1.928160 
# 
# From -- ./inp_files/9592.got.cif
#   From: 2010.05.17/outbox.cif.g08.bks.cpg/sg14_5_cif.got.tgz:9592.got - 2010.06.03 17:49:19.
