data_PCOD9253756
_publ_section_title
;
Structure prediction by ZEFSAII (Michael W. Deem and Ramdas Pophale) SiO2 
 PCOD9253756
Probable space group: P 21/C
;
_chemical_formula_sum "Si O2"
_cell_formula_units_Z 28
_cell_length_a 9.000000
_cell_length_b 21.000000
_cell_length_c 9.000000
_cell_angle_alpha 90.000000
_cell_angle_beta 50.000000
_cell_angle_gamma 90.000000
_cell_volume 1303.041598
_symmetry_space_group_name_H-M "P 21/C"
_symmetry_group_IT_number 14
_symmetry_cell_setting 'monoclinic'
loop_
_space_group_symop_operation_xyz
x,y,z
-x,1/2+y,1/2-z
-x,-y,-z
x,1/2-y,1/2+z
loop_
_atom_site_type_symbol
_atom_site_label
_atom_site_fract_x
_atom_site_fract_y
_atom_site_fract_z
Si Si1 0.940206 0.059898 0.323403
Si Si2 0.058381 0.824230 0.900378
Si Si3 0.671889 0.127996 0.746434
Si Si4 0.348746 0.049883 0.519425
Si Si5 0.611043 0.559791 0.358901
Si Si6 0.621333 0.819675 0.308723
Si Si7 0.739835 0.272482 0.427646
O O1 0.923401 0.104132 0.184047
O O2 0.810559 0.084022 0.551325
O O3 0.165918 0.061232 0.228306
O O4 0.855647 0.989211 0.342012
O O5 0.119666 0.785695 0.711473
O O6 0.199775 0.803940 0.950610
O O7 0.839332 0.809642 0.102072
O O8 0.515520 0.153124 0.731398
O O9 0.793251 0.180566 0.755922
O O10 0.530428 0.111042 0.976851
O O11 0.394587 0.058333 0.315397
O O12 0.357693 0.120368 0.588737
O O13 0.500000 0.000000 0.500000
O O14 0.500000 0.500000 0.500000
O O15 0.482069 0.758207 0.442747
#
# Coordination Sequence:
#
# PCOD9253756 Si02
#       7
#     4   4   4   4   4   4   4
#     4  12  26  50  75 111 154 197 254 316 378 459
#     4  12  27  48  77 108 148 200 255 307 388 446
#     4  12  26  48  76 107 154 196 257 309 378 448
#     4  12  26  49  76 110 156 194 253 306 382 456
#     4  12  27  48  78 111 154 204 246 313 380 449
#     4  12  27  50  72 113 149 198 251 314 374 461
#     4  12  28  49  74 106 153 199 256 314 377 448
#
# _framework density 21.488185999999999
#
# number of rings (size 3 to 8) (size 9 to 14) (size 15 to 20)
#    0.000    0.000    7.143    0.429    8.000    1.714 
#    0.000    0.000    0.000    0.000    0.000    0.000 
#    0.000    0.000    0.000    0.000    0.000    0.000 
#
# Total GULP energy -156083.556459 kJ/mol
# GULP energy per Si atom -5574.412731 kJ/mol
# Density = 2.143928 g / cm^3
# Si number density = 21.488186 Si / 1000 Ang^3
#
#
#
# Elastic Constant Matrix: (Units=GPa)
#
#
# Indices 1 2 3 4 5 6 
#
# 1 99.5872 30.4947 42.4512 0.0000 8.9032 0.0000
# 2 30.4947 76.5186 31.0294 0.0000 14.3076 0.0000
# 3 42.4512 31.0294 131.0896 0.0000 3.1167 0.0000
# 4 0.0000 0.0000 0.0000 42.5444 0.0000 9.8303
# 5 8.9032 14.3076 3.1167 0.0000 59.6678 0.0000
# 6 0.0000 0.0000 0.0000 9.8303 0.0000 36.6939
#
#
#
# Elastic Compliance Matrix: (Units=1/GPa)
#
#
# Indices 1 2 3 4 5 6 
#
# 1 0.012574 -0.003548 -0.003211 0.000000 -0.000858 0.000000
# 2 -0.003548 0.016134 -0.002594 0.000000 -0.003204 0.000000
# 3 -0.003211 -0.002594 0.009268 0.000000 0.000617 0.000000
# 4 0.000000 0.000000 0.000000 0.025056 0.000000 -0.006712
# 5 -0.000858 -0.003204 0.000617 0.000000 0.017623 0.000000
# 6 0.000000 0.000000 0.000000 -0.006712 0.000000 0.029051
#
#
# Mechanical properties :
#
#
# Convention : Reuss Voigt Hill
#
# Bulk Modulus (GPa) = 51.89954 57.23844 54.56899
# Shear Modulus (GPa) = 37.08255 41.32923 39.20589
#
# Velocity S-wave (km/s) = 4.15868 4.39036 4.27609
# Velocity P-wave (km/s) = 6.87492 7.23846 7.05903
#
# Compressibility (1/GPa) = 0.01926800
#
# Stress axis : x y z
#
# Youngs Moduli (GPa) = 79.53171 61.98249 107.90267
#
# Poissons Ratio (x) = 0.21993 0.34653
# Poissons Ratio (y) = 0.28220 0.27986
# Poissons Ratio (z) = 0.25541 0.16076
#
# Static dielectric constant tensor:
#      x y z
#    x 1.771900 0.000000 -0.018010 
#    y 0.000000 1.828620 0.000000 
#    z -0.018010 0.000000 1.798410 
# 
# From -- ./inp_files/10361.got.cif
#   From: 2010.05.17/outbox.ucp.g08.bks.cvg/sg14_6_cif.got.tgz:10361.got - 2010.06.11 12:31:08.
