data_PCOD9253031
_publ_section_title
;
Structure prediction by ZEFSAII (Michael W. Deem and Ramdas Pophale) SiO2 
 PCOD9253031
Probable space group: P 21/C
;
_chemical_formula_sum "Si O2"
_cell_formula_units_Z 28
_cell_length_a 23.938288
_cell_length_b 4.979323
_cell_length_c 13.932365
_cell_angle_alpha 90.000000
_cell_angle_beta 130.855492
_cell_angle_gamma 90.000000
_cell_volume 1256.081578
_symmetry_space_group_name_H-M "P 21/C"
_symmetry_group_IT_number 14
_symmetry_cell_setting 'monoclinic'
loop_
_space_group_symop_operation_xyz
x,y,z
-x,1/2+y,1/2-z
-x,-y,-z
x,1/2-y,1/2+z
loop_
_atom_site_type_symbol
_atom_site_label
_atom_site_fract_x
_atom_site_fract_y
_atom_site_fract_z
Si Si1 0.918093 0.103421 0.879165
Si Si2 0.302899 0.914705 0.710069
Si Si3 0.855828 0.887648 0.409676
Si Si4 0.948995 0.521338 0.201376
Si Si5 0.602986 0.087443 0.992343
Si Si6 0.654613 0.927525 0.858507
Si Si7 0.492657 0.074741 0.603502
O O1 0.862361 0.903706 0.870246
O O2 0.901740 0.403170 0.895753
O O3 0.911783 0.072399 0.758006
O O4 0.000000 0.000000 0.000000
O O5 0.226733 0.010936 0.670020
O O6 0.296587 0.630937 0.649595
O O7 0.361573 0.899247 0.862557
O O8 0.329666 0.131476 0.661831
O O9 0.893383 0.888533 0.556410
O O10 0.002966 0.771010 0.282259
O O11 0.570924 0.377467 0.928673
O O12 0.660749 0.979843 0.978527
O O13 0.570006 0.009649 0.739534
O O14 0.535108 0.877717 0.918097
O O15 0.500000 0.000000 0.500000
#
# Coordination Sequence:
#
# PCOD9253031 Si02
#       7
#     4   4   4   4   4   4   4
#     4  12  23  42  70  95 126 163 206 266 320 367
#     4  12  26  44  63  92 134 174 206 259 316 390
#     4  12  26  43  65  98 130 165 214 257 316 386
#     4  12  23  40  68  96 124 160 204 260 318 369
#     4  12  24  42  66  95 129 167 218 264 318 371
#     4  12  25  42  67  93 130 170 216 262 318 372
#     4  12  21  41  69  94 125 168 215 275 314 357
#
# _framework density 22.291544999999999
#
# number of rings (size 3 to 8) (size 9 to 14) (size 15 to 20)
#    0.000    0.000    5.714    5.143    0.000    2.286 
#    0.000    0.000    0.000    0.000    0.000    0.000 
#    0.000    0.000    0.000    0.000    0.000    0.000 
#
# Total GULP energy -156928.637411 kJ/mol
# GULP energy per Si atom -5604.594193 kJ/mol
# Density = 2.224081 g / cm^3
# Si number density = 22.291545 Si / 1000 Ang^3
#
#
#
# Elastic Constant Matrix: (Units=GPa)
#
#
# Indices 1 2 3 4 5 6 
#
# 1 62.0497 -11.8005 11.0123 0.0000 -3.3363 0.0000
# 2 -11.8005 61.7036 -0.8992 0.0000 -2.9146 0.0000
# 3 11.0123 -0.8992 46.0817 0.0000 -27.5531 0.0000
# 4 0.0000 0.0000 0.0000 22.0449 0.0000 -5.3275
# 5 -3.3363 -2.9146 -27.5531 0.0000 39.0221 0.0000
# 6 0.0000 0.0000 0.0000 -5.3275 0.0000 37.5986
#
#
#
# Elastic Compliance Matrix: (Units=1/GPa)
#
#
# Indices 1 2 3 4 5 6 
#
# 1 0.017562 0.003184 -0.005356 0.000000 -0.002042 0.000000
# 2 0.003184 0.016929 0.000845 0.000000 0.002133 0.000000
# 3 -0.005356 0.000845 0.039391 0.000000 0.027419 0.000000
# 4 0.000000 0.000000 0.000000 0.046970 0.000000 0.006655
# 5 -0.002042 0.002133 0.027419 0.000000 0.044971 0.000000
# 6 0.000000 0.000000 0.000000 0.006655 0.000000 0.027540
#
#
# Mechanical properties :
#
#
# Convention : Reuss Voigt Hill
#
# Bulk Modulus (GPa) = 14.03935 18.49558 16.26747
# Shear Modulus (GPa) = 22.75204 31.16796 26.96000
#
# Velocity S-wave (km/s) = 3.19824 3.74330 3.48145
# Velocity P-wave (km/s) = 4.46655 5.19598 4.84501
#
# Compressibility (1/GPa) = 0.07122837
#
# Stress axis : x y z
#
# Youngs Moduli (GPa) = 56.93976 59.07184 25.38631
#
# Poissons Ratio (x) = -0.18810 0.13597
# Poissons Ratio (y) = -0.18131 -0.02145
# Poissons Ratio (z) = 0.30497 -0.04991
#
# Static dielectric constant tensor:
#      x y z
#    x 1.829870 0.000000 -0.011680 
#    y 0.000000 1.783510 0.000000 
#    z -0.011680 0.000000 1.801030 
# 
# From -- ./inp_files/34769.got.cif
#   From: 2010.05.17/outbox.cif.g08.bks.cpg/sg14_18_cif.got.tgz:34769.got - 2010.06.03 17:49:19.
