data_PCOD9253381
_publ_section_title
;
Structure prediction by ZEFSAII (Michael W. Deem and Ramdas Pophale) SiO2 
 PCOD9253381
Probable space group: P 21/C
;
_chemical_formula_sum "Si O2"
_cell_formula_units_Z 16
_cell_length_a 23.825524
_cell_length_b 5.020018
_cell_length_c 13.935409
_cell_angle_alpha 90.000000
_cell_angle_beta 22.070634
_cell_angle_gamma 90.000000
_cell_volume 626.275868
_symmetry_space_group_name_H-M "P 21/C"
_symmetry_group_IT_number 14
_symmetry_cell_setting 'monoclinic'
loop_
_space_group_symop_operation_xyz
x,y,z
-x,1/2+y,1/2-z
-x,-y,-z
x,1/2-y,1/2+z
loop_
_atom_site_type_symbol
_atom_site_label
_atom_site_fract_x
_atom_site_fract_y
_atom_site_fract_z
Si Si1 0.100453 0.188818 0.604562
Si Si2 0.836450 0.600134 0.286543
Si Si3 0.592244 0.047360 0.951264
Si Si4 0.343854 0.905634 0.497659
O O1 0.159247 0.314320 0.609966
O O2 0.004283 0.429179 0.710721
O O3 0.244229 0.076511 0.321478
O O4 0.733335 0.352388 0.425626
O O5 0.771153 0.855977 0.336076
O O6 0.000000 0.500000 0.000000
O O7 0.620385 0.347176 0.947151
O O8 0.500000 0.000000 0.000000
O O9 0.489904 0.943890 0.200784
#
# Coordination Sequence:
#
# PCOD9253381 Si02
#       4
#     4   4   4   4
#     4  12  29  53  82 124 166 220 278 349 426 506
#     4  12  27  53  83 122 173 216 284 351 424 505
#     4  12  29  56  87 122 176 220 288 350 426 510
#     4  12  28  53  84 125 161 231 282 352 422 504
#
# _framework density 25.547844999999999
#
# number of rings (size 3 to 8) (size 9 to 14) (size 15 to 20)
#    0.000    0.000    2.500    5.250    0.000   13.000 
#    0.000    0.000    0.000    0.000    0.000    0.000 
#    0.000    0.000    0.000    0.000    0.000    0.000 
#
# Total GULP energy -89780.560992 kJ/mol
# GULP energy per Si atom -5611.285062 kJ/mol
# Density = 2.548970 g / cm^3
# Si number density = 25.547845 Si / 1000 Ang^3
#
#
#
# Elastic Constant Matrix: (Units=GPa)
#
#
# Indices 1 2 3 4 5 6 
#
# 1 127.9644 37.7609 58.6635 0.0000 -1.8511 0.0000
# 2 37.7609 183.0520 82.3144 0.0000 -16.5844 0.0000
# 3 58.6635 82.3144 195.9488 0.0000 -8.7204 0.0000
# 4 0.0000 0.0000 0.0000 59.6961 0.0000 -7.9140
# 5 -1.8511 -16.5844 -8.7204 0.0000 45.5273 0.0000
# 6 0.0000 0.0000 0.0000 -7.9140 0.0000 55.0974
#
#
#
# Elastic Compliance Matrix: (Units=1/GPa)
#
#
# Indices 1 2 3 4 5 6 
#
# 1 0.009161 -0.000844 -0.002406 0.000000 -0.000396 0.000000
# 2 -0.000844 0.006985 -0.002592 0.000000 0.002014 0.000000
# 3 -0.002406 -0.002592 0.006925 0.000000 0.000284 0.000000
# 4 0.000000 0.000000 0.000000 0.017077 0.000000 0.002453
# 5 -0.000396 0.002014 0.000284 0.000000 0.022737 0.000000
# 6 0.000000 0.000000 0.000000 0.002453 0.000000 0.018502
#
#
# Mechanical properties :
#
#
# Convention : Reuss Voigt Hill
#
# Bulk Modulus (GPa) = 87.81297 96.04919 91.93108
# Shear Modulus (GPa) = 51.61797 53.94591 52.78194
#
# Velocity S-wave (km/s) = 4.49981 4.60016 4.55026
# Velocity P-wave (km/s) = 7.83864 8.11743 7.97926
#
# Compressibility (1/GPa) = 0.01138784
#
# Stress axis : x y z
#
# Youngs Moduli (GPa) = 109.16056 143.16373 144.40154
#
# Poissons Ratio (x) = 0.12080 0.34739
# Poissons Ratio (y) = 0.09211 0.37429
# Poissons Ratio (z) = 0.26261 0.37109
#
# Static dielectric constant tensor:
#      x y z
#    x 2.037810 0.000000 -0.004160 
#    y 0.000000 2.142290 0.000000 
#    z -0.004160 0.000000 2.017010 
# 
# From -- ./inp_files/50940.got.cif
#   From: 2010.05.17/outbox.cif.g08.bks.cpg/sg14_26_cif.got.tgz:50940.got - 2010.06.03 17:49:19.
