data_PCOD9253498
_publ_section_title
;
Structure prediction by ZEFSAII (Michael W. Deem and Ramdas Pophale) SiO2 
 PCOD9253498
Probable space group: P 21/C
;
_chemical_formula_sum "Si O2"
_cell_formula_units_Z 32
_cell_length_a 9.000000
_cell_length_b 12.000000
_cell_length_c 24.000000
_cell_angle_alpha 90.000000
_cell_angle_beta 40.000000
_cell_angle_gamma 90.000000
_cell_volume 1666.105484
_symmetry_space_group_name_H-M "P 21/C"
_symmetry_group_IT_number 14
_symmetry_cell_setting 'monoclinic'
loop_
_space_group_symop_operation_xyz
x,y,z
-x,1/2+y,1/2-z
-x,-y,-z
x,1/2-y,1/2+z
loop_
_atom_site_type_symbol
_atom_site_label
_atom_site_fract_x
_atom_site_fract_y
_atom_site_fract_z
Si Si1 0.274195 0.414344 0.769955
Si Si2 0.165101 0.674611 0.802830
Si Si3 0.304892 0.239134 0.856700
Si Si4 0.810856 0.016749 0.129461
Si Si5 0.847109 0.794053 0.979542
Si Si6 0.108660 0.551939 0.637820
Si Si7 0.447869 0.352322 0.544082
Si Si8 0.135820 0.260692 0.214835
O O1 0.170706 0.539612 0.797201
O O2 0.226129 0.339442 0.839062
O O3 0.555154 0.435643 0.689115
O O4 0.171326 0.338710 0.749427
O O5 0.425002 0.718416 0.732263
O O6 0.024074 0.712635 0.897471
O O7 0.047395 0.734099 0.783302
O O8 0.195972 0.116600 0.877061
O O9 0.261014 0.259313 0.934484
O O10 0.006362 0.095109 0.045650
O O11 0.909234 0.020093 0.164590
O O12 0.655709 0.824415 0.987674
O O13 0.298090 0.461948 0.606754
O O14 0.282442 0.618287 0.544659
O O15 0.965656 0.634954 0.719314
O O16 0.375323 0.255351 0.609006
#
# Coordination Sequence:
#
# PCOD9253498 Si02
#       8
#     4   4   4   4   4   4   4   4
#     4  11  23  40  63  96 126 164 216 253 320 386
#     4  10  23  41  61  89 129 165 210 256 311 384
#     4  11  21  39  63  92 124 165 204 263 313 372
#     4  10  21  38  62  95 125 156 212 265 310 374
#     4  10  20  37  63  89 126 167 206 255 317 364
#     4  10  19  38  61  91 124 161 206 264 320 356
#     4   9  21  36  61  94 121 161 217 256 307 383
#     4  11  21  39  64  89 124 168 205 263 316 370
#
# _framework density 19.206467
#
# number of rings (size 3 to 8) (size 9 to 14) (size 15 to 20)
#    0.000    1.750    2.500    1.875    0.000    6.500 
#    0.000    0.000    2.750    3.000    0.000    0.000 
#    0.000    0.000    0.000    0.000    0.000    0.000 
#
# Total GULP energy -178146.312280 kJ/mol
# GULP energy per Si atom -5567.072259 kJ/mol
# Density = 1.916275 g / cm^3
# Si number density = 19.206467 Si / 1000 Ang^3
#
#
#
# Elastic Constant Matrix: (Units=GPa)
#
#
# Indices 1 2 3 4 5 6 
#
# 1 69.2962 54.6921 29.6559 0.0000 5.7690 0.0000
# 2 54.6921 79.4099 38.7493 0.0000 7.0014 0.0000
# 3 29.6559 38.7493 83.7623 0.0000 17.1595 0.0000
# 4 0.0000 0.0000 0.0000 38.3413 0.0000 0.9544
# 5 5.7690 7.0014 17.1595 0.0000 30.6123 0.0000
# 6 0.0000 0.0000 0.0000 0.9544 0.0000 31.7556
#
#
#
# Elastic Compliance Matrix: (Units=1/GPa)
#
#
# Indices 1 2 3 4 5 6 
#
# 1 0.031758 -0.021169 -0.001374 0.000000 -0.000373 0.000000
# 2 -0.021169 0.030384 -0.006727 0.000000 0.000811 0.000000
# 3 -0.001374 -0.006727 0.017137 0.000000 -0.007808 0.000000
# 4 0.000000 0.000000 0.000000 0.026101 0.000000 -0.000784
# 5 -0.000373 0.000811 -0.007808 0.000000 0.036928 0.000000
# 6 0.000000 0.000000 0.000000 -0.000784 0.000000 0.031514
#
#
# Mechanical properties :
#
#
# Convention : Reuss Voigt Hill
#
# Bulk Modulus (GPa) = 48.22255 53.18478 50.70366
# Shear Modulus (GPa) = 20.89647 27.43325 24.16486
#
# Velocity S-wave (km/s) = 3.30205 3.78343 3.55091
# Velocity P-wave (km/s) = 6.30079 6.84376 6.57788
#
# Compressibility (1/GPa) = 0.02073719
#
# Stress axis : x y z
#
# Youngs Moduli (GPa) = 31.48851 32.91236 58.35395
#
# Poissons Ratio (x) = 0.69672 0.08020
# Poissons Ratio (y) = 0.66658 0.39256
# Poissons Ratio (z) = 0.04328 0.22141
#
# Static dielectric constant tensor:
#      x y z
#    x 1.709310 0.000000 0.030830 
#    y 0.000000 1.702600 0.000000 
#    z 0.030830 0.000000 1.681250 
# 
# From -- ./inp_files/49042.got.cif
#   From: 2010.05.17/outbox.ucp.g08.bks.cvg/sg14_25_cif.got.tgz:49042.got - 2010.06.11 12:31:08.
