data_PCOD9253670
_publ_section_title
;
Structure prediction by ZEFSAII (Michael W. Deem and Ramdas Pophale) SiO2 
 PCOD9253670
Probable space group: P 21/C
;
_chemical_formula_sum "Si O2"
_cell_formula_units_Z 28
_cell_length_a 15.000000
_cell_length_b 9.000000
_cell_length_c 21.000000
_cell_angle_alpha 90.000000
_cell_angle_beta 150.000000
_cell_angle_gamma 90.000000
_cell_volume 1417.500000
_symmetry_space_group_name_H-M "P 21/C"
_symmetry_group_IT_number 14
_symmetry_cell_setting 'monoclinic'
loop_
_space_group_symop_operation_xyz
x,y,z
-x,1/2+y,1/2-z
-x,-y,-z
x,1/2-y,1/2+z
loop_
_atom_site_type_symbol
_atom_site_label
_atom_site_fract_x
_atom_site_fract_y
_atom_site_fract_z
Si Si1 0.042611 0.866181 0.575455
Si Si2 0.220838 0.569396 0.857144
Si Si3 0.633935 0.898636 0.042201
Si Si4 0.560499 0.379923 0.714866
Si Si5 0.626468 0.641914 0.142228
Si Si6 0.050332 0.608694 0.231742
Si Si7 0.341278 0.272861 0.195279
O O1 0.241228 0.814200 0.677688
O O2 0.053312 0.911655 0.656816
O O3 0.864152 0.768020 0.456556
O O4 0.000000 0.000000 0.500000
O O5 0.255969 0.497907 0.809011
O O6 0.106898 0.721283 0.781017
O O7 0.131590 0.449902 0.849476
O O8 0.417065 0.606271 0.005136
O O9 0.665259 0.762499 0.110292
O O10 0.807712 0.000778 0.146318
O O11 0.552651 0.866145 0.921625
O O12 0.500000 0.000000 0.000000
O O13 0.593915 0.555548 0.752395
O O14 0.463926 0.302320 0.715825
O O15 0.655577 0.697019 0.232410
#
# Coordination Sequence:
#
# PCOD9253670 Si02
#       7
#     4   4   4   4   4   4   4
#     4  10  23  43  66  95 134 181 219 273 344 415
#     4  11  26  41  72  99 134 175 230 289 339 403
#     4  12  20  45  73  93 135 178 232 284 336 405
#     4  11  24  43  69  98 137 181 226 282 345 411
#     4  11  24  47  68 100 137 179 228 287 342 409
#     4  12  24  43  68 104 132 176 234 284 345 404
#     4  11  25  43  67 103 137 180 222 279 353 415
#
# _framework density 19.753086
#
# number of rings (size 3 to 8) (size 9 to 14) (size 15 to 20)
#    0.000    0.857    4.286    1.714    8.000    2.286 
#    2.571    1.429    0.000    0.000    0.000    0.000 
#    0.000    0.000    0.000    0.000    0.000    0.000 
#
# Total GULP energy -156344.647288 kJ/mol
# GULP energy per Si atom -5583.737403 kJ/mol
# Density = 1.970813 g / cm^3
# Si number density = 19.753086 Si / 1000 Ang^3
#
#
#
# Elastic Constant Matrix: (Units=GPa)
#
#
# Indices 1 2 3 4 5 6 
#
# 1 166.6142 65.2288 59.8642 0.0000 -12.6745 0.0000
# 2 65.2288 93.6425 46.8044 0.0000 15.1295 0.0000
# 3 59.8642 46.8044 105.3226 0.0000 -20.5783 0.0000
# 4 0.0000 0.0000 0.0000 24.6799 0.0000 1.7270
# 5 -12.6745 15.1295 -20.5783 0.0000 32.9870 0.0000
# 6 0.0000 0.0000 0.0000 1.7270 0.0000 51.6420
#
#
#
# Elastic Compliance Matrix: (Units=1/GPa)
#
#
# Indices 1 2 3 4 5 6 
#
# 1 0.009716 -0.007300 -0.001019 0.000000 0.006446 0.000000
# 2 -0.007300 0.024532 -0.010818 0.000000 -0.020805 0.000000
# 3 -0.001019 -0.010818 0.017963 0.000000 0.015776 0.000000
# 4 0.000000 0.000000 0.000000 0.040614 0.000000 -0.001358
# 5 0.006446 -0.020805 0.015776 0.000000 0.052176 0.000000
# 6 0.000000 0.000000 0.000000 -0.001358 0.000000 0.019409
#
#
# Mechanical properties :
#
#
# Convention : Reuss Voigt Hill
#
# Bulk Modulus (GPa) = 71.74415 78.81936 75.28176
# Shear Modulus (GPa) = 24.11602 34.77390 29.44496
#
# Velocity S-wave (km/s) = 3.49789 4.20030 3.86508
# Velocity P-wave (km/s) = 7.26037 7.96946 7.62316
#
# Compressibility (1/GPa) = 0.01393842
#
# Stress axis : x y z
#
# Youngs Moduli (GPa) = 102.91856 40.76259 55.66846
#
# Poissons Ratio (x) = 0.29758 0.05673
# Poissons Ratio (y) = 0.75133 0.60219
# Poissons Ratio (z) = 0.10489 0.44095
#
# Static dielectric constant tensor:
#      x y z
#    x 1.698200 0.000000 0.059230 
#    y 0.000000 1.763720 0.000000 
#    z 0.059230 0.000000 1.723700 
# 
# From -- ./inp_files/46690.got.cif
#   From: 2010.05.17/outbox.ucp.g08.bks.cvg/sg14_24_cif.got.tgz:46690.got - 2010.06.11 12:31:08.
