data_PCOD9253234
_publ_section_title
;
Structure prediction by ZEFSAII (Michael W. Deem and Ramdas Pophale) SiO2 
 PCOD9253234
Probable space group: P 21/C
;
_chemical_formula_sum "Si O2"
_cell_formula_units_Z 16
_cell_length_a 17.606181
_cell_length_b 4.743950
_cell_length_c 8.116370
_cell_angle_alpha 90.000000
_cell_angle_beta 117.451355
_cell_angle_gamma 90.000000
_cell_volume 601.572219
_symmetry_space_group_name_H-M "P 21/C"
_symmetry_group_IT_number 14
_symmetry_cell_setting 'monoclinic'
loop_
_space_group_symop_operation_xyz
x,y,z
-x,1/2+y,1/2-z
-x,-y,-z
x,1/2-y,1/2+z
loop_
_atom_site_type_symbol
_atom_site_label
_atom_site_fract_x
_atom_site_fract_y
_atom_site_fract_z
Si Si1 0.155308 0.860255 0.889759
Si Si2 0.588016 0.895967 0.670863
Si Si3 0.911984 0.604033 0.994832
Si Si4 0.655307 0.360255 0.920856
O O1 0.154690 0.001040 0.710587
O O2 0.096808 0.583779 0.849093
O O3 0.250000 0.750000 0.021290
O O4 0.113871 0.084691 0.974832
O O5 0.613871 0.584691 0.752911
O O6 0.500000 0.000000 0.500000
O O7 0.596808 0.083779 0.844524
O O8 0.654690 0.998960 0.598793
O O9 0.000000 0.500000 0.000000
#
# Coordination Sequence:
#
# PCOD9253234 Si02
#       4
#     4   4   4   4
#     4  12  26  45  71 106 146 191 246 309 372 440
#     4  12  25  47  74 106 145 195 248 305 371 450
#     4  12  25  47  74 106 145 195 248 305 371 450
#     4  12  26  45  71 106 146 191 246 309 372 440
#
# _framework density 26.596972000000001
#
# number of rings (size 3 to 8) (size 9 to 14) (size 15 to 20)
#    0.000    0.000    0.000   10.500    0.000    4.000 
#    0.000    2.500    0.000    0.000    0.000    0.000 
#    0.000    0.000    0.000    0.000    0.000    0.000 
#
# Total GULP energy -89616.906015 kJ/mol
# GULP energy per Si atom -5601.056626 kJ/mol
# Density = 2.653644 g / cm^3
# Si number density = 26.596972 Si / 1000 Ang^3
#
#
#
# Elastic Constant Matrix: (Units=GPa)
#
#
# Indices 1 2 3 4 5 6 
#
# 1 113.2797 42.2582 40.7258 0.0000 19.3359 0.0000
# 2 42.2582 163.5462 28.2363 0.0000 12.1434 0.0000
# 3 40.7258 28.2363 97.0514 0.0000 -5.2823 0.0000
# 4 0.0000 0.0000 0.0000 32.5350 0.0000 8.9447
# 5 19.3359 12.1434 -5.2823 0.0000 46.4332 0.0000
# 6 0.0000 0.0000 0.0000 8.9447 0.0000 42.8635
#
#
#
# Elastic Compliance Matrix: (Units=1/GPa)
#
#
# Indices 1 2 3 4 5 6 
#
# 1 0.012149 -0.001929 -0.004815 0.000000 -0.005102 0.000000
# 2 -0.001929 0.006917 -0.001265 0.000000 -0.001150 0.000000
# 3 -0.004815 -0.001265 0.012899 0.000000 0.003803 0.000000
# 4 0.000000 0.000000 0.000000 0.032607 0.000000 -0.006804
# 5 -0.005102 -0.001150 0.003803 0.000000 0.024394 0.000000
# 6 0.000000 0.000000 0.000000 -0.006804 0.000000 0.024750
#
#
# Mechanical properties :
#
#
# Convention : Reuss Voigt Hill
#
# Bulk Modulus (GPa) = 62.70770 66.25752 64.48261
# Shear Modulus (GPa) = 37.02321 41.87680 39.45001
#
# Velocity S-wave (km/s) = 3.73501 3.97230 3.85548
# Velocity P-wave (km/s) = 6.49835 6.78267 6.64203
#
# Compressibility (1/GPa) = 0.01594701
#
# Stress axis : x y z
#
# Youngs Moduli (GPa) = 82.30974 144.57623 77.52312
#
# Poissons Ratio (x) = 0.27890 0.37325
# Poissons Ratio (y) = 0.15878 0.09810
# Poissons Ratio (z) = 0.39629 0.18295
#
# Static dielectric constant tensor:
#      x y z
#    x 2.164760 0.000000 0.028140 
#    y 0.000000 2.058930 0.000000 
#    z 0.028140 0.000000 2.132270 
# 
# From -- ./inp_files/17118.got.cif
#   From: 2010.05.17/outbox.cif.g08.bks.cpg/sg14_9_cif.got.tgz:17118.got - 2010.06.03 17:49:19.
