data_PCOD9253905
_publ_section_title
;
Structure prediction by ZEFSAII (Michael W. Deem and Ramdas Pophale) SiO2 
 PCOD9253905
Probable space group: C 2/C
;
_chemical_formula_sum "Si O2"
_cell_formula_units_Z 48
_cell_length_a 18.700177
_cell_length_b 7.454063
_cell_length_c 14.738355
_cell_angle_alpha 90.000000
_cell_angle_beta 104.681484
_cell_angle_gamma 90.000000
_cell_volume 1987.335975
_symmetry_space_group_name_H-M "C 2/C"
_symmetry_group_IT_number 15
_symmetry_cell_setting 'monoclinic'
loop_
_space_group_symop_operation_xyz
x,y,z
-x,y,1/2-z
-x,-y,-z
x,-y,1/2+z
1/2+x,1/2+y,z
1/2-x,1/2+y,1/2-z
1/2-x,1/2-y,-z
1/2+x,1/2-y,1/2+z
loop_
_atom_site_type_symbol
_atom_site_label
_atom_site_fract_x
_atom_site_fract_y
_atom_site_fract_z
Si Si1 0.122141 0.751324 0.122019
Si Si2 0.341960 0.091442 0.995039
Si Si3 0.912311 0.541655 0.214797
Si Si4 0.517530 0.787647 0.017122
Si Si5 0.800873 0.072744 0.003201
Si Si6 0.061867 0.845389 0.829603
O O1 0.126727 0.668252 0.223416
O O2 0.141548 0.581516 0.063392
O O3 0.172484 0.905118 0.092920
O O4 0.036743 0.803919 0.073375
O O5 0.379258 0.076341 0.105659
O O6 0.395283 0.240219 0.967089
O O7 0.255231 0.080406 0.984832
O O8 0.906890 0.323568 0.219561
O O9 0.000000 0.577585 0.250000
O O10 0.485991 0.736200 0.103637
O O11 0.500000 0.000000 0.000000
O O12 0.869161 0.069591 0.095611
O O13 0.750000 0.250000 0.000000
O O14 0.000000 0.947351 0.750000
#
# Coordination Sequence:
#
# PCOD9253905 Si02
#       6
#     8   8   8   8   8   8
#     4   9  16  23  33  55  85 109 143 170 206 255
#     4  10  15  25  37  54  86 118 138 171 214 248
#     4  11  15  20  38  57  79 112 145 166 200 255
#     4   9  12  23  33  53  83 106 139 173 203 248
#     4   9  16  27  34  51  90 120 129 176 219 249
#     4  10  16  22  37  57  84 116 143 168 208 257
#
# _framework density 24.152937000000001
#
# number of rings (size 3 to 8) (size 9 to 14) (size 15 to 20)
#    0.000    2.333    8.333    3.000    0.000    0.000 
#    0.000    0.000    0.000    0.000    0.000    1.167 
#    0.000    5.333    6.333    0.000    0.000    9.000 
#
# Total GULP energy -133701.212232 kJ/mol
# GULP energy per Si atom -5570.883843 kJ/mol
# Density = 2.409796 g / cm^3
# Si number density = 24.152937 Si / 1000 Ang^3
#
#
#
# Elastic Constant Matrix: (Units=GPa)
#
#
# Indices 1 2 3 4 5 6 
#
# 1 168.4341 38.6635 43.7882 0.0000 3.7326 0.0000
# 2 38.6635 71.5241 4.4059 0.0000 -2.2034 0.0000
# 3 43.7882 4.4059 120.7020 0.0000 9.1457 0.0000
# 4 0.0000 0.0000 0.0000 2.2842 0.0000 -0.9628
# 5 3.7326 -2.2034 9.1457 0.0000 36.3654 0.0000
# 6 0.0000 0.0000 0.0000 -0.9628 0.0000 2.3410
#
#
#
# Elastic Compliance Matrix: (Units=1/GPa)
#
#
# Indices 1 2 3 4 5 6 
#
# 1 0.007507 -0.003912 -0.002553 0.000000 -0.000366 0.000000
# 2 -0.003912 0.016087 0.000742 0.000000 0.001190 0.000000
# 3 -0.002553 0.000742 0.009339 0.000000 -0.002042 0.000000
# 4 0.000000 0.000000 0.000000 0.529587 0.000000 0.217800
# 5 -0.000366 0.001190 -0.002042 0.000000 0.028122 0.000000
# 6 0.000000 0.000000 0.000000 0.217800 0.000000 0.516748
#
#
# Mechanical properties :
#
#
# Convention : Reuss Voigt Hill
#
# Bulk Modulus (GPa) = 46.54099 59.37505 52.95802
# Shear Modulus (GPa) = 4.44051 26.45162 15.44606
#
# Velocity S-wave (km/s) = 1.35738 3.31293 2.53160
# Velocity P-wave (km/s) = 4.66559 6.26660 5.52440
#
# Compressibility (1/GPa) = 0.02148643
#
# Stress axis : x y z
#
# Youngs Moduli (GPa) = 133.21313 62.16232 107.08258
#
# Poissons Ratio (x) = 0.24317 0.27336
# Poissons Ratio (y) = 0.52112 -0.07943
# Poissons Ratio (z) = 0.34007 -0.04611
#
# Static dielectric constant tensor:
#      x y z
#    x 1.991640 0.000000 -0.035410 
#    y 0.000000 2.208930 0.000000 
#    z -0.035410 0.000000 1.850060 
# 
# From -- ./inp_files/166375.got.cif
#   From: 2010.05.17/outbox.cif.g08.bks.cpg/sg15_84_cif.got.tgz:166375.got - 2010.06.03 18:47:42.
