data_PCOD9253479
_publ_section_title
;
Structure prediction by ZEFSAII (Michael W. Deem and Ramdas Pophale) SiO2 
 PCOD9253479
Probable space group: P 21/C
;
_chemical_formula_sum "Si O2"
_cell_formula_units_Z 32
_cell_length_a 9.000000
_cell_length_b 24.000000
_cell_length_c 12.000000
_cell_angle_alpha 90.000000
_cell_angle_beta 40.000000
_cell_angle_gamma 90.000000
_cell_volume 1666.105484
_symmetry_space_group_name_H-M "P 21/C"
_symmetry_group_IT_number 14
_symmetry_cell_setting 'monoclinic'
loop_
_space_group_symop_operation_xyz
x,y,z
-x,1/2+y,1/2-z
-x,-y,-z
x,1/2-y,1/2+z
loop_
_atom_site_type_symbol
_atom_site_label
_atom_site_fract_x
_atom_site_fract_y
_atom_site_fract_z
Si Si1 0.581475 0.572674 0.058647
Si Si2 0.212664 0.544243 0.072193
Si Si3 0.555553 0.131972 0.714514
Si Si4 0.860836 0.613027 0.392299
Si Si5 0.819550 0.654423 0.763677
Si Si6 0.137776 0.262579 0.642387
Si Si7 0.319903 0.746119 0.755370
Si Si8 0.782661 0.132242 0.107000
O O1 0.745534 0.519910 0.981298
O O2 0.718744 0.625421 0.931170
O O3 0.396867 0.557002 0.066748
O O4 0.431718 0.591570 0.250394
O O5 0.963406 0.562811 0.261406
O O6 0.285419 0.584513 0.929579
O O7 0.690130 0.187550 0.673743
O O8 0.371847 0.148690 0.722956
O O9 0.393330 0.109338 0.908110
O O10 0.877530 0.672247 0.319660
O O11 0.040064 0.621020 0.392345
O O12 0.874074 0.718793 0.751465
O O13 0.056141 0.624496 0.592067
O O14 0.907887 0.249622 0.696808
O O15 0.407363 0.254833 0.443732
O O16 0.297525 0.803655 0.836716
#
# Coordination Sequence:
#
# PCOD9253479 Si02
#       8
#     4   4   4   4   4   4   4   4
#     4   9  17  31  47  77 110 137 180 229 272 314
#     4   9  17  29  52  73 104 147 178 221 274 324
#     4   9  19  32  50  77 107 138 180 224 270 323
#     4   8  17  31  44  73 108 135 171 225 266 311
#     4  10  19  31  53  79 105 144 181 223 273 327
#     4  10  20  34  55  79 114 147 177 225 277 325
#     4  10  20  36  53  79 116 146 176 229 274 325
#     4   9  17  30  48  73 107 136 175 223 268 314
#
# _framework density 19.206467
#
# number of rings (size 3 to 8) (size 9 to 14) (size 15 to 20)
#    0.000    2.750    1.250    0.750    3.500    1.000 
#    0.000    5.000    0.000    0.750    0.000    4.375 
#    0.000    0.000    0.000    0.000    0.000    0.000 
#
# Total GULP energy -178137.344930 kJ/mol
# GULP energy per Si atom -5566.792029 kJ/mol
# Density = 1.916275 g / cm^3
# Si number density = 19.206467 Si / 1000 Ang^3
#
#
#
# Elastic Constant Matrix: (Units=GPa)
#
#
# Indices 1 2 3 4 5 6 
#
# 1 8.0814 -11.8791 10.5830 0.0000 -13.3854 0.0000
# 2 -11.8791 10.0630 -9.8223 0.0000 6.6390 0.0000
# 3 10.5830 -9.8223 52.0337 0.0000 -2.8783 0.0000
# 4 0.0000 0.0000 0.0000 24.1203 0.0000 -0.4792
# 5 -13.3854 6.6390 -2.8783 0.0000 16.6603 0.0000
# 6 0.0000 0.0000 0.0000 -0.4792 0.0000 20.6800
#
#
#
# Elastic Compliance Matrix: (Units=1/GPa)
#
#
# Indices 1 2 3 4 5 6 
#
# 1 -0.118238 -0.102277 0.001758 0.000000 -0.053936 0.000000
# 2 -0.102277 0.079397 0.029778 0.000000 -0.108667 0.000000
# 3 0.001758 0.029778 0.024134 0.000000 -0.006285 0.000000
# 4 0.000000 0.000000 0.000000 0.041478 0.000000 0.000961
# 5 -0.053936 -0.108667 -0.006285 0.000000 0.058906 0.000000
# 6 0.000000 0.000000 0.000000 0.000961 0.000000 0.048378
#
#
# Mechanical properties :
#
#
# Convention : Reuss Voigt Hill
#
# Bulk Modulus (GPa) = -6.40251 5.32681 -0.53785
# Shear Modulus (GPa) = 22.37387 17.71189 20.04288
#
# Velocity S-wave (km/s) = 3.41679 3.04004 3.23390
# Velocity P-wave (km/s) = 3.49645 3.88612 3.69642
#
# Compressibility (1/GPa) = -0.15618871
#
# Stress axis : x y z
#
# Youngs Moduli (GPa) = -8.45752 12.59490 41.43470
#
# Poissons Ratio (x) = 1.28817 -0.07283
# Poissons Ratio (y) = -0.86501 -1.23386
# Poissons Ratio (z) = 0.01487 -0.37506
#
# Static dielectric constant tensor:
#      x y z
#    x 1.663170 0.000000 0.008520 
#    y 0.000000 1.659080 0.000000 
#    z 0.008520 0.000000 1.724130 
# 
# From -- ./inp_files/27008.got.cif
#   From: 2010.05.17/outbox.ucp.g08.bks.cvg/sg14_14_cif.got.tgz:27008.got - 2010.06.11 12:31:08.
