data_PCOD9253538
_publ_section_title
;
Structure prediction by ZEFSAII (Michael W. Deem and Ramdas Pophale) SiO2 
 PCOD9253538
Probable space group: P 21/C
;
_chemical_formula_sum "Si O2"
_cell_formula_units_Z 24
_cell_length_a 18.000000
_cell_length_b 9.000000
_cell_length_c 15.000000
_cell_angle_alpha 90.000000
_cell_angle_beta 150.000000
_cell_angle_gamma 90.000000
_cell_volume 1215.000000
_symmetry_space_group_name_H-M "P 21/C"
_symmetry_group_IT_number 14
_symmetry_cell_setting 'monoclinic'
loop_
_space_group_symop_operation_xyz
x,y,z
-x,1/2+y,1/2-z
-x,-y,-z
x,1/2-y,1/2+z
loop_
_atom_site_type_symbol
_atom_site_label
_atom_site_fract_x
_atom_site_fract_y
_atom_site_fract_z
Si Si1 0.076283 0.445753 0.674831
Si Si2 0.839174 0.797010 0.352965
Si Si3 0.596096 0.927518 0.681397
Si Si4 0.175156 0.864311 0.677141
Si Si5 0.317018 0.811633 0.470513
Si Si6 0.195120 0.673152 0.523727
O O1 0.147947 0.288075 0.726892
O O2 0.206719 0.553044 0.836525
O O3 0.000000 0.500000 0.500000
O O4 0.955634 0.423883 0.626433
O O5 0.722589 0.694302 0.285586
O O6 0.016417 0.822612 0.560433
O O7 0.789312 0.963859 0.291406
O O8 0.485880 0.863797 0.641944
O O9 0.500000 0.000000 0.500000
O O10 0.681662 0.065932 0.809628
O O11 0.300159 0.789979 0.866103
O O12 0.170027 0.799393 0.572414
O O13 0.252075 0.733427 0.489861
#
# Coordination Sequence:
#
# PCOD9253538 Si02
#       6
#     4   4   4   4   4   4
#     4  11  18  43  69  90 126 178 218 259 332 399
#     4  10  20  37  71  90 125 175 216 270 331 394
#     4  12  21  43  66  88 133 187 212 261 342 401
#     4  10  21  42  63  97 128 166 227 282 318 380
#     4  12  24  40  68  97 130 175 221 273 331 392
#     4  11  24  41  65  97 130 170 229 269 320 403
#
# _framework density 19.753086
#
# number of rings (size 3 to 8) (size 9 to 14) (size 15 to 20)
#    0.000    1.000    8.333    0.000    0.000    6.000 
#    3.000    3.333    0.000    0.000    0.000    0.000 
#    0.000    0.000    0.000    0.000    0.000    0.000 
#
# Total GULP energy -133628.918269 kJ/mol
# GULP energy per Si atom -5567.871595 kJ/mol
# Density = 1.970813 g / cm^3
# Si number density = 19.753086 Si / 1000 Ang^3
#
#
#
# Elastic Constant Matrix: (Units=GPa)
#
#
# Indices 1 2 3 4 5 6 
#
# 1 42.5604 -45.1439 -13.6952 0.0000 10.8141 0.0000
# 2 -45.1439 54.9007 -0.7901 0.0000 -7.7505 0.0000
# 3 -13.6952 -0.7901 21.8877 0.0000 8.9965 0.0000
# 4 0.0000 0.0000 0.0000 9.5562 0.0000 0.1840
# 5 10.8141 -7.7505 8.9965 0.0000 19.6730 0.0000
# 6 0.0000 0.0000 0.0000 0.1840 0.0000 35.3815
#
#
#
# Elastic Compliance Matrix: (Units=1/GPa)
#
#
# Indices 1 2 3 4 5 6 
#
# 1 -0.090839 -0.067122 -0.084868 0.000000 0.062300 0.000000
# 2 -0.067122 -0.030149 -0.065723 0.000000 0.055074 0.000000
# 3 -0.084868 -0.065723 -0.022560 0.000000 0.031075 0.000000
# 4 0.000000 0.000000 0.000000 0.104654 0.000000 -0.000544
# 5 0.062300 0.055074 0.031075 0.000000 0.024071 0.000000
# 6 0.000000 0.000000 0.000000 -0.000544 0.000000 0.028266
#
#
# Mechanical properties :
#
#
# Convention : Reuss Voigt Hill
#
# Bulk Modulus (GPa) = -1.72719 0.01005 -0.85857
# Shear Modulus (GPa) = 19.54050 24.85402 22.19726
#
# Velocity S-wave (km/s) = 3.14863 3.55101 3.35585
# Velocity P-wave (km/s) = 3.51314 4.10097 3.81839
#
# Compressibility (1/GPa) = -0.57897454
#
# Stress axis : x y z
#
# Youngs Moduli (GPa) = -11.00850 -33.16856 -44.32622
#
# Poissons Ratio (x) = -2.22632 -3.76189
# Poissons Ratio (y) = -0.73891 -2.91327
# Poissons Ratio (z) = -0.93427 -2.17995
#
# Static dielectric constant tensor:
#      x y z
#    x 1.504050 0.000000 0.320940 
#    y 0.000000 1.792270 0.000000 
#    z 0.320940 0.000000 1.294910 
# 
# From -- ./inp_files/48654.got.cif
#   From: 2010.05.17/outbox.ucp.g08.bks.cvg/sg14_25_cif.got.tgz:48654.got - 2010.06.11 12:31:08.
