data_PCOD9253088
_publ_section_title
;
Structure prediction by ZEFSAII (Michael W. Deem and Ramdas Pophale) SiO2 
 PCOD9253088
Probable space group: P 21/C
;
_chemical_formula_sum "Si O2"
_cell_formula_units_Z 28
_cell_length_a 10.374379
_cell_length_b 6.874358
_cell_length_c 18.669055
_cell_angle_alpha 90.000000
_cell_angle_beta 106.067424
_cell_angle_gamma 90.000000
_cell_volume 1279.414759
_symmetry_space_group_name_H-M "P 21/C"
_symmetry_group_IT_number 14
_symmetry_cell_setting 'monoclinic'
loop_
_space_group_symop_operation_xyz
x,y,z
-x,1/2+y,1/2-z
-x,-y,-z
x,1/2-y,1/2+z
loop_
_atom_site_type_symbol
_atom_site_label
_atom_site_fract_x
_atom_site_fract_y
_atom_site_fract_z
Si Si1 0.314829 0.361768 0.266697
Si Si2 0.250473 0.773515 0.580454
Si Si3 0.396788 0.107329 0.536475
Si Si4 0.422140 0.086039 0.159002
Si Si5 0.058719 0.478136 0.146505
Si Si6 0.811324 0.734204 0.112946
Si Si7 0.931130 0.102241 0.058246
O O1 0.355433 0.216981 0.209677
O O2 0.433634 0.515291 0.292472
O O3 0.171507 0.451906 0.223664
O O4 0.294498 0.259731 0.339877
O O5 0.322376 0.594385 0.629570
O O6 0.123136 0.869446 0.600129
O O7 0.200609 0.704429 0.494961
O O8 0.354323 0.947686 0.588044
O O9 0.442134 0.294537 0.588298
O O10 0.266855 0.168960 0.470430
O O11 0.500000 0.000000 0.500000
O O12 0.920968 0.573867 0.150860
O O13 0.024936 0.270349 0.105243
O O14 0.886199 0.936900 0.106697
O O15 0.000000 0.000000 0.000000
#
# Coordination Sequence:
#
# PCOD9253088 Si02
#       7
#     4   4   4   4   4   4   4
#     4  12  30  49  74 106 156 208 245 306 385 457
#     4  12  23  46  77 107 143 192 252 312 372 445
#     4  12  27  48  78 112 143 195 260 321 373 437
#     4  12  28  53  75 107 150 202 259 307 373 455
#     4  12  26  46  72 110 150 196 245 300 387 461
#     4  12  28  47  72 114 152 193 249 320 379 445
#     4  12  23  43  75 110 146 187 243 307 378 444
#
# _framework density 21.885006000000001
#
# number of rings (size 3 to 8) (size 9 to 14) (size 15 to 20)
#    0.000    0.000    5.714    3.857    6.000    1.143 
#    0.000    0.000    0.000    0.000    0.000    0.000 
#    0.000    0.000    0.000    0.000    0.000    0.000 
#
# Total GULP energy -156786.692714 kJ/mol
# GULP energy per Si atom -5599.524740 kJ/mol
# Density = 2.183519 g / cm^3
# Si number density = 21.885006 Si / 1000 Ang^3
#
#
#
# Elastic Constant Matrix: (Units=GPa)
#
#
# Indices 1 2 3 4 5 6 
#
# 1 50.4625 30.7559 25.6161 0.0000 5.4243 0.0000
# 2 30.7559 119.9746 46.0711 0.0000 12.7274 0.0000
# 3 25.6161 46.0711 83.9145 0.0000 15.6328 0.0000
# 4 0.0000 0.0000 0.0000 29.9815 0.0000 22.6262
# 5 5.4243 12.7274 15.6328 0.0000 49.1590 0.0000
# 6 0.0000 0.0000 0.0000 22.6262 0.0000 38.1342
#
#
#
# Elastic Compliance Matrix: (Units=1/GPa)
#
#
# Indices 1 2 3 4 5 6 
#
# 1 0.025189 -0.004443 -0.005258 0.000000 0.000043 0.000000
# 2 -0.004443 0.011387 -0.004717 0.000000 -0.000958 0.000000
# 3 -0.005258 -0.004717 0.016770 0.000000 -0.003531 0.000000
# 4 0.000000 0.000000 0.000000 0.060399 0.000000 -0.035836
# 5 0.000043 -0.000958 -0.003531 0.000000 0.021708 0.000000
# 6 0.000000 0.000000 0.000000 -0.035836 0.000000 0.047486
#
#
# Mechanical properties :
#
#
# Convention : Reuss Voigt Hill
#
# Bulk Modulus (GPa) = 40.80000 51.02642 45.91321
# Shear Modulus (GPa) = 22.73302 33.58216 28.15759
#
# Velocity S-wave (km/s) = 3.22646 3.92150 3.59083
# Velocity P-wave (km/s) = 5.70644 6.62348 6.18199
#
# Compressibility (1/GPa) = 0.02450980
#
# Stress axis : x y z
#
# Youngs Moduli (GPa) = 39.69996 87.81943 59.63136
#
# Poissons Ratio (x) = 0.39015 0.31355
# Poissons Ratio (y) = 0.17637 0.28129
# Poissons Ratio (z) = 0.20875 0.41425
#
# Static dielectric constant tensor:
#      x y z
#    x 1.816920 0.000000 0.007210 
#    y 0.000000 1.821530 0.000000 
#    z 0.007210 0.000000 1.793720 
# 
# From -- ./inp_files/66520.got.cif
#   From: 2010.05.17/outbox.cif.g08.bks.cpg/sg14_34_cif.got.tgz:66520.got - 2010.06.03 17:49:19.
