data_PCOD9253470
_publ_section_title
;
Structure prediction by ZEFSAII (Michael W. Deem and Ramdas Pophale) SiO2 
 PCOD9253470
Probable space group: P 21/C
;
_chemical_formula_sum "Si O2"
_cell_formula_units_Z 32
_cell_length_a 27.000000
_cell_length_b 12.000000
_cell_length_c 15.000000
_cell_angle_alpha 90.000000
_cell_angle_beta 160.000000
_cell_angle_gamma 90.000000
_cell_volume 1662.217897
_symmetry_space_group_name_H-M "P 21/C"
_symmetry_group_IT_number 14
_symmetry_cell_setting 'monoclinic'
loop_
_space_group_symop_operation_xyz
x,y,z
-x,1/2+y,1/2-z
-x,-y,-z
x,1/2-y,1/2+z
loop_
_atom_site_type_symbol
_atom_site_label
_atom_site_fract_x
_atom_site_fract_y
_atom_site_fract_z
Si Si1 0.658477 0.657868 0.641945
Si Si2 0.357019 0.460110 0.969052
Si Si3 0.605974 0.296424 0.393851
Si Si4 0.369147 0.830730 0.379964
Si Si5 0.149207 0.245628 0.166394
Si Si6 0.390137 0.976533 0.713475
Si Si7 0.677660 0.733973 0.863545
Si Si8 0.196542 0.772561 0.429122
O O1 0.526229 0.725049 0.372705
O O2 0.785781 0.654036 0.784682
O O3 0.561151 0.553259 0.510645
O O4 0.719731 0.723391 0.831366
O O5 0.345115 0.540955 0.865455
O O6 0.238050 0.362597 0.778788
O O7 0.521612 0.413784 0.255437
O O8 0.339830 0.537783 0.026063
O O9 0.643197 0.248488 0.553644
O O10 0.737624 0.286440 0.547951
O O11 0.534585 0.809834 0.628137
O O12 0.256295 0.794435 0.114631
O O13 0.205127 0.263372 0.362582
O O14 0.977643 0.225349 0.869795
O O15 0.281253 0.892074 0.579086
O O16 0.368487 0.107144 0.691545
#
# Coordination Sequence:
#
# PCOD9253470 Si02
#       8
#     4   4   4   4   4   4   4   4
#     4  10  18  35  59  86 114 151 197 250 287 351
#     4  10  20  37  65  86 121 159 200 244 301 354
#     4  10  20  38  59  91 118 151 201 250 291 349
#     4  12  20  38  64  92 115 158 205 248 297 351
#     4  10  23  41  54  88 127 157 196 246 303 356
#     4  10  18  36  62  89 114 146 212 249 290 346
#     4  11  20  34  65  90 110 158 204 249 300 343
#     4  11  24  38  58  88 126 156 199 250 300 358
#
# _framework density 19.251387000000001
#
# number of rings (size 3 to 8) (size 9 to 14) (size 15 to 20)
#    0.000    1.500    8.750    0.375    0.000    3.500 
#    2.250    0.000    0.000    3.000    0.000    0.000 
#    0.000    0.000    0.000    0.000    0.000    0.000 
#
# Total GULP energy -178224.063735 kJ/mol
# GULP energy per Si atom -5569.501992 kJ/mol
# Density = 1.920757 g / cm^3
# Si number density = 19.251387 Si / 1000 Ang^3
#
#
#
# Elastic Constant Matrix: (Units=GPa)
#
#
# Indices 1 2 3 4 5 6 
#
# 1 85.7908 -3.3401 39.3418 0.0000 -1.6090 0.0000
# 2 -3.3401 8.5039 12.6100 0.0000 9.6627 0.0000
# 3 39.3418 12.6100 123.0068 0.0000 15.5638 0.0000
# 4 0.0000 0.0000 0.0000 13.8919 0.0000 -4.0111
# 5 -1.6090 9.6627 15.5638 0.0000 37.5761 0.0000
# 6 0.0000 0.0000 0.0000 -4.0111 0.0000 24.9752
#
#
#
# Elastic Compliance Matrix: (Units=1/GPa)
#
#
# Indices 1 2 3 4 5 6 
#
# 1 0.015252 0.016661 -0.006466 0.000000 -0.000953 0.000000
# 2 0.016661 0.203956 -0.020781 0.000000 -0.043126 0.000000
# 3 -0.006466 -0.020781 0.012333 0.000000 -0.000041 0.000000
# 4 0.000000 0.000000 0.000000 0.075485 0.000000 0.012123
# 5 -0.000953 -0.043126 -0.000041 0.000000 0.037679 0.000000
# 6 0.000000 0.000000 0.000000 0.012123 0.000000 0.041987
#
#
# Mechanical properties :
#
#
# Convention : Reuss Voigt Hill
#
# Bulk Modulus (GPa) = 4.75350 34.94719 19.85034
# Shear Modulus (GPa) = 10.46058 26.53463 18.49760
#
# Velocity S-wave (km/s) = 2.33355 3.71660 3.10311
# Velocity P-wave (km/s) = 3.12012 6.05062 4.81379
#
# Compressibility (1/GPa) = 0.21037148
#
# Stress axis : x y z
#
# Youngs Moduli (GPa) = 65.56516 4.90302 81.08268
#
# Poissons Ratio (x) = -0.08169 0.52424
# Poissons Ratio (y) = -1.09241 1.68495
# Poissons Ratio (z) = 0.42391 0.10189
#
# Static dielectric constant tensor:
#      x y z
#    x 1.778340 0.000000 -0.021870 
#    y 0.000000 1.780720 0.000000 
#    z -0.021870 0.000000 1.626930 
# 
# From -- ./inp_files/52056.got.cif
#   From: 2010.05.17/outbox.ucp.g08.bks.cvg/sg14_27_cif.got.tgz:52056.got - 2010.06.11 12:31:08.
