data_PCOD9253268
_publ_section_title
;
Structure prediction by ZEFSAII (Michael W. Deem and Ramdas Pophale) SiO2 
 PCOD9253268
Probable space group: P 21/C
;
_chemical_formula_sum "Si O2"
_cell_formula_units_Z 20
_cell_length_a 14.557737
_cell_length_b 5.292076
_cell_length_c 19.771537
_cell_angle_alpha 90.000000
_cell_angle_beta 30.435844
_cell_angle_gamma 90.000000
_cell_volume 771.618491
_symmetry_space_group_name_H-M "P 21/C"
_symmetry_group_IT_number 14
_symmetry_cell_setting 'monoclinic'
loop_
_space_group_symop_operation_xyz
x,y,z
-x,1/2+y,1/2-z
-x,-y,-z
x,1/2-y,1/2+z
loop_
_atom_site_type_symbol
_atom_site_label
_atom_site_fract_x
_atom_site_fract_y
_atom_site_fract_z
Si Si1 0.151362 0.400257 0.352131
Si Si2 0.881883 0.528151 0.247168
Si Si3 0.443612 0.709557 0.091052
Si Si4 0.192441 0.343867 0.560058
Si Si5 0.400628 0.289373 0.305315
O O1 0.290840 0.612990 0.239887
O O2 0.281671 0.224296 0.315039
O O3 0.000000 0.500000 0.500000
O O4 0.094645 0.266538 0.317770
O O5 0.675813 0.432053 0.366943
O O6 0.905516 0.529332 0.313781
O O7 0.043926 0.344205 0.123925
O O8 0.500000 0.500000 0.000000
O O9 0.627718 0.750896 0.014820
O O10 0.282261 0.449926 0.435455
O O11 0.545715 0.513632 0.199252
#
# Coordination Sequence:
#
# PCOD9253268 Si02
#       5
#     4   4   4   4   4
#     4  12  29  48  77 114 168 213 272 348 421 488
#     4  12  29  50  78 120 161 210 279 345 414 505
#     4  12  25  50  78 115 155 215 269 340 418 496
#     4  12  27  47  82 113 160 210 276 337 415 495
#     4  12  29  50  80 117 160 216 279 337 414 500
#
# _framework density 25.919546
#
# number of rings (size 3 to 8) (size 9 to 14) (size 15 to 20)
#    0.000    0.000    4.000    4.200    8.400    1.600 
#    0.000    0.000    0.000    0.000    0.000    0.000 
#    0.000    0.000    0.000    0.000    0.000    0.000 
#
# Total GULP energy -111587.558621 kJ/mol
# GULP energy per Si atom -5579.377931 kJ/mol
# Density = 2.586055 g / cm^3
# Si number density = 25.919546 Si / 1000 Ang^3
#
#
#
# Elastic Constant Matrix: (Units=GPa)
#
#
# Indices 1 2 3 4 5 6 
#
# 1 113.5534 -5.1346 2.9524 0.0000 -0.2992 0.0000
# 2 -5.1346 57.7720 22.6585 0.0000 -10.0325 0.0000
# 3 2.9524 22.6585 130.3988 0.0000 0.5671 0.0000
# 4 0.0000 0.0000 0.0000 37.7626 0.0000 3.9080
# 5 -0.2992 -10.0325 0.5671 0.0000 64.1769 0.0000
# 6 0.0000 0.0000 0.0000 3.9080 0.0000 30.3998
#
#
#
# Elastic Compliance Matrix: (Units=1/GPa)
#
#
# Indices 1 2 3 4 5 6 
#
# 1 0.008860 0.000966 -0.000369 0.000000 0.000196 0.000000
# 2 0.000966 0.019249 -0.003380 0.000000 0.003044 0.000000
# 3 -0.000369 -0.003380 0.008267 0.000000 -0.000603 0.000000
# 4 0.000000 0.000000 0.000000 0.026838 0.000000 -0.003450
# 5 0.000196 0.003044 -0.000603 0.000000 0.016064 0.000000
# 6 0.000000 0.000000 0.000000 -0.003450 0.000000 0.033339
#
#
# Mechanical properties :
#
#
# Convention : Reuss Voigt Hill
#
# Bulk Modulus (GPa) = 32.45618 38.07519 35.26569
# Shear Modulus (GPa) = 38.92448 45.21771 42.07110
#
# Velocity S-wave (km/s) = 3.87944 4.18130 4.03319
# Velocity P-wave (km/s) = 5.71102 6.16707 5.94342
#
# Compressibility (1/GPa) = 0.03081077
#
# Stress axis : x y z
#
# Youngs Moduli (GPa) = 112.86371 51.94946 120.96170
#
# Poissons Ratio (x) = -0.05020 0.04468
# Poissons Ratio (y) = -0.10906 0.40885
# Poissons Ratio (z) = 0.04169 0.17559
#
# Static dielectric constant tensor:
#      x y z
#    x 2.308580 0.000000 0.073350 
#    y 0.000000 2.105610 0.000000 
#    z 0.073350 0.000000 2.009690 
# 
# From -- ./inp_files/67789.got.cif
#   From: 2010.05.17/outbox.cif.g08.bks.cpg/sg14_34_cif.got.tgz:67789.got - 2010.06.03 17:49:19.
