data_PCOD9253502
_publ_section_title
;
Structure prediction by ZEFSAII (Michael W. Deem and Ramdas Pophale) SiO2 
 PCOD9253502
Probable space group: P 21/C
;
_chemical_formula_sum "Si O2"
_cell_formula_units_Z 32
_cell_length_a 12.000000
_cell_length_b 9.000000
_cell_length_c 15.000000
_cell_angle_alpha 90.000000
_cell_angle_beta 90.000000
_cell_angle_gamma 90.000000
_cell_volume 1620.000000
_symmetry_space_group_name_H-M "P 21/C"
_symmetry_group_IT_number 14
_symmetry_cell_setting 'monoclinic'
loop_
_space_group_symop_operation_xyz
x,y,z
-x,1/2+y,1/2-z
-x,-y,-z
x,1/2-y,1/2+z
loop_
_atom_site_type_symbol
_atom_site_label
_atom_site_fract_x
_atom_site_fract_y
_atom_site_fract_z
Si Si1 0.200623 0.498577 0.872634
Si Si2 0.263491 0.613005 0.058303
Si Si3 0.517945 0.227803 0.873105
Si Si4 0.602392 0.544910 0.254940
Si Si5 0.123674 0.408734 0.298061
Si Si6 0.278109 0.179412 0.946340
Si Si7 0.965908 0.364934 0.830388
Si Si8 0.727197 0.785931 0.365028
O O1 0.281200 0.518682 0.787165
O O2 0.238849 0.336653 0.906413
O O3 0.067377 0.478176 0.858863
O O4 0.234972 0.606143 0.953295
O O5 0.365528 0.724173 0.080272
O O6 0.144391 0.640603 0.107618
O O7 0.301536 0.447446 0.092614
O O8 0.473298 0.374743 0.820354
O O9 0.543403 0.089558 0.807037
O O10 0.412566 0.177415 0.934988
O O11 0.634318 0.684597 0.318048
O O12 0.211849 0.428744 0.378934
O O13 0.077467 0.564792 0.262227
O O14 0.185570 0.327592 0.213684
O O15 0.024642 0.295462 0.324400
O O16 0.239128 0.185897 0.049002
#
# Coordination Sequence:
#
# PCOD9253502 Si02
#       8
#     4   4   4   4   4   4   4   4
#     4   9  19  39  58  85 116 156 198 244 293 349
#     4  10  22  35  61  91 113 152 204 245 290 351
#     4  11  23  37  59  89 121 155 197 245 290 355
#     4  11  22  38  61  82 123 157 194 240 301 352
#     4  10  20  39  59  87 114 157 195 245 295 354
#     4   9  20  38  60  85 117 156 197 238 305 354
#     4  10  20  35  63  81 119 152 198 242 293 346
#     4  10  19  39  62  83 115 156 195 240 298 350
#
# _framework density 19.753086
#
# number of rings (size 3 to 8) (size 9 to 14) (size 15 to 20)
#    0.000    2.000    3.750    1.125    3.500    7.000 
#    0.000    1.875    0.000    0.000    0.000    0.000 
#    0.000    0.000    0.000    0.000    0.000    0.000 
#
# Total GULP energy -178354.311270 kJ/mol
# GULP energy per Si atom -5573.572227 kJ/mol
# Density = 1.970813 g / cm^3
# Si number density = 19.753086 Si / 1000 Ang^3
#
#
#
# Elastic Constant Matrix: (Units=GPa)
#
#
# Indices 1 2 3 4 5 6 
#
# 1 96.7599 -2.4856 3.8904 0.0000 5.2150 0.0000
# 2 -2.4856 22.2495 -20.6005 0.0000 -5.0480 0.0000
# 3 3.8904 -20.6005 53.1151 0.0000 1.0241 0.0000
# 4 0.0000 0.0000 0.0000 21.8066 0.0000 3.4446
# 5 5.2150 -5.0480 1.0241 0.0000 23.5559 0.0000
# 6 0.0000 0.0000 0.0000 3.4446 0.0000 24.9177
#
#
#
# Elastic Compliance Matrix: (Units=1/GPa)
#
#
# Indices 1 2 3 4 5 6 
#
# 1 0.010487 -0.000031 -0.000736 0.000000 -0.002296 0.000000
# 2 -0.000031 0.074959 0.028789 0.000000 0.014819 0.000000
# 3 -0.000736 0.028789 0.029950 0.000000 0.005030 0.000000
# 4 0.000000 0.000000 0.000000 0.046881 0.000000 -0.006481
# 5 -0.002296 0.014819 0.005030 0.000000 0.045917 0.000000
# 6 0.000000 0.000000 0.000000 -0.006481 0.000000 0.041028
#
#
# Mechanical properties :
#
#
# Convention : Reuss Voigt Hill
#
# Bulk Modulus (GPa) = 5.83289 14.85922 10.34605
# Shear Modulus (GPa) = 19.97406 26.81073 23.39240
#
# Velocity S-wave (km/s) = 3.18337 3.68814 3.44501
# Velocity P-wave (km/s) = 4.05846 5.06708 4.59056
#
# Compressibility (1/GPa) = 0.17144171
#
# Stress axis : x y z
#
# Youngs Moduli (GPa) = 95.35230 13.34063 33.38928
#
# Poissons Ratio (x) = 0.00041 0.02457
# Poissons Ratio (y) = 0.00292 -0.96125
# Poissons Ratio (z) = 0.07016 -0.38407
#
# Static dielectric constant tensor:
#      x y z
#    x 1.702160 0.000000 0.022260 
#    y 0.000000 1.694110 0.000000 
#    z 0.022260 0.000000 1.758720 
# 
# From -- ./inp_files/43422.got.cif
#   From: 2010.05.17/outbox.ucp.g08.bks.cvg/sg14_22_cif.got.tgz:43422.got - 2010.06.11 12:31:08.
