data_PCOD9253307
_publ_section_title
;
Structure prediction by ZEFSAII (Michael W. Deem and Ramdas Pophale) SiO2 
 PCOD9253307
Probable space group: P 21/C
;
_chemical_formula_sum "Si O2"
_cell_formula_units_Z 20
_cell_length_a 17.966865
_cell_length_b 4.902238
_cell_length_c 17.750781
_cell_angle_alpha 90.000000
_cell_angle_beta 150.675173
_cell_angle_gamma 90.000000
_cell_volume 765.716009
_symmetry_space_group_name_H-M "P 21/C"
_symmetry_group_IT_number 14
_symmetry_cell_setting 'monoclinic'
loop_
_space_group_symop_operation_xyz
x,y,z
-x,1/2+y,1/2-z
-x,-y,-z
x,1/2-y,1/2+z
loop_
_atom_site_type_symbol
_atom_site_label
_atom_site_fract_x
_atom_site_fract_y
_atom_site_fract_z
Si Si1 0.466119 0.663516 0.167770
Si Si2 0.792141 0.760892 0.594365
Si Si3 0.290335 0.449989 0.744213
Si Si4 0.232624 0.574852 0.291998
Si Si5 0.046449 0.451089 0.409641
O O1 0.472943 0.954663 0.213657
O O2 0.576389 0.635250 0.194024
O O3 0.305463 0.531198 0.003995
O O4 0.710315 0.548426 0.578267
O O5 0.845784 0.664641 0.560486
O O6 0.942759 0.830631 0.775329
O O7 0.330837 0.688280 0.838711
O O8 0.152307 0.557176 0.569831
O O9 0.231519 0.184096 0.735999
O O10 0.071284 0.723920 0.164040
#
# Coordination Sequence:
#
# PCOD9253307 Si02
#       5
#     4   4   4   4   4
#     4  12  29  52  77 109 150 204 257 305 377 454
#     4  12  28  46  80 112 152 199 257 312 367 450
#     4  12  28  49  78 110 155 200 243 313 379 447
#     4  12  27  48  76 118 152 192 251 314 379 438
#     4  12  26  48  78 113 155 198 253 307 377 449
#
# _framework density 26.119343000000001
#
# number of rings (size 3 to 8) (size 9 to 14) (size 15 to 20)
#    0.000    0.000    6.000    2.400    8.400    1.600 
#    0.000    0.000    0.000    0.000    0.000    0.000 
#    0.000    0.000    0.000    0.000    0.000    0.000 
#
# Total GULP energy -112297.830191 kJ/mol
# GULP energy per Si atom -5614.891510 kJ/mol
# Density = 2.605989 g / cm^3
# Si number density = 26.119343 Si / 1000 Ang^3
#
#
#
# Elastic Constant Matrix: (Units=GPa)
#
#
# Indices 1 2 3 4 5 6 
#
# 1 159.8848 4.8393 24.6636 0.0000 -16.9731 0.0000
# 2 4.8393 60.6286 3.3081 0.0000 -22.7145 0.0000
# 3 24.6636 3.3081 73.5382 0.0000 -18.9700 0.0000
# 4 0.0000 0.0000 0.0000 36.9984 0.0000 -8.6663
# 5 -16.9731 -22.7145 -18.9700 0.0000 37.8067 0.0000
# 6 0.0000 0.0000 0.0000 -8.6663 0.0000 38.3684
#
#
#
# Elastic Compliance Matrix: (Units=1/GPa)
#
#
# Indices 1 2 3 4 5 6 
#
# 1 0.006759 0.000488 -0.001643 0.000000 0.002503 0.000000
# 2 0.000488 0.021794 0.002631 0.000000 0.014633 0.000000
# 3 -0.001643 0.002631 0.016367 0.000000 0.009055 0.000000
# 4 0.000000 0.000000 0.000000 0.028538 0.000000 0.006446
# 5 0.002503 0.014633 0.009055 0.000000 0.040909 0.000000
# 6 0.000000 0.000000 0.000000 0.006446 0.000000 0.027519
#
#
# Mechanical properties :
#
#
# Convention : Reuss Voigt Hill
#
# Bulk Modulus (GPa) = 20.88972 39.96373 30.42673
# Shear Modulus (GPa) = 32.28069 40.05075 36.16572
#
# Velocity S-wave (km/s) = 3.51934 3.92008 3.72510
# Velocity P-wave (km/s) = 4.95273 5.98523 5.49329
#
# Compressibility (1/GPa) = 0.04787044
#
# Stress axis : x y z
#
# Youngs Moduli (GPa) = 147.95259 45.88524 61.09856
#
# Poissons Ratio (x) = -0.02239 0.10039
# Poissons Ratio (y) = -0.07219 -0.16073
# Poissons Ratio (z) = 0.24310 -0.12071
#
# Static dielectric constant tensor:
#      x y z
#    x 2.004830 0.000000 0.004550 
#    y 0.000000 2.067400 0.000000 
#    z 0.004550 0.000000 2.094480 
# 
# From -- ./inp_files/60001.got.cif
#   From: 2010.05.17/outbox.cif.g08.bks.cpg/sg14_31_cif.got.tgz:60001.got - 2010.06.03 17:49:19.
