data_PCOD9253255
_publ_section_title
;
Structure prediction by ZEFSAII (Michael W. Deem and Ramdas Pophale) SiO2 
 PCOD9253255
Probable space group: P 21/C
;
_chemical_formula_sum "Si O2"
_cell_formula_units_Z 16
_cell_length_a 6.787634
_cell_length_b 14.786902
_cell_length_c 8.638835
_cell_angle_alpha 90.000000
_cell_angle_beta 122.672099
_cell_angle_gamma 90.000000
_cell_volume 729.871110
_symmetry_space_group_name_H-M "P 21/C"
_symmetry_group_IT_number 14
_symmetry_cell_setting 'monoclinic'
loop_
_space_group_symop_operation_xyz
x,y,z
-x,1/2+y,1/2-z
-x,-y,-z
x,1/2-y,1/2+z
loop_
_atom_site_type_symbol
_atom_site_label
_atom_site_fract_x
_atom_site_fract_y
_atom_site_fract_z
Si Si1 0.425572 0.078403 0.586553
Si Si2 0.039228 0.319254 0.743511
Si Si3 0.940688 0.134036 0.855156
Si Si4 0.247659 0.989290 0.814063
O O1 0.276399 0.151900 0.430313
O O2 0.664522 0.118044 0.757488
O O3 0.500000 0.000000 0.500000
O O4 0.271483 0.033886 0.656107
O O5 0.981537 0.216030 0.754372
O O6 0.050620 0.339041 0.566094
O O7 0.839231 0.386276 0.725684
O O8 0.061459 0.044890 0.837561
O O9 0.500000 0.000000 0.000000
#
# Coordination Sequence:
#
# PCOD9253255 Si02
#       4
#     4   4   4   4
#     4  12  26  47  76 101 144 191 235 293 357 422
#     4  12  27  47  74 105 146 185 240 294 355 425
#     4  12  28  48  70 111 141 189 240 293 357 424
#     4  12  25  49  74 105 146 189 237 297 353 422
#
# _framework density 21.921678
#
# number of rings (size 3 to 8) (size 9 to 14) (size 15 to 20)
#    0.000    0.000    5.000    4.500    7.000    2.000 
#    0.000    0.000    0.000    0.000    0.000    0.000 
#    0.000    0.000    0.000    0.000    0.000    0.000 
#
# Total GULP energy -89693.117052 kJ/mol
# GULP energy per Si atom -5605.819816 kJ/mol
# Density = 2.187178 g / cm^3
# Si number density = 21.921678 Si / 1000 Ang^3
#
#
#
# Elastic Constant Matrix: (Units=GPa)
#
#
# Indices 1 2 3 4 5 6 
#
# 1 68.6435 -8.4688 18.6268 0.0000 8.1365 0.0000
# 2 -8.4688 65.1924 -13.6260 0.0000 6.3145 0.0000
# 3 18.6268 -13.6260 93.2057 0.0000 -4.9565 0.0000
# 4 0.0000 0.0000 0.0000 31.7422 0.0000 -2.7414
# 5 8.1365 6.3145 -4.9565 0.0000 56.0426 0.0000
# 6 0.0000 0.0000 0.0000 -2.7414 0.0000 33.2201
#
#
#
# Elastic Compliance Matrix: (Units=1/GPa)
#
#
# Indices 1 2 3 4 5 6 
#
# 1 0.015944 0.001695 -0.003086 0.000000 -0.002779 0.000000
# 2 0.001695 0.016144 0.001921 0.000000 -0.001895 0.000000
# 3 -0.003086 0.001921 0.011694 0.000000 0.001266 0.000000
# 4 0.000000 0.000000 0.000000 0.031730 0.000000 0.002618
# 5 -0.002779 -0.001895 0.001266 0.000000 0.018573 0.000000
# 6 0.000000 0.000000 0.000000 0.002618 0.000000 0.030318
#
#
# Mechanical properties :
#
#
# Convention : Reuss Voigt Hill
#
# Bulk Modulus (GPa) = 22.30073 24.45616 23.37845
# Shear Modulus (GPa) = 36.15561 39.56827 37.86194
#
# Velocity S-wave (km/s) = 4.06557 4.25312 4.16040
# Velocity P-wave (km/s) = 5.67746 5.94130 5.81088
#
# Compressibility (1/GPa) = 0.04484159
#
# Stress axis : x y z
#
# Youngs Moduli (GPa) = 62.71937 61.94076 85.51514
#
# Poissons Ratio (x) = -0.10501 0.26392
# Poissons Ratio (y) = -0.10633 -0.16424
# Poissons Ratio (z) = 0.19357 -0.11897
#
# Static dielectric constant tensor:
#      x y z
#    x 1.781400 0.000000 0.001630 
#    y 0.000000 1.735690 0.000000 
#    z 0.001630 0.000000 1.801970 
# 
# From -- ./inp_files/5045.got.cif
#   From: 2010.05.17/outbox.cif.g08.bks.cpg/sg14_3_cif.got.tgz:5045.got - 2010.06.03 17:49:19.
