data_PCOD9253100
_publ_section_title
;
Structure prediction by ZEFSAII (Michael W. Deem and Ramdas Pophale) SiO2 
 PCOD9253100
Probable space group: P 21/C
;
_chemical_formula_sum "Si O2"
_cell_formula_units_Z 32
_cell_length_a 16.026701
_cell_length_b 19.054442
_cell_length_c 15.340375
_cell_angle_alpha 90.000000
_cell_angle_beta 161.986953
_cell_angle_gamma 90.000000
_cell_volume 1448.648291
_symmetry_space_group_name_H-M "P 21/C"
_symmetry_group_IT_number 14
_symmetry_cell_setting 'monoclinic'
loop_
_space_group_symop_operation_xyz
x,y,z
-x,1/2+y,1/2-z
-x,-y,-z
x,1/2-y,1/2+z
loop_
_atom_site_type_symbol
_atom_site_label
_atom_site_fract_x
_atom_site_fract_y
_atom_site_fract_z
Si Si1 0.601871 0.231988 0.484234
Si Si2 0.907638 0.423816 0.877472
Si Si3 0.530512 0.777081 0.443006
Si Si4 0.895993 0.845428 0.078787
Si Si5 0.060778 0.993473 0.162322
Si Si6 0.582837 0.889803 0.222873
Si Si7 0.045502 0.686691 0.919406
Si Si8 0.443912 0.930124 0.277247
O O1 0.559795 0.226177 0.546126
O O2 0.506048 0.308708 0.359682
O O3 0.908585 0.215553 0.764271
O O4 0.408128 0.175150 0.246395
O O5 0.607783 0.422953 0.540913
O O6 0.000000 0.500000 0.000000
O O7 0.111002 0.397787 0.004074
O O8 0.929606 0.369710 0.979117
O O9 0.828681 0.745923 0.730245
O O10 0.504413 0.855181 0.380977
O O11 0.329844 0.725844 0.191233
O O12 0.947966 0.848474 0.233330
O O13 0.983846 0.916859 0.119926
O O14 0.368056 0.012739 0.488598
O O15 0.865882 0.048716 0.017552
O O16 0.000000 0.000000 0.000000
O O17 0.524880 0.926126 0.256930
#
# Coordination Sequence:
#
# PCOD9253100 Si02
#       8
#     4   4   4   4   4   4   4   4
#     4  12  23  46  69 101 136 176 227 282 343 396
#     4  12  26  46  69 102 144 183 220 279 344 415
#     4  12  24  46  69 103 133 183 222 285 340 400
#     4  12  26  41  71 100 137 179 227 288 333 407
#     4  12  26  49  68 103 137 184 228 280 349 410
#     4  12  25  45  71 104 138 181 233 280 339 406
#     4  12  24  44  68 102 138 176 230 275 340 406
#     4  12  26  43  73 100 139 180 233 286 334 408
#
# _framework density 22.089556999999999
#
# number of rings (size 3 to 8) (size 9 to 14) (size 15 to 20)
#    0.000    0.000    2.500    8.250    3.500    0.000 
#    0.000    0.000    0.000    0.000    0.000    0.000 
#    0.000    0.000    0.000    0.000    0.000    0.000 
#
# Total GULP energy -179462.582084 kJ/mol
# GULP energy per Si atom -5608.205690 kJ/mol
# Density = 2.203928 g / cm^3
# Si number density = 22.089557 Si / 1000 Ang^3
#
#
#
# Elastic Constant Matrix: (Units=GPa)
#
#
# Indices 1 2 3 4 5 6 
#
# 1 106.0661 -12.0239 -9.5543 0.0000 -12.7198 0.0000
# 2 -12.0239 83.8576 -6.1719 0.0000 -1.7600 0.0000
# 3 -9.5543 -6.1719 69.5854 0.0000 -1.6839 0.0000
# 4 0.0000 0.0000 0.0000 29.9514 0.0000 10.8486
# 5 -12.7198 -1.7600 -1.6839 0.0000 39.7735 0.0000
# 6 0.0000 0.0000 0.0000 10.8486 0.0000 25.1405
#
#
#
# Elastic Compliance Matrix: (Units=1/GPa)
#
#
# Indices 1 2 3 4 5 6 
#
# 1 0.010168 0.001649 0.001624 0.000000 0.003394 0.000000
# 2 0.001649 0.012284 0.001343 0.000000 0.001128 0.000000
# 3 0.001624 0.001343 0.014742 0.000000 0.001203 0.000000
# 4 0.000000 0.000000 0.000000 0.039573 0.000000 -0.017076
# 5 0.003394 0.001128 0.001203 0.000000 0.026329 0.000000
# 6 0.000000 0.000000 0.000000 -0.017076 0.000000 0.047145
#
#
# Mechanical properties :
#
#
# Convention : Reuss Voigt Hill
#
# Bulk Modulus (GPa) = 21.53906 22.66765 22.10335
# Shear Modulus (GPa) = 31.95225 38.12370 35.03798
#
# Velocity S-wave (km/s) = 3.80740 4.15887 3.98701
# Velocity P-wave (km/s) = 5.39447 5.77456 5.58775
#
# Compressibility (1/GPa) = 0.04642728
#
# Stress axis : x y z
#
# Youngs Moduli (GPa) = 98.34489 81.40725 67.83283
#
# Poissons Ratio (x) = -0.13422 -0.11019
# Poissons Ratio (y) = -0.16215 -0.09111
# Poissons Ratio (z) = -0.15976 -0.10935
#
# Static dielectric constant tensor:
#      x y z
#    x 1.767170 0.000000 -0.017650 
#    y 0.000000 1.770260 0.000000 
#    z -0.017650 0.000000 1.752480 
# 
# From -- ./inp_files/47684.got.cif
#   From: 2010.05.17/outbox.cif.g08.bks.cpg/sg14_24_cif.got.tgz:47684.got - 2010.06.03 17:49:19.
