data_PCOD9253048
_publ_section_title
;
Structure prediction by ZEFSAII (Michael W. Deem and Ramdas Pophale) SiO2 
 PCOD9253048
Probable space group: P 21/C
;
_chemical_formula_sum "Si O2"
_cell_formula_units_Z 24
_cell_length_a 4.792737
_cell_length_b 12.045773
_cell_length_c 18.976235
_cell_angle_alpha 90.000000
_cell_angle_beta 118.847740
_cell_angle_gamma 90.000000
_cell_volume 959.589114
_symmetry_space_group_name_H-M "P 21/C"
_symmetry_group_IT_number 14
_symmetry_cell_setting 'monoclinic'
loop_
_space_group_symop_operation_xyz
x,y,z
-x,1/2+y,1/2-z
-x,-y,-z
x,1/2-y,1/2+z
loop_
_atom_site_type_symbol
_atom_site_label
_atom_site_fract_x
_atom_site_fract_y
_atom_site_fract_z
Si Si1 0.787612 0.480790 0.118538
Si Si2 0.379372 0.086133 0.783431
Si Si3 0.234244 0.742278 0.450127
Si Si4 0.802007 0.126615 0.410874
Si Si5 0.430151 0.125704 0.117143
Si Si6 0.860559 0.262512 0.274362
O O1 0.718285 0.354049 0.090019
O O2 0.508613 0.549088 0.121281
O O3 0.098820 0.473800 0.205890
O O4 0.894403 0.544010 0.059714
O O5 0.638985 0.130346 0.760388
O O6 0.207145 0.191989 0.797621
O O7 0.536565 0.002638 0.858293
O O8 0.218818 0.788997 0.526977
O O9 0.503937 0.657587 0.456040
O O10 0.899728 0.679459 0.398124
O O11 0.844387 0.196893 0.345105
O O12 0.707704 0.187298 0.195311
#
# Coordination Sequence:
#
# PCOD9253048 Si02
#       6
#     4   4   4   4   4   4
#     4  12  22  41  70 100 136 166 221 290 338 399
#     4  12  25  42  70 102 130 172 237 277 332 394
#     4  12  25  44  65 102 137 176 218 278 346 402
#     4  12  26  42  68 100 138 176 219 276 347 400
#     4  12  24  43  68  95 134 177 222 276 334 405
#     4  12  24  44  66  98 134 176 225 282 329 408
#
# _framework density 25.010707
#
# number of rings (size 3 to 8) (size 9 to 14) (size 15 to 20)
#    0.000    0.000    5.000    6.000    2.333    0.000 
#    0.000    5.000    0.000    0.000    0.000    0.000 
#    0.000    0.000    0.000    0.000    0.000    0.000 
#
# Total GULP energy -134563.139901 kJ/mol
# GULP energy per Si atom -5606.797496 kJ/mol
# Density = 2.495378 g / cm^3
# Si number density = 25.010707 Si / 1000 Ang^3
#
#
#
# Elastic Constant Matrix: (Units=GPa)
#
#
# Indices 1 2 3 4 5 6 
#
# 1 97.2551 16.4196 -10.1811 0.0000 -10.9198 0.0000
# 2 16.4196 49.8116 -0.4948 0.0000 2.4179 0.0000
# 3 -10.1811 -0.4948 37.9263 0.0000 -16.9763 0.0000
# 4 0.0000 0.0000 0.0000 27.2920 0.0000 -1.6375
# 5 -10.9198 2.4179 -16.9763 0.0000 41.2203 0.0000
# 6 0.0000 0.0000 0.0000 -1.6375 0.0000 16.0890
#
#
#
# Elastic Compliance Matrix: (Units=1/GPa)
#
#
# Indices 1 2 3 4 5 6 
#
# 1 0.012289 -0.004281 0.005900 0.000000 0.005937 0.000000
# 2 -0.004281 0.021627 -0.002381 0.000000 -0.003383 0.000000
# 3 0.005900 -0.002381 0.035165 0.000000 0.016185 0.000000
# 4 0.000000 0.000000 0.000000 0.036866 0.000000 0.003752
# 5 0.005937 -0.003383 0.016185 0.000000 0.032697 0.000000
# 6 0.000000 0.000000 0.000000 0.003752 0.000000 0.062536
#
#
# Mechanical properties :
#
#
# Convention : Reuss Voigt Hill
#
# Bulk Modulus (GPa) = 14.80203 21.83114 18.31658
# Shear Modulus (GPa) = 22.20034 28.87021 25.53528
#
# Velocity S-wave (km/s) = 2.98255 3.40121 3.19873
# Velocity P-wave (km/s) = 4.21805 4.91650 4.58060
#
# Compressibility (1/GPa) = 0.06755830
#
# Stress axis : x y z
#
# Youngs Moduli (GPa) = 81.37233 46.23799 28.43777
#
# Poissons Ratio (x) = 0.19792 -0.16780
# Poissons Ratio (y) = 0.34831 0.06772
# Poissons Ratio (z) = -0.48014 0.11011
#
# Static dielectric constant tensor:
#      x y z
#    x 1.915590 0.000000 0.004880 
#    y 0.000000 2.038240 0.000000 
#    z 0.004880 0.000000 2.038710 
# 
# From -- ./inp_files/63388.got.cif
#   From: 2010.05.17/outbox.cif.g08.bks.cpg/sg14_32_cif.got.tgz:63388.got - 2010.06.03 17:49:19.
