data_PCOD9253375
_publ_section_title
;
Structure prediction by ZEFSAII (Michael W. Deem and Ramdas Pophale) SiO2 
 PCOD9253375
Probable space group: P 21/C
;
_chemical_formula_sum "Si O2"
_cell_formula_units_Z 20
_cell_length_a 5.347414
_cell_length_b 14.478256
_cell_length_c 10.661308
_cell_angle_alpha 90.000000
_cell_angle_beta 80.011636
_cell_angle_gamma 90.000000
_cell_volume 812.900802
_symmetry_space_group_name_H-M "P 21/C"
_symmetry_group_IT_number 14
_symmetry_cell_setting 'monoclinic'
loop_
_space_group_symop_operation_xyz
x,y,z
-x,1/2+y,1/2-z
-x,-y,-z
x,1/2-y,1/2+z
loop_
_atom_site_type_symbol
_atom_site_label
_atom_site_fract_x
_atom_site_fract_y
_atom_site_fract_z
Si Si1 0.369178 0.124816 0.239701
Si Si2 0.090980 0.211640 0.849352
Si Si3 0.747524 0.939622 0.007953
Si Si4 0.719255 0.466815 0.073617
Si Si5 0.192943 0.757278 0.380840
O O1 0.633006 0.177351 0.195564
O O2 0.229113 0.190586 0.349918
O O3 0.344686 0.022155 0.293374
O O4 0.233269 0.124411 0.116703
O O5 0.991520 0.209689 0.716686
O O6 0.269509 0.126218 0.870015
O O7 0.886765 0.213828 0.978240
O O8 0.500000 0.000000 0.000000
O O9 0.000000 0.000000 0.000000
O O10 0.693461 0.356867 0.090562
O O11 0.500000 0.500000 0.000000
O O12 0.000000 0.500000 0.000000
#
# Coordination Sequence:
#
# PCOD9253375 Si02
#       5
#     4   4   4   4   4
#     4  12  29  49  82 121 165 215 280 341 414 499
#     4  12  27  51  81 118 163 217 275 339 418 492
#     4  12  29  52  79 118 164 217 275 341 414 497
#     4  12  29  51  81 120 167 219 278 339 416 500
#     4  12  28  52  86 118 169 220 278 345 419 500
#
# _framework density 24.603245000000001
#
# number of rings (size 3 to 8) (size 9 to 14) (size 15 to 20)
#    0.000    0.000    4.000    3.600   14.000    0.000 
#    0.000    0.000    0.000    0.000    0.000    0.000 
#    0.000    0.000    0.000    0.000    0.000    0.000 
#
# Total GULP energy -111863.073851 kJ/mol
# GULP energy per Si atom -5593.153693 kJ/mol
# Density = 2.454725 g / cm^3
# Si number density = 24.603245 Si / 1000 Ang^3
#
#
#
# Elastic Constant Matrix: (Units=GPa)
#
#
# Indices 1 2 3 4 5 6 
#
# 1 118.5594 40.4311 32.9735 0.0000 18.2410 0.0000
# 2 40.4311 121.2941 16.7620 0.0000 -2.5526 0.0000
# 3 32.9735 16.7620 92.8468 0.0000 8.9912 0.0000
# 4 0.0000 0.0000 0.0000 59.8829 0.0000 7.4613
# 5 18.2410 -2.5526 8.9912 0.0000 50.1058 0.0000
# 6 0.0000 0.0000 0.0000 7.4613 0.0000 48.8220
#
#
#
# Elastic Compliance Matrix: (Units=1/GPa)
#
#
# Indices 1 2 3 4 5 6 
#
# 1 0.010940 -0.003317 -0.002935 0.000000 -0.003625 0.000000
# 2 -0.003317 0.009487 -0.000711 0.000000 0.001818 0.000000
# 3 -0.002935 -0.000711 0.012051 0.000000 -0.001130 0.000000
# 4 0.000000 0.000000 0.000000 0.017023 0.000000 -0.002602
# 5 -0.003625 0.001818 -0.001130 0.000000 0.021573 0.000000
# 6 0.000000 0.000000 0.000000 -0.002602 0.000000 0.020880
#
#
# Mechanical properties :
#
#
# Convention : Reuss Voigt Hill
#
# Bulk Modulus (GPa) = 53.90621 57.00372 55.45497
# Shear Modulus (GPa) = 44.61755 47.93106 46.27430
#
# Velocity S-wave (km/s) = 4.26312 4.41858 4.34155
# Velocity P-wave (km/s) = 6.79632 7.01793 6.90802
#
# Compressibility (1/GPa) = 0.01855074
#
# Stress axis : x y z
#
# Youngs Moduli (GPa) = 91.40849 105.41133 82.98349
#
# Poissons Ratio (x) = 0.34968 0.24358
# Poissons Ratio (y) = 0.30323 0.05897
# Poissons Ratio (z) = 0.26831 0.07491
#
# Static dielectric constant tensor:
#      x y z
#    x 2.089740 0.000000 0.044000 
#    y 0.000000 2.695050 0.000000 
#    z 0.044000 0.000000 2.118070 
# 
# From -- ./inp_files/20754.got.cif
#   From: 2010.05.17/outbox.cif.g08.bks.cpg/sg14_11_cif.got.tgz:20754.got - 2010.06.03 17:49:19.
