data_PCOD9253794
_publ_section_title
;
Structure prediction by ZEFSAII (Michael W. Deem and Ramdas Pophale) SiO2 
 PCOD9253794
Probable space group: C 2/C
;
_chemical_formula_sum "Si O2"
_cell_formula_units_Z 52
_cell_length_a 23.041481
_cell_length_b 7.308336
_cell_length_c 13.534543
_cell_angle_alpha 90.000000
_cell_angle_beta 122.158723
_cell_angle_gamma 90.000000
_cell_volume 1929.473756
_symmetry_space_group_name_H-M "C 2/C"
_symmetry_group_IT_number 15
_symmetry_cell_setting 'monoclinic'
loop_
_space_group_symop_operation_xyz
x,y,z
-x,y,1/2-z
-x,-y,-z
x,-y,1/2+z
1/2+x,1/2+y,z
1/2-x,1/2+y,1/2-z
1/2-x,1/2-y,-z
1/2+x,1/2-y,1/2+z
loop_
_atom_site_type_symbol
_atom_site_label
_atom_site_fract_x
_atom_site_fract_y
_atom_site_fract_z
Si Si1 0.078805 0.375825 0.520128
Si Si2 0.500000 0.492361 0.750000
Si Si3 0.330610 0.126396 0.218448
Si Si4 0.316592 0.673077 0.401652
Si Si5 0.201719 0.432676 0.516589
Si Si6 0.537342 0.722824 0.978071
Si Si7 0.649807 0.480502 0.860079
O O1 0.110315 0.430599 0.654685
O O2 0.142210 0.311008 0.511160
O O3 0.047174 0.564819 0.452522
O O4 0.020945 0.228047 0.491468
O O5 0.516378 0.615941 0.860933
O O6 0.573362 0.398694 0.792635
O O7 0.256429 0.111290 0.204696
O O8 0.280489 0.633481 0.096958
O O9 0.347579 0.337334 0.206234
O O10 0.303397 0.880959 0.423344
O O11 0.388831 0.660154 0.412224
O O12 0.331326 0.568300 0.516761
O O13 0.177919 0.509126 0.388400
#
# Coordination Sequence:
#
# PCOD9253794 Si02
#       7
#     8   4   8   8   8   8   8
#     4  10  17  23  36  60  90 109 127 158 210 253
#     4  10  14  24  42  58  88 112 126 168 208 238
#     4   9  14  25  39  55  81 115 131 157 203 239
#     4   7  13  24  38  51  76 109 134 165 195 239
#     4   8  15  25  35  56  85 104 136 163 192 252
#     4   9  17  24  34  62  89 105 131 158 207 250
#     4   8  13  22  38  56  76 109 135 161 201 239
#
# _framework density 26.950351999999999
#
# number of rings (size 3 to 8) (size 9 to 14) (size 15 to 20)
#    0.000    3.385    1.538    2.769    0.000    0.000 
#    0.000    0.000    0.000    0.000    0.000   19.385 
#    0.000    0.000    0.000    0.000    0.000    0.000 
#
# Total GULP energy -145422.268631 kJ/mol
# GULP energy per Si atom -5593.164178 kJ/mol
# Density = 2.688901 g / cm^3
# Si number density = 26.950352 Si / 1000 Ang^3
#
#
#
# Elastic Constant Matrix: (Units=GPa)
#
#
# Indices 1 2 3 4 5 6 
#
# 1 253.8016 8.2001 52.8989 0.0000 43.7090 0.0000
# 2 8.2001 64.4245 22.9742 0.0000 -15.8132 0.0000
# 3 52.8989 22.9742 90.8756 0.0000 16.4766 0.0000
# 4 0.0000 0.0000 0.0000 34.7722 0.0000 9.3285
# 5 43.7090 -15.8132 16.4766 0.0000 40.7241 0.0000
# 6 0.0000 0.0000 0.0000 9.3285 0.0000 21.6071
#
#
#
# Elastic Compliance Matrix: (Units=1/GPa)
#
#
# Indices 1 2 3 4 5 6 
#
# 1 0.005299 -0.001422 -0.001720 0.000000 -0.005544 0.000000
# 2 -0.001422 0.021198 -0.006799 0.000000 0.012508 0.000000
# 3 -0.001720 -0.006799 0.014966 0.000000 -0.006849 0.000000
# 4 0.000000 0.000000 0.000000 0.032526 0.000000 -0.014043
# 5 -0.005544 0.012508 -0.006849 0.000000 0.038134 0.000000
# 6 0.000000 0.000000 0.000000 -0.014043 0.000000 0.052344
#
#
# Mechanical properties :
#
#
# Convention : Reuss Voigt Hill
#
# Bulk Modulus (GPa) = 46.33738 64.13865 55.23801
# Shear Modulus (GPa) = 26.10389 41.08926 33.59657
#
# Velocity S-wave (km/s) = 3.11560 3.90888 3.53457
# Velocity P-wave (km/s) = 5.49304 6.65004 6.09904
#
# Compressibility (1/GPa) = 0.02158085
#
# Stress axis : x y z
#
# Youngs Moduli (GPa) = 188.70462 47.17466 66.81801
#
# Poissons Ratio (x) = 0.06708 0.11493
# Poissons Ratio (y) = 0.26831 0.45431
# Poissons Ratio (z) = 0.32459 0.32075
#
# Static dielectric constant tensor:
#      x y z
#    x 2.268200 0.000000 -0.007300 
#    y 0.000000 2.076110 0.000000 
#    z -0.007300 0.000000 2.003970 
# 
# From -- ./inp_files/172771.got.cif
#   From: 2010.05.17/outbox.cif.g08.bks.cpg/sg15_87_cif.got.tgz:172771.got - 2010.06.03 18:47:42.
