data_PCOD9253668
_publ_section_title
;
Structure prediction by ZEFSAII (Michael W. Deem and Ramdas Pophale) SiO2 
 PCOD9253668
Probable space group: P 21/C
;
_chemical_formula_sum "Si O2"
_cell_formula_units_Z 28
_cell_length_a 12.000000
_cell_length_b 12.000000
_cell_length_c 21.000000
_cell_angle_alpha 90.000000
_cell_angle_beta 150.000000
_cell_angle_gamma 90.000000
_cell_volume 1512.000000
_symmetry_space_group_name_H-M "P 21/C"
_symmetry_group_IT_number 14
_symmetry_cell_setting 'monoclinic'
loop_
_space_group_symop_operation_xyz
x,y,z
-x,1/2+y,1/2-z
-x,-y,-z
x,1/2-y,1/2+z
loop_
_atom_site_type_symbol
_atom_site_label
_atom_site_fract_x
_atom_site_fract_y
_atom_site_fract_z
Si Si1 0.459603 0.409060 0.619004
Si Si2 0.069313 0.941999 0.876259
Si Si3 0.841246 0.318888 0.052526
Si Si4 0.460916 0.476498 0.904024
Si Si5 0.873080 0.384134 0.921935
Si Si6 0.777822 0.829375 0.514079
Si Si7 0.880449 0.477302 0.745511
O O1 0.244816 0.493666 0.510483
O O2 0.631424 0.398622 0.765912
O O3 0.350760 0.288518 0.547984
O O4 0.639615 0.451279 0.656043
O O5 0.106205 0.808193 0.901341
O O6 0.131951 0.984354 0.836342
O O7 0.800323 0.967434 0.745156
O O8 0.011445 0.411750 0.167787
O O9 0.599626 0.364048 0.956455
O O10 0.847250 0.327353 0.978330
O O11 0.586929 0.574286 0.925897
O O12 0.500000 0.500000 0.000000
O O13 0.000000 0.500000 0.000000
O O14 0.054710 0.327671 0.964150
O O15 0.951900 0.873678 0.654371
#
# Coordination Sequence:
#
# PCOD9253668 Si02
#       7
#     4   4   4   4   4   4   4
#     4  11  26  41  71 101 132 181 235 277 328 416
#     4  12  27  39  72 110 136 169 237 282 335 414
#     4  11  25  46  70  95 141 184 220 282 348 396
#     4  11  23  43  67 102 138 177 215 280 348 400
#     4  11  22  50  69  92 137 186 232 271 350 398
#     4  10  23  42  71  95 133 184 223 272 341 404
#     4  10  23  44  66  99 138 186 207 281 355 403
#
# _framework density 18.518519000000001
#
# number of rings (size 3 to 8) (size 9 to 14) (size 15 to 20)
#    0.000    1.143    7.143    0.429   10.000    2.286 
#    0.000    1.429    0.000    0.000    0.000    0.000 
#    0.000    0.000    0.000    0.000    0.000    0.000 
#
# Total GULP energy -156061.752086 kJ/mol
# GULP energy per Si atom -5573.634003 kJ/mol
# Density = 1.847637 g / cm^3
# Si number density = 18.518519 Si / 1000 Ang^3
#
#
#
# Elastic Constant Matrix: (Units=GPa)
#
#
# Indices 1 2 3 4 5 6 
#
# 1 99.3200 14.9820 41.5895 0.0000 2.3221 0.0000
# 2 14.9820 126.1421 61.1222 0.0000 10.5933 0.0000
# 3 41.5895 61.1222 157.3617 0.0000 21.6094 0.0000
# 4 0.0000 0.0000 0.0000 40.3402 0.0000 5.2324
# 5 2.3221 10.5933 21.6094 0.0000 48.1811 0.0000
# 6 0.0000 0.0000 0.0000 5.2324 0.0000 21.2873
#
#
#
# Elastic Compliance Matrix: (Units=1/GPa)
#
#
# Indices 1 2 3 4 5 6 
#
# 1 0.011355 0.000112 -0.003161 0.000000 0.000846 0.000000
# 2 0.000112 0.009777 -0.003763 0.000000 -0.000467 0.000000
# 3 -0.003161 -0.003763 0.009076 0.000000 -0.003091 0.000000
# 4 0.000000 0.000000 0.000000 0.025606 0.000000 -0.006294
# 5 0.000846 -0.000467 -0.003091 0.000000 0.022203 0.000000
# 6 0.000000 0.000000 0.000000 -0.006294 0.000000 0.048523
#
#
# Mechanical properties :
#
#
# Convention : Reuss Voigt Hill
#
# Bulk Modulus (GPa) = 60.29612 68.69015 64.49313
# Shear Modulus (GPa) = 34.31889 39.63707 36.97798
#
# Velocity S-wave (km/s) = 4.30957 4.63147 4.47342
# Velocity P-wave (km/s) = 7.57587 8.11011 7.84754
#
# Compressibility (1/GPa) = 0.01658481
#
# Stress axis : x y z
#
# Youngs Moduli (GPa) = 88.06428 102.28252 110.17855
#
# Poissons Ratio (x) = -0.01144 0.34824
# Poissons Ratio (y) = -0.00985 0.41459
# Poissons Ratio (z) = 0.27834 0.38488
#
# Static dielectric constant tensor:
#      x y z
#    x 1.674500 0.000000 -0.005960 
#    y 0.000000 1.641600 0.000000 
#    z -0.005960 0.000000 1.651010 
# 
# From -- ./inp_files/67363.got.cif
#   From: 2010.05.17/outbox.ucp.g08.bks.cvg/sg14_34_cif.got.tgz:67363.got - 2010.06.11 12:31:08.
