data_PCOD9253011
_publ_section_title
;
Structure prediction by ZEFSAII (Michael W. Deem and Ramdas Pophale) SiO2 
 PCOD9253011
Probable space group: P 21/C
;
_chemical_formula_sum "Si O2"
_cell_formula_units_Z 16
_cell_length_a 4.806124
_cell_length_b 8.314035
_cell_length_c 13.157917
_cell_angle_alpha 90.000000
_cell_angle_beta 93.559825
_cell_angle_gamma 90.000000
_cell_volume 524.753310
_symmetry_space_group_name_H-M "P 21/C"
_symmetry_group_IT_number 14
_symmetry_cell_setting 'monoclinic'
loop_
_space_group_symop_operation_xyz
x,y,z
-x,1/2+y,1/2-z
-x,-y,-z
x,1/2-y,1/2+z
loop_
_atom_site_type_symbol
_atom_site_label
_atom_site_fract_x
_atom_site_fract_y
_atom_site_fract_z
Si Si1 0.041364 0.649316 0.858731
Si Si2 0.406690 0.105591 0.246349
Si Si3 0.761265 0.546686 0.575942
Si Si4 0.184107 0.676481 0.076836
O O1 0.345040 0.961979 0.821636
O O2 0.235245 0.546289 0.787598
O O3 0.824916 0.784316 0.815717
O O4 0.853817 0.513059 0.907216
O O5 0.572020 0.204589 0.337262
O O6 0.500000 0.500000 0.500000
O O7 0.766701 0.202735 0.541514
O O8 0.000000 0.500000 0.500000
O O9 0.911825 0.720789 0.600775
#
# Coordination Sequence:
#
# PCOD9253011 Si02
#       4
#     4   4   4   4
#     4  11  29  60  99 148 208 272 347 442 517 640
#     4  12  30  59 106 151 207 283 351 429 543 627
#     4  12  31  61  96 145 207 270 355 432 517 629
#     4  11  29  59  96 143 210 271 345 433 527 623
#
# _framework density 30.490514999999998
#
# number of rings (size 3 to 8) (size 9 to 14) (size 15 to 20)
#    0.000    0.500    2.500    0.750   10.500    4.000 
#    4.500    1.250    0.000    0.000    0.000    0.000 
#    0.000    0.000    0.000    0.000    0.000    0.000 
#
# Total GULP energy -89559.585369 kJ/mol
# GULP energy per Si atom -5597.474086 kJ/mol
# Density = 3.042112 g / cm^3
# Si number density = 30.490515 Si / 1000 Ang^3
#
#
#
# Elastic Constant Matrix: (Units=GPa)
#
#
# Indices 1 2 3 4 5 6 
#
# 1 272.8832 126.1227 125.0918 0.0000 6.5316 0.0000
# 2 126.1227 204.7664 120.0579 0.0000 4.8767 0.0000
# 3 125.0918 120.0579 258.8487 0.0000 20.2469 0.0000
# 4 0.0000 0.0000 0.0000 58.6024 0.0000 -0.6546
# 5 6.5316 4.8767 20.2469 0.0000 68.6757 0.0000
# 6 0.0000 0.0000 0.0000 -0.6546 0.0000 80.5600
#
#
#
# Elastic Compliance Matrix: (Units=1/GPa)
#
#
# Indices 1 2 3 4 5 6 
#
# 1 0.005516 -0.002517 -0.001506 0.000000 0.000098 0.000000
# 2 -0.002517 0.007870 -0.002466 0.000000 0.000407 0.000000
# 3 -0.001506 -0.002466 0.005845 0.000000 -0.001405 0.000000
# 4 0.000000 0.000000 0.000000 0.017066 0.000000 0.000139
# 5 0.000098 0.000407 -0.001405 0.000000 0.014937 0.000000
# 6 0.000000 0.000000 0.000000 0.000139 0.000000 0.012414
#
#
# Mechanical properties :
#
#
# Convention : Reuss Voigt Hill
#
# Bulk Modulus (GPa) = 159.91683 164.33812 162.12747
# Shear Modulus (GPa) = 63.52574 65.91603 64.72088
#
# Velocity S-wave (km/s) = 4.56944 4.65462 4.61223
# Velocity P-wave (km/s) = 8.96670 9.10508 9.03615
#
# Compressibility (1/GPa) = 0.00625325
#
# Stress axis : x y z
#
# Youngs Moduli (GPa) = 181.29912 127.06883 171.09962
#
# Poissons Ratio (x) = 0.31980 0.25766
# Poissons Ratio (y) = 0.45628 0.42189
# Poissons Ratio (z) = 0.27302 0.31332
#
# Static dielectric constant tensor:
#      x y z
#    x 2.344490 0.000000 0.068390 
#    y 0.000000 2.645930 0.000000 
#    z 0.068390 0.000000 2.488950 
# 
# From -- ./inp_files/52431.got.cif
#   From: 2010.05.17/outbox.cif.g08.bks.cpg/sg14_27_cif.got.tgz:52431.got - 2010.06.03 17:49:19.
