data_PCOD9253963
_publ_section_title
;
Structure prediction by ZEFSAII (Michael W. Deem and Ramdas Pophale) SiO2 
 PCOD9253963
Probable space group: C 2/C
;
_chemical_formula_sum "Si O2"
_cell_formula_units_Z 64
_cell_length_a 18.967524
_cell_length_b 11.998387
_cell_length_c 27.584146
_cell_angle_alpha 90.000000
_cell_angle_beta 142.316441
_cell_angle_gamma 90.000000
_cell_volume 3837.491512
_symmetry_space_group_name_H-M "C 2/C"
_symmetry_group_IT_number 15
_symmetry_cell_setting 'monoclinic'
loop_
_space_group_symop_operation_xyz
x,y,z
-x,y,1/2-z
-x,-y,-z
x,-y,1/2+z
1/2+x,1/2+y,z
1/2-x,1/2+y,1/2-z
1/2-x,1/2-y,-z
1/2+x,1/2-y,1/2+z
loop_
_atom_site_type_symbol
_atom_site_label
_atom_site_fract_x
_atom_site_fract_y
_atom_site_fract_z
Si Si1 0.765210 0.015075 0.191358
Si Si2 0.658507 0.449151 0.102425
Si Si3 0.456264 0.903295 0.864696
Si Si4 0.649525 0.669702 0.696045
Si Si5 0.608903 0.276770 0.704132
Si Si6 0.589890 0.093563 0.531783
Si Si7 0.030437 0.826796 0.554540
Si Si8 0.565835 0.065156 0.736004
O O1 0.841138 0.920223 0.257357
O O2 0.710937 0.960285 0.113914
O O3 0.655347 0.046014 0.166693
O O4 0.841371 0.126236 0.234272
O O5 0.612810 0.392313 0.127114
O O6 0.615735 0.576672 0.080708
O O7 0.796509 0.443979 0.178972
O O8 0.595999 0.374692 0.027669
O O9 0.424913 0.777492 0.833906
O O10 0.469698 0.977253 0.824579
O O11 0.562344 0.897195 0.959926
O O12 0.778581 0.714090 0.756081
O O13 0.545843 0.317015 0.620932
O O14 0.542739 0.186170 0.699865
O O15 0.560778 0.209061 0.544573
O O16 0.500000 0.000000 0.500000
O O17 0.500000 0.048758 0.750000
#
# Coordination Sequence:
#
# PCOD9253963 Si02
#       8
#     8   8   8   8   8   8   8   8
#     4  10  17  28  51  81 109 134 164 223 280 323
#     4  10  20  32  54  87 111 139 171 218 278 324
#     4  10  18  31  50  76 106 132 178 216 265 315
#     4  10  15  28  50  82 109 132 166 220 275 321
#     4  10  18  31  51  75 109 142 177 220 266 318
#     4  10  19  27  46  83 115 135 159 215 284 323
#     4  11  18  31  55  89 118 130 165 228 293 321
#     4  11  23  40  55  70 104 153 194 212 246 325
#
# _framework density 16.677561000000001
#
# number of rings (size 3 to 8) (size 9 to 14) (size 15 to 20)
#    0.000    1.750    6.250    1.500    1.750    0.000 
#    0.000    0.625    0.000    1.500    0.000    0.000 
#    0.000    0.000    0.000    0.000    0.000    0.000 
#
# Total GULP energy -178209.793595 kJ/mol
# GULP energy per Si atom -5569.056050 kJ/mol
# Density = 1.663960 g / cm^3
# Si number density = 16.677561 Si / 1000 Ang^3
#
#
#
# Elastic Constant Matrix: (Units=GPa)
#
#
# Indices 1 2 3 4 5 6 
#
# 1 36.9305 24.9546 24.2828 0.0000 -12.2266 0.0000
# 2 24.9546 131.5625 40.9355 0.0000 -6.6729 0.0000
# 3 24.2828 40.9355 83.5576 0.0000 -9.8027 0.0000
# 4 0.0000 0.0000 0.0000 33.0966 0.0000 -2.8788
# 5 -12.2266 -6.6729 -9.8027 0.0000 11.8655 0.0000
# 6 0.0000 0.0000 0.0000 -2.8788 0.0000 6.1368
#
#
#
# Elastic Compliance Matrix: (Units=1/GPa)
#
#
# Indices 1 2 3 4 5 6 
#
# 1 0.048797 -0.005013 -0.006818 0.000000 0.041830 0.000000
# 2 -0.005013 0.009509 -0.003522 0.000000 -0.002727 0.000000
# 3 -0.006818 -0.003522 0.016187 0.000000 0.004367 0.000000
# 4 0.000000 0.000000 0.000000 0.031500 0.000000 0.014777
# 5 0.041830 -0.002727 0.004367 0.000000 0.129455 0.000000
# 6 0.000000 0.000000 0.000000 0.014777 0.000000 0.169885
#
#
# Mechanical properties :
#
#
# Convention : Reuss Voigt Hill
#
# Bulk Modulus (GPa) = 22.83721 48.04405 35.44063
# Shear Modulus (GPa) = 11.09551 21.01162 16.05357
#
# Velocity S-wave (km/s) = 2.58213 3.55332 3.10592
# Velocity P-wave (km/s) = 4.75531 6.76054 5.84457
#
# Compressibility (1/GPa) = 0.04378818
#
# Stress axis : x y z
#
# Youngs Moduli (GPa) = 20.49317 105.16066 61.77876
#
# Poissons Ratio (x) = 0.52714 0.42119
# Poissons Ratio (y) = 0.10273 0.21757
# Poissons Ratio (z) = 0.13972 0.37036
#
# Static dielectric constant tensor:
#      x y z
#    x 1.521880 0.000000 -0.002830 
#    y 0.000000 1.567150 0.000000 
#    z -0.002830 0.000000 1.633160 
# 
# From -- ./inp_files/279901.got.cif
#   From: 2010.05.17/outbox.cif.g08.bks.cpg/sg15_140_cif.got.tgz:279901.got - 2010.06.03 18:47:42.
