data_PCOD9253700
_publ_section_title
;
Structure prediction by ZEFSAII (Michael W. Deem and Ramdas Pophale) SiO2 
 PCOD9253700
Probable space group: P 21/C
;
_chemical_formula_sum "Si O2"
_cell_formula_units_Z 32
_cell_length_a 9.000000
_cell_length_b 15.000000
_cell_length_c 12.000000
_cell_angle_alpha 90.000000
_cell_angle_beta 90.000000
_cell_angle_gamma 90.000000
_cell_volume 1620.000000
_symmetry_space_group_name_H-M "P 21/C"
_symmetry_group_IT_number 14
_symmetry_cell_setting 'monoclinic'
loop_
_space_group_symop_operation_xyz
x,y,z
-x,1/2+y,1/2-z
-x,-y,-z
x,1/2-y,1/2+z
loop_
_atom_site_type_symbol
_atom_site_label
_atom_site_fract_x
_atom_site_fract_y
_atom_site_fract_z
Si Si1 0.019779 0.724206 0.678734
Si Si2 0.786202 0.382938 0.717026
Si Si3 0.209051 0.317936 0.981622
Si Si4 0.530976 0.878523 0.153320
Si Si5 0.190244 0.075355 0.702169
Si Si6 0.217199 0.925067 0.050488
Si Si7 0.278422 0.375977 0.573222
Si Si8 0.540576 0.670672 0.203736
O O1 0.120001 0.791650 0.755517
O O2 0.115051 0.653696 0.603455
O O3 0.921728 0.793317 0.605195
O O4 0.907302 0.654626 0.740288
O O5 0.858712 0.473876 0.768713
O O6 0.767927 0.401651 0.582636
O O7 0.624432 0.369777 0.776887
O O8 0.189022 0.396190 0.072362
O O9 0.214763 0.223424 0.049832
O O10 0.357199 0.340642 0.907932
O O11 0.644133 0.921111 0.242805
O O12 0.370488 0.917955 0.122317
O O13 0.515598 0.777610 0.198477
O O14 0.613276 0.884735 0.033713
O O15 0.179744 0.032210 0.065529
O O16 0.363184 0.364755 0.690897
#
# Coordination Sequence:
#
# PCOD9253700 Si02
#       8
#     4   4   4   4   4   4   4   4
#     4  12  26  44  64 100 136 187 222 270 339 401
#     4  12  26  45  68 101 136 170 232 284 330 400
#     4  11  24  44  67  93 139 184 220 269 338 402
#     4  11  20  41  67 101 128 171 213 285 334 383
#     4  12  25  46  69  97 137 181 224 277 336 402
#     4  12  24  40  71 102 132 170 224 287 336 390
#     4  11  20  40  72  99 130 164 229 279 333 390
#     4  11  22  41  72  98 132 177 220 283 338 393
#
# _framework density 19.753086
#
# number of rings (size 3 to 8) (size 9 to 14) (size 15 to 20)
#    0.000    0.500    7.500    1.875    0.000    5.000 
#    0.000    1.250    0.000    0.000    0.000    0.000 
#    0.000    0.000    0.000    0.000    0.000    0.000 
#
# Total GULP energy -178494.737443 kJ/mol
# GULP energy per Si atom -5577.960545 kJ/mol
# Density = 1.970813 g / cm^3
# Si number density = 19.753086 Si / 1000 Ang^3
#
#
#
# Elastic Constant Matrix: (Units=GPa)
#
#
# Indices 1 2 3 4 5 6 
#
# 1 75.6761 21.6872 31.5372 0.0000 3.0114 0.0000
# 2 21.6872 129.3741 47.9395 0.0000 1.4647 0.0000
# 3 31.5372 47.9395 99.6494 0.0000 -1.1923 0.0000
# 4 0.0000 0.0000 0.0000 43.5152 0.0000 4.2100
# 5 3.0114 1.4647 -1.1923 0.0000 24.9602 0.0000
# 6 0.0000 0.0000 0.0000 4.2100 0.0000 35.5371
#
#
#
# Elastic Compliance Matrix: (Units=1/GPa)
#
#
# Indices 1 2 3 4 5 6 
#
# 1 0.015416 -0.000906 -0.004467 0.000000 -0.002020 0.000000
# 2 -0.000906 0.009474 -0.004279 0.000000 -0.000651 0.000000
# 3 -0.004467 -0.004279 0.013525 0.000000 0.001436 0.000000
# 4 0.000000 0.000000 0.000000 0.023247 0.000000 -0.002754
# 5 -0.002020 -0.000651 0.001436 0.000000 0.040414 0.000000
# 6 0.000000 0.000000 0.000000 -0.002754 0.000000 0.028466
#
#
# Mechanical properties :
#
#
# Convention : Reuss Voigt Hill
#
# Bulk Modulus (GPa) = 52.32696 56.33636 54.33166
# Shear Modulus (GPa) = 32.00688 34.37155 33.18922
#
# Velocity S-wave (km/s) = 4.02972 4.17593 4.10348
# Velocity P-wave (km/s) = 6.94259 7.19954 7.07223
#
# Compressibility (1/GPa) = 0.01911061
#
# Stress axis : x y z
#
# Youngs Moduli (GPa) = 64.86820 105.54820 73.93897
#
# Poissons Ratio (x) = 0.09563 0.33030
# Poissons Ratio (y) = 0.05877 0.31638
# Poissons Ratio (z) = 0.28977 0.45164
#
# Static dielectric constant tensor:
#      x y z
#    x 1.750660 0.000000 -0.005150 
#    y 0.000000 1.711190 0.000000 
#    z -0.005150 0.000000 1.686190 
# 
# From -- ./inp_files/25503.got.cif
#   From: 2010.05.17/outbox.ucp.g08.bks.cvg/sg14_13_cif.got.tgz:25503.got - 2010.06.11 12:31:08.
