data_PCOD9253040
_publ_section_title
;
Structure prediction by ZEFSAII (Michael W. Deem and Ramdas Pophale) SiO2 
 PCOD9253040
Probable space group: P 21/C
;
_chemical_formula_sum "Si O2"
_cell_formula_units_Z 30
_cell_length_a 6.355250
_cell_length_b 30.404865
_cell_length_c 7.527538
_cell_angle_alpha 90.000000
_cell_angle_beta 114.900117
_cell_angle_gamma 90.000000
_cell_volume 1319.339683
_symmetry_space_group_name_H-M "P 21/C"
_symmetry_group_IT_number 14
_symmetry_cell_setting 'monoclinic'
loop_
_space_group_symop_operation_xyz
x,y,z
-x,1/2+y,1/2-z
-x,-y,-z
x,1/2-y,1/2+z
loop_
_atom_site_type_symbol
_atom_site_label
_atom_site_fract_x
_atom_site_fract_y
_atom_site_fract_z
Si Si1 0.519159 0.147516 0.167361
Si Si2 0.722521 0.334068 0.351208
Si Si3 0.831309 0.430788 0.259489
Si Si4 0.017756 0.892476 0.521813
Si Si5 0.755871 0.808863 0.415529
Si Si6 0.844355 0.785681 0.839154
Si Si7 0.810901 0.929413 0.815733
Si Si8 0.500000 0.500000 0.000000
O O1 0.609849 0.152762 0.000339
O O2 0.393813 0.192928 0.174487
O O3 0.329177 0.109543 0.135327
O O4 0.738169 0.132314 0.362009
O O5 0.787540 0.379506 0.281375
O O6 0.521590 0.309604 0.171795
O O7 0.944169 0.304139 0.470056
O O8 0.596842 0.457492 0.150567
O O9 0.951964 0.431973 0.107597
O O10 0.996924 0.446081 0.476876
O O11 0.840198 0.856416 0.382587
O O12 0.933216 0.909674 0.682903
O O13 0.868327 0.803006 0.648303
O O14 0.831156 0.766766 0.331205
O O15 0.639378 0.966661 0.685257
#
# Coordination Sequence:
#
# PCOD9253040 Si02
#       8
#     4   4   4   4   4   4   4   2
#     4  12  21  50  75 101 148 198 241 304 363 444
#     4  12  26  48  76 104 146 205 244 301 379 433
#     4  12  25  49  77 106 148 196 244 307 379 451
#     4  12  25  49  79 106 153 199 248 305 370 450
#     4  12  26  44  69 109 147 193 250 305 358 432
#     4  12  27  45  68 110 149 192 255 300 361 436
#     4  12  25  52  74 110 147 192 251 302 381 451
#     4  12  28  46  78 114 146 188 248 318 378 450
#
# _framework density 22.738645000000002
#
# number of rings (size 3 to 8) (size 9 to 14) (size 15 to 20)
#    0.000    0.000    6.667    3.600    3.733    1.600 
#    0.000    3.333    0.000    0.000    0.000    0.000 
#    0.000    0.000    0.000    0.000    0.000    0.000 
#
# Total GULP energy -167450.555210 kJ/mol
# GULP energy per Si atom -5581.685174 kJ/mol
# Density = 2.268689 g / cm^3
# Si number density = 22.738645 Si / 1000 Ang^3
#
#
#
# Elastic Constant Matrix: (Units=GPa)
#
#
# Indices 1 2 3 4 5 6 
#
# 1 64.7369 3.5068 19.4351 0.0000 -13.3750 0.0000
# 2 3.5068 45.6314 34.0938 0.0000 9.4074 0.0000
# 3 19.4351 34.0938 130.0640 0.0000 23.2148 0.0000
# 4 0.0000 0.0000 0.0000 16.8351 0.0000 70.3668
# 5 -13.3750 9.4074 23.2148 0.0000 44.1987 0.0000
# 6 0.0000 0.0000 0.0000 70.3668 0.0000 -203.5861
#
#
#
# Elastic Compliance Matrix: (Units=1/GPa)
#
#
# Indices 1 2 3 4 5 6 
#
# 1 0.018265 0.000096 -0.004124 0.000000 0.007673 0.000000
# 2 0.000096 0.027459 -0.006813 0.000000 -0.002237 0.000000
# 3 -0.004124 -0.006813 0.011095 0.000000 -0.005625 0.000000
# 4 0.000000 0.000000 0.000000 0.024298 0.000000 0.008398
# 5 0.007673 -0.002237 -0.005625 0.000000 0.028378 0.000000
# 6 0.000000 0.000000 0.000000 0.008398 0.000000 -0.002009
#
#
# Mechanical properties :
#
#
# Convention : Reuss Voigt Hill
#
# Bulk Modulus (GPa) = 28.46035 39.38929 33.92482
# Shear Modulus (GPa) = 35.49144 -16.28402 9.60371
#
# Velocity S-wave (km/s) = 3.95504 -2.67898 2.05735
# Velocity P-wave (km/s) = 5.77926 2.79123 4.53822
#
# Compressibility (1/GPa) = 0.03513660
#
# Stress axis : x y z
#
# Youngs Moduli (GPa) = 54.74862 36.41821 90.13380
#
# Poissons Ratio (x) = -0.00348 0.37171
# Poissons Ratio (y) = -0.00524 0.61406
# Poissons Ratio (z) = 0.22578 0.24811
#
# Static dielectric constant tensor:
#      x y z
#    x 1.902650 0.000000 -0.010030 
#    y 0.000000 1.829720 0.000000 
#    z -0.010030 0.000000 1.842310 
# 
# From -- ./inp_files/7042.got.cif
#   From: 2010.05.17/outbox.cif.g08.bks.cpg/sg14_4_cif.got.tgz:7042.got - 2010.06.03 17:49:19.
