data_PCOD9253014
_publ_section_title
;
Structure prediction by ZEFSAII (Michael W. Deem and Ramdas Pophale) SiO2 
 PCOD9253014
Probable space group: P 21/C
;
_chemical_formula_sum "Si O2"
_cell_formula_units_Z 20
_cell_length_a 5.219865
_cell_length_b 8.709706
_cell_length_c 15.948682
_cell_angle_alpha 90.000000
_cell_angle_beta 89.367204
_cell_angle_gamma 90.000000
_cell_volume 725.038515
_symmetry_space_group_name_H-M "P 21/C"
_symmetry_group_IT_number 14
_symmetry_cell_setting 'monoclinic'
loop_
_space_group_symop_operation_xyz
x,y,z
-x,1/2+y,1/2-z
-x,-y,-z
x,1/2-y,1/2+z
loop_
_atom_site_type_symbol
_atom_site_label
_atom_site_fract_x
_atom_site_fract_y
_atom_site_fract_z
Si Si1 0.595894 0.189413 0.820124
Si Si2 0.807325 0.180876 0.998817
Si Si3 0.777004 0.461166 0.899107
Si Si4 0.303840 0.176204 0.094262
Si Si5 0.897762 0.715349 0.230309
O O1 0.556638 0.369096 0.848879
O O2 0.310015 0.153334 0.793911
O O3 0.826369 0.202895 0.753203
O O4 0.711903 0.125438 0.906970
O O5 0.591633 0.139268 0.066348
O O6 0.092011 0.138055 0.024598
O O7 0.796280 0.367069 0.985985
O O8 0.723743 0.637695 0.903013
O O9 0.017792 0.398553 0.844338
O O10 0.219316 0.133369 0.188422
#
# Coordination Sequence:
#
# PCOD9253014 Si02
#       5
#     4   4   4   4   4
#     4   8  18  34  42  63 105 125 140 187 242 276
#     4   9  20  28  49  74  97 119 150 194 246 280
#     4   8  21  30  48  67 108 119 148 190 248 269
#     4  12  18  29  51  77  90 124 161 188 227 292
#     4   9  19  31  44  67 100 126 154 181 231 286
#
# _framework density 27.584738000000002
#
# number of rings (size 3 to 8) (size 9 to 14) (size 15 to 20)
#    2.400    0.000    0.000    4.800    2.800    0.000 
#    0.000    0.000    0.000    0.000    0.000   19.600 
#    0.000    0.000    0.000    0.000    0.000    0.000 
#
# Total GULP energy -111646.054436 kJ/mol
# GULP energy per Si atom -5582.302722 kJ/mol
# Density = 2.752195 g / cm^3
# Si number density = 27.584738 Si / 1000 Ang^3
#
#
#
# Elastic Constant Matrix: (Units=GPa)
#
#
# Indices 1 2 3 4 5 6 
#
# 1 142.0535 3.3221 20.2439 0.0000 -15.5114 0.0000
# 2 3.3221 65.3435 14.8622 0.0000 1.4503 0.0000
# 3 20.2439 14.8622 103.5179 0.0000 -22.5496 0.0000
# 4 0.0000 0.0000 0.0000 47.7290 0.0000 0.8420
# 5 -15.5114 1.4503 -22.5496 0.0000 47.9326 0.0000
# 6 0.0000 0.0000 0.0000 0.8420 0.0000 27.7046
#
#
#
# Elastic Compliance Matrix: (Units=1/GPa)
#
#
# Indices 1 2 3 4 5 6 
#
# 1 0.007397 -0.000192 -0.000999 0.000000 0.001930 0.000000
# 2 -0.000192 0.015954 -0.002643 0.000000 -0.001788 0.000000
# 3 -0.000999 -0.002643 0.011344 0.000000 0.005094 0.000000
# 4 0.000000 0.000000 0.000000 0.020963 0.000000 -0.000637
# 5 0.001930 -0.001788 0.005094 0.000000 0.023937 0.000000
# 6 0.000000 0.000000 0.000000 -0.000637 0.000000 0.036114
#
#
# Mechanical properties :
#
#
# Convention : Reuss Voigt Hill
#
# Bulk Modulus (GPa) = 36.99620 43.08570 40.04095
# Shear Modulus (GPa) = 37.76821 42.83903 40.30362
#
# Velocity S-wave (km/s) = 3.70424 3.94508 3.82656
# Velocity P-wave (km/s) = 5.63349 6.03365 5.83700
#
# Compressibility (1/GPa) = 0.02702980
#
# Stress axis : x y z
#
# Youngs Moduli (GPa) = 135.18763 62.67937 88.14901
#
# Poissons Ratio (x) = 0.01202 0.08803
# Poissons Ratio (y) = 0.02592 0.23294
# Poissons Ratio (z) = 0.13501 0.16563
#
# Static dielectric constant tensor:
#      x y z
#    x 2.103080 0.000000 0.084560 
#    y 0.000000 2.455630 0.000000 
#    z 0.084560 0.000000 2.133800 
# 
# From -- ./inp_files/52804.got.cif
#   From: 2010.05.17/outbox.cif.g08.bks.cpg/sg14_27_cif.got.tgz:52804.got - 2010.06.03 17:49:19.
