data_PCOD9253541
_publ_section_title
;
Structure prediction by ZEFSAII (Michael W. Deem and Ramdas Pophale) SiO2 
 PCOD9253541
Probable space group: P 21/C
;
_chemical_formula_sum "Si O2"
_cell_formula_units_Z 28
_cell_length_a 21.000000
_cell_length_b 12.000000
_cell_length_c 12.000000
_cell_angle_alpha 90.000000
_cell_angle_beta 150.000000
_cell_angle_gamma 90.000000
_cell_volume 1512.000000
_symmetry_space_group_name_H-M "P 21/C"
_symmetry_group_IT_number 14
_symmetry_cell_setting 'monoclinic'
loop_
_space_group_symop_operation_xyz
x,y,z
-x,1/2+y,1/2-z
-x,-y,-z
x,1/2-y,1/2+z
loop_
_atom_site_type_symbol
_atom_site_label
_atom_site_fract_x
_atom_site_fract_y
_atom_site_fract_z
Si Si1 0.330464 0.396816 0.648696
Si Si2 0.988886 0.271566 0.456271
Si Si3 0.254337 0.140754 0.462713
Si Si4 0.919486 0.045203 0.234109
Si Si5 0.210142 0.795269 0.145787
Si Si6 0.140788 0.928365 0.429694
Si Si7 0.397095 0.994651 0.490351
O O1 0.312801 0.260811 0.600226
O O2 0.198140 0.460925 0.413791
O O3 0.362284 0.430950 0.826707
O O4 0.453830 0.456391 0.776743
O O5 0.979253 0.140305 0.406421
O O6 0.891764 0.282332 0.411002
O O7 0.935418 0.356849 0.280396
O O8 0.127719 0.315417 0.705306
O O9 0.208684 0.040500 0.480139
O O10 0.345979 0.071203 0.515783
O O11 0.854639 0.126534 0.044898
O O12 0.034273 0.974372 0.354092
O O13 0.324043 0.874722 0.364419
O O14 0.227870 0.669709 0.120424
#
# Coordination Sequence:
#
# PCOD9253541 Si02
#       7
#     4   4   4   4   4   4   4
#     4  10  24  44  62  89 123 168 205 252 298 363
#     4  11  21  37  63  93 127 161 195 257 320 356
#     4  12  23  39  67  94 120 160 210 251 306 366
#     4  10  22  37  60  93 127 158 202 252 308 368
#     4  10  20  38  61  87 121 164 202 251 308 362
#     4  11  22  36  61  96 124 153 205 254 312 369
#     4  10  23  46  65  82 126 169 204 247 305 356
#
# _framework density 18.518519000000001
#
# number of rings (size 3 to 8) (size 9 to 14) (size 15 to 20)
#    0.000    1.429    2.857    3.000    4.000    3.429 
#    5.143    0.714    0.000    0.000    0.000    0.000 
#    0.000    0.000    0.000    0.000    0.000    0.000 
#
# Total GULP energy -155977.386973 kJ/mol
# GULP energy per Si atom -5570.620963 kJ/mol
# Density = 1.847637 g / cm^3
# Si number density = 18.518519 Si / 1000 Ang^3
#
#
#
# Elastic Constant Matrix: (Units=GPa)
#
#
# Indices 1 2 3 4 5 6 
#
# 1 108.8588 64.4974 43.7007 0.0000 23.4313 0.0000
# 2 64.4974 201.7226 54.2966 0.0000 12.9360 0.0000
# 3 43.7007 54.2966 71.5238 0.0000 14.3791 0.0000
# 4 0.0000 0.0000 0.0000 36.2457 0.0000 -2.6944
# 5 23.4313 12.9360 14.3791 0.0000 21.4691 0.0000
# 6 0.0000 0.0000 0.0000 -2.6944 0.0000 48.8571
#
#
#
# Elastic Compliance Matrix: (Units=1/GPa)
#
#
# Indices 1 2 3 4 5 6 
#
# 1 0.015361 -0.002849 -0.004851 0.000000 -0.011800 0.000000
# 2 -0.002849 0.006767 -0.003700 0.000000 0.001510 0.000000
# 3 -0.004851 -0.003700 0.021080 0.000000 -0.006595 0.000000
# 4 0.000000 0.000000 0.000000 0.027703 0.000000 0.001528
# 5 -0.011800 0.001510 -0.006595 0.000000 0.062964 0.000000
# 6 0.000000 0.000000 0.000000 0.001528 0.000000 0.020552
#
#
# Mechanical properties :
#
#
# Convention : Reuss Voigt Hill
#
# Bulk Modulus (GPa) = 48.99845 78.56606 63.78225
# Shear Modulus (GPa) = 27.16937 35.95508 31.56222
#
# Velocity S-wave (km/s) = 3.83449 4.41111 4.13287
# Velocity P-wave (km/s) = 6.79125 8.27415 7.56910
#
# Compressibility (1/GPa) = 0.02040881
#
# Stress axis : x y z
#
# Youngs Moduli (GPa) = 65.09807 147.76710 47.43878
#
# Poissons Ratio (x) = 0.42103 0.23010
# Poissons Ratio (y) = 0.18548 0.17553
# Poissons Ratio (z) = 0.31576 0.54676
#
# Static dielectric constant tensor:
#      x y z
#    x 1.682980 0.000000 -0.029260 
#    y 0.000000 1.652610 0.000000 
#    z -0.029260 0.000000 1.661850 
# 
# From -- ./inp_files/35162.got.cif
#   From: 2010.05.17/outbox.ucp.g08.bks.cvg/sg14_18_cif.got.tgz:35162.got - 2010.06.11 12:31:08.
