data_PCOD9253075
_publ_section_title
;
Structure prediction by ZEFSAII (Michael W. Deem and Ramdas Pophale) SiO2 
 PCOD9253075
Probable space group: P 21/C
;
_chemical_formula_sum "Si O2"
_cell_formula_units_Z 28
_cell_length_a 9.241990
_cell_length_b 20.388689
_cell_length_c 9.065718
_cell_angle_alpha 90.000000
_cell_angle_beta 131.445847
_cell_angle_gamma 90.000000
_cell_volume 1280.489300
_symmetry_space_group_name_H-M "P 21/C"
_symmetry_group_IT_number 14
_symmetry_cell_setting 'monoclinic'
loop_
_space_group_symop_operation_xyz
x,y,z
-x,1/2+y,1/2-z
-x,-y,-z
x,1/2-y,1/2+z
loop_
_atom_site_type_symbol
_atom_site_label
_atom_site_fract_x
_atom_site_fract_y
_atom_site_fract_z
Si Si1 0.183984 0.967419 0.052890
Si Si2 0.922593 0.354497 0.740587
Si Si3 0.643095 0.815666 0.518260
Si Si4 0.956375 0.431824 0.053345
Si Si5 0.370805 0.058874 0.980042
Si Si6 0.484838 0.688454 0.573304
Si Si7 0.399752 0.930815 0.465671
O O1 0.124023 0.923477 0.873466
O O2 0.329601 0.026668 0.110589
O O3 0.273811 0.919320 0.232530
O O4 0.000000 0.000000 0.000000
O O5 0.747299 0.306229 0.583096
O O6 0.128177 0.326932 0.830994
O O7 0.937863 0.373849 0.922498
O O8 0.583170 0.748072 0.554246
O O9 0.550759 0.872128 0.559224
O O10 0.567417 0.819194 0.295982
O O11 0.757077 0.435039 0.009831
O O12 0.151694 0.425983 0.279591
O O13 0.000000 0.500000 0.000000
O O14 0.479708 0.123920 0.003804
O O15 0.500000 0.000000 0.000000
O O16 0.500000 0.000000 0.500000
#
# Coordination Sequence:
#
# PCOD9253075 Si02
#       7
#     4   4   4   4   4   4   4
#     4  12  23  43  72 111 146 188 239 306 369 427
#     4  12  26  49  75 103 152 195 247 307 369 446
#     4  12  29  52  74 110 146 199 250 306 373 451
#     4  12  23  42  71 111 149 194 238 304 373 430
#     4  12  23  43  75 106 146 191 242 300 367 440
#     4  12  29  50  76 106 150 192 252 304 374 442
#     4  12  27  44  74 111 151 187 252 308 363 444
#
# _framework density 21.866641999999999
#
# number of rings (size 3 to 8) (size 9 to 14) (size 15 to 20)
#    0.000    0.000    7.143    1.714    6.000    3.429 
#    0.000    0.000    0.000    0.000    0.000    0.000 
#    0.000    0.000    0.000    0.000    0.000    0.000 
#
# Total GULP energy -156446.532747 kJ/mol
# GULP energy per Si atom -5587.376170 kJ/mol
# Density = 2.181687 g / cm^3
# Si number density = 21.866642 Si / 1000 Ang^3
#
#
#
# Elastic Constant Matrix: (Units=GPa)
#
#
# Indices 1 2 3 4 5 6 
#
# 1 212.3321 77.5451 46.6390 0.0000 26.3744 0.0000
# 2 77.5451 135.1630 14.2112 0.0000 6.2882 0.0000
# 3 46.6390 14.2112 73.6688 0.0000 15.3115 0.0000
# 4 0.0000 0.0000 0.0000 18.0787 0.0000 1.0467
# 5 26.3744 6.2882 15.3115 0.0000 47.4615 0.0000
# 6 0.0000 0.0000 0.0000 1.0467 0.0000 49.3351
#
#
#
# Elastic Compliance Matrix: (Units=1/GPa)
#
#
# Indices 1 2 3 4 5 6 
#
# 1 0.007029 -0.003579 -0.003265 0.000000 -0.002379 0.000000
# 2 -0.003579 0.009388 0.000321 0.000000 0.000641 0.000000
# 3 -0.003265 0.000321 0.016305 0.000000 -0.003488 0.000000
# 4 0.000000 0.000000 0.000000 0.055382 0.000000 -0.001175
# 5 -0.002379 0.000641 -0.003488 0.000000 0.023432 0.000000
# 6 0.000000 0.000000 0.000000 -0.001175 0.000000 0.020294
#
#
# Mechanical properties :
#
#
# Convention : Reuss Voigt Hill
#
# Bulk Modulus (GPa) = 50.82278 77.55051 64.18665
# Shear Modulus (GPa) = 33.01760 41.82629 37.42195
#
# Velocity S-wave (km/s) = 3.89003 4.37829 4.14136
# Velocity P-wave (km/s) = 6.59310 7.81674 7.23085
#
# Compressibility (1/GPa) = 0.01967622
#
# Stress axis : x y z
#
# Youngs Moduli (GPa) = 142.26105 106.51800 61.33263
#
# Poissons Ratio (x) = 0.38121 0.20028
# Poissons Ratio (y) = 0.50913 -0.01971
# Poissons Ratio (z) = 0.46455 -0.03424
#
# Static dielectric constant tensor:
#      x y z
#    x 1.752860 0.000000 -0.030310 
#    y 0.000000 1.719910 0.000000 
#    z -0.030310 0.000000 1.896180 
# 
# From -- ./inp_files/10437.got.cif
#   From: 2010.05.17/outbox.cif.g08.bks.cpg/sg14_6_cif.got.tgz:10437.got - 2010.06.03 17:49:19.
