data_PCOD9253286
_publ_section_title
;
Structure prediction by ZEFSAII (Michael W. Deem and Ramdas Pophale) SiO2 
 PCOD9253286
Probable space group: P 21/C
;
_chemical_formula_sum "Si O2"
_cell_formula_units_Z 20
_cell_length_a 6.866970
_cell_length_b 14.304373
_cell_length_c 9.286105
_cell_angle_alpha 90.000000
_cell_angle_beta 101.050170
_cell_angle_gamma 90.000000
_cell_volume 895.241179
_symmetry_space_group_name_H-M "P 21/C"
_symmetry_group_IT_number 14
_symmetry_cell_setting 'monoclinic'
loop_
_space_group_symop_operation_xyz
x,y,z
-x,1/2+y,1/2-z
-x,-y,-z
x,1/2-y,1/2+z
loop_
_atom_site_type_symbol
_atom_site_label
_atom_site_fract_x
_atom_site_fract_y
_atom_site_fract_z
Si Si1 0.372424 0.150857 0.353104
Si Si2 0.034599 0.729915 0.331121
Si Si3 0.532103 0.988776 0.174717
Si Si4 0.696341 0.192685 0.880785
Si Si5 0.857547 0.577647 0.913264
O O1 0.476603 0.079555 0.258609
O O2 0.514000 0.239964 0.399616
O O3 0.312075 0.101691 0.493633
O O4 0.167105 0.183117 0.250791
O O5 0.162053 0.672333 0.463952
O O6 0.174161 0.752985 0.217252
O O7 0.975416 0.827865 0.396823
O O8 0.247788 0.041333 0.746357
O O9 0.389551 0.902359 0.195610
O O10 0.500000 0.000000 0.000000
O O11 0.000000 0.500000 0.000000
#
# Coordination Sequence:
#
# PCOD9253286 Si02
#       5
#     4   4   4   4   4
#     4  12  27  50  75 109 153 202 249 307 382 447
#     4  12  26  45  78 107 145 205 246 305 374 449
#     4  12  28  45  79 112 152 191 252 318 366 445
#     4  12  26  48  74 109 153 193 250 308 377 439
#     4  12  26  50  75 110 150 203 252 304 382 449
#
# _framework density 22.340347999999999
#
# number of rings (size 3 to 8) (size 9 to 14) (size 15 to 20)
#    0.000    0.000    4.000    5.400    8.400    0.800 
#    0.000    0.000    0.000    0.000    0.000    0.000 
#    0.000    0.000    0.000    0.000    0.000    0.000 
#
# Total GULP energy -112114.118622 kJ/mol
# GULP energy per Si atom -5605.705931 kJ/mol
# Density = 2.228950 g / cm^3
# Si number density = 22.340348 Si / 1000 Ang^3
#
#
#
# Elastic Constant Matrix: (Units=GPa)
#
#
# Indices 1 2 3 4 5 6 
#
# 1 65.4648 8.7848 12.9700 0.0000 18.4736 0.0000
# 2 8.7848 71.4694 2.1553 0.0000 18.0470 0.0000
# 3 12.9700 2.1553 109.8128 0.0000 23.4763 0.0000
# 4 0.0000 0.0000 0.0000 35.3902 0.0000 6.7342
# 5 18.4736 18.0470 23.4763 0.0000 54.3324 0.0000
# 6 0.0000 0.0000 0.0000 6.7342 0.0000 45.1718
#
#
#
# Elastic Compliance Matrix: (Units=1/GPa)
#
#
# Indices 1 2 3 4 5 6 
#
# 1 0.017006 -0.000765 -0.000894 0.000000 -0.005142 0.000000
# 2 -0.000765 0.015382 0.000909 0.000000 -0.005242 0.000000
# 3 -0.000894 0.000909 0.010129 0.000000 -0.004375 0.000000
# 4 0.000000 0.000000 0.000000 0.029081 0.000000 -0.004335
# 5 -0.005142 -0.005242 -0.004375 0.000000 0.023785 0.000000
# 6 0.000000 0.000000 0.000000 -0.004335 0.000000 0.022784
#
#
# Mechanical properties :
#
#
# Convention : Reuss Voigt Hill
#
# Bulk Modulus (GPa) = 24.37988 32.72969 28.55478
# Shear Modulus (GPa) = 37.49778 41.83469 39.66624
#
# Velocity S-wave (km/s) = 4.10137 4.33206 4.21829
# Velocity P-wave (km/s) = 5.77624 6.30116 6.04440
#
# Compressibility (1/GPa) = 0.04101744
#
# Stress axis : x y z
#
# Youngs Moduli (GPa) = 58.80214 65.00970 98.72219
#
# Poissons Ratio (x) = 0.04973 0.08829
# Poissons Ratio (y) = 0.04498 -0.08975
# Poissons Ratio (z) = 0.05259 -0.05910
#
# Static dielectric constant tensor:
#      x y z
#    x 1.784950 0.000000 0.005200 
#    y 0.000000 1.800340 0.000000 
#    z 0.005200 0.000000 1.844440 
# 
# From -- ./inp_files/5545.got.cif
#   From: 2010.05.17/outbox.cif.g08.bks.cpg/sg14_3_cif.got.tgz:5545.got - 2010.06.03 17:49:19.
