data_PCOD9253598
_publ_section_title
;
Structure prediction by ZEFSAII (Michael W. Deem and Ramdas Pophale) SiO2 
 PCOD9253598
Probable space group: P 21/C
;
_chemical_formula_sum "Si O2"
_cell_formula_units_Z 32
_cell_length_a 15.000000
_cell_length_b 12.000000
_cell_length_c 27.000000
_cell_angle_alpha 90.000000
_cell_angle_beta 160.000000
_cell_angle_gamma 90.000000
_cell_volume 1662.217897
_symmetry_space_group_name_H-M "P 21/C"
_symmetry_group_IT_number 14
_symmetry_cell_setting 'monoclinic'
loop_
_space_group_symop_operation_xyz
x,y,z
-x,1/2+y,1/2-z
-x,-y,-z
x,1/2-y,1/2+z
loop_
_atom_site_type_symbol
_atom_site_label
_atom_site_fract_x
_atom_site_fract_y
_atom_site_fract_z
Si Si1 0.713471 0.502820 0.487558
Si Si2 0.334792 0.208225 0.804898
Si Si3 0.317735 0.279778 0.587286
Si Si4 0.649038 0.638720 0.994986
Si Si5 0.054238 0.670548 0.731229
Si Si6 0.796688 0.373670 0.078954
Si Si7 0.787225 0.143548 0.861265
Si Si8 0.131089 0.402909 0.636216
O O1 0.493956 0.409186 0.383190
O O2 0.610522 0.595898 0.394567
O O3 0.849422 0.581766 0.600163
O O4 0.959753 0.436982 0.593959
O O5 0.279664 0.288584 0.728062
O O6 0.048473 0.172565 0.678243
O O7 0.542496 0.291943 0.940962
O O8 0.333945 0.193402 0.550401
O O9 0.020721 0.296954 0.451379
O O10 0.538717 0.224782 0.737279
O O11 0.348036 0.664221 0.858160
O O12 0.711431 0.504921 0.026251
O O13 0.889279 0.711373 0.145467
O O14 0.109882 0.635432 0.815995
O O15 0.926206 0.120975 0.985798
O O16 0.727747 0.019714 0.806698
#
# Coordination Sequence:
#
# PCOD9253598 Si02
#       8
#     4   4   4   4   4   4   4   4
#     4  10  23  41  66  86 137 166 212 272 329 377
#     4  12  25  42  65  94 135 173 216 271 330 392
#     4  10  21  40  63  97 119 168 210 270 316 385
#     4  11  24  42  70  93 133 170 218 274 329 387
#     4  11  25  44  67  96 129 172 225 273 320 390
#     4  12  27  41  68  95 131 176 224 266 329 391
#     4  10  22  39  71  90 130 161 226 257 324 387
#     4  10  22  45  63  94 128 181 201 270 327 389
#
# _framework density 19.251387000000001
#
# number of rings (size 3 to 8) (size 9 to 14) (size 15 to 20)
#    0.000    1.250    1.250    4.875    8.750    0.500 
#    0.000    0.625    0.000    0.000    0.000    0.000 
#    0.000    0.000    0.000    0.000    0.000    0.000 
#
# Total GULP energy -178199.071166 kJ/mol
# GULP energy per Si atom -5568.720974 kJ/mol
# Density = 1.920757 g / cm^3
# Si number density = 19.251387 Si / 1000 Ang^3
#
#
#
# Elastic Constant Matrix: (Units=GPa)
#
#
# Indices 1 2 3 4 5 6 
#
# 1 30.4005 11.1617 3.8341 0.0000 2.7584 0.0000
# 2 11.1617 152.4669 42.5462 0.0000 6.3060 0.0000
# 3 3.8341 42.5462 88.3005 0.0000 8.2374 0.0000
# 4 0.0000 0.0000 0.0000 61.1100 0.0000 0.0932
# 5 2.7584 6.3060 8.2374 0.0000 34.8078 0.0000
# 6 0.0000 0.0000 0.0000 0.0932 0.0000 25.0259
#
#
#
# Elastic Compliance Matrix: (Units=1/GPa)
#
#
# Indices 1 2 3 4 5 6 
#
# 1 0.033979 -0.002359 -0.000130 0.000000 -0.002235 0.000000
# 2 -0.002359 0.007751 -0.003598 0.000000 -0.000366 0.000000
# 3 -0.000130 -0.003598 0.013296 0.000000 -0.002484 0.000000
# 4 0.000000 0.000000 0.000000 0.016364 0.000000 -0.000061
# 5 -0.002235 -0.000366 -0.002484 0.000000 0.029560 0.000000
# 6 0.000000 0.000000 0.000000 -0.000061 0.000000 0.039959
#
#
# Mechanical properties :
#
#
# Convention : Reuss Voigt Hill
#
# Bulk Modulus (GPa) = 23.33625 42.91689 33.12657
# Shear Modulus (GPa) = 29.87432 38.43045 34.15239
#
# Velocity S-wave (km/s) = 3.94356 4.47278 4.21648
# Velocity P-wave (km/s) = 5.73444 7.00112 6.39920
#
# Compressibility (1/GPa) = 0.04285179
#
# Stress axis : x y z
#
# Youngs Moduli (GPa) = 29.42954 129.02180 75.21045
#
# Poissons Ratio (x) = 0.30433 0.00981
# Poissons Ratio (y) = 0.06942 0.27061
# Poissons Ratio (z) = 0.00384 0.46422
#
# Static dielectric constant tensor:
#      x y z
#    x 1.726140 0.000000 -0.020330 
#    y 0.000000 1.683470 0.000000 
#    z -0.020330 0.000000 1.721720 
# 
# From -- ./inp_files/77594.got.cif
#   From: 2010.05.17/outbox.ucp.g08.bks.cvg/sg14_39_cif.got.tgz:77594.got - 2010.06.11 12:31:08.
