data_PCOD9253951
_publ_section_title
;
Structure prediction by ZEFSAII (Michael W. Deem and Ramdas Pophale) SiO2 
 PCOD9253951
Probable space group: C 2/C
;
_chemical_formula_sum "Si O2"
_cell_formula_units_Z 56
_cell_length_a 24.475163
_cell_length_b 12.907096
_cell_length_c 13.945127
_cell_angle_alpha 90.000000
_cell_angle_beta 143.645249
_cell_angle_gamma 90.000000
_cell_volume 2611.393854
_symmetry_space_group_name_H-M "C 2/C"
_symmetry_group_IT_number 15
_symmetry_cell_setting 'monoclinic'
loop_
_space_group_symop_operation_xyz
x,y,z
-x,y,1/2-z
-x,-y,-z
x,-y,1/2+z
1/2+x,1/2+y,z
1/2-x,1/2+y,1/2-z
1/2-x,1/2-y,-z
1/2+x,1/2-y,1/2+z
loop_
_atom_site_type_symbol
_atom_site_label
_atom_site_fract_x
_atom_site_fract_y
_atom_site_fract_z
Si Si1 0.327174 0.789734 0.836645
Si Si2 0.354917 0.285076 0.170220
Si Si3 0.841186 0.518443 0.926467
Si Si4 0.204221 0.017059 0.387527
Si Si5 0.106408 0.739225 0.485903
Si Si6 0.429762 0.433261 0.962771
Si Si7 0.671031 0.586465 0.551489
O O1 0.373038 0.764407 0.799311
O O2 0.359298 0.902389 0.916967
O O3 0.215112 0.774924 0.661551
O O4 0.354710 0.701641 0.952127
O O5 0.348832 0.408759 0.173463
O O6 0.250000 0.250000 0.000000
O O7 0.404979 0.254500 0.143477
O O8 0.803425 0.510833 0.982523
O O9 0.907336 0.617694 0.011956
O O10 0.756875 0.554857 0.739592
O O11 0.154594 0.078269 0.231689
O O12 0.198647 0.074638 0.480361
O O13 0.048531 0.819774 0.467595
O O14 0.404172 0.503144 0.019127
O O15 0.500000 0.500000 0.000000
#
# Coordination Sequence:
#
# PCOD9253951 Si02
#       7
#     8   8   8   8   8   8   8
#     4  10  17  31  49  78 109 136 161 218 272 323
#     4  10  15  27  53  72 100 134 169 211 262 308
#     4  10  19  30  50  78 110 136 166 214 272 322
#     4  11  18  31  50  79 103 136 172 215 268 314
#     4  10  18  32  48  75 104 139 176 215 255 318
#     4  11  22  36  51  71 106 138 178 221 258 300
#     4  10  19  32  49  75 108 134 173 214 266 323
#
# _framework density 21.444486000000001
#
# number of rings (size 3 to 8) (size 9 to 14) (size 15 to 20)
#    0.000    1.714   10.000    0.857    0.000    1.143 
#    0.000    0.000    0.000    0.857    0.000    0.000 
#    0.000    0.000    0.000    0.000    0.000    0.000 
#
# Total GULP energy -156190.000202 kJ/mol
# GULP energy per Si atom -5578.214293 kJ/mol
# Density = 2.139568 g / cm^3
# Si number density = 21.444486 Si / 1000 Ang^3
#
#
#
# Elastic Constant Matrix: (Units=GPa)
#
#
# Indices 1 2 3 4 5 6 
#
# 1 123.9474 67.6952 27.5015 0.0000 -32.8632 0.0000
# 2 67.6952 215.2885 31.7476 0.0000 -36.3022 0.0000
# 3 27.5015 31.7476 34.1512 0.0000 -20.6697 0.0000
# 4 0.0000 0.0000 0.0000 23.3979 0.0000 -4.3977
# 5 -32.8632 -36.3022 -20.6697 0.0000 35.6836 0.0000
# 6 0.0000 0.0000 0.0000 -4.3977 0.0000 31.3765
#
#
#
# Elastic Compliance Matrix: (Units=1/GPa)
#
#
# Indices 1 2 3 4 5 6 
#
# 1 0.011738 -0.002045 -0.003492 0.000000 0.006707 0.000000
# 2 -0.002045 0.006131 -0.002183 0.000000 0.003089 0.000000
# 3 -0.003492 -0.002183 0.047477 0.000000 0.022065 0.000000
# 4 0.000000 0.000000 0.000000 0.043895 0.000000 0.006152
# 5 0.006707 0.003089 0.022065 0.000000 0.050125 0.000000
# 6 0.000000 0.000000 0.000000 0.006152 0.000000 0.032733
#
#
# Mechanical properties :
#
#
# Convention : Reuss Voigt Hill
#
# Bulk Modulus (GPa) = 20.03751 69.69730 44.86740
# Shear Modulus (GPa) = 22.30413 34.52110 28.41262
#
# Velocity S-wave (km/s) = 3.22854 4.01657 3.64392
# Velocity P-wave (km/s) = 4.82308 7.35407 6.21870
#
# Compressibility (1/GPa) = 0.04990640
#
# Stress axis : x y z
#
# Youngs Moduli (GPa) = 85.19409 163.11219 21.06285
#
# Poissons Ratio (x) = 0.33356 0.07355
# Poissons Ratio (y) = 0.17422 0.04597
# Poissons Ratio (z) = 0.29750 0.35602
#
# Static dielectric constant tensor:
#      x y z
#    x 1.831680 0.000000 0.116210 
#    y 0.000000 1.798490 0.000000 
#    z 0.116210 0.000000 1.888250 
# 
# From -- ./inp_files/177623.got.cif
#   From: 2010.05.17/outbox.cif.g08.bks.cpg/sg15_89_cif.got.tgz:177623.got - 2010.06.03 18:47:42.
