data_PCOD9253245
_publ_section_title
;
Structure prediction by ZEFSAII (Michael W. Deem and Ramdas Pophale) SiO2 
 PCOD9253245
Probable space group: P 21/C
;
_chemical_formula_sum "Si O2"
_cell_formula_units_Z 32
_cell_length_a 24.737742
_cell_length_b 11.304320
_cell_length_c 14.538429
_cell_angle_alpha 90.000000
_cell_angle_beta 21.782454
_cell_angle_gamma 90.000000
_cell_volume 1508.667736
_symmetry_space_group_name_H-M "P 21/C"
_symmetry_group_IT_number 14
_symmetry_cell_setting 'monoclinic'
loop_
_space_group_symop_operation_xyz
x,y,z
-x,1/2+y,1/2-z
-x,-y,-z
x,1/2-y,1/2+z
loop_
_atom_site_type_symbol
_atom_site_label
_atom_site_fract_x
_atom_site_fract_y
_atom_site_fract_z
Si Si1 0.157141 0.461454 0.395144
Si Si2 0.342647 0.443799 0.726947
Si Si3 0.741472 0.752336 0.496749
Si Si4 0.376987 0.246972 0.010265
Si Si5 0.132209 0.839834 0.572070
Si Si6 0.711599 0.190533 0.015983
Si Si7 0.923526 0.212981 0.031445
Si Si8 0.331662 0.018785 0.792552
O O1 0.115161 0.573590 0.399001
O O2 0.230830 0.520468 0.368113
O O3 0.012875 0.390603 0.651086
O O4 0.277285 0.365273 0.175196
O O5 0.500000 0.500000 0.500000
O O6 0.299218 0.374260 0.888784
O O7 0.339993 0.352828 0.644829
O O8 0.228755 0.548427 0.888643
O O9 0.649078 0.713437 0.554422
O O10 0.707781 0.653834 0.626329
O O11 0.910392 0.761693 0.202798
O O12 0.545620 0.275498 0.758949
O O13 0.225252 0.767628 0.499608
O O14 0.090156 0.759960 0.551300
O O15 0.812237 0.215398 0.770252
O O16 0.709377 0.056236 0.053567
O O17 0.500000 0.000000 0.500000
#
# Coordination Sequence:
#
# PCOD9253245 Si02
#       8
#     4   4   4   4   4   4   4   4
#     4  12  25  49  79 100 152 196 248 303 378 446
#     4  12  26  48  74 106 149 194 247 307 371 448
#     4  12  28  48  73 107 153 193 248 302 380 440
#     4  12  28  46  73 110 144 196 243 305 370 446
#     4  12  26  47  75 105 144 193 246 306 374 442
#     4  12  28  45  74 111 146 190 250 303 375 440
#     4  12  28  47  73 112 145 197 246 314 369 448
#     4  12  25  48  74 105 145 195 245 307 368 445
#
# _framework density 21.210767000000001
#
# number of rings (size 3 to 8) (size 9 to 14) (size 15 to 20)
#    0.000    0.000    7.500    0.750    7.000    2.500 
#    0.000    0.000    0.000    0.000    0.000    0.000 
#    0.000    0.000    0.000    0.000    0.000    0.000 
#
# Total GULP energy -179039.502415 kJ/mol
# GULP energy per Si atom -5594.984450 kJ/mol
# Density = 2.116249 g / cm^3
# Si number density = 21.210767 Si / 1000 Ang^3
#
#
#
# Elastic Constant Matrix: (Units=GPa)
#
#
# Indices 1 2 3 4 5 6 
#
# 1 66.9508 -4.4150 -14.7134 0.0000 -16.9336 0.0000
# 2 -4.4150 79.5601 26.3296 0.0000 -7.8251 0.0000
# 3 -14.7134 26.3296 92.4001 0.0000 -20.1776 0.0000
# 4 0.0000 0.0000 0.0000 30.7025 0.0000 -5.0452
# 5 -16.9336 -7.8251 -20.1776 0.0000 40.3907 0.0000
# 6 0.0000 0.0000 0.0000 -5.0452 0.0000 30.1230
#
#
#
# Elastic Compliance Matrix: (Units=1/GPa)
#
#
# Indices 1 2 3 4 5 6 
#
# 1 0.018761 0.000361 0.005183 0.000000 0.010525 0.000000
# 2 0.000361 0.013908 -0.003686 0.000000 0.001004 0.000000
# 3 0.005183 -0.003686 0.014611 0.000000 0.008758 0.000000
# 4 0.000000 0.000000 0.000000 0.033492 0.000000 0.005610
# 5 0.010525 0.001004 0.008758 0.000000 0.033740 0.000000
# 6 0.000000 0.000000 0.000000 0.005610 0.000000 0.034137
#
#
# Mechanical properties :
#
#
# Convention : Reuss Voigt Hill
#
# Bulk Modulus (GPa) = 19.60985 28.14594 23.87789
# Shear Modulus (GPa) = 30.87716 35.69054 33.28385
#
# Velocity S-wave (km/s) = 3.81954 4.10648 3.96561
# Velocity P-wave (km/s) = 5.35884 5.98186 5.67890
#
# Compressibility (1/GPa) = 0.05099478
#
# Stress axis : x y z
#
# Youngs Moduli (GPa) = 53.30177 71.90181 68.44338
#
# Poissons Ratio (x) = -0.02596 -0.35473
# Poissons Ratio (y) = -0.01924 0.25230
# Poissons Ratio (z) = -0.27625 0.26505
#
# Static dielectric constant tensor:
#      x y z
#    x 1.787780 0.000000 0.032470 
#    y 0.000000 0.479370 0.000000 
#    z 0.032470 0.000000 1.725520 
# 
# From -- ./inp_files/52030.got.cif
#   From: 2010.05.17/outbox.cif.g08.bks.cpg/sg14_27_cif.got.tgz:52030.got - 2010.06.03 17:49:19.
