data_PCOD9253555
_publ_section_title
;
Structure prediction by ZEFSAII (Michael W. Deem and Ramdas Pophale) SiO2 
 PCOD9253555
Probable space group: P 21/C
;
_chemical_formula_sum "Si O2"
_cell_formula_units_Z 32
_cell_length_a 12.000000
_cell_length_b 9.000000
_cell_length_c 21.000000
_cell_angle_alpha 90.000000
_cell_angle_beta 50.000000
_cell_angle_gamma 90.000000
_cell_volume 1737.388797
_symmetry_space_group_name_H-M "P 21/C"
_symmetry_group_IT_number 14
_symmetry_cell_setting 'monoclinic'
loop_
_space_group_symop_operation_xyz
x,y,z
-x,1/2+y,1/2-z
-x,-y,-z
x,1/2-y,1/2+z
loop_
_atom_site_type_symbol
_atom_site_label
_atom_site_fract_x
_atom_site_fract_y
_atom_site_fract_z
Si Si1 0.421971 0.417435 0.207367
Si Si2 0.228428 0.553681 0.596762
Si Si3 0.517365 0.268657 0.304125
Si Si4 0.395489 0.821191 0.486885
Si Si5 0.133594 0.453320 0.112965
Si Si6 0.372082 0.233252 0.995334
Si Si7 0.175274 0.655945 0.760773
Si Si8 0.891226 0.505925 0.726829
O O1 0.451232 0.327043 0.261870
O O2 0.466778 0.589636 0.201790
O O3 0.248432 0.421445 0.256282
O O4 0.514616 0.361011 0.110709
O O5 0.321610 0.659970 0.516781
O O6 0.321236 0.404205 0.556903
O O7 0.223034 0.605570 0.672314
O O8 0.055480 0.544765 0.643927
O O9 0.433167 0.301505 0.402269
O O10 0.678720 0.339514 0.251331
O O11 0.506823 0.823100 0.507118
O O12 0.248452 0.917407 0.553003
O O13 0.128869 0.447536 0.191791
O O14 0.960108 0.442069 0.162875
O O15 0.219648 0.320408 0.047590
O O16 0.122395 0.827023 0.773225
#
# Coordination Sequence:
#
# PCOD9253555 Si02
#       8
#     4   4   4   4   4   4   4   4
#     4  11  25  43  65  87 125 167 213 254 318 378
#     4  11  23  36  63 101 128 156 208 266 309 364
#     4  11  25  44  62  90 126 169 207 261 312 377
#     4  12  22  40  64  97 122 163 210 258 310 368
#     4  11  20  38  65  92 122 160 206 257 313 374
#     4  12  22  39  66  95 125 162 211 259 307 369
#     4  10  21  39  62  93 131 158 202 261 320 362
#     4  10  20  40  61  92 128 166 200 252 322 375
#
# _framework density 18.418444999999998
#
# number of rings (size 3 to 8) (size 9 to 14) (size 15 to 20)
#    0.000    1.000    6.250    1.500    1.750    0.000 
#    2.250    2.500    0.000    0.000    0.000    0.000 
#    0.000    0.000    0.000    0.000    0.000    0.000 
#
# Total GULP energy -178329.794104 kJ/mol
# GULP energy per Si atom -5572.806066 kJ/mol
# Density = 1.837652 g / cm^3
# Si number density = 18.418445 Si / 1000 Ang^3
#
#
#
# Elastic Constant Matrix: (Units=GPa)
#
#
# Indices 1 2 3 4 5 6 
#
# 1 66.3152 6.2314 40.7229 0.0000 1.6950 0.0000
# 2 6.2314 38.2541 16.1167 0.0000 -4.7489 0.0000
# 3 40.7229 16.1167 112.6389 0.0000 -7.1247 0.0000
# 4 0.0000 0.0000 0.0000 44.9817 0.0000 -4.7532
# 5 1.6950 -4.7489 -7.1247 0.0000 32.7358 0.0000
# 6 0.0000 0.0000 0.0000 -4.7532 0.0000 26.9986
#
#
#
# Elastic Compliance Matrix: (Units=1/GPa)
#
#
# Indices 1 2 3 4 5 6 
#
# 1 0.019606 -0.000496 -0.007185 0.000000 -0.002651 0.000000
# 2 -0.000496 0.028168 -0.003641 0.000000 0.003319 0.000000
# 3 -0.007185 -0.003641 0.012154 0.000000 0.002489 0.000000
# 4 0.000000 0.000000 0.000000 0.022653 0.000000 0.003988
# 5 -0.002651 0.003319 0.002489 0.000000 0.031708 0.000000
# 6 0.000000 0.000000 0.000000 0.003988 0.000000 0.037741
#
#
# Mechanical properties :
#
#
# Convention : Reuss Voigt Hill
#
# Bulk Modulus (GPa) = 26.82110 38.15003 32.48556
# Shear Modulus (GPa) = 26.72347 31.21904 28.97125
#
# Velocity S-wave (km/s) = 3.81321 4.12149 3.97034
# Velocity P-wave (km/s) = 5.82933 6.58838 6.22045
#
# Compressibility (1/GPa) = 0.03728408
#
# Stress axis : x y z
#
# Youngs Moduli (GPa) = 51.00474 35.50147 82.27753
#
# Poissons Ratio (x) = 0.01760 0.59116
# Poissons Ratio (y) = 0.02528 0.29958
# Poissons Ratio (z) = 0.36647 0.12927
#
# Static dielectric constant tensor:
#      x y z
#    x 1.648250 0.000000 -0.020060 
#    y 0.000000 1.770410 0.000000 
#    z -0.020060 0.000000 1.584980 
# 
# From -- ./inp_files/67032.got.cif
#   From: 2010.05.17/outbox.ucp.g08.bks.cvg/sg14_34_cif.got.tgz:67032.got - 2010.06.11 12:31:08.
