data_PCOD9253559
_publ_section_title
;
Structure prediction by ZEFSAII (Michael W. Deem and Ramdas Pophale) SiO2 
 PCOD9253559
Probable space group: P 21/C
;
_chemical_formula_sum "Si O2"
_cell_formula_units_Z 24
_cell_length_a 18.000000
_cell_length_b 9.000000
_cell_length_c 15.000000
_cell_angle_alpha 90.000000
_cell_angle_beta 150.000000
_cell_angle_gamma 90.000000
_cell_volume 1215.000000
_symmetry_space_group_name_H-M "P 21/C"
_symmetry_group_IT_number 14
_symmetry_cell_setting 'monoclinic'
loop_
_space_group_symop_operation_xyz
x,y,z
-x,1/2+y,1/2-z
-x,-y,-z
x,1/2-y,1/2+z
loop_
_atom_site_type_symbol
_atom_site_label
_atom_site_fract_x
_atom_site_fract_y
_atom_site_fract_z
Si Si1 0.825847 0.294295 0.735798
Si Si2 0.624921 0.240954 0.861722
Si Si3 0.720235 0.595175 0.690154
Si Si4 0.439608 0.037620 0.790274
Si Si5 0.355903 0.584105 0.810411
Si Si6 0.108038 0.367628 0.578268
O O1 0.761442 0.298218 0.569011
O O2 0.826080 0.456356 0.780171
O O3 0.718402 0.192654 0.690251
O O4 0.991755 0.232785 0.905213
O O5 0.628460 0.416226 0.846821
O O6 0.618512 0.169188 0.756173
O O7 0.491849 0.176551 0.784841
O O8 0.659929 0.586934 0.729253
O O9 0.579799 0.551869 0.481033
O O10 0.803503 0.752755 0.764456
O O11 0.237448 0.456357 0.664405
O O12 0.500000 0.500000 0.000000
O O13 0.000000 0.500000 0.500000
#
# Coordination Sequence:
#
# PCOD9253559 Si02
#       6
#     4   4   4   4   4   4
#     4  10  22  42  61  90 128 163 212 258 325 387
#     4  11  22  38  60  96 128 160 212 261 318 382
#     4  10  20  40  65  87 125 169 213 257 324 380
#     4  10  22  36  63  98 121 161 213 270 315 372
#     4  11  22  40  67  91 126 167 212 270 317 379
#     4  10  23  40  63  92 123 171 211 259 327 385
#
# _framework density 19.753086
#
# number of rings (size 3 to 8) (size 9 to 14) (size 15 to 20)
#    0.000    1.667    1.667    2.500    7.000    1.333 
#    3.000    3.333    0.000    0.000    0.000    0.000 
#    0.000    0.000    0.000    0.000    0.000    0.000 
#
# Total GULP energy -133755.980110 kJ/mol
# GULP energy per Si atom -5573.165838 kJ/mol
# Density = 1.970813 g / cm^3
# Si number density = 19.753086 Si / 1000 Ang^3
#
#
#
# Elastic Constant Matrix: (Units=GPa)
#
#
# Indices 1 2 3 4 5 6 
#
# 1 62.9773 8.2874 28.7418 0.0000 -9.9627 0.0000
# 2 8.2874 79.3090 5.9532 0.0000 11.9543 0.0000
# 3 28.7418 5.9532 65.7155 0.0000 6.1983 0.0000
# 4 0.0000 0.0000 0.0000 44.8756 0.0000 9.5915
# 5 -9.9627 11.9543 6.1983 0.0000 29.6400 0.0000
# 6 0.0000 0.0000 0.0000 9.5915 0.0000 35.8014
#
#
#
# Elastic Compliance Matrix: (Units=1/GPa)
#
#
# Indices 1 2 3 4 5 6 
#
# 1 0.023067 -0.003307 -0.010861 0.000000 0.011359 0.000000
# 2 -0.003307 0.013933 0.000836 0.000000 -0.006906 0.000000
# 3 -0.010861 0.000836 0.020675 0.000000 -0.008311 0.000000
# 4 0.000000 0.000000 0.000000 0.023637 0.000000 -0.006333
# 5 0.011359 -0.006906 -0.008311 0.000000 0.042079 0.000000
# 6 0.000000 0.000000 0.000000 -0.006333 0.000000 0.029628
#
#
# Mechanical properties :
#
#
# Convention : Reuss Voigt Hill
#
# Bulk Modulus (GPa) = 32.24667 32.66298 32.45482
# Shear Modulus (GPa) = 26.31272 33.06470 29.68871
#
# Velocity S-wave (km/s) = 3.65373 4.09577 3.88105
# Velocity P-wave (km/s) = 5.84465 6.24008 6.04560
#
# Compressibility (1/GPa) = 0.03101095
#
# Stress axis : x y z
#
# Youngs Moduli (GPa) = 43.35110 71.77369 48.36665
#
# Poissons Ratio (x) = 0.23738 0.52529
# Poissons Ratio (y) = 0.14337 -0.04042
# Poissons Ratio (z) = 0.47082 -0.05998
#
# Static dielectric constant tensor:
#      x y z
#    x 1.661160 0.000000 0.038180 
#    y 0.000000 1.765540 0.000000 
#    z 0.038180 0.000000 1.729560 
# 
# From -- ./inp_files/38972.got.cif
#   From: 2010.05.17/outbox.ucp.g08.bks.cvg/sg14_20_cif.got.tgz:38972.got - 2010.06.11 12:31:08.
