data_PCOD9253467
_publ_section_title
;
Structure prediction by ZEFSAII (Michael W. Deem and Ramdas Pophale) SiO2 
 PCOD9253467
Probable space group: P 21/C
;
_chemical_formula_sum "Si O2"
_cell_formula_units_Z 32
_cell_length_a 18.000000
_cell_length_b 15.000000
_cell_length_c 21.000000
_cell_angle_alpha 90.000000
_cell_angle_beta 160.000000
_cell_angle_gamma 90.000000
_cell_volume 1939.254213
_symmetry_space_group_name_H-M "P 21/C"
_symmetry_group_IT_number 14
_symmetry_cell_setting 'monoclinic'
loop_
_space_group_symop_operation_xyz
x,y,z
-x,1/2+y,1/2-z
-x,-y,-z
x,1/2-y,1/2+z
loop_
_atom_site_type_symbol
_atom_site_label
_atom_site_fract_x
_atom_site_fract_y
_atom_site_fract_z
Si Si1 0.118863 0.232258 0.901525
Si Si2 0.723799 0.846290 0.358784
Si Si3 0.469295 0.905275 0.898096
Si Si4 0.213389 0.672258 0.467839
Si Si5 0.619828 0.291883 0.788921
Si Si6 0.231576 0.414032 0.244180
Si Si7 0.817572 0.038193 0.495500
Si Si8 0.123278 0.032329 0.861426
O O1 0.087774 0.123997 0.873511
O O2 0.951629 0.278234 0.715599
O O3 0.125946 0.280289 0.976946
O O4 0.373596 0.245401 0.088090
O O5 0.790122 0.858860 0.338402
O O6 0.739943 0.943482 0.405808
O O7 0.467657 0.819818 0.151789
O O8 0.353400 0.829164 0.762149
O O9 0.310358 0.986620 0.787469
O O10 0.588833 0.877818 0.060351
O O11 0.661616 0.946614 0.008310
O O12 0.225362 0.722236 0.547303
O O13 0.155318 0.565508 0.419725
O O14 0.639581 0.383297 0.846876
O O15 0.010179 0.425628 0.104845
O O16 0.924072 0.026475 0.650640
#
# Coordination Sequence:
#
# PCOD9253467 Si02
#       8
#     4   4   4   4   4   4   4   4
#     4  10  21  33  51  72 104 142 179 219 258 305
#     4  11  20  32  49  79 108 142 174 203 257 324
#     4   9  18  31  48  76 114 140 171 206 250 328
#     4  11  20  34  53  71 105 145 176 220 256 307
#     4  10  20  33  49  74 104 142 180 206 256 310
#     4  10  19  30  51  80 113 149 162 200 273 320
#     4  11  19  31  53  78 117 139 165 210 261 328
#     4  10  18  34  50  74 109 139 174 222 260 297
#
# _framework density 16.501189
#
# number of rings (size 3 to 8) (size 9 to 14) (size 15 to 20)
#    0.000    1.750    5.000    1.125    0.000    0.000 
#    0.000    0.000    0.000    0.000    0.000    1.750 
#    0.000    0.125    0.000    0.000    0.000    0.000 
#
# Total GULP energy -178249.056843 kJ/mol
# GULP energy per Si atom -5570.283026 kJ/mol
# Density = 1.646363 g / cm^3
# Si number density = 16.501189 Si / 1000 Ang^3
#
#
#
# Elastic Constant Matrix: (Units=GPa)
#
#
# Indices 1 2 3 4 5 6 
#
# 1 67.9772 35.4057 30.8599 0.0000 -32.2843 0.0000
# 2 35.4057 111.1820 35.3311 0.0000 -28.0714 0.0000
# 3 30.8599 35.3311 115.9869 0.0000 -33.0528 0.0000
# 4 0.0000 0.0000 0.0000 37.9394 0.0000 -11.9517
# 5 -32.2843 -28.0714 -33.0528 0.0000 38.5897 0.0000
# 6 0.0000 0.0000 0.0000 -11.9517 0.0000 32.7126
#
#
#
# Elastic Compliance Matrix: (Units=1/GPa)
#
#
# Indices 1 2 3 4 5 6 
#
# 1 0.025402 -0.003273 -0.000508 0.000000 0.018435 0.000000
# 2 -0.003273 0.011619 -0.001376 0.000000 0.004535 0.000000
# 3 -0.000508 -0.001376 0.011601 0.000000 0.008511 0.000000
# 4 0.000000 0.000000 0.000000 0.029786 0.000000 0.010882
# 5 0.018435 0.004535 0.008511 0.000000 0.051925 0.000000
# 6 0.000000 0.000000 0.000000 0.010882 0.000000 0.034545
#
#
# Mechanical properties :
#
#
# Convention : Reuss Voigt Hill
#
# Bulk Modulus (GPa) = 26.10466 55.37105 40.73785
# Shear Modulus (GPa) = 26.60123 34.75165 30.67644
#
# Velocity S-wave (km/s) = 4.01943 4.59411 4.31634
# Velocity P-wave (km/s) = 6.11517 7.85937 7.04148
#
# Compressibility (1/GPa) = 0.03830733
#
# Stress axis : x y z
#
# Youngs Moduli (GPa) = 39.36771 86.06691 86.19729
#
# Poissons Ratio (x) = 0.28171 0.04378
# Poissons Ratio (y) = 0.12886 0.11861
# Poissons Ratio (z) = 0.02000 0.11843
#
# Static dielectric constant tensor:
#      x y z
#    x 1.578730 0.000000 -0.008940 
#    y 0.000000 1.578230 0.000000 
#    z -0.008940 0.000000 1.611960 
# 
# From -- ./inp_files/69431.got.cif
#   From: 2010.05.17/outbox.ucp.g08.bks.cvg/sg14_35_cif.got.tgz:69431.got - 2010.06.11 12:31:08.
