data_PCOD9253496
_publ_section_title
;
Structure prediction by ZEFSAII (Michael W. Deem and Ramdas Pophale) SiO2 
 PCOD9253496
Probable space group: P 21/C
;
_chemical_formula_sum "Si O2"
_cell_formula_units_Z 32
_cell_length_a 15.000000
_cell_length_b 9.000000
_cell_length_c 24.000000
_cell_angle_alpha 90.000000
_cell_angle_beta 150.000000
_cell_angle_gamma 90.000000
_cell_volume 1620.000000
_symmetry_space_group_name_H-M "P 21/C"
_symmetry_group_IT_number 14
_symmetry_cell_setting 'monoclinic'
loop_
_space_group_symop_operation_xyz
x,y,z
-x,1/2+y,1/2-z
-x,-y,-z
x,1/2-y,1/2+z
loop_
_atom_site_type_symbol
_atom_site_label
_atom_site_fract_x
_atom_site_fract_y
_atom_site_fract_z
Si Si1 0.301319 0.021745 0.291746
Si Si2 0.632197 0.855814 0.133127
Si Si3 0.653522 0.315803 0.079203
Si Si4 0.459593 0.575285 0.656615
Si Si5 0.911893 0.071422 0.227755
Si Si6 0.812991 0.080712 0.553712
Si Si7 0.920794 0.081067 0.101243
Si Si8 0.542225 0.426479 0.818278
O O1 0.303355 0.192167 0.314194
O O2 0.402307 0.006835 0.287720
O O3 0.091369 0.001063 0.167975
O O4 0.373371 0.923584 0.383048
O O5 0.564633 0.930660 0.154231
O O6 0.777906 0.956088 0.183298
O O7 0.485647 0.816918 0.006408
O O8 0.840672 0.237485 0.192717
O O9 0.669803 0.377289 0.024623
O O10 0.258441 0.539271 0.528462
O O11 0.519673 0.479668 0.742710
O O12 0.470378 0.747624 0.682291
O O13 0.925281 0.041140 0.169303
O O14 0.084133 0.047150 0.358285
O O15 0.915095 0.236776 0.598118
O O16 0.728318 0.033790 0.449542
#
# Coordination Sequence:
#
# PCOD9253496 Si02
#       8
#     4   4   4   4   4   4   4   4
#     4  11  21  37  61  90 116 156 189 241 299 349
#     4  11  21  37  63  83 122 160 190 232 303 352
#     4  11  21  35  57  94 123 145 193 239 294 354
#     4  10  22  43  59  83 114 161 201 239 285 343
#     4  11  21  35  60  93 120 154 187 242 299 350
#     4  10  19  38  58  86 122 155 185 240 292 351
#     4  10  20  37  62  85 123 152 188 241 299 347
#     4  10  23  42  62  81 115 158 205 237 285 345
#
# _framework density 19.753086
#
# number of rings (size 3 to 8) (size 9 to 14) (size 15 to 20)
#    0.000    1.500    7.500    0.750    0.000    1.500 
#    2.250    0.625    0.000    0.000    0.000    0.000 
#    0.000    0.000    0.000    0.000    0.000    0.000 
#
# Total GULP energy -178215.724193 kJ/mol
# GULP energy per Si atom -5569.241381 kJ/mol
# Density = 1.970813 g / cm^3
# Si number density = 19.753086 Si / 1000 Ang^3
#
#
#
# Elastic Constant Matrix: (Units=GPa)
#
#
# Indices 1 2 3 4 5 6 
#
# 1 63.6798 16.0781 26.0341 0.0000 -5.9647 0.0000
# 2 16.0781 24.4760 18.2800 0.0000 -2.5218 0.0000
# 3 26.0341 18.2800 99.9771 0.0000 -16.4167 0.0000
# 4 0.0000 0.0000 0.0000 37.6003 0.0000 -10.6191
# 5 -5.9647 -2.5218 -16.4167 0.0000 23.0974 0.0000
# 6 0.0000 0.0000 0.0000 -10.6191 0.0000 34.2340
#
#
#
# Elastic Compliance Matrix: (Units=1/GPa)
#
#
# Indices 1 2 3 4 5 6 
#
# 1 0.019742 -0.010615 -0.002890 0.000000 0.001885 0.000000
# 2 -0.010615 0.053051 -0.007285 0.000000 -0.002127 0.000000
# 3 -0.002890 -0.007285 0.013397 0.000000 0.007981 0.000000
# 4 0.000000 0.000000 0.000000 0.029149 0.000000 0.009042
# 5 0.001885 -0.002127 0.007981 0.000000 0.049222 0.000000
# 6 0.000000 0.000000 0.000000 0.009042 0.000000 0.032015
#
#
# Mechanical properties :
#
#
# Convention : Reuss Voigt Hill
#
# Bulk Modulus (GPa) = 22.41699 34.32412 28.37055
# Shear Modulus (GPa) = 19.76063 27.50239 23.63151
#
# Velocity S-wave (km/s) = 3.16631 3.73541 3.46257
# Velocity P-wave (km/s) = 4.97399 6.00156 5.51178
#
# Compressibility (1/GPa) = 0.04460903
#
# Stress axis : x y z
#
# Youngs Moduli (GPa) = 50.65340 18.84967 74.64137
#
# Poissons Ratio (x) = 0.20010 0.21574
# Poissons Ratio (y) = 0.53771 0.54376
# Poissons Ratio (z) = 0.14641 0.13732
#
# Static dielectric constant tensor:
#      x y z
#    x 1.726400 0.000000 0.199990 
#    y 0.000000 1.736760 0.000000 
#    z 0.199990 0.000000 2.053410 
# 
# From -- ./inp_files/73864.got.cif
#   From: 2010.05.17/outbox.ucp.g08.bks.cvg/sg14_37_cif.got.tgz:73864.got - 2010.06.11 12:31:08.
