data_PCOD9253298
_publ_section_title
;
Structure prediction by ZEFSAII (Michael W. Deem and Ramdas Pophale) SiO2 
 PCOD9253298
Probable space group: P 21/C
;
_chemical_formula_sum "Si O2"
_cell_formula_units_Z 20
_cell_length_a 5.344406
_cell_length_b 17.242887
_cell_length_c 7.952540
_cell_angle_alpha 90.000000
_cell_angle_beta 93.109409
_cell_angle_gamma 90.000000
_cell_volume 731.771409
_symmetry_space_group_name_H-M "P 21/C"
_symmetry_group_IT_number 14
_symmetry_cell_setting 'monoclinic'
loop_
_space_group_symop_operation_xyz
x,y,z
-x,1/2+y,1/2-z
-x,-y,-z
x,1/2-y,1/2+z
loop_
_atom_site_type_symbol
_atom_site_label
_atom_site_fract_x
_atom_site_fract_y
_atom_site_fract_z
Si Si1 0.667588 0.844474 0.756460
Si Si2 0.588378 0.012953 0.192653
Si Si3 0.841780 0.211266 0.410918
Si Si4 0.012800 0.068430 0.639007
Si Si5 0.937514 0.382005 0.499538
O O1 0.596760 0.933525 0.705384
O O2 0.414671 0.801827 0.699215
O O3 0.899850 0.799422 0.683576
O O4 0.773425 0.860426 0.947376
O O5 0.692984 0.939486 0.296467
O O6 0.826375 0.070027 0.153094
O O7 0.500000 0.000000 0.000000
O O8 0.894176 0.145276 0.553000
O O9 0.818138 0.298261 0.474947
O O10 0.901485 0.070802 0.825677
O O11 0.000000 0.000000 0.500000
#
# Coordination Sequence:
#
# PCOD9253298 Si02
#       5
#     4   4   4   4   4
#     4  12  26  52  79 111 161 209 272 321 417 473
#     4  12  27  49  83 117 161 218 267 335 410 494
#     4  12  30  50  82 118 160 209 275 342 400 481
#     4  12  26  47  76 121 152 210 268 336 389 484
#     4  12  28  52  79 116 166 215 269 330 419 482
#
# _framework density 27.330936999999999
#
# number of rings (size 3 to 8) (size 9 to 14) (size 15 to 20)
#    0.000    0.000    6.000    1.800    5.600    4.000 
#    0.000    0.000    0.000    0.000    0.000    0.000 
#    0.000    0.000    0.000    0.000    0.000    0.000 
#
# Total GULP energy -111645.052457 kJ/mol
# GULP energy per Si atom -5582.252623 kJ/mol
# Density = 2.726873 g / cm^3
# Si number density = 27.330937 Si / 1000 Ang^3
#
#
#
# Elastic Constant Matrix: (Units=GPa)
#
#
# Indices 1 2 3 4 5 6 
#
# 1 162.7541 54.4661 63.2987 0.0000 28.5581 0.0000
# 2 54.4661 117.4119 40.0112 0.0000 6.2108 0.0000
# 3 63.2987 40.0112 148.5757 0.0000 5.6283 0.0000
# 4 0.0000 0.0000 0.0000 55.7156 0.0000 12.5046
# 5 28.5581 6.2108 5.6283 0.0000 56.4813 0.0000
# 6 0.0000 0.0000 0.0000 12.5046 0.0000 41.4393
#
#
#
# Elastic Compliance Matrix: (Units=1/GPa)
#
#
# Indices 1 2 3 4 5 6 
#
# 1 0.008934 -0.002963 -0.002860 0.000000 -0.003906 0.000000
# 2 -0.002963 0.010395 -0.001556 0.000000 0.000510 0.000000
# 3 -0.002860 -0.001556 0.008338 0.000000 0.000786 0.000000
# 4 0.000000 0.000000 0.000000 0.019252 0.000000 -0.005809
# 5 -0.003906 0.000510 0.000786 0.000000 0.019546 0.000000
# 6 0.000000 0.000000 0.000000 -0.005809 0.000000 0.025885
#
#
# Mechanical properties :
#
#
# Convention : Reuss Voigt Hill
#
# Bulk Modulus (GPa) = 77.47079 82.69929 80.08504
# Shear Modulus (GPa) = 44.87896 48.79162 46.83529
#
# Velocity S-wave (km/s) = 4.05663 4.22976 4.14410
# Velocity P-wave (km/s) = 7.09568 7.36062 7.22936
#
# Compressibility (1/GPa) = 0.01290809
#
# Stress axis : x y z
#
# Youngs Moduli (GPa) = 111.93753 96.20148 119.92658
#
# Poissons Ratio (x) = 0.28503 0.34301
# Poissons Ratio (y) = 0.33166 0.18665
# Poissons Ratio (z) = 0.32016 0.14972
#
# Static dielectric constant tensor:
#      x y z
#    x 2.311010 0.000000 -0.032370 
#    y 0.000000 2.263040 0.000000 
#    z -0.032370 0.000000 2.146650 
# 
# From -- ./inp_files/5539.got.cif
#   From: 2010.05.17/outbox.cif.g08.bks.cpg/sg14_3_cif.got.tgz:5539.got - 2010.06.03 17:49:19.
