data_PCOD9253270
_publ_section_title
;
Structure prediction by ZEFSAII (Michael W. Deem and Ramdas Pophale) SiO2 
 PCOD9253270
Probable space group: P 21/C
;
_chemical_formula_sum "Si O2"
_cell_formula_units_Z 28
_cell_length_a 11.928310
_cell_length_b 9.021888
_cell_length_c 10.533046
_cell_angle_alpha 90.000000
_cell_angle_beta 69.238786
_cell_angle_gamma 90.000000
_cell_volume 1059.918629
_symmetry_space_group_name_H-M "P 21/C"
_symmetry_group_IT_number 14
_symmetry_cell_setting 'monoclinic'
loop_
_space_group_symop_operation_xyz
x,y,z
-x,1/2+y,1/2-z
-x,-y,-z
x,1/2-y,1/2+z
loop_
_atom_site_type_symbol
_atom_site_label
_atom_site_fract_x
_atom_site_fract_y
_atom_site_fract_z
Si Si1 0.159510 0.484461 0.797693
Si Si2 0.790893 0.736917 0.028540
Si Si3 0.428073 0.421557 0.641645
Si Si4 0.671423 0.040995 0.156796
Si Si5 0.621140 0.583944 0.923544
Si Si6 0.990560 0.344451 0.695499
Si Si7 0.135667 0.748665 0.496829
O O1 0.298702 0.498614 0.705073
O O2 0.063143 0.484274 0.723848
O O3 0.152825 0.321850 0.864665
O O4 0.128478 0.600789 0.918354
O O5 0.694180 0.618785 0.020802
O O6 0.895038 0.742234 0.884264
O O7 0.724346 0.893203 0.069708
O O8 0.500000 0.500000 0.500000
O O9 0.527548 0.443863 0.710030
O O10 0.404252 0.246835 0.627516
O O11 0.697872 0.014141 0.294510
O O12 0.930698 0.139222 0.080006
O O13 0.500000 0.500000 0.000000
O O14 0.268932 0.680763 0.435610
O O15 0.907462 0.285388 0.843555
#
# Coordination Sequence:
#
# PCOD9253270 Si02
#       7
#     4   4   4   4   4   4   4
#     4  12  27  52  79 117 159 207 257 329 401 458
#     4  12  25  51  78 112 160 206 259 322 404 462
#     4  12  26  49  80 109 160 201 264 323 391 475
#     4  12  29  50  76 121 152 210 260 322 398 470
#     4  12  28  46  77 114 156 207 255 327 394 467
#     4  12  27  53  80 118 156 208 263 325 394 460
#     4  12  33  48  86 116 160 206 271 325 383 481
#
# _framework density 26.417124000000001
#
# number of rings (size 3 to 8) (size 9 to 14) (size 15 to 20)
#    0.000    0.000    5.714    1.286   12.000    1.714 
#    0.000    0.000    0.000    0.000    0.000    0.000 
#    0.000    0.000    0.000    0.000    0.000    0.000 
#
# Total GULP energy -156784.250099 kJ/mol
# GULP energy per Si atom -5599.437504 kJ/mol
# Density = 2.635700 g / cm^3
# Si number density = 26.417124 Si / 1000 Ang^3
#
#
#
# Elastic Constant Matrix: (Units=GPa)
#
#
# Indices 1 2 3 4 5 6 
#
# 1 68.0795 10.3266 29.9707 0.0000 3.5485 0.0000
# 2 10.3266 52.8671 6.1024 0.0000 -13.9996 0.0000
# 3 29.9707 6.1024 158.3707 0.0000 -23.5908 0.0000
# 4 0.0000 0.0000 0.0000 44.6750 0.0000 -4.3719
# 5 3.5485 -13.9996 -23.5908 0.0000 53.7452 0.0000
# 6 0.0000 0.0000 0.0000 -4.3719 0.0000 46.2102
#
#
#
# Elastic Compliance Matrix: (Units=1/GPa)
#
#
# Indices 1 2 3 4 5 6 
#
# 1 0.017078 -0.003907 -0.003639 0.000000 -0.003743 0.000000
# 2 -0.003907 0.021211 0.000838 0.000000 0.006151 0.000000
# 3 -0.003639 0.000838 0.007531 0.000000 0.003764 0.000000
# 4 0.000000 0.000000 0.000000 0.022593 0.000000 0.002137
# 5 -0.003743 0.006151 0.003764 0.000000 0.022108 0.000000
# 6 0.000000 0.000000 0.000000 0.002137 0.000000 0.021842
#
#
# Mechanical properties :
#
#
# Convention : Reuss Voigt Hill
#
# Bulk Modulus (GPa) = 30.85927 41.34628 36.10278
# Shear Modulus (GPa) = 36.60842 44.45393 40.53117
#
# Velocity S-wave (km/s) = 3.72665 4.10661 3.92123
# Velocity P-wave (km/s) = 5.49765 6.17826 5.84787
#
# Compressibility (1/GPa) = 0.03240517
#
# Stress axis : x y z
#
# Youngs Moduli (GPa) = 58.55355 47.14639 132.77759
#
# Poissons Ratio (x) = 0.18420 0.48317
# Poissons Ratio (y) = 0.22877 -0.11131
# Poissons Ratio (z) = 0.21307 -0.03952
#
# Static dielectric constant tensor:
#      x y z
#    x 2.229580 0.000000 0.075580 
#    y 0.000000 2.064430 0.000000 
#    z 0.075580 0.000000 2.114230 
# 
# From -- ./inp_files/31464.got.cif
#   From: 2010.05.17/outbox.cif.g08.bks.cpg/sg14_16_cif.got.tgz:31464.got - 2010.06.03 17:49:19.
