data_PCOD9253849
_publ_section_title
;
Structure prediction by ZEFSAII (Michael W. Deem and Ramdas Pophale) SiO2 
 PCOD9253849
Probable space group: C 2/C
;
_chemical_formula_sum "Si O2"
_cell_formula_units_Z 52
_cell_length_a 19.477100
_cell_length_b 7.960334
_cell_length_c 18.843875
_cell_angle_alpha 90.000000
_cell_angle_beta 53.038244
_cell_angle_gamma 90.000000
_cell_volume 2334.493707
_symmetry_space_group_name_H-M "C 2/C"
_symmetry_group_IT_number 15
_symmetry_cell_setting 'monoclinic'
loop_
_space_group_symop_operation_xyz
x,y,z
-x,y,1/2-z
-x,-y,-z
x,-y,1/2+z
1/2+x,1/2+y,z
1/2-x,1/2+y,1/2-z
1/2-x,1/2-y,-z
1/2+x,1/2-y,1/2+z
loop_
_atom_site_type_symbol
_atom_site_label
_atom_site_fract_x
_atom_site_fract_y
_atom_site_fract_z
Si Si1 0.500000 0.647586 0.250000
Si Si2 0.869385 0.089009 0.915900
Si Si3 0.542196 0.824002 0.369099
Si Si4 0.517013 0.836660 0.819853
Si Si5 0.915200 0.898646 0.024815
Si Si6 0.807966 0.166010 0.813139
Si Si7 0.304070 0.426180 0.695066
O O1 0.573674 0.535857 0.168430
O O2 0.533570 0.755161 0.294473
O O3 0.863657 0.990230 0.992921
O O4 0.796345 0.143272 0.905214
O O5 0.928863 0.248571 0.896940
O O6 0.545535 0.022505 0.357320
O O7 0.458648 0.767982 0.466280
O O8 0.624470 0.721443 0.345100
O O9 0.500000 0.901034 0.750000
O O10 0.590713 0.697228 0.765119
O O11 0.847637 0.911872 0.130176
O O12 0.000000 0.000000 0.000000
O O13 0.766666 0.337009 0.808985
O O14 0.778476 0.002589 0.787070
#
# Coordination Sequence:
#
# PCOD9253849 Si02
#       7
#     4   8   8   8   8   8   8
#     4  10  14  30  56  80 104 138 184 224 268 318
#     4  10  18  35  58  81 109 150 183 231 276 328
#     4  10  18  32  56  84 107 142 180 232 275 323
#     4  10  18  31  56  87 106 133 191 232 264 324
#     4   9  20  36  56  80 115 145 183 232 285 328
#     4  11  21  36  57  77 112 150 187 231 272 336
#     4  11  22  38  53  81 112 148 187 228 281 331
#
# _framework density 22.274636000000001
#
# number of rings (size 3 to 8) (size 9 to 14) (size 15 to 20)
#    0.000    1.846    4.615    2.769    0.000    0.615 
#    0.000    8.462    0.000    4.615    0.000    0.000 
#    0.000    0.000    0.000    0.000    0.000    0.000 
#
# Total GULP energy -144938.798668 kJ/mol
# GULP energy per Si atom -5574.569180 kJ/mol
# Density = 2.222394 g / cm^3
# Si number density = 22.274636 Si / 1000 Ang^3
#
#
#
# Elastic Constant Matrix: (Units=GPa)
#
#
# Indices 1 2 3 4 5 6 
#
# 1 78.3478 1.4745 20.0096 -0.0001 23.3758 0.0001
# 2 1.4745 46.7974 -1.0779 -0.0002 9.0696 0.0003
# 3 20.0096 -1.0779 48.4492 -0.0001 24.1983 0.0001
# 4 -0.0001 -0.0002 -0.0001 17.0443 0.0000 13.2885
# 5 23.3758 9.0696 24.1983 0.0000 26.7435 0.0000
# 6 0.0001 0.0003 0.0001 13.2885 0.0000 32.4131
#
#
#
# Elastic Compliance Matrix: (Units=1/GPa)
#
#
# Indices 1 2 3 4 5 6 
#
# 1 0.017635 0.002985 0.001802 0.000000 -0.018057 0.000000
# 2 0.002985 0.025212 0.008943 0.000001 -0.019252 -0.000001
# 3 0.001802 0.008943 0.040864 0.000001 -0.041583 -0.000001
# 4 0.000000 0.000001 0.000001 0.086234 -0.000002 -0.035354
# 5 -0.018057 -0.019252 -0.041583 -0.000002 0.097329 0.000001
# 6 0.000000 -0.000001 -0.000001 -0.035354 0.000001 0.045346
#
#
# Mechanical properties :
#
#
# Convention : Reuss Voigt Hill
#
# Bulk Modulus (GPa) = 8.99510 23.82297 16.40903
# Shear Modulus (GPa) = 15.51760 25.45274 20.48517
#
# Velocity S-wave (km/s) = 2.64227 3.38402 3.03589
# Velocity P-wave (km/s) = 3.65457 5.09776 4.43525
#
# Compressibility (1/GPa) = 0.11117168
#
# Stress axis : x y z
#
# Youngs Moduli (GPa) = 56.70655 39.66397 24.47159
#
# Poissons Ratio (x) = -0.11841 -0.04410
# Poissons Ratio (y) = -0.16929 -0.21886
# Poissons Ratio (z) = -0.10218 -0.35473
#
# Static dielectric constant tensor:
#      x y z
#    x 1.893630 0.000000 0.028120 
#    y 0.000000 1.813110 0.000000 
#    z 0.028120 0.000000 1.844530 
# 
# From -- ./inp_files/246888.got.cif
#   From: 2010.05.17/outbox.cif.g08.bks.cpg/sg15_124_cif.got.tgz:246888.got - 2010.06.03 18:47:42.
