data_PCOD9253459
_publ_section_title
;
Structure prediction by ZEFSAII (Michael W. Deem and Ramdas Pophale) SiO2 
 PCOD9253459
Probable space group: P 21/C
;
_chemical_formula_sum "Si O2"
_cell_formula_units_Z 32
_cell_length_a 12.000000
_cell_length_b 15.000000
_cell_length_c 15.000000
_cell_angle_alpha 90.000000
_cell_angle_beta 140.000000
_cell_angle_gamma 90.000000
_cell_volume 1735.526546
_symmetry_space_group_name_H-M "P 21/C"
_symmetry_group_IT_number 14
_symmetry_cell_setting 'monoclinic'
loop_
_space_group_symop_operation_xyz
x,y,z
-x,1/2+y,1/2-z
-x,-y,-z
x,1/2-y,1/2+z
loop_
_atom_site_type_symbol
_atom_site_label
_atom_site_fract_x
_atom_site_fract_y
_atom_site_fract_z
Si Si1 0.658903 0.886562 0.113961
Si Si2 0.525324 0.479085 0.662548
Si Si3 0.122886 0.284090 0.379909
Si Si4 0.225619 0.096193 0.394891
Si Si5 0.488159 0.199200 0.426724
Si Si6 0.441625 0.907419 0.279614
Si Si7 0.482306 0.205159 0.211939
Si Si8 0.803867 0.092706 0.706201
O O1 0.828222 0.834357 0.183191
O O2 0.527561 0.802965 0.051545
O O3 0.660597 0.951424 0.200561
O O4 0.598770 0.949005 0.994997
O O5 0.432858 0.533807 0.685125
O O6 0.581153 0.382930 0.736379
O O7 0.100713 0.177557 0.350037
O O8 0.295263 0.292213 0.547343
O O9 0.965283 0.341618 0.321362
O O10 0.339922 0.143095 0.387029
O O11 0.368908 0.076789 0.559511
O O12 0.153310 0.001484 0.316250
O O13 0.461878 0.196691 0.305137
O O14 0.666004 0.150789 0.563966
O O15 0.431873 0.800978 0.255705
O O16 0.297197 0.930460 0.264322
#
# Coordination Sequence:
#
# PCOD9253459 Si02
#       8
#     4   4   4   4   4   4   4   4
#     4   9  19  35  55  79 112 150 186 228 281 336
#     4  10  17  32  57  83 104 143 194 226 268 334
#     4   9  21  38  52  80 120 146 181 232 289 338
#     4   9  19  36  57  80 109 161 184 220 286 345
#     4  10  18  36  62  83 110 148 196 233 265 340
#     4  10  19  34  59  84 111 142 192 236 275 333
#     4  10  19  35  56  82 110 148 185 231 283 333
#     4  11  20  36  57  86 113 145 188 238 282 331
#
# _framework density 18.438207999999999
#
# number of rings (size 3 to 8) (size 9 to 14) (size 15 to 20)
#    0.000    2.250    1.250    5.250    0.000    0.000 
#    9.000    8.125    0.000    1.500    0.000    0.000 
#    0.000    0.000    0.000    0.000    0.000    0.000 
#
# Total GULP energy -178298.772128 kJ/mol
# GULP energy per Si atom -5571.836629 kJ/mol
# Density = 1.839624 g / cm^3
# Si number density = 18.438208 Si / 1000 Ang^3
#
#
#
# Elastic Constant Matrix: (Units=GPa)
#
#
# Indices 1 2 3 4 5 6 
#
# 1 56.0747 32.8536 24.2981 0.0000 -22.9611 0.0000
# 2 32.8536 142.8710 26.8840 0.0000 -9.8951 0.0000
# 3 24.2981 26.8840 30.4641 0.0000 -14.2846 0.0000
# 4 0.0000 0.0000 0.0000 19.9643 0.0000 -12.1322
# 5 -22.9611 -9.8951 -14.2846 0.0000 27.9661 0.0000
# 6 0.0000 0.0000 0.0000 -12.1322 0.0000 41.0218
#
#
#
# Elastic Compliance Matrix: (Units=1/GPa)
#
#
# Indices 1 2 3 4 5 6 
#
# 1 0.034477 -0.003739 -0.015182 0.000000 0.019228 0.000000
# 2 -0.003739 0.008823 -0.006285 0.000000 -0.003158 0.000000
# 3 -0.015182 -0.006285 0.057322 0.000000 0.014591 0.000000
# 4 0.000000 0.000000 0.000000 0.061064 0.000000 0.018060
# 5 0.019228 -0.003158 0.014591 0.000000 0.057880 0.000000
# 6 0.000000 0.000000 0.000000 0.018060 0.000000 0.029718
#
#
# Mechanical properties :
#
#
# Convention : Reuss Voigt Hill
#
# Bulk Modulus (GPa) = 19.91655 44.16457 32.04056
# Shear Modulus (GPa) = 15.80108 27.48203 21.64156
#
# Velocity S-wave (km/s) = 2.93059 3.86488 3.42970
# Velocity P-wave (km/s) = 4.71979 6.62730 5.75315
#
# Compressibility (1/GPa) = 0.05020949
#
# Stress axis : x y z
#
# Youngs Moduli (GPa) = 29.00525 113.33983 17.44516
#
# Poissons Ratio (x) = 0.42382 0.26486
# Poissons Ratio (y) = 0.10846 0.10964
# Poissons Ratio (z) = 0.44037 0.71230
#
# Static dielectric constant tensor:
#      x y z
#    x 1.661540 0.000000 -0.014960 
#    y 0.000000 1.668320 0.000000 
#    z -0.014960 0.000000 1.623830 
# 
# From -- ./inp_files/45117.got.cif
#   From: 2010.05.17/outbox.ucp.g08.bks.cvg/sg14_23_cif.got.tgz:45117.got - 2010.06.11 12:31:08.
