data_PCOD9253062
_publ_section_title
;
Structure prediction by ZEFSAII (Michael W. Deem and Ramdas Pophale) SiO2 
 PCOD9253062
Probable space group: P 21/C
;
_chemical_formula_sum "Si O2"
_cell_formula_units_Z 30
_cell_length_a 9.661908
_cell_length_b 13.414757
_cell_length_c 11.242537
_cell_angle_alpha 90.000000
_cell_angle_beta 108.419456
_cell_angle_gamma 90.000000
_cell_volume 1382.516792
_symmetry_space_group_name_H-M "P 21/C"
_symmetry_group_IT_number 14
_symmetry_cell_setting 'monoclinic'
loop_
_space_group_symop_operation_xyz
x,y,z
-x,1/2+y,1/2-z
-x,-y,-z
x,1/2-y,1/2+z
loop_
_atom_site_type_symbol
_atom_site_label
_atom_site_fract_x
_atom_site_fract_y
_atom_site_fract_z
Si Si1 0.008046 0.589904 0.910546
Si Si2 0.692166 0.774055 0.651985
Si Si3 0.295856 0.442341 0.267098
Si Si4 0.743978 0.582853 0.381959
Si Si5 0.961725 0.772033 0.074364
Si Si6 0.500000 0.500000 0.500000
Si Si7 0.784828 0.390515 0.242085
Si Si8 0.465387 0.091081 0.578553
O O1 0.876464 0.569770 0.782902
O O2 0.154113 0.595547 0.874359
O O3 0.980865 0.690249 0.976833
O O4 0.000000 0.500000 0.000000
O O5 0.640448 0.661167 0.660924
O O6 0.682625 0.836671 0.770285
O O7 0.859345 0.772102 0.651204
O O8 0.602559 0.822983 0.521015
O O9 0.364065 0.524432 0.369436
O O10 0.352467 0.445122 0.147976
O O11 0.867223 0.637898 0.492844
O O12 0.618914 0.537917 0.431393
O O13 0.805707 0.492547 0.320280
O O14 0.115994 0.807695 0.167665
O O15 0.612352 0.373658 0.184125
O O16 0.500000 0.000000 0.500000
#
# Coordination Sequence:
#
# PCOD9253062 Si02
#       8
#     4   4   4   4   4   2   4   4
#     4  12  25  45  72 102 142 188 240 295 363 437
#     4  12  22  45  76  98 138 200 233 288 363 448
#     4  12  24  45  71 101 139 190 241 285 366 442
#     4  12  23  44  73 103 148 189 241 301 365 432
#     4  12  24  46  72 104 146 195 242 292 373 444
#     4  12  24  44  70 106 140 186 240 298 356 434
#     4  12  25  43  69 109 140 180 246 304 355 426
#     4  12  24  45  71 102 143 186 234 297 365 424
#
# _framework density 21.699555
#
# number of rings (size 3 to 8) (size 9 to 14) (size 15 to 20)
#    0.000    0.000    8.000    2.000    0.000    1.067 
#    2.400    0.000    0.000    0.000    0.000    0.000 
#    0.000    0.000    0.000    0.000    0.000    0.000 
#
# Total GULP energy -167375.890576 kJ/mol
# GULP energy per Si atom -5579.196353 kJ/mol
# Density = 2.165017 g / cm^3
# Si number density = 21.699555 Si / 1000 Ang^3
#
#
#
# Elastic Constant Matrix: (Units=GPa)
#
#
# Indices 1 2 3 4 5 6 
#
# 1 80.6879 7.4830 4.3483 0.0000 -5.1438 0.0000
# 2 7.4830 28.8409 1.9567 0.0000 2.2521 0.0000
# 3 4.3483 1.9567 88.9838 0.0000 8.3872 0.0000
# 4 0.0000 0.0000 0.0000 39.6939 0.0000 -12.6498
# 5 -5.1438 2.2521 8.3872 0.0000 60.0493 0.0000
# 6 0.0000 0.0000 0.0000 -12.6498 0.0000 2.5577
#
#
#
# Elastic Compliance Matrix: (Units=1/GPa)
#
#
# Indices 1 2 3 4 5 6 
#
# 1 0.012828 -0.003386 -0.000677 0.000000 0.001320 0.000000
# 2 -0.003386 0.035705 -0.000472 0.000000 -0.001563 0.000000
# 3 -0.000677 -0.000472 0.011436 0.000000 -0.001638 0.000000
# 4 0.000000 0.000000 0.000000 -0.043726 0.000000 -0.216261
# 5 0.001320 -0.001563 -0.001638 0.000000 0.017053 0.000000
# 6 0.000000 0.000000 0.000000 -0.216261 0.000000 -0.678606
#
#
# Mechanical properties :
#
#
# Convention : Reuss Voigt Hill
#
# Bulk Modulus (GPa) = 19.64644 25.12096 22.38370
# Shear Modulus (GPa) = -8.07398 32.77516 12.35059
#
# Velocity S-wave (km/s) = -1.93103 3.89061 2.38830
# Velocity P-wave (km/s) = 2.02525 5.63776 4.23592
#
# Compressibility (1/GPa) = 0.05089980
#
# Stress axis : x y z
#
# Youngs Moduli (GPa) = 77.95415 28.00691 87.44466
#
# Poissons Ratio (x) = 0.09482 0.05919
# Poissons Ratio (y) = 0.26392 0.04131
# Poissons Ratio (z) = 0.05276 0.01323
#
# Static dielectric constant tensor:
#      x y z
#    x 1.750100 0.000000 0.003170 
#    y 0.000000 1.887860 0.000000 
#    z 0.003170 0.000000 1.921090 
# 
# From -- ./inp_files/25334.got.cif
#   From: 2010.05.17/outbox.cif.g08.bks.cpg/sg14_13_cif.got.tgz:25334.got - 2010.06.03 17:49:19.
