data_PCOD9253047
_publ_section_title
;
Structure prediction by ZEFSAII (Michael W. Deem and Ramdas Pophale) SiO2 
 PCOD9253047
Probable space group: P 21/C
;
_chemical_formula_sum "Si O2"
_cell_formula_units_Z 24
_cell_length_a 12.516864
_cell_length_b 18.519761
_cell_length_c 14.343189
_cell_angle_alpha 90.000000
_cell_angle_beta 160.294937
_cell_angle_gamma 90.000000
_cell_volume 1121.079584
_symmetry_space_group_name_H-M "P 21/C"
_symmetry_group_IT_number 14
_symmetry_cell_setting 'monoclinic'
loop_
_space_group_symop_operation_xyz
x,y,z
-x,1/2+y,1/2-z
-x,-y,-z
x,1/2-y,1/2+z
loop_
_atom_site_type_symbol
_atom_site_label
_atom_site_fract_x
_atom_site_fract_y
_atom_site_fract_z
Si Si1 0.212938 0.352285 0.403963
Si Si2 0.944339 0.787757 0.618317
Si Si3 0.050665 0.115694 0.071647
Si Si4 0.317130 0.224751 0.795855
Si Si5 0.555224 0.430424 0.833871
Si Si6 0.676403 0.583072 0.017522
O O1 0.237389 0.281964 0.490511
O O2 0.280503 0.325804 0.355244
O O3 0.451352 0.410537 0.643865
O O4 0.858537 0.383623 0.113119
O O5 0.839261 0.804327 0.427035
O O6 0.866117 0.855006 0.619486
O O7 0.311901 0.767490 0.919447
O O8 0.154030 0.197684 0.179594
O O9 0.256110 0.090190 0.153006
O O10 0.147680 0.067900 0.240694
O O11 0.677272 0.110639 0.749173
O O12 0.641054 0.512817 0.925019
#
# Coordination Sequence:
#
# PCOD9253047 Si02
#       6
#     4   4   4   4   4   4
#     4  12  24  43  68  95 133 177 220 271 326 398
#     4  12  24  44  66  97 132 173 220 275 323 394
#     4  12  22  41  70 100 134 167 218 285 331 390
#     4  12  25  42  70 101 128 169 233 270 321 389
#     4  12  25  44  65 102 137 176 215 274 339 392
#     4  12  26  42  68 100 139 173 218 272 340 392
#
# _framework density 21.407934999999998
#
# number of rings (size 3 to 8) (size 9 to 14) (size 15 to 20)
#    0.000    0.000    5.000    6.000    2.333    0.000 
#    0.000    5.000    0.000    0.000    0.000    0.000 
#    0.000    0.000    0.000    0.000    0.000    0.000 
#
# Total GULP energy -134474.225760 kJ/mol
# GULP energy per Si atom -5603.092740 kJ/mol
# Density = 2.135921 g / cm^3
# Si number density = 21.407935 Si / 1000 Ang^3
#
#
#
# Elastic Constant Matrix: (Units=GPa)
#
#
# Indices 1 2 3 4 5 6 
#
# 1 80.4231 -45.3111 -11.4909 0.0000 -27.5578 0.0000
# 2 -45.3111 212.7946 59.7658 0.0000 50.2112 0.0000
# 3 -11.4909 59.7658 71.5149 0.0000 0.0526 0.0000
# 4 0.0000 0.0000 0.0000 34.0863 0.0000 -4.9165
# 5 -27.5578 50.2112 0.0526 0.0000 39.8596 0.0000
# 6 0.0000 0.0000 0.0000 -4.9165 0.0000 22.3723
#
#
#
# Elastic Compliance Matrix: (Units=1/GPa)
#
#
# Indices 1 2 3 4 5 6 
#
# 1 0.016800 0.000174 0.002545 0.000000 0.011392 0.000000
# 2 0.000174 0.010031 -0.008346 0.000000 -0.012505 0.000000
# 3 0.002545 -0.008346 0.021358 0.000000 0.012245 0.000000
# 4 0.000000 0.000000 0.000000 0.030298 0.000000 0.006658
# 5 0.011392 -0.012505 0.012245 0.000000 0.048700 0.000000
# 6 0.000000 0.000000 0.000000 0.006658 0.000000 0.046161
#
#
# Mechanical properties :
#
#
# Convention : Reuss Voigt Hill
#
# Bulk Modulus (GPa) = 27.07385 41.18448 34.12916
# Shear Modulus (GPa) = 25.39193 43.38156 34.38674
#
# Velocity S-wave (km/s) = 3.44771 4.50647 4.01217
# Velocity P-wave (km/s) = 5.34070 6.80862 6.11884
#
# Compressibility (1/GPa) = 0.03693601
#
# Stress axis : x y z
#
# Youngs Moduli (GPa) = 59.52500 99.68894 46.82100
#
# Poissons Ratio (x) = -0.01737 -0.11918
# Poissons Ratio (y) = -0.01037 0.39077
# Poissons Ratio (z) = -0.15151 0.83200
#
# Static dielectric constant tensor:
#      x y z
#    x 1.724330 0.000000 -0.065620 
#    y 0.000000 1.775040 0.000000 
#    z -0.065620 0.000000 1.680950 
# 
# From -- ./inp_files/45549.got.cif
#   From: 2010.05.17/outbox.cif.g08.bks.cpg/sg14_23_cif.got.tgz:45549.got - 2010.06.03 17:49:19.
