data_PCOD9253985
_publ_section_title
;
Structure prediction by ZEFSAII (Michael W. Deem and Ramdas Pophale) SiO2 
 PCOD9253985
Probable space group: C 2/C
;
_chemical_formula_sum "Si O2"
_cell_formula_units_Z 40
_cell_length_a 24.169836
_cell_length_b 7.700942
_cell_length_c 25.802202
_cell_angle_alpha 90.000000
_cell_angle_beta 20.423625
_cell_angle_gamma 90.000000
_cell_volume 1675.899985
_symmetry_space_group_name_H-M "C 2/C"
_symmetry_group_IT_number 15
_symmetry_cell_setting 'monoclinic'
loop_
_space_group_symop_operation_xyz
x,y,z
-x,y,1/2-z
-x,-y,-z
x,-y,1/2+z
1/2+x,1/2+y,z
1/2-x,1/2+y,1/2-z
1/2-x,1/2-y,-z
1/2+x,1/2-y,1/2+z
loop_
_atom_site_type_symbol
_atom_site_label
_atom_site_fract_x
_atom_site_fract_y
_atom_site_fract_z
Si Si1 0.623814 0.927412 0.934154
Si Si2 0.482044 0.451974 0.574991
Si Si3 0.176270 0.632340 0.500158
Si Si4 0.500000 0.044962 0.250000
Si Si5 0.832985 0.056013 0.995785
Si Si6 0.000000 0.024573 0.750000
O O1 0.564999 0.734436 0.998779
O O2 0.631865 0.982211 0.987825
O O3 0.343643 0.121395 0.358543
O O4 0.500000 0.000000 0.000000
O O5 0.500000 0.500000 0.500000
O O6 0.301328 0.437957 0.754461
O O7 0.579066 0.582609 0.527055
O O8 0.164322 0.842606 0.508984
O O9 0.358028 0.588462 0.351689
O O10 0.576027 0.933850 0.136502
O O11 0.928822 0.122620 0.862026
#
# Coordination Sequence:
#
# PCOD9253985 Si02
#       6
#     8   8   8   4   8   4
#     4  11  24  40  61  86 120 157 201 245 291 347
#     4  11  24  40  61  86 120 157 201 245 291 347
#     4  10  18  28  49  77 114 146 186 229 295 341
#     4  10  19  26  48  78 115 150 177 236 287 360
#     4  10  18  28  49  77 114 146 186 229 295 341
#     4  10  15  30  44  78 111 146 177 228 297 350
#
# _framework density 23.867771999999999
#
# number of rings (size 3 to 8) (size 9 to 14) (size 15 to 20)
#    0.000    1.600    2.000    6.000   11.200    0.000 
#    0.000    0.000    0.000    0.000    0.000    8.400 
#    0.000    0.000    0.000    0.000    0.000    0.000 
#
# Total GULP energy -111586.968568 kJ/mol
# GULP energy per Si atom -5579.348428 kJ/mol
# Density = 2.381345 g / cm^3
# Si number density = 23.867772 Si / 1000 Ang^3
#
#
#
# Elastic Constant Matrix: (Units=GPa)
#
#
# Indices 1 2 3 4 5 6 
#
# 1 233.5502 28.3562 98.3780 -0.0028 17.5393 0.0011
# 2 28.3562 47.0949 19.2020 -0.0067 -9.0315 0.0072
# 3 98.3780 19.2020 177.2151 -0.0026 -18.4634 0.0047
# 4 -0.0028 -0.0067 -0.0026 32.0858 0.0000 -2.3182
# 5 17.5393 -9.0315 -18.4634 0.0000 38.6091 -0.0007
# 6 0.0011 0.0072 0.0047 -2.3182 -0.0007 35.1598
#
#
#
# Elastic Compliance Matrix: (Units=1/GPa)
#
#
# Indices 1 2 3 4 5 6 
#
# 1 0.006861 -0.003617 -0.004031 0.000000 -0.005891 0.000001
# 2 -0.003617 0.024808 0.000101 0.000005 0.007495 -0.000005
# 3 -0.004031 0.000101 0.008485 0.000000 0.005912 -0.000001
# 4 0.000000 0.000005 0.000000 0.031316 0.000001 0.002065
# 5 -0.005891 0.007495 0.005912 0.000001 0.033157 -0.000001
# 6 0.000001 -0.000005 -0.000001 0.002065 -0.000001 0.028578
#
#
# Mechanical properties :
#
#
# Convention : Reuss Voigt Hill
#
# Bulk Modulus (GPa) = 39.90363 83.30361 61.60362
# Shear Modulus (GPa) = 31.91782 41.96589 36.94186
#
# Velocity S-wave (km/s) = 3.66085 4.19772 3.93844
# Velocity P-wave (km/s) = 5.88421 7.64672 6.82262
#
# Compressibility (1/GPa) = 0.02506038
#
# Stress axis : x y z
#
# Youngs Moduli (GPa) = 145.74928 40.30976 117.84907
#
# Poissons Ratio (x) = 0.14582 0.47500
# Poissons Ratio (y) = 0.52723 -0.01189
# Poissons Ratio (z) = 0.58745 -0.00407
#
# Static dielectric constant tensor:
#      x y z
#    x 2.094280 0.000000 0.071750 
#    y 0.000000 2.154570 -0.000010 
#    z 0.071750 -0.000010 1.871650 
# 
# From -- ./inp_files/214982.got.cif
#   From: 2010.05.17/outbox.cif.g08.bks.cpg/sg15_108_cif.got.tgz:214982.got - 2010.06.03 18:47:42.
