data_PCOD9253603
_publ_section_title
;
Structure prediction by ZEFSAII (Michael W. Deem and Ramdas Pophale) SiO2 
 PCOD9253603
Probable space group: P 21/C
;
_chemical_formula_sum "Si O2"
_cell_formula_units_Z 28
_cell_length_a 6.000000
_cell_length_b 18.000000
_cell_length_c 15.000000
_cell_angle_alpha 90.000000
_cell_angle_beta 60.000000
_cell_angle_gamma 90.000000
_cell_volume 1402.961154
_symmetry_space_group_name_H-M "P 21/C"
_symmetry_group_IT_number 14
_symmetry_cell_setting 'monoclinic'
loop_
_space_group_symop_operation_xyz
x,y,z
-x,1/2+y,1/2-z
-x,-y,-z
x,1/2-y,1/2+z
loop_
_atom_site_type_symbol
_atom_site_label
_atom_site_fract_x
_atom_site_fract_y
_atom_site_fract_z
Si Si1 0.934975 0.763317 0.270690
Si Si2 0.365698 0.124539 0.238106
Si Si3 0.576412 0.619971 0.922062
Si Si4 0.942438 0.331577 0.579690
Si Si5 0.287969 0.473384 0.928465
Si Si6 0.710258 0.227814 0.959797
Si Si7 0.367840 0.422542 0.547734
O O1 0.764003 0.705503 0.246812
O O2 0.802098 0.842006 0.318514
O O3 0.972148 0.724015 0.358807
O O4 0.190675 0.768968 0.160713
O O5 0.311835 0.077861 0.336684
O O6 0.277920 0.078403 0.168623
O O7 0.666435 0.139190 0.165639
O O8 0.447400 0.551076 0.894623
O O9 0.645061 0.578860 0.000675
O O10 0.413743 0.694056 0.983339
O O11 0.124844 0.402702 0.536122
O O12 0.929871 0.288555 0.489173
O O13 0.000000 0.500000 0.000000
O O14 0.539079 0.152725 0.002536
O O15 0.500000 0.500000 0.500000
#
# Coordination Sequence:
#
# PCOD9253603 Si02
#       7
#     4   4   4   4   4   4   4
#     4  11  23  38  68  95 125 167 224 264 321 399
#     4  10  22  42  62  93 125 176 213 265 339 384
#     4  11  24  44  60 102 129 166 233 262 322 412
#     4  10  21  41  65  88 131 169 208 278 318 390
#     4  11  26  41  66  92 139 173 211 282 329 387
#     4  11  23  42  66  95 129 171 221 270 327 393
#     4  10  23  41  62  96 131 166 218 270 327 395
#
# _framework density 19.957787
#
# number of rings (size 3 to 8) (size 9 to 14) (size 15 to 20)
#    0.000    1.429    4.286    1.714    4.000   10.286 
#    0.000    0.000    0.000    0.000    0.000    0.000 
#    0.000    0.000    0.000    0.000    0.000    0.000 
#
# Total GULP energy -156079.697242 kJ/mol
# GULP energy per Si atom -5574.274902 kJ/mol
# Density = 1.991236 g / cm^3
# Si number density = 19.957787 Si / 1000 Ang^3
#
#
#
# Elastic Constant Matrix: (Units=GPa)
#
#
# Indices 1 2 3 4 5 6 
#
# 1 41.0385 22.2890 -10.4551 0.0000 2.0267 0.0000
# 2 22.2890 118.7856 11.9609 0.0000 2.3788 0.0000
# 3 -10.4551 11.9609 52.0817 0.0000 7.8350 0.0000
# 4 0.0000 0.0000 0.0000 45.6375 0.0000 -3.1001
# 5 2.0267 2.3788 7.8350 0.0000 20.8724 0.0000
# 6 0.0000 0.0000 0.0000 -3.1001 0.0000 26.1228
#
#
#
# Elastic Compliance Matrix: (Units=1/GPa)
#
#
# Indices 1 2 3 4 5 6 
#
# 1 0.030237 -0.006407 0.008344 0.000000 -0.005338 0.000000
# 2 -0.006407 0.009977 -0.003709 0.000000 0.000877 0.000000
# 3 0.008344 -0.003709 0.023090 0.000000 -0.009055 0.000000
# 4 0.000000 0.000000 0.000000 0.022090 0.000000 0.002622
# 5 -0.005338 0.000877 -0.009055 0.000000 0.051727 0.000000
# 6 0.000000 0.000000 0.000000 0.002622 0.000000 0.038592
#
#
# Mechanical properties :
#
#
# Convention : Reuss Voigt Hill
#
# Bulk Modulus (GPa) = 16.73393 28.83281 22.78337
# Shear Modulus (GPa) = 25.10347 31.06729 28.08538
#
# Velocity S-wave (km/s) = 3.55043 3.94972 3.75539
# Velocity P-wave (km/s) = 5.02099 5.93958 5.49950
#
# Compressibility (1/GPa) = 0.05975884
#
# Stress axis : x y z
#
# Youngs Moduli (GPa) = 33.07256 100.23400 43.30935
#
# Poissons Ratio (x) = 0.64219 -0.36138
# Poissons Ratio (y) = 0.21189 0.16065
# Poissons Ratio (z) = -0.27596 0.37180
#
# Static dielectric constant tensor:
#      x y z
#    x 1.839260 0.000000 -0.002980 
#    y 0.000000 1.679590 0.000000 
#    z -0.002980 0.000000 1.218700 
# 
# From -- ./inp_files/37729.got.cif
#   From: 2010.05.17/outbox.ucp.g08.bks.cvg/sg14_19_cif.got.tgz:37729.got - 2010.06.11 12:31:08.
