data_PCOD9253958
_publ_section_title
;
Structure prediction by ZEFSAII (Michael W. Deem and Ramdas Pophale) SiO2 
 PCOD9253958
Probable space group: C 2/C
;
_chemical_formula_sum "Si O2"
_cell_formula_units_Z 40
_cell_length_a 23.162286
_cell_length_b 7.000897
_cell_length_c 9.976474
_cell_angle_alpha 90.000000
_cell_angle_beta 103.772750
_cell_angle_gamma 90.000000
_cell_volume 1571.238635
_symmetry_space_group_name_H-M "C 2/C"
_symmetry_group_IT_number 15
_symmetry_cell_setting 'monoclinic'
loop_
_space_group_symop_operation_xyz
x,y,z
-x,y,1/2-z
-x,-y,-z
x,-y,1/2+z
1/2+x,1/2+y,z
1/2-x,1/2+y,1/2-z
1/2-x,1/2-y,-z
1/2+x,1/2-y,1/2+z
loop_
_atom_site_type_symbol
_atom_site_label
_atom_site_fract_x
_atom_site_fract_y
_atom_site_fract_z
Si Si1 0.807389 0.015308 0.633641
Si Si2 0.443564 0.870128 0.004554
Si Si3 0.108725 0.517690 0.771209
Si Si4 0.436417 0.601514 0.772315
Si Si5 0.263862 0.949600 0.650744
O O1 0.875463 0.987629 0.715455
O O2 0.788653 0.971495 0.471798
O O3 0.790570 0.241491 0.631729
O O4 0.761704 0.931934 0.715494
O O5 0.431527 0.855526 0.154221
O O6 0.445150 0.665230 0.932389
O O7 0.500000 0.000000 0.000000
O O8 0.394535 0.991114 0.891532
O O9 0.081785 0.309509 0.800247
O O10 0.176458 0.570806 0.836627
O O11 0.500000 0.540450 0.750000
#
# Coordination Sequence:
#
# PCOD9253958 Si02
#       5
#     8   8   8   8   8
#     4  10  22  39  61  85 117 159 193 247 289 349
#     4  10  15  28  48  79 111 144 185 235 290 328
#     4   9  17  28  52  79 112 145 181 242 289 331
#     4   9  18  33  54  79 111 152 189 233 295 341
#     4  10  21  39  59  88 119 153 199 236 301 345
#
# _framework density 25.457619000000001
#
# number of rings (size 3 to 8) (size 9 to 14) (size 15 to 20)
#    1.200    1.200    2.000    1.800    0.000    0.800 
#    0.000    1.000    0.000    0.000    0.000    0.000 
#    0.000    0.000    0.000    0.000    0.000    0.000 
#
# Total GULP energy -111469.393255 kJ/mol
# GULP energy per Si atom -5573.469663 kJ/mol
# Density = 2.539968 g / cm^3
# Si number density = 25.457619 Si / 1000 Ang^3
#
#
#
# Elastic Constant Matrix: (Units=GPa)
#
#
# Indices 1 2 3 4 5 6 
#
# 1 159.4504 34.1789 23.4708 0.0000 13.3848 0.0000
# 2 34.1789 42.7646 17.0297 0.0000 1.1340 0.0000
# 3 23.4708 17.0297 64.1029 0.0000 -2.1426 0.0000
# 4 0.0000 0.0000 0.0000 33.9913 0.0000 -57.2306
# 5 13.3848 1.1340 -2.1426 0.0000 35.4255 0.0000
# 6 0.0000 0.0000 0.0000 -57.2306 0.0000 175.6813
#
#
#
# Elastic Compliance Matrix: (Units=1/GPa)
#
#
# Indices 1 2 3 4 5 6 
#
# 1 0.007955 -0.005683 -0.001500 0.000000 -0.002915 0.000000
# 2 -0.005683 0.030267 -0.005932 0.000000 0.000820 0.000000
# 3 -0.001500 -0.005932 0.017787 0.000000 0.001833 0.000000
# 4 0.000000 0.000000 0.000000 0.065157 0.000000 0.021226
# 5 -0.002915 0.000820 0.001833 0.000000 0.029414 0.000000
# 6 0.000000 0.000000 0.000000 0.021226 0.000000 0.012607
#
#
# Mechanical properties :
#
#
# Convention : Reuss Voigt Hill
#
# Bulk Modulus (GPa) = 33.58365 46.18629 39.88497
# Shear Modulus (GPa) = 25.08228 61.79552 43.43890
#
# Velocity S-wave (km/s) = 3.14228 4.93220 4.13525
# Velocity P-wave (km/s) = 5.13672 7.11458 6.20496
#
# Compressibility (1/GPa) = 0.02977639
#
# Stress axis : x y z
#
# Youngs Moduli (GPa) = 125.70226 33.03947 56.22236
#
# Poissons Ratio (x) = 0.18778 0.08435
# Poissons Ratio (y) = 0.71442 0.33353
# Poissons Ratio (z) = 0.18860 0.19600
#
# Static dielectric constant tensor:
#      x y z
#    x 1.926810 0.000000 0.115460 
#    y 0.000000 2.142790 0.000000 
#    z 0.115460 0.000000 2.075570 
# 
# From -- ./inp_files/109717.got.cif
#   From: 2010.05.17/outbox.cif.g08.bks.cpg/sg15_55_cif.got.tgz:109717.got - 2010.06.03 18:47:42.
