data_PCOD9253053
_publ_section_title
;
Structure prediction by ZEFSAII (Michael W. Deem and Ramdas Pophale) SiO2 
 PCOD9253053
Probable space group: P 21/C
;
_chemical_formula_sum "Si O2"
_cell_formula_units_Z 20
_cell_length_a 27.176791
_cell_length_b 5.200618
_cell_length_c 14.573069
_cell_angle_alpha 90.000000
_cell_angle_beta 156.437304
_cell_angle_gamma 90.000000
_cell_volume 823.370207
_symmetry_space_group_name_H-M "P 21/C"
_symmetry_group_IT_number 14
_symmetry_cell_setting 'monoclinic'
loop_
_space_group_symop_operation_xyz
x,y,z
-x,1/2+y,1/2-z
-x,-y,-z
x,1/2-y,1/2+z
loop_
_atom_site_type_symbol
_atom_site_label
_atom_site_fract_x
_atom_site_fract_y
_atom_site_fract_z
Si Si1 0.072744 0.796104 0.384855
Si Si2 0.670161 0.330887 0.252572
Si Si3 0.692515 0.673993 0.898474
Si Si4 0.578967 0.511849 0.895197
Si Si5 0.980238 0.747818 0.408327
O O1 0.182641 0.709526 0.509439
O O2 0.962503 0.595653 0.175940
O O3 0.088574 0.742533 0.518514
O O4 0.637700 0.556386 0.268590
O O5 0.639578 0.053777 0.243753
O O6 0.628673 0.088349 0.578946
O O7 0.838720 0.720864 0.134644
O O8 0.667151 0.599965 0.961190
O O9 0.500911 0.269047 0.724982
O O10 0.000000 0.500000 0.500000
O O11 0.000000 0.000000 0.500000
#
# Coordination Sequence:
#
# PCOD9253053 Si02
#       5
#     4   4   4   4   4
#     4  12  22  42  67 101 145 181 229 279 349 435
#     4  12  25  47  76 105 148 194 238 302 363 439
#     4  12  26  47  74 106 145 193 246 294 370 440
#     4  12  29  50  74 107 142 188 256 320 367 422
#     4  12  24  40  67 103 145 187 233 286 347 434
#
# _framework density 24.290410000000001
#
# number of rings (size 3 to 8) (size 9 to 14) (size 15 to 20)
#    0.000    0.000    4.000    6.000    0.000    8.000 
#    0.000    0.000    0.000    0.000    0.000    0.000 
#    0.000    0.000    0.000    0.000    0.000    0.000 
#
# Total GULP energy -111740.100681 kJ/mol
# GULP energy per Si atom -5587.005034 kJ/mol
# Density = 2.423512 g / cm^3
# Si number density = 24.290410 Si / 1000 Ang^3
#
#
#
# Elastic Constant Matrix: (Units=GPa)
#
#
# Indices 1 2 3 4 5 6 
#
# 1 119.3306 39.2853 21.6388 0.0000 -0.4496 0.0000
# 2 39.2853 156.6635 29.2267 0.0000 2.4509 0.0000
# 3 21.6388 29.2267 71.9433 0.0000 7.1943 0.0000
# 4 0.0000 0.0000 0.0000 33.5201 0.0000 -12.3838
# 5 -0.4496 2.4509 7.1943 0.0000 26.6282 0.0000
# 6 0.0000 0.0000 0.0000 -12.3838 0.0000 56.2611
#
#
#
# Elastic Compliance Matrix: (Units=1/GPa)
#
#
# Indices 1 2 3 4 5 6 
#
# 1 0.009420 -0.001981 -0.002120 0.000000 0.000914 0.000000
# 2 -0.001981 0.007324 -0.002373 0.000000 -0.000066 0.000000
# 3 -0.002120 -0.002373 0.015913 0.000000 -0.004117 0.000000
# 4 0.000000 0.000000 0.000000 0.032474 0.000000 0.007148
# 5 0.000914 -0.000066 -0.004117 0.000000 0.038688 0.000000
# 6 0.000000 0.000000 0.000000 0.007148 0.000000 0.019348
#
#
# Mechanical properties :
#
#
# Convention : Reuss Voigt Hill
#
# Bulk Modulus (GPa) = 50.73729 58.69322 54.71525
# Shear Modulus (GPa) = 35.04272 40.46766 37.75519
#
# Velocity S-wave (km/s) = 3.80235 4.08609 3.94677
# Velocity P-wave (km/s) = 6.34116 6.81741 6.58359
#
# Compressibility (1/GPa) = 0.01970937
#
# Stress axis : x y z
#
# Youngs Moduli (GPa) = 106.15565 136.54578 62.84155
#
# Poissons Ratio (x) = 0.27050 0.13322
# Poissons Ratio (y) = 0.21030 0.14910
# Poissons Ratio (z) = 0.22505 0.32398
#
# Static dielectric constant tensor:
#      x y z
#    x 2.003890 0.000000 0.022790 
#    y 0.000000 1.874660 0.000000 
#    z 0.022790 0.000000 2.072990 
# 
# From -- ./inp_files/47787.got.cif
#   From: 2010.05.17/outbox.cif.g08.bks.cpg/sg14_24_cif.got.tgz:47787.got - 2010.06.03 17:49:19.
