data_PCOD9253198
_publ_section_title
;
Structure prediction by ZEFSAII (Michael W. Deem and Ramdas Pophale) SiO2 
 PCOD9253198
Probable space group: P 21/C
;
_chemical_formula_sum "Si O2"
_cell_formula_units_Z 20
_cell_length_a 8.802691
_cell_length_b 11.526553
_cell_length_c 16.428594
_cell_angle_alpha 90.000000
_cell_angle_beta 31.159389
_cell_angle_gamma 90.000000
_cell_volume 862.499837
_symmetry_space_group_name_H-M "P 21/C"
_symmetry_group_IT_number 14
_symmetry_cell_setting 'monoclinic'
loop_
_space_group_symop_operation_xyz
x,y,z
-x,1/2+y,1/2-z
-x,-y,-z
x,1/2-y,1/2+z
loop_
_atom_site_type_symbol
_atom_site_label
_atom_site_fract_x
_atom_site_fract_y
_atom_site_fract_z
Si Si1 0.971705 0.584635 0.934148
Si Si2 0.248076 0.227055 0.758610
Si Si3 0.776231 0.184406 0.105264
Si Si4 0.205633 0.446889 0.673986
Si Si5 0.327715 0.528314 0.206096
O O1 0.106649 0.708394 0.895086
O O2 0.143827 0.522641 0.782533
O O3 0.635327 0.594967 0.057809
O O4 0.000000 0.500000 0.000000
O O5 0.439187 0.293343 0.738104
O O6 0.225909 0.313422 0.693685
O O7 0.408785 0.107119 0.665744
O O8 0.947618 0.189777 0.940874
O O9 0.796307 0.069499 0.149759
O O10 0.500000 0.500000 0.500000
O O11 0.926029 0.453812 0.742926
#
# Coordination Sequence:
#
# PCOD9253198 Si02
#       5
#     4   4   4   4   4
#     4  12  24  50  77 107 150 205 256 317 384 461
#     4  12  25  49  76 111 153 196 259 321 376 477
#     4  12  25  46  79 107 148 198 261 315 384 455
#     4  12  29  48  75 117 160 198 255 321 394 462
#     4  12  27  47  78 111 154 204 253 322 399 445
#
# _framework density 23.188410000000001
#
# number of rings (size 3 to 8) (size 9 to 14) (size 15 to 20)
#    0.000    0.000    6.000    2.400    5.600    0.000 
#    0.000    0.000    0.000    0.000    0.000    0.000 
#    0.000    0.000    0.000    0.000    0.000    0.000 
#
# Total GULP energy -112011.997230 kJ/mol
# GULP energy per Si atom -5600.599861 kJ/mol
# Density = 2.313563 g / cm^3
# Si number density = 23.188410 Si / 1000 Ang^3
#
#
#
# Elastic Constant Matrix: (Units=GPa)
#
#
# Indices 1 2 3 4 5 6 
#
# 1 130.2717 37.5636 36.5050 0.0000 -11.1106 0.0000
# 2 37.5636 91.2728 1.5840 0.0000 -1.5360 0.0000
# 3 36.5050 1.5840 121.3603 0.0000 11.2406 0.0000
# 4 0.0000 0.0000 0.0000 29.6891 0.0000 3.8826
# 5 -11.1106 -1.5360 11.2406 0.0000 34.9159 0.0000
# 6 0.0000 0.0000 0.0000 3.8826 0.0000 38.7153
#
#
#
# Elastic Compliance Matrix: (Units=1/GPa)
#
#
# Indices 1 2 3 4 5 6 
#
# 1 0.010144 -0.004046 -0.003382 0.000000 0.004138 0.000000
# 2 -0.004046 0.012583 0.001155 0.000000 -0.001106 0.000000
# 3 -0.003382 0.001155 0.009624 0.000000 -0.004124 0.000000
# 4 0.000000 0.000000 0.000000 0.034130 0.000000 -0.003423
# 5 0.004138 -0.001106 -0.004124 0.000000 0.031236 0.000000
# 6 0.000000 0.000000 0.000000 -0.003423 0.000000 0.026173
#
#
# Mechanical properties :
#
#
# Convention : Reuss Voigt Hill
#
# Bulk Modulus (GPa) = 50.49216 54.91223 52.70220
# Shear Modulus (GPa) = 34.95620 38.48088 36.71854
#
# Velocity S-wave (km/s) = 3.88685 4.07810 3.98362
# Velocity P-wave (km/s) = 6.47807 6.77546 6.62843
#
# Compressibility (1/GPa) = 0.01980506
#
# Stress axis : x y z
#
# Youngs Moduli (GPa) = 98.58444 79.47369 103.90712
#
# Poissons Ratio (x) = 0.32157 0.35138
# Poissons Ratio (y) = 0.39890 -0.12005
# Poissons Ratio (z) = 0.33338 -0.09182
#
# Static dielectric constant tensor:
#      x y z
#    x 1.844350 0.000000 0.017350 
#    y 0.000000 1.834780 0.000000 
#    z 0.017350 0.000000 1.933470 
# 
# From -- ./inp_files/7845.got.cif
#   From: 2010.05.17/outbox.cif.g08.bks.cpg/sg14_4_cif.got.tgz:7845.got - 2010.06.03 17:49:19.
