data_PCOD9253178
_publ_section_title
;
Structure prediction by ZEFSAII (Michael W. Deem and Ramdas Pophale) SiO2 
 PCOD9253178
Probable space group: P 21/C
;
_chemical_formula_sum "Si O2"
_cell_formula_units_Z 28
_cell_length_a 15.256269
_cell_length_b 13.322384
_cell_length_c 8.291082
_cell_angle_alpha 90.000000
_cell_angle_beta 135.819087
_cell_angle_gamma 90.000000
_cell_volume 1174.433177
_symmetry_space_group_name_H-M "P 21/C"
_symmetry_group_IT_number 14
_symmetry_cell_setting 'monoclinic'
loop_
_space_group_symop_operation_xyz
x,y,z
-x,1/2+y,1/2-z
-x,-y,-z
x,1/2-y,1/2+z
loop_
_atom_site_type_symbol
_atom_site_label
_atom_site_fract_x
_atom_site_fract_y
_atom_site_fract_z
Si Si1 0.779434 0.865099 0.447429
Si Si2 0.661582 0.697191 0.102015
Si Si3 0.022919 0.881498 0.980138
Si Si4 0.736782 0.064807 0.207088
Si Si5 0.588085 0.553055 0.245211
Si Si6 0.852006 0.215965 0.157095
Si Si7 0.582511 0.189820 0.247273
O O1 0.750046 0.791488 0.260007
O O2 0.670608 0.845564 0.434900
O O3 0.899502 0.848728 0.718108
O O4 0.782812 0.976035 0.382591
O O5 0.688566 0.616357 0.274420
O O6 0.517881 0.728577 0.939962
O O7 0.125764 0.846795 0.979058
O O8 0.056234 0.808991 0.175893
O O9 0.000000 0.000000 0.000000
O O10 0.850652 0.135249 0.300345
O O11 0.630458 0.123516 0.163811
O O12 0.667301 0.019610 0.961618
O O13 0.497575 0.621152 0.236791
O O14 0.500000 0.500000 0.000000
O O15 0.711063 0.261048 0.978249
#
# Coordination Sequence:
#
# PCOD9253178 Si02
#       7
#     4   4   4   4   4   4   4
#     4  12  26  50  75 106 152 207 269 324 398 465
#     4  12  25  46  73 111 155 204 255 330 394 480
#     4  12  30  55  84 111 157 212 271 332 395 466
#     4  12  26  46  77 114 158 202 260 324 395 480
#     4  12  26  39  72 116 158 204 253 316 400 486
#     4  12  28  52  81 117 156 208 267 334 391 472
#     4  12  24  48  73 112 160 201 256 320 402 468
#
# _framework density 23.841287999999999
#
# number of rings (size 3 to 8) (size 9 to 14) (size 15 to 20)
#    0.000    0.000    4.286    4.714    6.000    0.571 
#    2.571    0.000    0.000    0.000    0.000    0.000 
#    0.000    0.000    0.000    0.000    0.000    0.000 
#
# Total GULP energy -156637.486523 kJ/mol
# GULP energy per Si atom -5594.195947 kJ/mol
# Density = 2.378702 g / cm^3
# Si number density = 23.841288 Si / 1000 Ang^3
#
#
#
# Elastic Constant Matrix: (Units=GPa)
#
#
# Indices 1 2 3 4 5 6 
#
# 1 64.6936 45.9816 -5.4787 0.0000 -27.4923 0.0000
# 2 45.9816 140.6485 31.7811 0.0000 -17.6013 0.0000
# 3 -5.4787 31.7811 102.7785 0.0000 -2.3432 0.0000
# 4 0.0000 0.0000 0.0000 32.5826 0.0000 -18.0955
# 5 -27.4923 -17.6013 -2.3432 0.0000 38.8374 0.0000
# 6 0.0000 0.0000 0.0000 -18.0955 0.0000 54.1140
#
#
#
# Elastic Compliance Matrix: (Units=1/GPa)
#
#
# Indices 1 2 3 4 5 6 
#
# 1 0.029037 -0.008385 0.004529 0.000000 0.017028 0.000000
# 2 -0.008385 0.010520 -0.003732 0.000000 -0.001393 0.000000
# 3 0.004529 -0.003732 0.011175 0.000000 0.002189 0.000000
# 4 0.000000 0.000000 0.000000 0.037691 0.000000 0.012604
# 5 0.017028 -0.001393 0.002189 0.000000 0.037303 0.000000
# 6 0.000000 0.000000 0.000000 0.012604 0.000000 0.022694
#
#
# Mechanical properties :
#
#
# Convention : Reuss Voigt Hill
#
# Bulk Modulus (GPa) = 28.12471 50.29872 39.21172
# Shear Modulus (GPa) = 28.49833 40.82924 34.66379
#
# Velocity S-wave (km/s) = 3.46111 4.14278 3.81719
# Velocity P-wave (km/s) = 5.27206 6.63525 5.99255
#
# Compressibility (1/GPa) = 0.03555592
#
# Stress axis : x y z
#
# Youngs Moduli (GPa) = 34.43846 95.05488 89.48595
#
# Poissons Ratio (x) = 0.79708 -0.40528
# Poissons Ratio (y) = 0.28878 0.33395
# Poissons Ratio (z) = -0.15597 0.35473
#
# Static dielectric constant tensor:
#      x y z
#    x 1.951520 0.000000 0.036140 
#    y 0.000000 2.074820 0.000000 
#    z 0.036140 0.000000 1.831240 
# 
# From -- ./inp_files/16438.got.cif
#   From: 2010.05.17/outbox.cif.g08.bks.cpg/sg14_9_cif.got.tgz:16438.got - 2010.06.03 17:49:19.
