data_PCOD9253616
_publ_section_title
;
Structure prediction by ZEFSAII (Michael W. Deem and Ramdas Pophale) SiO2 
 PCOD9253616
Probable space group: P 21/C
;
_chemical_formula_sum "Si O2"
_cell_formula_units_Z 28
_cell_length_a 6.000000
_cell_length_b 30.000000
_cell_length_c 9.000000
_cell_angle_alpha 90.000000
_cell_angle_beta 120.000000
_cell_angle_gamma 90.000000
_cell_volume 1402.961154
_symmetry_space_group_name_H-M "P 21/C"
_symmetry_group_IT_number 14
_symmetry_cell_setting 'monoclinic'
loop_
_space_group_symop_operation_xyz
x,y,z
-x,1/2+y,1/2-z
-x,-y,-z
x,1/2-y,1/2+z
loop_
_atom_site_type_symbol
_atom_site_label
_atom_site_fract_x
_atom_site_fract_y
_atom_site_fract_z
Si Si1 0.395735 0.718868 0.237959
Si Si2 0.815916 0.651658 0.276123
Si Si3 0.051544 0.861906 0.562451
Si Si4 0.486235 0.422358 0.659124
Si Si5 0.677135 0.598793 0.730047
Si Si6 0.358245 0.811571 0.064978
Si Si7 0.674223 0.507121 0.902826
O O1 0.635568 0.694057 0.243429
O O2 0.364143 0.770167 0.181278
O O3 0.428744 0.709332 0.425664
O O4 0.162152 0.688258 0.096289
O O5 0.821196 0.641404 0.103104
O O6 0.726073 0.606109 0.323025
O O7 0.082699 0.666771 0.437741
O O8 0.961669 0.884578 0.379642
O O9 0.261273 0.892179 0.719622
O O10 0.390525 0.420761 0.456455
O O11 0.553310 0.470518 0.749185
O O12 0.527848 0.646471 0.676554
O O13 0.624095 0.557490 0.825504
O O14 0.500000 0.500000 0.000000
O O15 0.000000 0.500000 0.000000
#
# Coordination Sequence:
#
# PCOD9253616 Si02
#       7
#     4   4   4   4   4   4   4
#     4  10  24  42  63  97 143 185 240 299 362 436
#     4  10  21  44  67  94 148 184 237 307 356 443
#     4  10  22  44  67 100 145 181 239 300 361 431
#     4  11  23  48  71 105 142 187 240 303 364 449
#     4  12  24  46  74 106 143 192 245 303 373 444
#     4  11  25  42  64 104 136 188 245 292 370 435
#     4  12  28  51  79 113 151 197 249 312 385 450
#
# _framework density 19.957787
#
# number of rings (size 3 to 8) (size 9 to 14) (size 15 to 20)
#    0.000    1.143    5.714    1.286    4.000    3.429 
#    2.571    2.143    0.000    0.000    0.000    0.000 
#    0.000    0.000    0.000    0.000    0.000    0.000 
#
# Total GULP energy -155921.593141 kJ/mol
# GULP energy per Si atom -5568.628326 kJ/mol
# Density = 1.991236 g / cm^3
# Si number density = 19.957787 Si / 1000 Ang^3
#
#
#
# Elastic Constant Matrix: (Units=GPa)
#
#
# Indices 1 2 3 4 5 6 
#
# 1 69.7728 24.4447 39.0193 0.0000 -6.7932 0.0000
# 2 24.4447 165.7170 48.5339 0.0000 -11.6948 0.0000
# 3 39.0193 48.5339 131.6921 0.0000 -1.9079 0.0000
# 4 0.0000 0.0000 0.0000 53.5886 0.0000 -9.3508
# 5 -6.7932 -11.6948 -1.9079 0.0000 15.4007 0.0000
# 6 0.0000 0.0000 0.0000 -9.3508 0.0000 16.8881
#
#
#
# Elastic Compliance Matrix: (Units=1/GPa)
#
#
# Indices 1 2 3 4 5 6 
#
# 1 0.018030 -0.000723 -0.004977 0.000000 0.006787 0.000000
# 2 -0.000723 0.007173 -0.002359 0.000000 0.004836 0.000000
# 3 -0.004977 -0.002359 0.009898 0.000000 -0.002761 0.000000
# 4 0.000000 0.000000 0.000000 0.020656 0.000000 0.011437
# 5 0.006787 0.004836 -0.002761 0.000000 0.071256 0.000000
# 6 0.000000 0.000000 0.000000 0.011437 0.000000 0.065546
#
#
# Mechanical properties :
#
#
# Convention : Reuss Voigt Hill
#
# Bulk Modulus (GPa) = 52.68246 65.68640 59.18443
# Shear Modulus (GPa) = 23.25518 34.18776 28.72147
#
# Velocity S-wave (km/s) = 3.41723 4.14333 3.79768
# Velocity P-wave (km/s) = 6.48261 7.47487 6.99636
#
# Compressibility (1/GPa) = 0.01898165
#
# Stress axis : x y z
#
# Youngs Moduli (GPa) = 55.46370 139.40587 101.03291
#
# Poissons Ratio (x) = 0.10077 0.50288
# Poissons Ratio (y) = 0.04009 0.23838
# Poissons Ratio (z) = 0.27606 0.32892
#
# Static dielectric constant tensor:
#      x y z
#    x 1.821670 0.000000 0.002190 
#    y 0.000000 1.689970 0.000000 
#    z 0.002190 0.000000 1.726370 
# 
# From -- ./inp_files/6856.got.cif
#   From: 2010.05.17/outbox.ucp.g08.bks.cvg/sg14_4_cif.got.tgz:6856.got - 2010.06.11 12:31:08.
