data_PCOD9253695
_publ_section_title
;
Structure prediction by ZEFSAII (Michael W. Deem and Ramdas Pophale) SiO2 
 PCOD9253695
Probable space group: P 21/C
;
_chemical_formula_sum "Si O2"
_cell_formula_units_Z 32
_cell_length_a 12.000000
_cell_length_b 12.000000
_cell_length_c 12.000000
_cell_angle_alpha 90.000000
_cell_angle_beta 70.000000
_cell_angle_gamma 90.000000
_cell_volume 1623.788849
_symmetry_space_group_name_H-M "P 21/C"
_symmetry_group_IT_number 14
_symmetry_cell_setting 'monoclinic'
loop_
_space_group_symop_operation_xyz
x,y,z
-x,1/2+y,1/2-z
-x,-y,-z
x,1/2-y,1/2+z
loop_
_atom_site_type_symbol
_atom_site_label
_atom_site_fract_x
_atom_site_fract_y
_atom_site_fract_z
Si Si1 0.844489 0.744122 0.462349
Si Si2 0.337024 0.406144 0.103027
Si Si3 0.224227 0.576520 0.761814
Si Si4 0.389988 0.895284 0.409350
Si Si5 0.974514 0.574263 0.276787
Si Si6 0.823339 0.973985 0.130618
Si Si7 0.231049 0.821974 0.018039
Si Si8 0.953635 0.152322 0.479355
O O1 0.733833 0.805044 0.437629
O O2 0.936754 0.694802 0.338777
O O3 0.824905 0.636145 0.550143
O O4 0.915324 0.832159 0.515353
O O5 0.469375 0.380752 0.108754
O O6 0.260291 0.445794 0.235494
O O7 0.348739 0.507787 0.009883
O O8 0.342904 0.566805 0.800371
O O9 0.150951 0.479758 0.720364
O O10 0.249228 0.653257 0.643985
O O11 0.129348 0.614530 0.889369
O O12 0.323575 0.776665 0.453628
O O13 0.052924 0.512968 0.347489
O O14 0.045949 0.581564 0.135271
O O15 0.771907 0.073057 0.067381
O O16 0.101075 0.769005 0.043074
#
# Coordination Sequence:
#
# PCOD9253695 Si02
#       8
#     4   4   4   4   4   4   4   4
#     4  12  23  42  65 102 141 176 224 278 344 415
#     4  11  26  49  69  98 131 183 229 294 341 396
#     4  11  22  40  64  99 132 182 225 274 338 400
#     4  10  26  47  71  95 130 178 240 286 341 403
#     4  12  22  40  66 103 147 176 222 279 338 422
#     4  12  24  44  69 103 140 176 223 281 353 413
#     4  11  23  42  68  99 134 176 229 278 342 413
#     4  11  22  35  64 100 137 183 219 270 340 409
#
# _framework density 19.706996
#
# number of rings (size 3 to 8) (size 9 to 14) (size 15 to 20)
#    0.000    0.750    2.500    6.000    5.250    1.000 
#    4.500    1.250    0.000    0.000    0.000    0.000 
#    0.000    0.000    0.000    0.000    0.000    0.000 
#
# Total GULP energy -178436.119291 kJ/mol
# GULP energy per Si atom -5576.128728 kJ/mol
# Density = 1.966214 g / cm^3
# Si number density = 19.706996 Si / 1000 Ang^3
#
#
#
# Elastic Constant Matrix: (Units=GPa)
#
#
# Indices 1 2 3 4 5 6 
#
# 1 168.4680 47.1829 43.8133 0.0000 29.9288 0.0000
# 2 47.1829 89.2006 36.8904 0.0000 11.0670 0.0000
# 3 43.8133 36.8904 124.5966 0.0000 33.3274 0.0000
# 4 0.0000 0.0000 0.0000 42.3721 0.0000 10.0179
# 5 29.9288 11.0670 33.3274 0.0000 43.0031 0.0000
# 6 0.0000 0.0000 0.0000 10.0179 0.0000 42.2169
#
#
#
# Elastic Compliance Matrix: (Units=1/GPa)
#
#
# Indices 1 2 3 4 5 6 
#
# 1 0.007756 -0.003328 -0.000665 0.000000 -0.004026 0.000000
# 2 -0.003328 0.014210 -0.003379 0.000000 0.001278 0.000000
# 3 -0.000665 -0.003379 0.011232 0.000000 -0.007372 0.000000
# 4 0.000000 0.000000 0.000000 0.025003 0.000000 -0.005933
# 5 -0.004026 0.001278 -0.007372 0.000000 0.031441 0.000000
# 6 0.000000 0.000000 0.000000 -0.005933 0.000000 0.025095
#
#
# Mechanical properties :
#
#
# Convention : Reuss Voigt Hill
#
# Bulk Modulus (GPa) = 54.18769 70.89317 62.54043
# Shear Modulus (GPa) = 36.86424 42.47700 39.67062
#
# Velocity S-wave (km/s) = 4.32975 4.64769 4.49154
# Velocity P-wave (km/s) = 7.24928 8.05314 7.66176
#
# Compressibility (1/GPa) = 0.01845438
#
# Stress axis : x y z
#
# Youngs Moduli (GPa) = 128.92986 70.37352 89.02999
#
# Poissons Ratio (x) = 0.23421 0.05921
# Poissons Ratio (y) = 0.42909 0.30081
# Poissons Ratio (z) = 0.08575 0.23777
#
# Static dielectric constant tensor:
#      x y z
#    x 1.717040 0.000000 -0.021260 
#    y 0.000000 1.756870 0.000000 
#    z -0.021260 0.000000 1.708200 
# 
# From -- ./inp_files/29365.got.cif
#   From: 2010.05.17/outbox.ucp.g08.bks.cvg/sg14_15_cif.got.tgz:29365.got - 2010.06.11 12:31:08.
