data_PCOD9253339
_publ_section_title
;
Structure prediction by ZEFSAII (Michael W. Deem and Ramdas Pophale) SiO2 
 PCOD9253339
Probable space group: P 21/C
;
_chemical_formula_sum "Si O2"
_cell_formula_units_Z 16
_cell_length_a 17.531693
_cell_length_b 7.856318
_cell_length_c 9.738583
_cell_angle_alpha 90.000000
_cell_angle_beta 150.411506
_cell_angle_gamma 90.000000
_cell_volume 662.309462
_symmetry_space_group_name_H-M "P 21/C"
_symmetry_group_IT_number 14
_symmetry_cell_setting 'monoclinic'
loop_
_space_group_symop_operation_xyz
x,y,z
-x,1/2+y,1/2-z
-x,-y,-z
x,1/2-y,1/2+z
loop_
_atom_site_type_symbol
_atom_site_label
_atom_site_fract_x
_atom_site_fract_y
_atom_site_fract_z
Si Si1 0.047298 0.181564 0.131402
Si Si2 0.597946 0.369593 0.564210
Si Si3 0.336714 0.391237 0.591884
Si Si4 0.865204 0.165938 0.113311
O O1 0.220178 0.239130 0.369341
O O2 0.005230 0.173185 0.225436
O O3 0.934607 0.309140 0.872845
O O4 0.000000 0.000000 0.000000
O O5 0.500000 0.500000 0.500000
O O6 0.632967 0.469267 0.478318
O O7 0.495012 0.200340 0.380230
O O8 0.749537 0.314604 0.884922
O O9 0.236112 0.493978 0.547346
#
# Coordination Sequence:
#
# PCOD9253339 Si02
#       4
#     4   4   4   4
#     4  12  28  46  81 110 151 195 252 317 378 445
#     4  12  28  47  78 109 155 201 248 308 381 450
#     4  12  28  50  76 113 152 199 257 311 374 456
#     4  12  26  51  75 113 149 198 253 309 379 446
#
# _framework density 24.157889000000001
#
# number of rings (size 3 to 8) (size 9 to 14) (size 15 to 20)
#    0.000    0.000    2.500    6.000   14.000    0.000 
#    0.000    0.000    0.000    0.000    0.000    0.000 
#    0.000    0.000    0.000    0.000    0.000    0.000 
#
# Total GULP energy -89646.382992 kJ/mol
# GULP energy per Si atom -5602.898937 kJ/mol
# Density = 2.410290 g / cm^3
# Si number density = 24.157889 Si / 1000 Ang^3
#
#
#
# Elastic Constant Matrix: (Units=GPa)
#
#
# Indices 1 2 3 4 5 6 
#
# 1 86.3261 5.2858 -0.9495 0.0000 -3.7766 0.0000
# 2 5.2858 82.9320 0.8228 0.0000 3.1478 0.0000
# 3 -0.9495 0.8228 63.5131 0.0000 10.0033 0.0000
# 4 0.0000 0.0000 0.0000 58.4957 0.0000 14.3168
# 5 -3.7766 3.1478 10.0033 0.0000 30.6659 0.0000
# 6 0.0000 0.0000 0.0000 14.3168 0.0000 48.5714
#
#
#
# Elastic Compliance Matrix: (Units=1/GPa)
#
#
# Indices 1 2 3 4 5 6 
#
# 1 0.011700 -0.000804 -0.000058 0.000000 0.001542 0.000000
# 2 -0.000804 0.012161 0.000045 0.000000 -0.001362 0.000000
# 3 -0.000058 0.000045 0.016598 0.000000 -0.005426 0.000000
# 4 0.000000 0.000000 0.000000 0.018424 0.000000 -0.005431
# 5 0.001542 -0.001362 -0.005426 0.000000 0.034709 0.000000
# 6 0.000000 0.000000 0.000000 -0.005431 0.000000 0.022189
#
#
# Mechanical properties :
#
#
# Convention : Reuss Voigt Hill
#
# Bulk Modulus (GPa) = 25.75601 27.00994 26.38298
# Shear Modulus (GPa) = 38.35656 42.72072 40.53864
#
# Velocity S-wave (km/s) = 3.98897 4.20979 4.10087
# Velocity P-wave (km/s) = 5.64806 5.90209 5.77647
#
# Compressibility (1/GPa) = 0.03882589
#
# Stress axis : x y z
#
# Youngs Moduli (GPa) = 85.46993 82.23316 60.24842
#
# Poissons Ratio (x) = 0.06609 0.00347
# Poissons Ratio (y) = 0.06869 -0.00271
# Poissons Ratio (z) = 0.00492 -0.00370
#
# Static dielectric constant tensor:
#      x y z
#    x 2.019730 0.000000 -0.000310 
#    y 0.000000 1.656750 0.000000 
#    z -0.000310 0.000000 1.949680 
# 
# From -- ./inp_files/17421.got.cif
#   From: 2010.05.17/outbox.cif.g08.bks.cpg/sg14_9_cif.got.tgz:17421.got - 2010.06.03 17:49:19.
