data_PCOD9253317
_publ_section_title
;
Structure prediction by ZEFSAII (Michael W. Deem and Ramdas Pophale) SiO2 
 PCOD9253317
Probable space group: P 21/C
;
_chemical_formula_sum "Si O2"
_cell_formula_units_Z 16
_cell_length_a 9.687779
_cell_length_b 9.343872
_cell_length_c 10.236382
_cell_angle_alpha 90.000000
_cell_angle_beta 40.648896
_cell_angle_gamma 90.000000
_cell_volume 603.614924
_symmetry_space_group_name_H-M "P 21/C"
_symmetry_group_IT_number 14
_symmetry_cell_setting 'monoclinic'
loop_
_space_group_symop_operation_xyz
x,y,z
-x,1/2+y,1/2-z
-x,-y,-z
x,1/2-y,1/2+z
loop_
_atom_site_type_symbol
_atom_site_label
_atom_site_fract_x
_atom_site_fract_y
_atom_site_fract_z
Si Si1 0.612761 0.617243 0.321284
Si Si2 0.077741 0.802901 0.580501
Si Si3 0.502460 0.118956 0.735410
Si Si4 0.053643 0.481636 0.611972
O O1 0.500000 0.500000 0.500000
O O2 0.526795 0.779831 0.370518
O O3 0.561522 0.548368 0.215143
O O4 0.863053 0.639514 0.168478
O O5 0.289972 0.814133 0.342686
O O6 0.071563 0.644590 0.642217
O O7 0.114213 0.906579 0.676757
O O8 0.264725 0.115990 0.965016
O O9 0.000000 0.500000 0.500000
#
# Coordination Sequence:
#
# PCOD9253317 Si02
#       4
#     4   4   4   4
#     4  12  26  51  78 115 157 201 261 312 387 463
#     4  12  27  48  79 113 159 200 257 322 381 461
#     4  12  26  49  77 114 155 203 258 314 388 452
#     4  12  28  50  77 116 151 207 257 312 393 456
#
# _framework density 26.506964
#
# number of rings (size 3 to 8) (size 9 to 14) (size 15 to 20)
#    0.000    0.000    7.500    0.750    3.500    5.000 
#    0.000    0.000    0.000    0.000    0.000    0.000 
#    0.000    0.000    0.000    0.000    0.000    0.000 
#
# Total GULP energy -89111.800868 kJ/mol
# GULP energy per Si atom -5569.487554 kJ/mol
# Density = 2.644663 g / cm^3
# Si number density = 26.506964 Si / 1000 Ang^3
#
#
#
# Elastic Constant Matrix: (Units=GPa)
#
#
# Indices 1 2 3 4 5 6 
#
# 1 108.1690 21.2867 58.1842 0.0000 -24.7927 0.0000
# 2 21.2867 160.7881 69.2329 0.0000 -1.2699 0.0000
# 3 58.1842 69.2329 110.6550 0.0000 -24.4873 0.0000
# 4 0.0000 0.0000 0.0000 57.0727 0.0000 2.4584
# 5 -24.7927 -1.2699 -24.4873 0.0000 50.5710 0.0000
# 6 0.0000 0.0000 0.0000 2.4584 0.0000 54.1376
#
#
#
# Elastic Compliance Matrix: (Units=1/GPa)
#
#
# Indices 1 2 3 4 5 6 
#
# 1 0.013647 0.001377 -0.007335 0.000000 0.003173 0.000000
# 2 0.001377 0.008981 -0.006881 0.000000 -0.002431 0.000000
# 3 -0.007335 -0.006881 0.018329 0.000000 0.005106 0.000000
# 4 0.000000 0.000000 0.000000 0.017556 0.000000 -0.000797
# 5 0.003173 -0.002431 0.005106 0.000000 0.023742 0.000000
# 6 0.000000 0.000000 0.000000 -0.000797 0.000000 0.018508
#
#
# Mechanical properties :
#
#
# Convention : Reuss Voigt Hill
#
# Bulk Modulus (GPa) = 65.45168 75.22442 70.33805
# Shear Modulus (GPa) = 38.01372 47.75014 42.88193
#
# Velocity S-wave (km/s) = 3.79106 4.24892 4.02650
# Velocity P-wave (km/s) = 6.62637 7.24650 6.94336
#
# Compressibility (1/GPa) = 0.01527845
#
# Stress axis : x y z
#
# Youngs Moduli (GPa) = 73.27869 111.35034 54.55883
#
# Poissons Ratio (x) = -0.15328 0.40017
# Poissons Ratio (y) = -0.10087 0.37541
# Poissons Ratio (z) = 0.53747 0.76617
#
# Static dielectric constant tensor:
#      x y z
#    x 2.190200 0.000000 0.047040 
#    y 0.000000 0.101610 0.000000 
#    z 0.047040 0.000000 2.106270 
# 
# From -- ./inp_files/22703.got.cif
#   From: 2010.05.17/outbox.cif.g08.bks.cpg/sg14_12_cif.got.tgz:22703.got - 2010.06.03 17:49:19.
