data_PCOD9253504
_publ_section_title
;
Structure prediction by ZEFSAII (Michael W. Deem and Ramdas Pophale) SiO2 
 PCOD9253504
Probable space group: P 21/C
;
_chemical_formula_sum "Si O2"
_cell_formula_units_Z 32
_cell_length_a 12.000000
_cell_length_b 9.000000
_cell_length_c 21.000000
_cell_angle_alpha 90.000000
_cell_angle_beta 50.000000
_cell_angle_gamma 90.000000
_cell_volume 1737.388797
_symmetry_space_group_name_H-M "P 21/C"
_symmetry_group_IT_number 14
_symmetry_cell_setting 'monoclinic'
loop_
_space_group_symop_operation_xyz
x,y,z
-x,1/2+y,1/2-z
-x,-y,-z
x,1/2-y,1/2+z
loop_
_atom_site_type_symbol
_atom_site_label
_atom_site_fract_x
_atom_site_fract_y
_atom_site_fract_z
Si Si1 0.189963 0.698143 0.472026
Si Si2 0.446219 0.665086 0.186484
Si Si3 0.258723 0.048489 0.446595
Si Si4 0.121552 0.881526 0.749599
Si Si5 0.224640 0.080401 0.310091
Si Si6 0.994941 0.299581 0.330032
Si Si7 0.541655 0.009547 0.180581
Si Si8 0.030827 0.792950 0.401693
O O1 0.108408 0.666334 0.569562
O O2 0.320476 0.580521 0.408100
O O3 0.084161 0.711783 0.447815
O O4 0.247581 0.869500 0.454603
O O5 0.579585 0.601177 0.095499
O O6 0.290953 0.649520 0.207525
O O7 0.432574 0.562075 0.255382
O O8 0.501411 0.833142 0.186406
O O9 0.240261 0.104283 0.380200
O O10 0.121745 0.122744 0.531906
O O11 0.084160 0.796302 0.697080
O O12 0.028624 0.814482 0.842523
O O13 0.070213 0.054449 0.770658
O O14 0.385375 0.082783 0.221210
O O15 0.120429 0.196489 0.314474
O O16 0.149558 0.918102 0.338278
#
# Coordination Sequence:
#
# PCOD9253504 Si02
#       8
#     4   4   4   4   4   4   4   4
#     4  11  22  41  69 105 133 174 226 283 337 395
#     4  11  24  41  66 104 140 175 219 281 342 406
#     4  10  21  36  69 102 137 169 218 283 341 387
#     4  12  28  45  67  96 137 181 231 270 341 411
#     4  10  19  39  67  95 132 180 214 271 337 391
#     4  12  27  45  68  94 136 182 230 275 335 402
#     4  11  22  38  67 101 139 170 222 281 340 390
#     4  11  19  42  68 100 134 170 229 281 325 404
#
# _framework density 18.418444999999998
#
# number of rings (size 3 to 8) (size 9 to 14) (size 15 to 20)
#    0.000    1.000    5.000    3.000    7.000    0.500 
#    0.000    2.500    0.000    0.000    0.000    0.000 
#    0.000    0.000    0.000    0.000    0.000    0.000 
#
# Total GULP energy -178495.101679 kJ/mol
# GULP energy per Si atom -5577.971927 kJ/mol
# Density = 1.837652 g / cm^3
# Si number density = 18.418445 Si / 1000 Ang^3
#
#
#
# Elastic Constant Matrix: (Units=GPa)
#
#
# Indices 1 2 3 4 5 6 
#
# 1 94.7084 43.2113 38.6273 0.0000 -8.8699 0.0000
# 2 43.2113 88.1697 24.9812 0.0000 -0.8699 0.0000
# 3 38.6273 24.9812 94.1340 0.0000 -8.1229 0.0000
# 4 0.0000 0.0000 0.0000 37.5329 0.0000 -2.0528
# 5 -8.8699 -0.8699 -8.1229 0.0000 33.4376 0.0000
# 6 0.0000 0.0000 0.0000 -2.0528 0.0000 32.2982
#
#
#
# Elastic Compliance Matrix: (Units=1/GPa)
#
#
# Indices 1 2 3 4 5 6 
#
# 1 0.015525 -0.006321 -0.004445 0.000000 0.002874 0.000000
# 2 -0.006321 0.014845 -0.001488 0.000000 -0.001652 0.000000
# 3 -0.004445 -0.001488 0.013010 0.000000 0.001943 0.000000
# 4 0.000000 0.000000 0.000000 0.026736 0.000000 0.001699
# 5 0.002874 -0.001652 0.001943 0.000000 0.031098 0.000000
# 6 0.000000 0.000000 0.000000 0.001699 0.000000 0.031069
#
#
# Mechanical properties :
#
#
# Convention : Reuss Voigt Hill
#
# Bulk Modulus (GPa) = 52.99153 54.51685 53.75419
# Shear Modulus (GPa) = 30.65950 31.99991 31.32970
#
# Velocity S-wave (km/s) = 4.08439 4.17272 4.12879
# Velocity P-wave (km/s) = 7.14677 7.27177 7.20954
#
# Compressibility (1/GPa) = 0.01887094
#
# Stress axis : x y z
#
# Youngs Moduli (GPa) = 64.41351 67.36315 76.86529
#
# Poissons Ratio (x) = 0.42579 0.34167
# Poissons Ratio (y) = 0.40714 0.11441
# Poissons Ratio (z) = 0.28632 0.10026
#
# Static dielectric constant tensor:
#      x y z
#    x 1.642340 0.000000 -0.021510 
#    y 0.000000 1.679560 0.000000 
#    z -0.021510 0.000000 1.650920 
# 
# From -- ./inp_files/67036.got.cif
#   From: 2010.05.17/outbox.ucp.g08.bks.cvg/sg14_34_cif.got.tgz:67036.got - 2010.06.11 12:31:08.
