data_PCOD9253566
_publ_section_title
;
Structure prediction by ZEFSAII (Michael W. Deem and Ramdas Pophale) SiO2 
 PCOD9253566
Probable space group: P 21/C
;
_chemical_formula_sum "Si O2"
_cell_formula_units_Z 28
_cell_length_a 30.000000
_cell_length_b 9.000000
_cell_length_c 30.000000
_cell_angle_alpha 90.000000
_cell_angle_beta 10.000000
_cell_angle_gamma 90.000000
_cell_volume 1406.550239
_symmetry_space_group_name_H-M "P 21/C"
_symmetry_group_IT_number 14
_symmetry_cell_setting 'monoclinic'
loop_
_space_group_symop_operation_xyz
x,y,z
-x,1/2+y,1/2-z
-x,-y,-z
x,1/2-y,1/2+z
loop_
_atom_site_type_symbol
_atom_site_label
_atom_site_fract_x
_atom_site_fract_y
_atom_site_fract_z
Si Si1 0.211876 0.361948 0.747894
Si Si2 0.297043 0.438368 0.760946
Si Si3 0.150437 0.316795 0.220768
Si Si4 0.605996 0.218361 0.207215
Si Si5 0.882471 0.380274 0.790195
Si Si6 0.354952 0.989541 0.392625
Si Si7 0.369396 0.309278 0.790127
O O1 0.259645 0.330868 0.753871
O O2 0.452821 0.462254 0.495401
O O3 0.177183 0.231412 0.745670
O O4 0.954800 0.458911 0.994396
O O5 0.327782 0.375472 0.781065
O O6 0.182684 0.491879 0.181095
O O7 0.879010 0.276332 0.463833
O O8 0.383883 0.249057 0.961986
O O9 0.547902 0.065740 0.237869
O O10 0.571130 0.334215 0.201631
O O11 0.151988 0.313757 0.510802
O O12 0.880550 0.453410 0.841740
O O13 0.656165 0.257521 0.011634
O O14 0.319507 0.085235 0.382429
#
# Coordination Sequence:
#
# PCOD9253566 Si02
#       7
#     4   4   4   4   4   4   4
#     4  10  20  41  66  96 124 157 211 263 311 379
#     4  10  22  39  67  97 123 159 208 264 317 369
#     4  11  23  41  62  89 125 164 207 252 317 369
#     4  11  25  38  64  88 124 161 216 247 318 366
#     4  11  26  39  59  89 126 166 208 258 301 392
#     4  11  24  42  60  88 122 168 206 262 305 369
#     4  12  24  42  62  89 129 163 209 258 322 362
#
# _framework density 19.906860999999999
#
# number of rings (size 3 to 8) (size 9 to 14) (size 15 to 20)
#    0.000    1.143    1.429    5.143    4.000    3.429 
#    0.000    1.429    0.000    0.000    0.000    0.000 
#    0.000    0.000    0.000    0.000    0.000    0.000 
#
# Total GULP energy -156204.799099 kJ/mol
# GULP energy per Si atom -5578.742825 kJ/mol
# Density = 1.986155 g / cm^3
# Si number density = 19.906861 Si / 1000 Ang^3
#
#
#
# Elastic Constant Matrix: (Units=GPa)
#
#
# Indices 1 2 3 4 5 6 
#
# 1 179.1766 34.8904 24.4778 0.0000 9.6894 0.0000
# 2 34.8904 45.3632 2.4319 0.0000 7.7848 0.0000
# 3 24.4778 2.4319 96.1735 0.0000 0.1261 0.0000
# 4 0.0000 0.0000 0.0000 21.5476 0.0000 8.7944
# 5 9.6894 7.7848 0.1261 0.0000 31.5535 0.0000
# 6 0.0000 0.0000 0.0000 8.7944 0.0000 39.6991
#
#
#
# Elastic Compliance Matrix: (Units=1/GPa)
#
#
# Indices 1 2 3 4 5 6 
#
# 1 0.006824 -0.005016 -0.001609 0.000000 -0.000851 0.000000
# 2 -0.005016 0.026738 0.000607 0.000000 -0.005059 0.000000
# 3 -0.001609 0.000607 0.010792 0.000000 0.000301 0.000000
# 4 0.000000 0.000000 0.000000 0.051022 0.000000 -0.011303
# 5 -0.000851 -0.005059 0.000301 0.000000 0.033201 0.000000
# 6 0.000000 0.000000 0.000000 -0.011303 0.000000 0.027693
#
#
# Mechanical properties :
#
#
# Convention : Reuss Voigt Hill
#
# Bulk Modulus (GPa) = 30.94259 49.36818 40.15539
# Shear Modulus (GPa) = 27.92102 35.82093 31.87098
#
# Velocity S-wave (km/s) = 3.74917 4.24657 4.00560
# Velocity P-wave (km/s) = 5.85825 6.99270 6.45046
#
# Compressibility (1/GPa) = 0.03231791
#
# Stress axis : x y z
#
# Youngs Moduli (GPa) = 146.54929 37.40026 92.66476
#
# Poissons Ratio (x) = 0.18760 0.14908
# Poissons Ratio (y) = 0.73508 -0.05626
# Poissons Ratio (z) = 0.23577 -0.02271
#
# Static dielectric constant tensor:
#      x y z
#    x 1.697120 0.000000 0.006060 
#    y 0.000000 1.827750 0.000000 
#    z 0.006060 0.000000 1.747850 
# 
# From -- ./inp_files/80872.got.cif
#   From: 2010.05.17/outbox.ucp.g08.bks.cvg/sg14_41_cif.got.tgz:80872.got - 2010.06.11 12:31:08.
