data_PCOD9253976
_publ_section_title
;
Structure prediction by ZEFSAII (Michael W. Deem and Ramdas Pophale) SiO2 
 PCOD9253976
Probable space group: C 2/C
;
_chemical_formula_sum "Si O2"
_cell_formula_units_Z 36
_cell_length_a 6.893008
_cell_length_b 23.840964
_cell_length_c 11.301451
_cell_angle_alpha 90.000000
_cell_angle_beta 114.775641
_cell_angle_gamma 90.000000
_cell_volume 1686.286922
_symmetry_space_group_name_H-M "C 2/C"
_symmetry_group_IT_number 15
_symmetry_cell_setting 'monoclinic'
loop_
_space_group_symop_operation_xyz
x,y,z
-x,y,1/2-z
-x,-y,-z
x,-y,1/2+z
1/2+x,1/2+y,z
1/2-x,1/2+y,1/2-z
1/2-x,1/2-y,-z
1/2+x,1/2-y,1/2+z
loop_
_atom_site_type_symbol
_atom_site_label
_atom_site_fract_x
_atom_site_fract_y
_atom_site_fract_z
Si Si1 0.572884 0.724190 0.045637
Si Si2 0.782576 0.799663 0.275402
Si Si3 0.500000 0.993902 0.750000
Si Si4 0.692721 0.886922 0.884786
Si Si5 0.752775 0.583583 0.827509
O O1 0.608896 0.762465 0.166762
O O2 0.625408 0.659194 0.086896
O O3 0.750000 0.750000 0.000000
O O4 0.355793 0.724089 0.918509
O O5 0.721884 0.864590 0.256309
O O6 0.000000 0.798342 0.250000
O O7 0.403581 0.032784 0.827347
O O8 0.688415 0.951548 0.840659
O O9 0.500000 0.863981 0.750000
O O10 0.683064 0.893281 0.025443
O O11 0.500000 0.568000 0.750000
#
# Coordination Sequence:
#
# PCOD9253976 Si02
#       5
#     8   8   4   8   8
#     4  10  15  29  51  89 110 140 198 240 287 344
#     4   9  17  27  54  84 109 145 187 243 285 342
#     4  10  26  36  60  86 120 162 194 238 290 350
#     4  10  20  34  55  87 115 150 198 240 289 342
#     4  11  20  41  59  86 117 157 201 236 293 346
#
# _framework density 21.348682
#
# number of rings (size 3 to 8) (size 9 to 14) (size 15 to 20)
#    0.667    1.333    6.667    2.667    0.000    0.889 
#    0.000    0.000    0.000    1.333    2.889    0.000 
#    0.000    0.000    0.000    0.000    0.000    0.000 
#
# Total GULP energy -100201.241120 kJ/mol
# GULP energy per Si atom -5566.735618 kJ/mol
# Density = 2.130009 g / cm^3
# Si number density = 21.348682 Si / 1000 Ang^3
#
#
#
# Elastic Constant Matrix: (Units=GPa)
#
#
# Indices 1 2 3 4 5 6 
#
# 1 67.8113 15.8509 17.6502 0.0000 11.7560 0.0000
# 2 15.8509 116.1452 16.4341 0.0000 12.3739 0.0000
# 3 17.6502 16.4341 128.5803 0.0000 29.1454 0.0000
# 4 0.0000 0.0000 0.0000 32.7875 0.0000 -4.4513
# 5 11.7560 12.3739 29.1454 0.0000 21.2046 0.0000
# 6 0.0000 0.0000 0.0000 -4.4513 0.0000 -35.2953
#
#
#
# Elastic Compliance Matrix: (Units=1/GPa)
#
#
# Indices 1 2 3 4 5 6 
#
# 1 0.016522 -0.001365 -0.000287 0.000000 -0.007968 0.000000
# 2 -0.001365 0.009294 0.000083 0.000000 -0.004781 0.000000
# 3 -0.000287 0.000083 0.011302 0.000000 -0.015424 0.000000
# 4 0.000000 0.000000 0.000000 0.029986 0.000000 -0.003782
# 5 -0.007968 -0.004781 -0.015424 0.000000 0.075567 0.000000
# 6 0.000000 0.000000 0.000000 -0.003782 0.000000 -0.027855
#
#
# Mechanical properties :
#
#
# Convention : Reuss Voigt Hill
#
# Bulk Modulus (GPa) = 29.42943 45.82303 37.62623
# Shear Modulus (GPa) = 38.67535 21.24612 29.96074
#
# Velocity S-wave (km/s) = 4.26091 3.15810 3.75026
# Velocity P-wave (km/s) = 6.16622 5.89990 6.03453
#
# Compressibility (1/GPa) = 0.03397959
#
# Stress axis : x y z
#
# Youngs Moduli (GPa) = 60.52476 107.59857 88.47822
#
# Poissons Ratio (x) = 0.14690 0.02542
# Poissons Ratio (y) = 0.08263 -0.00736
# Poissons Ratio (z) = 0.01739 -0.00896
#
# Static dielectric constant tensor:
#      x y z
#    x 1.829830 0.000000 0.013270 
#    y 0.000000 1.756050 0.000000 
#    z 0.013270 0.000000 1.798390 
# 
# From -- ./inp_files/79597.got.cif
#   From: 2010.05.17/outbox.cif.g08.bks.cpg/sg15_40_cif.got.tgz:79597.got - 2010.06.03 18:47:42.
