data_PCOD9253116
_publ_section_title
;
Structure prediction by ZEFSAII (Michael W. Deem and Ramdas Pophale) SiO2 
 PCOD9253116
Probable space group: P 21/C
;
_chemical_formula_sum "Si O2"
_cell_formula_units_Z 16
_cell_length_a 9.336659
_cell_length_b 14.727511
_cell_length_c 9.640490
_cell_angle_alpha 90.000000
_cell_angle_beta 29.010222
_cell_angle_gamma 90.000000
_cell_volume 642.881520
_symmetry_space_group_name_H-M "P 21/C"
_symmetry_group_IT_number 14
_symmetry_cell_setting 'monoclinic'
loop_
_space_group_symop_operation_xyz
x,y,z
-x,1/2+y,1/2-z
-x,-y,-z
x,1/2-y,1/2+z
loop_
_atom_site_type_symbol
_atom_site_label
_atom_site_fract_x
_atom_site_fract_y
_atom_site_fract_z
Si Si1 0.501557 0.294654 0.496963
Si Si2 0.680216 0.356001 0.634027
Si Si3 0.236548 0.022138 0.618108
Si Si4 0.935268 0.091897 0.469572
O O1 0.668141 0.298600 0.503078
O O2 0.161651 0.324294 0.801700
O O3 0.577995 0.203037 0.351487
O O4 0.629099 0.372932 0.289999
O O5 0.415990 0.428229 0.843274
O O6 0.985306 0.410775 0.389113
O O7 0.500000 0.000000 0.500000
O O8 0.085276 0.936102 0.674012
O O9 0.000000 0.000000 0.500000
#
# Coordination Sequence:
#
# PCOD9253116 Si02
#       4
#     4   4   4   4
#     4  12  26  46  77 107 147 196 246 303 380 436
#     4  12  26  49  72 109 151 191 246 306 371 449
#     4  12  27  48  75 109 148 192 253 307 364 438
#     4  12  23  48  78 102 142 198 248 301 361 444
#
# _framework density 24.887943
#
# number of rings (size 3 to 8) (size 9 to 14) (size 15 to 20)
#    0.000    0.000    5.000    4.500    3.500    0.000 
#    0.000    0.000    0.000    0.000    0.000    0.000 
#    0.000    0.000    0.000    0.000    0.000    0.000 
#
# Total GULP energy -89570.504349 kJ/mol
# GULP energy per Si atom -5598.156522 kJ/mol
# Density = 2.483130 g / cm^3
# Si number density = 24.887943 Si / 1000 Ang^3
#
#
#
# Elastic Constant Matrix: (Units=GPa)
#
#
# Indices 1 2 3 4 5 6 
#
# 1 156.4907 45.5126 27.7704 0.0000 -0.7320 0.0000
# 2 45.5126 71.4841 19.9316 0.0000 -3.4396 0.0000
# 3 27.7704 19.9316 110.0411 0.0000 -15.5685 0.0000
# 4 0.0000 0.0000 0.0000 64.3567 0.0000 6.4064
# 5 -0.7320 -3.4396 -15.5685 0.0000 37.6704 0.0000
# 6 0.0000 0.0000 0.0000 6.4064 0.0000 29.8883
#
#
#
# Elastic Compliance Matrix: (Units=1/GPa)
#
#
# Indices 1 2 3 4 5 6 
#
# 1 0.008001 -0.004780 -0.001267 0.000000 -0.000805 0.000000
# 2 -0.004780 0.017591 -0.001876 0.000000 0.000738 0.000000
# 3 -0.001267 -0.001876 0.010323 0.000000 0.004070 0.000000
# 4 0.000000 0.000000 0.000000 0.015877 0.000000 -0.003403
# 5 -0.000805 0.000738 0.004070 0.000000 0.028280 0.000000
# 6 0.000000 0.000000 0.000000 -0.003403 0.000000 0.034187
#
#
# Mechanical properties :
#
#
# Convention : Reuss Voigt Hill
#
# Bulk Modulus (GPa) = 49.82590 58.27169 54.04880
# Shear Modulus (GPa) = 36.55110 42.70316 39.62713
#
# Velocity S-wave (km/s) = 3.83642 4.14674 3.99459
# Velocity P-wave (km/s) = 6.29982 6.81114 6.56047
#
# Compressibility (1/GPa) = 0.02006988
#
# Stress axis : x y z
#
# Youngs Moduli (GPa) = 124.97836 56.84811 96.87165
#
# Poissons Ratio (x) = 0.27172 0.12277
# Poissons Ratio (y) = 0.59736 0.18169
# Poissons Ratio (z) = 0.15839 0.10662
#
# Static dielectric constant tensor:
#      x y z
#    x 1.969140 0.000000 0.013770 
#    y 0.000000 1.973270 0.000000 
#    z 0.013770 0.000000 1.900190 
# 
# From -- ./inp_files/8945.got.cif
#   From: 2010.05.17/outbox.cif.g08.bks.cpg/sg14_5_cif.got.tgz:8945.got - 2010.06.03 17:49:19.
