data_PCOD9253057
_publ_section_title
;
Structure prediction by ZEFSAII (Michael W. Deem and Ramdas Pophale) SiO2 
 PCOD9253057
Probable space group: P 21/C
;
_chemical_formula_sum "Si O2"
_cell_formula_units_Z 16
_cell_length_a 9.949334
_cell_length_b 6.658531
_cell_length_c 19.770743
_cell_angle_alpha 90.000000
_cell_angle_beta 28.112445
_cell_angle_gamma 90.000000
_cell_volume 617.168726
_symmetry_space_group_name_H-M "P 21/C"
_symmetry_group_IT_number 14
_symmetry_cell_setting 'monoclinic'
loop_
_space_group_symop_operation_xyz
x,y,z
-x,1/2+y,1/2-z
-x,-y,-z
x,1/2-y,1/2+z
loop_
_atom_site_type_symbol
_atom_site_label
_atom_site_fract_x
_atom_site_fract_y
_atom_site_fract_z
Si Si1 0.496952 0.234201 0.162521
Si Si2 0.838061 0.386743 0.130715
Si Si3 0.214317 0.416302 0.550580
Si Si4 0.333179 0.588551 0.137323
O O1 0.591327 0.275121 0.197970
O O2 0.408414 0.440849 0.166640
O O3 0.263704 0.060195 0.273938
O O4 0.733523 0.128202 0.009331
O O5 0.036210 0.226778 0.079306
O O6 0.000000 0.500000 0.000000
O O7 0.516038 0.304886 0.425473
O O8 0.010913 0.413923 0.707145
O O9 0.500000 0.500000 0.000000
#
# Coordination Sequence:
#
# PCOD9253057 Si02
#       4
#     4   4   4   4
#     4  12  25  46  73 109 148 188 243 299 365 431
#     4  12  22  43  74 106 145 188 234 297 367 428
#     4  12  26  50  72 110 146 190 245 297 368 430
#     4  12  30  48  76 106 144 199 245 298 356 431
#
# _framework density 25.924838000000001
#
# number of rings (size 3 to 8) (size 9 to 14) (size 15 to 20)
#    0.000    0.000    5.000    5.250    3.500    1.000 
#    0.000    0.000    0.000    0.000    0.000    0.000 
#    0.000    0.000    0.000    0.000    0.000    0.000 
#
# Total GULP energy -89622.816855 kJ/mol
# GULP energy per Si atom -5601.426053 kJ/mol
# Density = 2.586583 g / cm^3
# Si number density = 25.924838 Si / 1000 Ang^3
#
#
#
# Elastic Constant Matrix: (Units=GPa)
#
#
# Indices 1 2 3 4 5 6 
#
# 1 45.9047 16.2594 9.9893 0.0000 0.7334 0.0000
# 2 16.2594 92.7898 55.8811 0.0000 -13.2921 0.0000
# 3 9.9893 55.8811 191.1367 0.0000 9.2826 0.0000
# 4 0.0000 0.0000 0.0000 69.0843 0.0000 3.8200
# 5 0.7334 -13.2921 9.2826 0.0000 35.6887 0.0000
# 6 0.0000 0.0000 0.0000 3.8200 0.0000 45.2925
#
#
#
# Elastic Compliance Matrix: (Units=1/GPa)
#
#
# Indices 1 2 3 4 5 6 
#
# 1 0.023383 -0.004547 0.000215 0.000000 -0.002230 0.000000
# 2 -0.004547 0.015339 -0.004587 0.000000 0.006999 0.000000
# 3 0.000215 -0.004587 0.006730 0.000000 -0.003463 0.000000
# 4 0.000000 0.000000 0.000000 0.014543 0.000000 -0.001227
# 5 -0.002230 0.006999 -0.003463 0.000000 0.031574 0.000000
# 6 0.000000 0.000000 0.000000 -0.001227 0.000000 0.022182
#
#
# Mechanical properties :
#
#
# Convention : Reuss Voigt Hill
#
# Bulk Modulus (GPa) = 36.21082 54.89898 45.55490
# Shear Modulus (GPa) = 35.51349 46.52654 41.02001
#
# Velocity S-wave (km/s) = 3.70518 4.24095 3.98209
# Velocity P-wave (km/s) = 5.68352 6.72332 6.22517
#
# Compressibility (1/GPa) = 0.02761606
#
# Stress axis : x y z
#
# Youngs Moduli (GPa) = 42.76530 65.19470 148.59343
#
# Poissons Ratio (x) = 0.29642 -0.03202
# Poissons Ratio (y) = 0.19444 0.68156
# Poissons Ratio (z) = -0.00922 0.29903
#
# Static dielectric constant tensor:
#      x y z
#    x 2.224980 0.000000 -0.048330 
#    y 0.000000 2.053870 0.000000 
#    z -0.048330 0.000000 2.104820 
# 
# From -- ./inp_files/11721.got.cif
#   From: 2010.05.17/outbox.cif.g08.bks.cpg/sg14_6_cif.got.tgz:11721.got - 2010.06.03 17:49:19.
