data_PCOD9253204
_publ_section_title
;
Structure prediction by ZEFSAII (Michael W. Deem and Ramdas Pophale) SiO2 
 PCOD9253204
Probable space group: P 21/C
;
_chemical_formula_sum "Si O2"
_cell_formula_units_Z 20
_cell_length_a 7.656588
_cell_length_b 4.815714
_cell_length_c 22.113325
_cell_angle_alpha 90.000000
_cell_angle_beta 110.582728
_cell_angle_gamma 90.000000
_cell_volume 763.313024
_symmetry_space_group_name_H-M "P 21/C"
_symmetry_group_IT_number 14
_symmetry_cell_setting 'monoclinic'
loop_
_space_group_symop_operation_xyz
x,y,z
-x,1/2+y,1/2-z
-x,-y,-z
x,1/2-y,1/2+z
loop_
_atom_site_type_symbol
_atom_site_label
_atom_site_fract_x
_atom_site_fract_y
_atom_site_fract_z
Si Si1 0.972733 0.527533 0.286114
Si Si2 0.856615 0.247294 0.482310
Si Si3 0.430775 0.774656 0.248722
Si Si4 0.499616 0.772773 0.135416
Si Si5 0.700256 0.261068 0.094247
O O1 0.784352 0.363978 0.278828
O O2 0.103284 0.648957 0.353533
O O3 0.918366 0.799241 0.240521
O O4 0.521182 0.036323 0.300099
O O5 0.731476 0.220046 0.527220
O O6 0.000000 0.500000 0.500000
O O7 0.000000 0.000000 0.500000
O O8 0.477561 0.494547 0.297542
O O9 0.448634 0.535026 0.403870
O O10 0.639768 0.545133 0.119734
O O11 0.280963 0.738797 0.091114
#
# Coordination Sequence:
#
# PCOD9253204 Si02
#       5
#     4   4   4   4   4
#     4  12  25  43  67  98 134 174 219 270 326 389
#     4  12  26  46  70 100 132 172 220 274 330 390
#     4  12  25  43  67  98 134 174 219 270 326 389
#     4  12  25  45  69  98 133 175 220 271 328 391
#     4  12  25  45  69  98 133 175 220 271 328 391
#
# _framework density 26.201573
#
# number of rings (size 3 to 8) (size 9 to 14) (size 15 to 20)
#    0.000    0.000    0.000   12.000    0.000    3.200 
#    0.000    0.000    0.000    0.000    0.000    0.000 
#    0.000    0.000    0.000    0.000    0.000    0.000 
#
# Total GULP energy -111836.667405 kJ/mol
# GULP energy per Si atom -5591.833370 kJ/mol
# Density = 2.614194 g / cm^3
# Si number density = 26.201573 Si / 1000 Ang^3
#
#
#
# Elastic Constant Matrix: (Units=GPa)
#
#
# Indices 1 2 3 4 5 6 
#
# 1 141.4695 41.7197 71.2476 0.0000 6.0804 0.0000
# 2 41.7197 251.6626 44.2405 0.0000 9.7125 0.0000
# 3 71.2476 44.2405 207.2514 0.0000 -9.1448 0.0000
# 4 0.0000 0.0000 0.0000 30.9186 0.0000 -0.9143
# 5 6.0804 9.7125 -9.1448 0.0000 80.0150 0.0000
# 6 0.0000 0.0000 0.0000 -0.9143 0.0000 70.7576
#
#
#
# Elastic Compliance Matrix: (Units=1/GPa)
#
#
# Indices 1 2 3 4 5 6 
#
# 1 0.008828 -0.000923 -0.002877 0.000000 -0.000888 0.000000
# 2 -0.000923 0.004254 -0.000613 0.000000 -0.000516 0.000000
# 3 -0.002877 -0.000613 0.005988 0.000000 0.000977 0.000000
# 4 0.000000 0.000000 0.000000 0.032355 0.000000 0.000418
# 5 -0.000888 -0.000516 0.000977 0.000000 0.012739 0.000000
# 6 0.000000 0.000000 0.000000 0.000418 0.000000 0.014138
#
#
# Mechanical properties :
#
#
# Convention : Reuss Voigt Hill
#
# Bulk Modulus (GPa) = 97.62847 101.64433 99.63640
# Shear Modulus (GPa) = 55.22079 65.88329 60.55204
#
# Velocity S-wave (km/s) = 4.59577 5.01990 4.81251
# Velocity P-wave (km/s) = 8.09339 8.51332 8.30601
#
# Compressibility (1/GPa) = 0.01024291
#
# Stress axis : x y z
#
# Youngs Moduli (GPa) = 113.27580 235.04854 166.99698
#
# Poissons Ratio (x) = 0.21706 0.48043
# Poissons Ratio (y) = 0.10461 0.10245
# Poissons Ratio (z) = 0.32588 0.14420
#
# Static dielectric constant tensor:
#      x y z
#    x 2.020120 0.000000 -0.068450 
#    y 0.000000 2.018540 0.000000 
#    z -0.068450 0.000000 2.153250 
# 
# From -- ./inp_files/63999.got.cif
#   From: 2010.05.17/outbox.cif.g08.bks.cpg/sg14_32_cif.got.tgz:63999.got - 2010.06.03 17:49:19.
