data_PCOD9253968
_publ_section_title
;
Structure prediction by ZEFSAII (Michael W. Deem and Ramdas Pophale) SiO2 
 PCOD9253968
Probable space group: C 2/C
;
_chemical_formula_sum "Si O2"
_cell_formula_units_Z 56
_cell_length_a 12.050758
_cell_length_b 14.818847
_cell_length_c 21.065707
_cell_angle_alpha 90.000000
_cell_angle_beta 35.745457
_cell_angle_gamma 90.000000
_cell_volume 2197.634445
_symmetry_space_group_name_H-M "C 2/C"
_symmetry_group_IT_number 15
_symmetry_cell_setting 'monoclinic'
loop_
_space_group_symop_operation_xyz
x,y,z
-x,y,1/2-z
-x,-y,-z
x,-y,1/2+z
1/2+x,1/2+y,z
1/2-x,1/2+y,1/2-z
1/2-x,1/2-y,-z
1/2+x,1/2-y,1/2+z
loop_
_atom_site_type_symbol
_atom_site_label
_atom_site_fract_x
_atom_site_fract_y
_atom_site_fract_z
Si Si1 0.500000 0.142763 0.250000
Si Si2 0.500000 0.286099 0.750000
Si Si3 0.284111 0.351789 0.517751
Si Si4 0.506443 0.096703 0.033476
Si Si5 0.838033 0.944168 0.013136
Si Si6 0.314107 0.166546 0.013874
Si Si7 0.797320 0.848440 0.167186
Si Si8 0.254343 0.456700 0.733636
O O1 0.352605 0.192787 0.365702
O O2 0.387942 0.078839 0.253743
O O3 0.362243 0.343987 0.856894
O O4 0.371399 0.222943 0.763063
O O5 0.328283 0.449900 0.527481
O O6 0.494128 0.309800 0.412438
O O7 0.179674 0.376209 0.499896
O O8 0.483130 0.168068 0.986058
O O9 0.327481 0.086401 0.164593
O O10 0.500000 0.000000 0.000000
O O11 0.675009 0.915366 0.039881
O O12 0.037988 0.925681 0.886051
O O13 0.812000 0.889726 0.089337
O O14 0.250000 0.250000 0.000000
O O15 0.759517 0.934053 0.230104
#
# Coordination Sequence:
#
# PCOD9253968 Si02
#       8
#     4   4   8   8   8   8   8   8
#     4  10  15  28  56  96 132 169 196 286 362 405
#     4  12  27  42  68  94 140 191 242 274 358 435
#     4  10  20  37  65 102 135 164 228 300 352 412
#     4  11  24  41  65  98 138 183 233 299 364 409
#     4  11  19  39  63  97 135 172 232 290 348 418
#     4  12  26  44  65  94 137 190 235 282 352 447
#     4  11  21  38  65 103 129 184 232 292 356 426
#     4  10  20  32  62  94 137 165 231 292 356 396
#
# _framework density 25.481943999999999
#
# number of rings (size 3 to 8) (size 9 to 14) (size 15 to 20)
#    0.000    1.143    5.714    2.143    4.000    0.000 
#    0.000    0.714    0.000    0.000    0.000    0.000 
#    0.000    0.000    0.000    0.000    0.000    0.000 
#
# Total GULP energy -156571.425984 kJ/mol
# GULP energy per Si atom -5591.836642 kJ/mol
# Density = 2.542395 g / cm^3
# Si number density = 25.481944 Si / 1000 Ang^3
#
#
#
# Elastic Constant Matrix: (Units=GPa)
#
#
# Indices 1 2 3 4 5 6 
#
# 1 188.9225 24.0899 42.1934 0.0003 3.8487 0.0000
# 2 24.0899 63.2268 -1.8750 0.0004 3.6552 -0.0001
# 3 42.1934 -1.8750 95.9367 0.0012 -13.5115 -0.0003
# 4 0.0003 0.0004 0.0012 24.0532 -0.0001 10.0550
# 5 3.8487 3.6552 -13.5115 -0.0001 38.4471 0.0000
# 6 0.0000 -0.0001 -0.0003 10.0550 0.0000 42.3233
#
#
#
# Elastic Compliance Matrix: (Units=1/GPa)
#
#
# Indices 1 2 3 4 5 6 
#
# 1 0.006306 -0.002408 -0.003027 0.000000 -0.001466 0.000000
# 2 -0.002408 0.016824 0.001259 0.000000 -0.000916 0.000000
# 3 -0.003027 0.001259 0.012420 -0.000001 0.004548 0.000000
# 4 0.000000 0.000000 -0.000001 0.046159 0.000000 -0.010966
# 5 -0.001466 -0.000916 0.004548 0.000000 0.027842 0.000000
# 6 0.000000 0.000000 0.000000 -0.010966 0.000000 0.026233
#
#
# Mechanical properties :
#
#
# Convention : Reuss Voigt Hill
#
# Bulk Modulus (GPa) = 36.76764 52.98919 44.87842
# Shear Modulus (GPa) = 32.63680 39.87657 36.25668
#
# Velocity S-wave (km/s) = 3.58268 3.96017 3.77614
# Velocity P-wave (km/s) = 5.61911 6.46146 6.05495
#
# Compressibility (1/GPa) = 0.02719783
#
# Stress axis : x y z
#
# Youngs Moduli (GPa) = 158.57682 59.43992 80.51549
#
# Poissons Ratio (x) = 0.14311 0.24372
# Poissons Ratio (y) = 0.38180 -0.10135
# Poissons Ratio (z) = 0.48001 -0.07482
#
# Static dielectric constant tensor:
#      x y z
#    x 2.050680 0.000000 -0.075390 
#    y 0.000000 2.083050 0.000000 
#    z -0.075390 0.000000 2.063020 
# 
# From -- ./inp_files/270403.got.cif
#   From: 2010.05.17/outbox.cif.g08.bks.cpg/sg15_136_cif.got.tgz:270403.got - 2010.06.03 18:47:42.
