data_PCOD9253289
_publ_section_title
;
Structure prediction by ZEFSAII (Michael W. Deem and Ramdas Pophale) SiO2 
 PCOD9253289
Probable space group: P 21/C
;
_chemical_formula_sum "Si O2"
_cell_formula_units_Z 12
_cell_length_a 7.138297
_cell_length_b 12.716490
_cell_length_c 4.770123
_cell_angle_alpha 90.000000
_cell_angle_beta 112.733025
_cell_angle_gamma 90.000000
_cell_volume 399.365876
_symmetry_space_group_name_H-M "P 21/C"
_symmetry_group_IT_number 14
_symmetry_cell_setting 'monoclinic'
loop_
_space_group_symop_operation_xyz
x,y,z
-x,1/2+y,1/2-z
-x,-y,-z
x,1/2-y,1/2+z
loop_
_atom_site_type_symbol
_atom_site_label
_atom_site_fract_x
_atom_site_fract_y
_atom_site_fract_z
Si Si1 0.102822 0.392252 0.655584
Si Si2 0.249999 0.750000 0.250000
Si Si3 0.397180 0.107748 0.844412
O O1 0.249999 0.350157 0.499995
O O2 0.000000 0.500000 0.500000
O O3 0.923369 0.307626 0.604375
O O4 0.250003 0.406302 0.999997
O O5 0.249999 0.843071 0.500000
O O6 0.423367 0.692374 0.604374
O O7 0.500000 0.000000 0.000000
#
# Coordination Sequence:
#
# PCOD9253289 Si02
#       3
#     4   4   4
#     4  12  26  48  77 110 152 197 249 313 377 449
#     4  12  26  46  72 110 150 194 250 302 374 450
#     4  12  26  48  77 110 152 197 249 313 377 449
#
# _framework density 30.047636000000001
#
# number of rings (size 3 to 8) (size 9 to 14) (size 15 to 20)
#    0.000    0.000    0.000   10.000    0.000    8.000 
#    0.000    0.000    0.000    0.000    0.000    0.000 
#    0.000    0.000    0.000    0.000    0.000    0.000 
#
# Total GULP energy -67227.400530 kJ/mol
# GULP energy per Si atom -5602.283378 kJ/mol
# Density = 2.997925 g / cm^3
# Si number density = 30.047636 Si / 1000 Ang^3
#
#
#
# Elastic Constant Matrix: (Units=GPa)
#
#
# Indices 1 2 3 4 5 6 
#
# 1 312.1385 92.9255 155.6727 0.0000 -9.6255 0.0000
# 2 92.9255 221.6505 117.0863 0.0000 53.3605 0.0000
# 3 155.6727 117.0863 397.7787 0.0000 -33.0035 0.0000
# 4 0.0000 0.0000 0.0000 57.9891 0.0000 3.1987
# 5 -9.6255 53.3605 -33.0035 0.0000 129.6359 0.0000
# 6 0.0000 0.0000 0.0000 3.1987 0.0000 -6.6143
#
#
#
# Elastic Compliance Matrix: (Units=1/GPa)
#
#
# Indices 1 2 3 4 5 6 
#
# 1 0.004204 -0.001227 -0.001243 0.000000 0.000501 0.000000
# 2 -0.001227 0.006775 -0.001791 0.000000 -0.003336 0.000000
# 3 -0.001243 -0.001791 0.003658 0.000000 0.001576 0.000000
# 4 0.000000 0.000000 0.000000 0.016797 0.000000 0.008123
# 5 0.000501 -0.003336 0.001576 0.000000 0.009525 0.000000
# 6 0.000000 0.000000 0.000000 0.008123 0.000000 -0.147259
#
#
# Mechanical properties :
#
#
# Convention : Reuss Voigt Hill
#
# Bulk Modulus (GPa) = 163.48434 184.77075 174.12754
# Shear Modulus (GPa) = -52.22438 73.92768 10.85165
#
# Velocity S-wave (km/s) = -4.17352 4.96557 1.90245
# Velocity P-wave (km/s) = 5.59483 9.72121 7.93108
#
# Compressibility (1/GPa) = 0.00611679
#
# Stress axis : x y z
#
# Youngs Moduli (GPa) = 237.86390 147.60230 273.35579
#
# Poissons Ratio (x) = 0.18105 0.33970
# Poissons Ratio (y) = 0.29177 0.48956
# Poissons Ratio (z) = 0.29559 0.26435
#
# Static dielectric constant tensor:
#      x y z
#    x 2.359290 0.000000 -0.059160 
#    y 0.000000 2.115590 0.000000 
#    z -0.059160 0.000000 2.666400 
# 
# From -- ./inp_files/126.got.cif
#   From: 2010.05.17/outbox.cif.g08.bks.cpg/sg14_1_cif.got.tgz:126.got - 2010.06.03 17:49:19.
