data_PCOD9253820
_publ_section_title
;
Structure prediction by ZEFSAII (Michael W. Deem and Ramdas Pophale) SiO2 
 PCOD9253820
Probable space group: C 2/C
;
_chemical_formula_sum "Si O2"
_cell_formula_units_Z 40
_cell_length_a 13.208017
_cell_length_b 10.679648
_cell_length_c 12.414479
_cell_angle_alpha 90.000000
_cell_angle_beta 121.654570
_cell_angle_gamma 90.000000
_cell_volume 1490.626015
_symmetry_space_group_name_H-M "C 2/C"
_symmetry_group_IT_number 15
_symmetry_cell_setting 'monoclinic'
loop_
_space_group_symop_operation_xyz
x,y,z
-x,y,1/2-z
-x,-y,-z
x,-y,1/2+z
1/2+x,1/2+y,z
1/2-x,1/2+y,1/2-z
1/2-x,1/2-y,-z
1/2+x,1/2-y,1/2+z
loop_
_atom_site_type_symbol
_atom_site_label
_atom_site_fract_x
_atom_site_fract_y
_atom_site_fract_z
Si Si1 0.848621 0.976366 0.939172
Si Si2 0.417335 0.679056 0.803382
Si Si3 0.304765 0.355596 0.607540
Si Si4 0.118199 0.545599 0.171046
Si Si5 0.633831 0.778355 0.145928
O O1 0.708682 0.974773 0.823336
O O2 0.888516 0.832442 0.950975
O O3 0.910032 0.066301 0.885679
O O4 0.860748 0.044180 0.059315
O O5 0.500000 0.646133 0.750000
O O6 0.450084 0.824822 0.848646
O O7 0.273617 0.691510 0.703213
O O8 0.250000 0.250000 0.500000
O O9 0.201562 0.423163 0.616345
O O10 0.377170 0.288912 0.743612
O O11 0.064248 0.409109 0.116765
#
# Coordination Sequence:
#
# PCOD9253820 Si02
#       5
#     8   8   8   8   8
#     4   9  16  30  48  70  90 125 157 187 225 278
#     4   9  16  28  48  69  93 124 155 182 235 280
#     4  10  14  27  51  69  91 121 158 188 227 271
#     4   9  17  28  47  72  92 119 159 193 222 268
#     4   9  19  31  50  72  92 118 160 196 222 265
#
# _framework density 26.834363
#
# number of rings (size 3 to 8) (size 9 to 14) (size 15 to 20)
#    0.000    3.200    6.000    0.000    0.000    0.800 
#    0.000    1.000    0.000   40.800    0.000    0.000 
#    0.000    0.000    0.000    0.000    0.000    0.000 
#
# Total GULP energy -111869.682994 kJ/mol
# GULP energy per Si atom -5593.484150 kJ/mol
# Density = 2.677329 g / cm^3
# Si number density = 26.834363 Si / 1000 Ang^3
#
#
#
# Elastic Constant Matrix: (Units=GPa)
#
#
# Indices 1 2 3 4 5 6 
#
# 1 96.7188 40.0233 51.4212 0.0000 -25.0729 0.0000
# 2 40.0233 282.8151 88.5500 0.0000 -11.6134 0.0000
# 3 51.4212 88.5500 87.5530 0.0000 -40.2370 0.0000
# 4 0.0000 0.0000 0.0000 60.3238 0.0000 5.7422
# 5 -25.0729 -11.6134 -40.2370 0.0000 57.0183 0.0000
# 6 0.0000 0.0000 0.0000 5.7422 0.0000 41.2829
#
#
#
# Elastic Compliance Matrix: (Units=1/GPa)
#
#
# Indices 1 2 3 4 5 6 
#
# 1 0.015204 0.000967 -0.009982 0.000000 -0.000161 0.000000
# 2 0.000967 0.005899 -0.008564 0.000000 -0.004417 0.000000
# 3 -0.009982 -0.008564 0.034227 0.000000 0.018020 0.000000
# 4 0.000000 0.000000 0.000000 0.016800 0.000000 -0.002337
# 5 -0.000161 -0.004417 0.018020 0.000000 0.029284 0.000000
# 6 0.000000 0.000000 0.000000 -0.002337 0.000000 0.024548
#
#
# Mechanical properties :
#
#
# Convention : Reuss Voigt Hill
#
# Bulk Modulus (GPa) = 49.57169 91.89732 70.73451
# Shear Modulus (GPa) = 29.78958 50.86450 40.32704
#
# Velocity S-wave (km/s) = 3.33547 4.35846 3.88082
# Velocity P-wave (km/s) = 5.77470 7.72325 6.81894
#
# Compressibility (1/GPa) = 0.02017280
#
# Stress axis : x y z
#
# Youngs Moduli (GPa) = 65.77143 169.51834 29.21664
#
# Poissons Ratio (x) = -0.16393 0.29163
# Poissons Ratio (y) = -0.06360 0.25021
# Poissons Ratio (z) = 0.65652 1.45176
#
# Static dielectric constant tensor:
#      x y z
#    x 2.098750 0.000000 0.162770 
#    y 0.000000 2.098080 0.000000 
#    z 0.162770 0.000000 2.236230 
# 
# From -- ./inp_files/94666.got.cif
#   From: 2010.05.17/outbox.cif.g08.bks.cpg/sg15_48_cif.got.tgz:94666.got - 2010.06.03 18:47:42.
