data_PCOD9253153
_publ_section_title
;
Structure prediction by ZEFSAII (Michael W. Deem and Ramdas Pophale) SiO2 
 PCOD9253153
Probable space group: P 21/C
;
_chemical_formula_sum "Si O2"
_cell_formula_units_Z 18
_cell_length_a 5.535345
_cell_length_b 10.009687
_cell_length_c 13.768289
_cell_angle_alpha 90.000000
_cell_angle_beta 58.161644
_cell_angle_gamma 90.000000
_cell_volume 648.080364
_symmetry_space_group_name_H-M "P 21/C"
_symmetry_group_IT_number 14
_symmetry_cell_setting 'monoclinic'
loop_
_space_group_symop_operation_xyz
x,y,z
-x,1/2+y,1/2-z
-x,-y,-z
x,1/2-y,1/2+z
loop_
_atom_site_type_symbol
_atom_site_label
_atom_site_fract_x
_atom_site_fract_y
_atom_site_fract_z
Si Si1 0.785847 0.016433 0.319082
Si Si2 0.179087 0.756115 0.536054
Si Si3 0.395356 0.387378 0.314496
Si Si4 0.048834 0.744339 0.336853
Si Si5 0.500000 0.000000 0.000000
O O1 0.764357 0.107572 0.418606
O O2 0.009543 0.096808 0.198080
O O3 0.540518 0.980474 0.293131
O O4 0.873302 0.871970 0.340214
O O5 0.091293 0.755911 0.442489
O O6 0.443206 0.660543 0.499692
O O7 0.905016 0.682824 0.640510
O O8 0.636956 0.276967 0.272035
O O9 0.379189 0.474244 0.414188
#
# Coordination Sequence:
#
# PCOD9253153 Si02
#       5
#     4   4   4   4   2
#     4  12  26  51  75 116 156 206 261 326 395 467
#     4  12  28  50  78 120 154 210 263 325 397 469
#     4  12  27  47  79 113 158 207 260 321 393 472
#     4  12  29  48  81 113 162 204 265 329 391 470
#     4  12  24  44  76 110 152 206 252 314 386 460
#
# _framework density 27.774334
#
# number of rings (size 3 to 8) (size 9 to 14) (size 15 to 20)
#    0.000    0.000    6.667    1.333    6.222    4.444 
#    0.000    0.000    0.000    0.000    0.000    0.000 
#    0.000    0.000    0.000    0.000    0.000    0.000 
#
# Total GULP energy -100441.803588 kJ/mol
# GULP energy per Si atom -5580.100199 kJ/mol
# Density = 2.771112 g / cm^3
# Si number density = 27.774334 Si / 1000 Ang^3
#
#
#
# Elastic Constant Matrix: (Units=GPa)
#
#
# Indices 1 2 3 4 5 6 
#
# 1 60.6368 45.7495 33.7254 0.0000 37.7647 0.0000
# 2 45.7495 175.6224 29.0457 0.0000 35.7683 0.0000
# 3 33.7254 29.0457 127.3226 0.0000 62.9596 0.0000
# 4 0.0000 0.0000 0.0000 59.7071 0.0000 18.0140
# 5 37.7647 35.7683 62.9596 0.0000 73.0712 0.0000
# 6 0.0000 0.0000 0.0000 18.0140 0.0000 45.7203
#
#
#
# Elastic Compliance Matrix: (Units=1/GPa)
#
#
# Indices 1 2 3 4 5 6 
#
# 1 0.027482 -0.004745 -0.000561 0.000000 -0.011397 0.000000
# 2 -0.004745 0.007146 0.000250 0.000000 -0.001261 0.000000
# 3 -0.000561 0.000250 0.013700 0.000000 -0.011636 0.000000
# 4 0.000000 0.000000 0.000000 0.019008 0.000000 -0.007489
# 5 -0.011397 -0.001261 -0.011636 0.000000 0.030219 0.000000
# 6 0.000000 0.000000 0.000000 -0.007489 0.000000 0.024823
#
#
# Mechanical properties :
#
#
# Convention : Reuss Voigt Hill
#
# Bulk Modulus (GPa) = 26.16758 64.51367 45.34063
# Shear Modulus (GPa) = 34.42881 52.70381 43.56631
#
# Velocity S-wave (km/s) = 3.52460 4.36084 3.96483
# Velocity P-wave (km/s) = 5.09958 6.97382 6.10900
#
# Compressibility (1/GPa) = 0.03821522
#
# Stress axis : x y z
#
# Youngs Moduli (GPa) = 36.38761 139.94717 72.99436
#
# Poissons Ratio (x) = 0.66405 0.04097
# Poissons Ratio (y) = 0.17266 -0.01828
# Poissons Ratio (z) = 0.02043 -0.03504
#
# Static dielectric constant tensor:
#      x y z
#    x 2.163540 0.000000 -0.190640 
#    y 0.000000 2.231990 0.000000 
#    z -0.190640 0.000000 2.385440 
# 
# From -- ./inp_files/36702.got.cif
#   From: 2010.05.17/outbox.cif.g08.bks.cpg/sg14_19_cif.got.tgz:36702.got - 2010.06.03 17:49:19.
