data_PCOD9253832
_publ_section_title
;
Structure prediction by ZEFSAII (Michael W. Deem and Ramdas Pophale) SiO2 
 PCOD9253832
Probable space group: C 2/C
;
_chemical_formula_sum "Si O2"
_cell_formula_units_Z 44
_cell_length_a 21.192846
_cell_length_b 7.428218
_cell_length_c 12.437874
_cell_angle_alpha 90.000000
_cell_angle_beta 60.267794
_cell_angle_gamma 90.000000
_cell_volume 1700.263864
_symmetry_space_group_name_H-M "C 2/C"
_symmetry_group_IT_number 15
_symmetry_cell_setting 'monoclinic'
loop_
_space_group_symop_operation_xyz
x,y,z
-x,y,1/2-z
-x,-y,-z
x,-y,1/2+z
1/2+x,1/2+y,z
1/2-x,1/2+y,1/2-z
1/2-x,1/2-y,-z
1/2+x,1/2-y,1/2+z
loop_
_atom_site_type_symbol
_atom_site_label
_atom_site_fract_x
_atom_site_fract_y
_atom_site_fract_z
Si Si1 0.779596 0.308272 0.592821
Si Si2 0.000000 0.840594 0.750000
Si Si3 0.823051 0.364027 0.928336
Si Si4 0.063660 0.764148 0.496674
Si Si5 0.135203 0.322651 0.261965
Si Si6 0.451470 0.849603 0.944736
O O1 0.750000 0.250000 0.500000
O O2 0.809890 0.502690 0.540515
O O3 0.850104 0.205880 0.576662
O O4 0.707222 0.294726 0.721796
O O5 0.973361 0.905844 0.891065
O O6 0.921069 0.756135 0.778353
O O7 0.834964 0.486987 0.811849
O O8 0.750000 0.250000 0.000000
O O9 0.901317 0.278742 0.890757
O O10 0.042341 0.567924 0.570397
O O11 0.028949 0.736354 0.408817
O O12 0.091467 0.324642 0.408024
#
# Coordination Sequence:
#
# PCOD9253832 Si02
#       6
#     8   4   8   8   8   8
#     4   9  16  32  50  77  98 137 177 217 257 306
#     4  10  14  28  52  80  96 136 176 226 250 290
#     4  10  20  34  51  77 111 138 169 217 269 316
#     4   9  16  28  50  79 105 130 179 225 253 301
#     4  10  19  31  56  79 102 140 180 220 259 306
#     4   9  18  31  50  81 104 137 180 215 257 314
#
# _framework density 25.878336999999998
#
# number of rings (size 3 to 8) (size 9 to 14) (size 15 to 20)
#    0.000    2.545    5.455    0.000    0.000    2.909 
#    0.000    0.000    0.000    5.455    4.727    0.000 
#    0.000    0.000    0.000    0.000    0.000    0.000 
#
# Total GULP energy -122503.477765 kJ/mol
# GULP energy per Si atom -5568.339898 kJ/mol
# Density = 2.581944 g / cm^3
# Si number density = 25.878337 Si / 1000 Ang^3
#
#
#
# Elastic Constant Matrix: (Units=GPa)
#
#
# Indices 1 2 3 4 5 6 
#
# 1 204.1731 20.2979 16.5869 0.0000 -30.3777 0.0000
# 2 20.2979 29.6416 -8.6332 0.0000 -4.8194 0.0000
# 3 16.5869 -8.6332 91.8874 0.0000 -19.7034 0.0000
# 4 0.0000 0.0000 0.0000 14.6967 0.0000 -9.7823
# 5 -30.3777 -4.8194 -19.7034 0.0000 47.1138 0.0000
# 6 0.0000 0.0000 0.0000 -9.7823 0.0000 30.2363
#
#
#
# Elastic Compliance Matrix: (Units=1/GPa)
#
#
# Indices 1 2 3 4 5 6 
#
# 1 0.005775 -0.003675 -0.000736 0.000000 0.003040 0.000000
# 2 -0.003675 0.038319 0.005049 0.000000 0.003662 0.000000
# 3 -0.000736 0.005049 0.012632 0.000000 0.005325 0.000000
# 4 0.000000 0.000000 0.000000 0.086716 0.000000 0.028055
# 5 0.003040 0.003662 0.005325 0.000000 0.025787 0.000000
# 6 0.000000 0.000000 0.000000 0.028055 0.000000 0.042149
#
#
# Mechanical properties :
#
#
# Convention : Reuss Voigt Hill
#
# Bulk Modulus (GPa) = 17.24089 42.46726 29.85407
# Shear Modulus (GPa) = 21.79262 38.23941 30.01601
#
# Velocity S-wave (km/s) = 2.90508 3.84821 3.40941
# Velocity P-wave (km/s) = 4.23431 6.01589 5.20194
#
# Compressibility (1/GPa) = 0.05800166
#
# Stress axis : x y z
#
# Youngs Moduli (GPa) = 173.15333 26.09701 79.16500
#
# Poissons Ratio (x) = 0.09590 0.05826
# Poissons Ratio (y) = 0.63630 -0.39968
# Poissons Ratio (z) = 0.12742 -0.13176
#
# Static dielectric constant tensor:
#      x y z
#    x 2.301740 0.000000 -0.034750 
#    y 0.000000 2.227480 0.000000 
#    z -0.034750 0.000000 2.140170 
# 
# From -- ./inp_files/166069.got.cif
#   From: 2010.05.17/outbox.cif.g08.bks.cpg/sg15_84_cif.got.tgz:166069.got - 2010.06.03 18:47:42.
