data_PCOD9253916
_publ_section_title
;
Structure prediction by ZEFSAII (Michael W. Deem and Ramdas Pophale) SiO2 
 PCOD9253916
Probable space group: C 2/C
;
_chemical_formula_sum "Si O2"
_cell_formula_units_Z 48
_cell_length_a 21.205471
_cell_length_b 21.814150
_cell_length_c 8.565755
_cell_angle_alpha 90.000000
_cell_angle_beta 150.783169
_cell_angle_gamma 90.000000
_cell_volume 1934.082377
_symmetry_space_group_name_H-M "C 2/C"
_symmetry_group_IT_number 15
_symmetry_cell_setting 'monoclinic'
loop_
_space_group_symop_operation_xyz
x,y,z
-x,y,1/2-z
-x,-y,-z
x,-y,1/2+z
1/2+x,1/2+y,z
1/2-x,1/2+y,1/2-z
1/2-x,1/2-y,-z
1/2+x,1/2-y,1/2+z
loop_
_atom_site_type_symbol
_atom_site_label
_atom_site_fract_x
_atom_site_fract_y
_atom_site_fract_z
Si Si1 0.319918 0.474961 0.329317
Si Si2 0.854626 0.088276 0.625756
Si Si3 0.555583 0.115480 0.037326
Si Si4 0.327954 0.682561 0.315827
Si Si5 0.818342 0.427001 0.181473
Si Si6 0.567605 0.751430 0.250372
O O1 0.411380 0.434344 0.413735
O O2 0.228098 0.513337 0.013116
O O3 0.373128 0.529913 0.552405
O O4 0.235694 0.433437 0.262492
O O5 0.887352 0.147282 0.592556
O O6 0.706327 0.103574 0.351804
O O7 0.500000 0.092729 0.750000
O O8 0.469982 0.083186 0.984556
O O9 0.518131 0.187388 0.963041
O O10 0.411445 0.718335 0.368442
O O11 0.253660 0.629304 0.058589
O O12 0.211527 0.727771 0.114227
O O13 0.500000 0.717618 0.250000
#
# Coordination Sequence:
#
# PCOD9253916 Si02
#       6
#     8   8   8   8   8   8
#     4   9  18  26  41  62  94 119 143 172 218 267
#     4  10  17  28  40  67  89 119 144 177 215 266
#     4  10  15  26  40  60  92 109 149 183 207 258
#     4   9  16  27  46  65  87 112 153 182 218 252
#     4   9  17  27  38  64  88 117 145 176 214 268
#     4   9  15  27  46  67  81 117 148 192 212 251
#
# _framework density 24.817969000000002
#
# number of rings (size 3 to 8) (size 9 to 14) (size 15 to 20)
#    0.000    2.667    6.667    0.000    0.000    4.667 
#    0.000    0.000    0.000    9.000    0.000   18.667 
#    0.000    0.000    0.000    0.000    0.000    0.000 
#
# Total GULP energy -134049.617642 kJ/mol
# GULP energy per Si atom -5585.400735 kJ/mol
# Density = 2.476148 g / cm^3
# Si number density = 24.817969 Si / 1000 Ang^3
#
#
#
# Elastic Constant Matrix: (Units=GPa)
#
#
# Indices 1 2 3 4 5 6 
#
# 1 229.4868 60.3442 35.6897 0.0000 -6.5775 0.0000
# 2 60.3442 65.1976 23.0427 0.0000 6.0091 0.0000
# 3 35.6897 23.0427 49.6333 0.0000 1.1646 0.0000
# 4 0.0000 0.0000 0.0000 15.8051 0.0000 -1.3292
# 5 -6.5775 6.0091 1.1646 0.0000 35.3375 0.0000
# 6 0.0000 0.0000 0.0000 -1.3292 0.0000 66.6525
#
#
#
# Elastic Compliance Matrix: (Units=1/GPa)
#
#
# Indices 1 2 3 4 5 6 
#
# 1 0.006073 -0.005085 -0.002055 0.000000 0.002063 0.000000
# 2 -0.005085 0.022896 -0.006865 0.000000 -0.004614 0.000000
# 3 -0.002055 -0.006865 0.024813 0.000000 -0.000033 0.000000
# 4 0.000000 0.000000 0.000000 0.063377 0.000000 0.001264
# 5 0.002063 -0.004614 -0.000033 0.000000 0.029468 0.000000
# 6 0.000000 0.000000 0.000000 0.001264 0.000000 0.015028
#
#
# Mechanical properties :
#
#
# Convention : Reuss Voigt Hill
#
# Bulk Modulus (GPa) = 38.80025 64.71897 51.75961
# Shear Modulus (GPa) = 25.21982 38.57511 31.89746
#
# Velocity S-wave (km/s) = 3.19123 3.94677 3.58894
# Velocity P-wave (km/s) = 5.40800 6.84860 6.17049
#
# Compressibility (1/GPa) = 0.02577303
#
# Stress axis : x y z
#
# Youngs Moduli (GPa) = 164.65255 43.67557 40.30128
#
# Poissons Ratio (x) = 0.22210 0.08281
# Poissons Ratio (y) = 0.83729 0.27666
# Poissons Ratio (z) = 0.33832 0.29983
#
# Static dielectric constant tensor:
#      x y z
#    x 1.997960 0.000000 0.009620 
#    y 0.000000 2.003840 0.000000 
#    z 0.009620 0.000000 2.071540 
# 
# From -- ./inp_files/31887.got.cif
#   From: 2010.05.17/outbox.cif.g08.bks.cpg/sg15_16_cif.got.tgz:31887.got - 2010.06.03 18:47:42.
