data_PCOD9253027
_publ_section_title
;
Structure prediction by ZEFSAII (Michael W. Deem and Ramdas Pophale) SiO2 
 PCOD9253027
Probable space group: P 21/C
;
_chemical_formula_sum "Si O2"
_cell_formula_units_Z 30
_cell_length_a 12.796871
_cell_length_b 16.029070
_cell_length_c 9.087607
_cell_angle_alpha 90.000000
_cell_angle_beta 129.508547
_cell_angle_gamma 90.000000
_cell_volume 1438.183486
_symmetry_space_group_name_H-M "P 21/C"
_symmetry_group_IT_number 14
_symmetry_cell_setting 'monoclinic'
loop_
_space_group_symop_operation_xyz
x,y,z
-x,1/2+y,1/2-z
-x,-y,-z
x,1/2-y,1/2+z
loop_
_atom_site_type_symbol
_atom_site_label
_atom_site_fract_x
_atom_site_fract_y
_atom_site_fract_z
Si Si1 0.066827 0.638686 0.885741
Si Si2 0.548512 0.646061 0.379978
Si Si3 0.422826 0.742313 0.528832
Si Si4 0.208631 0.445564 0.299086
Si Si5 0.296695 0.589896 0.586995
Si Si6 0.132659 0.702393 0.640459
Si Si7 0.326217 0.981458 0.630049
Si Si8 0.500000 0.000000 0.500000
O O1 0.045394 0.671493 0.700089
O O2 0.946557 0.579261 0.830394
O O3 0.078791 0.717533 0.005026
O O4 0.207427 0.587503 0.011548
O O5 0.510247 0.710785 0.471566
O O6 0.499847 0.683603 0.181503
O O7 0.702975 0.620662 0.529715
O O8 0.454604 0.565018 0.319413
O O9 0.387426 0.665684 0.604607
O O10 0.278580 0.772944 0.340153
O O11 0.241106 0.534016 0.403931
O O12 0.268863 0.448964 0.188514
O O13 0.169722 0.630295 0.558370
O O14 0.388033 0.537385 0.781012
O O15 0.379929 0.008956 0.520122
#
# Coordination Sequence:
#
# PCOD9253027 Si02
#       8
#     4   4   4   4   4   4   4   2
#     4  12  26  46  73 100 140 192 235 281 350 437
#     4  12  23  41  69 103 136 175 234 293 344 406
#     4  12  21  39  73  98 128 183 232 283 342 410
#     4  12  28  44  67 107 150 178 229 303 358 405
#     4  12  22  41  70 103 136 176 230 296 346 408
#     4  12  22  44  72  99 131 189 243 272 340 435
#     4  12  22  45  69 103 138 182 233 283 354 420
#     4  12  24  38  72 110 134 170 234 298 348 408
#
# _framework density 20.859646999999999
#
# number of rings (size 3 to 8) (size 9 to 14) (size 15 to 20)
#    0.000    0.000    9.333    1.600    0.000    1.600 
#    0.000    0.000    0.000    0.000    0.000    0.000 
#    0.000    0.000    0.000    0.000    0.000    0.000 
#
# Total GULP energy -167336.771080 kJ/mol
# GULP energy per Si atom -5577.892369 kJ/mol
# Density = 2.081217 g / cm^3
# Si number density = 20.859647 Si / 1000 Ang^3
#
#
#
# Elastic Constant Matrix: (Units=GPa)
#
#
# Indices 1 2 3 4 5 6 
#
# 1 89.5008 20.7110 37.3327 0.0000 -6.4269 0.0000
# 2 20.7110 36.5773 13.0814 0.0000 2.1785 0.0000
# 3 37.3327 13.0814 50.5005 0.0000 -12.0762 0.0000
# 4 0.0000 0.0000 0.0000 28.0538 0.0000 -8.2402
# 5 -6.4269 2.1785 -12.0762 0.0000 29.7050 0.0000
# 6 0.0000 0.0000 0.0000 -8.2402 0.0000 22.5254
#
#
#
# Elastic Compliance Matrix: (Units=1/GPa)
#
#
# Indices 1 2 3 4 5 6 
#
# 1 0.017180 -0.005637 -0.011356 0.000000 -0.000486 0.000000
# 2 -0.005637 0.032965 -0.005806 0.000000 -0.005998 0.000000
# 3 -0.011356 -0.005806 0.032361 0.000000 0.011125 0.000000
# 4 0.000000 0.000000 0.000000 0.039937 0.000000 0.014610
# 5 -0.000486 -0.005998 0.011125 0.000000 0.038522 0.000000
# 6 0.000000 0.000000 0.000000 0.014610 0.000000 0.049739
#
#
# Mechanical properties :
#
#
# Convention : Reuss Voigt Hill
#
# Bulk Modulus (GPa) = 27.09514 35.42543 31.26029
# Shear Modulus (GPa) = 18.61476 23.08707 20.85092
#
# Velocity S-wave (km/s) = 2.99052 3.33044 3.16505
# Velocity P-wave (km/s) = 4.99417 5.63992 5.32684
#
# Compressibility (1/GPa) = 0.03690699
#
# Stress axis : x y z
#
# Youngs Moduli (GPa) = 58.20890 30.33534 30.90125
#
# Poissons Ratio (x) = 0.17100 0.35092
# Poissons Ratio (y) = 0.32813 0.17941
# Poissons Ratio (z) = 0.66103 0.17613
#
# Static dielectric constant tensor:
#      x y z
#    x 1.716140 0.000000 -0.046170 
#    y 0.000000 1.791100 0.000000 
#    z -0.046170 0.000000 1.753630 
# 
# From -- ./inp_files/16307.got.cif
#   From: 2010.05.17/outbox.cif.g08.bks.cpg/sg14_9_cif.got.tgz:16307.got - 2010.06.03 17:49:19.
