data_PCOD9253462
_publ_section_title
;
Structure prediction by ZEFSAII (Michael W. Deem and Ramdas Pophale) SiO2 
 PCOD9253462
Probable space group: P 21/C
;
_chemical_formula_sum "Si O2"
_cell_formula_units_Z 28
_cell_length_a 9.000000
_cell_length_b 12.000000
_cell_length_c 21.000000
_cell_angle_alpha 90.000000
_cell_angle_beta 40.000000
_cell_angle_gamma 90.000000
_cell_volume 1457.842299
_symmetry_space_group_name_H-M "P 21/C"
_symmetry_group_IT_number 14
_symmetry_cell_setting 'monoclinic'
loop_
_space_group_symop_operation_xyz
x,y,z
-x,1/2+y,1/2-z
-x,-y,-z
x,1/2-y,1/2+z
loop_
_atom_site_type_symbol
_atom_site_label
_atom_site_fract_x
_atom_site_fract_y
_atom_site_fract_z
Si Si1 0.684722 0.554138 0.892798
Si Si2 0.660517 0.407772 0.414476
Si Si3 0.223626 0.232395 0.063267
Si Si4 0.116535 0.088514 0.222118
Si Si5 0.073335 0.421179 0.380413
Si Si6 0.597833 0.780890 0.302984
Si Si7 0.867792 0.155588 0.081250
O O1 0.806384 0.647591 0.896135
O O2 0.590645 0.627337 0.863287
O O3 0.858768 0.455272 0.816806
O O4 0.500000 0.500000 0.000000
O O5 0.500000 0.500000 0.500000
O O6 0.494620 0.301076 0.463418
O O7 0.738085 0.472480 0.325720
O O8 0.887765 0.399593 0.384138
O O9 0.135111 0.146759 0.146786
O O10 0.075551 0.219325 0.048426
O O11 0.234848 0.179631 0.228708
O O12 0.285467 0.343255 0.293887
O O13 0.162164 0.546553 0.363943
O O14 0.947930 0.386786 0.486133
O O15 0.356635 0.728921 0.359838
#
# Coordination Sequence:
#
# PCOD9253462 Si02
#       7
#     4   4   4   4   4   4   4
#     4  11  24  41  63  92 125 166 212 263 311 365
#     4  10  17  38  65  91 116 154 219 264 296 362
#     4  10  22  39  64  95 121 163 210 266 311 371
#     4  10  21  39  65  90 118 163 216 260 307 367
#     4  11  22  41  65  92 128 168 208 265 309 378
#     4  11  25  42  64  96 129 167 206 264 320 378
#     4  11  23  41  63  93 130 167 207 249 326 386
#
# _framework density 19.206467
#
# number of rings (size 3 to 8) (size 9 to 14) (size 15 to 20)
#    0.000    1.429    4.286    2.571    6.000    1.143 
#    5.143    0.714    0.000    0.000    0.000    0.000 
#    0.000    0.000    0.000    0.000    0.000    0.000 
#
# Total GULP energy -156000.319833 kJ/mol
# GULP energy per Si atom -5571.439994 kJ/mol
# Density = 1.916275 g / cm^3
# Si number density = 19.206467 Si / 1000 Ang^3
#
#
#
# Elastic Constant Matrix: (Units=GPa)
#
#
# Indices 1 2 3 4 5 6 
#
# 1 81.7959 45.0906 8.4658 0.0000 -19.3549 0.0000
# 2 45.0906 85.5018 50.7341 0.0000 -6.6769 0.0000
# 3 8.4658 50.7341 88.2862 0.0000 -21.0970 0.0000
# 4 0.0000 0.0000 0.0000 37.1178 0.0000 -4.9692
# 5 -19.3549 -6.6769 -21.0970 0.0000 17.8962 0.0000
# 6 0.0000 0.0000 0.0000 -4.9692 0.0000 15.9600
#
#
#
# Elastic Compliance Matrix: (Units=1/GPa)
#
#
# Indices 1 2 3 4 5 6 
#
# 1 0.063522 -0.055916 0.052169 0.000000 0.109337 0.000000
# 2 -0.055916 0.067726 -0.058430 0.000000 -0.104086 0.000000
# 3 0.052169 -0.058430 0.067067 0.000000 0.113683 0.000000
# 4 0.000000 0.000000 0.000000 0.028113 0.000000 0.008753
# 5 0.109337 -0.104086 0.113683 0.000000 0.269308 0.000000
# 6 0.000000 0.000000 0.000000 0.008753 0.000000 0.065382
#
#
# Mechanical properties :
#
#
# Convention : Reuss Voigt Hill
#
# Bulk Modulus (GPa) = 13.52075 51.57388 32.54732
# Shear Modulus (GPa) = 7.04099 24.28106 15.66103
#
# Velocity S-wave (km/s) = 1.91674 3.55943 2.85863
# Velocity P-wave (km/s) = 3.45738 6.61841 5.28001
#
# Compressibility (1/GPa) = 0.07396042
#
# Stress axis : x y z
#
# Youngs Moduli (GPa) = 15.74256 14.76532 14.91042
#
# Poissons Ratio (x) = 0.82562 -0.77786
# Poissons Ratio (y) = 0.88027 0.87121
# Poissons Ratio (z) = -0.82127 0.86274
#
# Static dielectric constant tensor:
#      x y z
#    x 1.669980 0.000000 -0.016550 
#    y 0.000000 1.721340 0.000000 
#    z -0.016550 0.000000 1.703930 
# 
# From -- ./inp_files/65545.got.cif
#   From: 2010.05.17/outbox.ucp.g08.bks.cvg/sg14_33_cif.got.tgz:65545.got - 2010.06.11 12:31:08.
