data_PCOD9253414
_publ_section_title
;
Structure prediction by ZEFSAII (Michael W. Deem and Ramdas Pophale) SiO2 
 PCOD9253414
Probable space group: P 21/C
;
_chemical_formula_sum "Si O2"
_cell_formula_units_Z 10
_cell_length_a 5.443096
_cell_length_b 5.219756
_cell_length_c 12.730599
_cell_angle_alpha 90.000000
_cell_angle_beta 79.954414
_cell_angle_gamma 90.000000
_cell_volume 356.152031
_symmetry_space_group_name_H-M "P 21/C"
_symmetry_group_IT_number 14
_symmetry_cell_setting 'monoclinic'
loop_
_space_group_symop_operation_xyz
x,y,z
-x,1/2+y,1/2-z
-x,-y,-z
x,1/2-y,1/2+z
loop_
_atom_site_type_symbol
_atom_site_label
_atom_site_fract_x
_atom_site_fract_y
_atom_site_fract_z
Si Si1 0.838568 0.422277 0.771273
Si Si2 0.269337 0.074673 0.936970
Si Si3 0.500000 0.500000 0.000000
O O1 0.673425 0.447413 0.678005
O O2 0.956066 0.141511 0.766150
O O3 0.703411 0.486852 0.888816
O O4 0.290782 0.377519 0.935285
O O5 0.500000 0.000000 0.000000
O O6 0.000000 0.000000 0.000000
#
# Coordination Sequence:
#
# PCOD9253414 Si02
#       3
#     4   4   2
#     4  12  30  56  92 133 189 248 322 396 484 582
#     4  12  29  55  86 131 179 245 310 395 471 573
#     4  12  30  50  96 124 190 242 318 388 488 558
#
# _framework density 28.077898999999999
#
# number of rings (size 3 to 8) (size 9 to 14) (size 15 to 20)
#    0.000    0.000    4.000    2.400   11.200    3.200 
#    0.000    0.000    0.000    0.000    0.000    0.000 
#    0.000    0.000    0.000    0.000    0.000    0.000 
#
# Total GULP energy -55667.464786 kJ/mol
# GULP energy per Si atom -5566.746479 kJ/mol
# Density = 2.801399 g / cm^3
# Si number density = 28.077899 Si / 1000 Ang^3
#
#
#
# Elastic Constant Matrix: (Units=GPa)
#
#
# Indices 1 2 3 4 5 6 
#
# 1 138.8353 38.6093 43.3470 0.0000 0.4587 0.0000
# 2 38.6093 68.0287 16.4299 0.0000 8.8152 0.0000
# 3 43.3470 16.4299 195.8070 0.0000 -16.4325 0.0000
# 4 0.0000 0.0000 0.0000 36.4266 0.0000 10.6732
# 5 0.4587 8.8152 -16.4325 0.0000 67.9185 0.0000
# 6 0.0000 0.0000 0.0000 10.6732 0.0000 83.8896
#
#
#
# Elastic Compliance Matrix: (Units=1/GPa)
#
#
# Indices 1 2 3 4 5 6 
#
# 1 0.009020 -0.004759 -0.001583 0.000000 0.000174 0.000000
# 2 -0.004759 0.017875 -0.000651 0.000000 -0.002445 0.000000
# 3 -0.001583 -0.000651 0.005635 0.000000 0.001458 0.000000
# 4 0.000000 0.000000 0.000000 0.028516 0.000000 -0.003628
# 5 0.000174 -0.002445 0.001458 0.000000 0.015393 0.000000
# 6 0.000000 0.000000 0.000000 -0.003628 0.000000 0.012382
#
#
# Mechanical properties :
#
#
# Convention : Reuss Voigt Hill
#
# Bulk Modulus (GPa) = 53.93157 66.60483 60.26820
# Shear Modulus (GPa) = 45.87656 57.93259 51.90457
#
# Velocity S-wave (km/s) = 4.04654 4.54726 4.30419
# Velocity P-wave (km/s) = 6.40954 7.16541 6.79799
#
# Compressibility (1/GPa) = 0.01854202
#
# Stress axis : x y z
#
# Youngs Moduli (GPa) = 110.86481 55.94367 177.47682
#
# Poissons Ratio (x) = 0.26626 0.28092
# Poissons Ratio (y) = 0.52766 0.11562
# Poissons Ratio (z) = 0.17548 0.03645
#
# Static dielectric constant tensor:
#      x y z
#    x 2.163460 0.000000 0.150940 
#    y 0.000000 3.254680 0.000000 
#    z 0.150940 0.000000 2.041370 
# 
# From -- ./inp_files/20057.got.cif
#   From: 2010.05.17/outbox.cif.g08.bks.cpg/sg14_11_cif.got.tgz:20057.got - 2010.06.03 17:49:19.
