data_PCOD9253146
_publ_section_title
;
Structure prediction by ZEFSAII (Michael W. Deem and Ramdas Pophale) SiO2 
 PCOD9253146
Probable space group: P 21/C
;
_chemical_formula_sum "Si O2"
_cell_formula_units_Z 24
_cell_length_a 14.427437
_cell_length_b 8.303981
_cell_length_c 14.510305
_cell_angle_alpha 90.000000
_cell_angle_beta 38.392907
_cell_angle_gamma 90.000000
_cell_volume 1079.640506
_symmetry_space_group_name_H-M "P 21/C"
_symmetry_group_IT_number 14
_symmetry_cell_setting 'monoclinic'
loop_
_space_group_symop_operation_xyz
x,y,z
-x,1/2+y,1/2-z
-x,-y,-z
x,1/2-y,1/2+z
loop_
_atom_site_type_symbol
_atom_site_label
_atom_site_fract_x
_atom_site_fract_y
_atom_site_fract_z
Si Si1 0.597209 0.842340 0.941668
Si Si2 0.811309 0.646963 0.657202
Si Si3 0.667040 0.414503 0.089525
Si Si4 0.696197 0.335588 0.854124
Si Si5 0.338843 0.198829 0.907877
Si Si6 0.901417 0.159285 0.564758
O O1 0.706602 0.794401 0.774242
O O2 0.472276 0.701904 0.047330
O O3 0.684362 0.856276 0.969371
O O4 0.500000 0.000000 0.000000
O O5 0.756957 0.496564 0.758978
O O6 0.774604 0.627040 0.578285
O O7 0.981007 0.696293 0.540127
O O8 0.670918 0.608101 0.085726
O O9 0.504384 0.355906 0.248916
O O10 0.789912 0.354502 0.066028
O O11 0.695463 0.350987 0.964361
O O12 0.802338 0.195728 0.731980
O O13 0.000000 0.000000 0.500000
#
# Coordination Sequence:
#
# PCOD9253146 Si02
#       6
#     4   4   4   4   4   4
#     4  12  24  43  73 112 139 189 246 301 356 436
#     4  12  25  46  74 107 148 187 242 308 363 432
#     4  12  26  46  76 107 146 191 248 294 371 440
#     4  12  26  46  72 108 145 190 245 304 360 437
#     4  12  24  44  76 105 141 192 241 296 360 433
#     4  12  27  49  71 107 151 190 239 307 375 433
#
# _framework density 22.229621000000002
#
# number of rings (size 3 to 8) (size 9 to 14) (size 15 to 20)
#    0.000    0.000    6.667    4.000    0.000    2.667 
#    0.000    0.000    0.000    0.000    0.000    0.000 
#    0.000    0.000    0.000    0.000    0.000    0.000 
#
# Total GULP energy -134550.248707 kJ/mol
# GULP energy per Si atom -5606.260363 kJ/mol
# Density = 2.217903 g / cm^3
# Si number density = 22.229621 Si / 1000 Ang^3
#
#
#
# Elastic Constant Matrix: (Units=GPa)
#
#
# Indices 1 2 3 4 5 6 
#
# 1 117.7881 13.3532 -6.7365 0.0000 14.9649 0.0000
# 2 13.3532 50.8885 -2.5623 0.0000 0.4244 0.0000
# 3 -6.7365 -2.5623 44.7145 0.0000 4.9801 0.0000
# 4 0.0000 0.0000 0.0000 41.9746 0.0000 1.1832
# 5 14.9649 0.4244 4.9801 0.0000 49.3534 0.0000
# 6 0.0000 0.0000 0.0000 1.1832 0.0000 32.1399
#
#
#
# Elastic Compliance Matrix: (Units=1/GPa)
#
#
# Indices 1 2 3 4 5 6 
#
# 1 0.009215 -0.002314 0.001583 0.000000 -0.002934 0.000000
# 2 -0.002314 0.020293 0.000764 0.000000 0.000450 0.000000
# 3 0.001583 0.000764 0.022958 0.000000 -0.002803 0.000000
# 4 0.000000 0.000000 0.000000 0.023849 0.000000 -0.000878
# 5 -0.002934 0.000450 -0.002803 0.000000 0.021431 0.000000
# 6 0.000000 0.000000 0.000000 -0.000878 0.000000 0.031146
#
#
# Mechanical properties :
#
#
# Convention : Reuss Voigt Hill
#
# Bulk Modulus (GPa) = 19.03605 24.61111 21.82358
# Shear Modulus (GPa) = 34.16757 38.64937 36.40847
#
# Velocity S-wave (km/s) = 3.92475 4.17423 4.05141
# Velocity P-wave (km/s) = 5.39631 5.85897 5.63240
#
# Compressibility (1/GPa) = 0.05253192
#
# Stress axis : x y z
#
# Youngs Moduli (GPa) = 108.51364 49.27882 43.55688
#
# Poissons Ratio (x) = 0.11403 -0.06893
# Poissons Ratio (y) = 0.25110 -0.03328
# Poissons Ratio (z) = -0.17173 -0.03765
#
# Static dielectric constant tensor:
#      x y z
#    x 1.765150 0.000000 -0.008850 
#    y 0.000000 1.905490 0.000000 
#    z -0.008850 0.000000 1.788060 
# 
# From -- ./inp_files/46355.got.cif
#   From: 2010.05.17/outbox.cif.g08.bks.cpg/sg14_24_cif.got.tgz:46355.got - 2010.06.03 17:49:19.
