data_PCOD9253006
_publ_section_title
;
Structure prediction by ZEFSAII (Michael W. Deem and Ramdas Pophale) SiO2 
 PCOD9253006
Probable space group: P 21/C
;
_chemical_formula_sum "Si O2"
_cell_formula_units_Z 14
_cell_length_a 9.338525
_cell_length_b 7.278332
_cell_length_c 8.664244
_cell_angle_alpha 90.000000
_cell_angle_beta 122.162576
_cell_angle_gamma 90.000000
_cell_volume 498.527181
_symmetry_space_group_name_H-M "P 21/C"
_symmetry_group_IT_number 14
_symmetry_cell_setting 'monoclinic'
loop_
_space_group_symop_operation_xyz
x,y,z
-x,1/2+y,1/2-z
-x,-y,-z
x,1/2-y,1/2+z
loop_
_atom_site_type_symbol
_atom_site_label
_atom_site_fract_x
_atom_site_fract_y
_atom_site_fract_z
Si Si1 0.197854 0.878127 0.727804
Si Si2 0.176149 0.336792 0.950249
Si Si3 0.324728 0.559037 0.595369
Si Si4 0.500000 0.500000 0.000000
O O1 0.219165 0.715190 0.619509
O O2 0.019218 0.852543 0.710065
O O3 0.186575 0.063234 0.622959
O O4 0.354074 0.856794 0.939286
O O5 0.230663 0.127548 0.001572
O O6 0.302787 0.430806 0.902328
O O7 0.479152 0.518948 0.797023
#
# Coordination Sequence:
#
# PCOD9253006 Si02
#       4
#     4   4   4   2
#     4  11  28  50  84 113 155 215 280 316 404 486
#     4  11  28  52  79 119 156 213 267 340 396 483
#     4  12  28  51  80 117 163 210 265 336 394 491
#     4  12  30  48  78 122 160 206 264 330 422 452
#
# _framework density 28.082719000000001
#
# number of rings (size 3 to 8) (size 9 to 14) (size 15 to 20)
#    0.000    0.571    0.000    4.286   24.000    1.143 
#    0.000    0.000    0.000    0.000    0.000    0.000 
#    0.000    0.000    0.000    0.000    0.000    0.000 
#
# Total GULP energy -78212.754264 kJ/mol
# GULP energy per Si atom -5586.625305 kJ/mol
# Density = 2.801880 g / cm^3
# Si number density = 28.082719 Si / 1000 Ang^3
#
#
#
# Elastic Constant Matrix: (Units=GPa)
#
#
# Indices 1 2 3 4 5 6 
#
# 1 130.4893 9.5496 12.6513 0.0000 10.0372 0.0000
# 2 9.5496 125.4998 11.2182 0.0000 -17.0576 0.0000
# 3 12.6513 11.2182 215.0847 0.0000 -23.0742 0.0000
# 4 0.0000 0.0000 0.0000 44.1222 0.0000 -17.6849
# 5 10.0372 -17.0576 -23.0742 0.0000 38.2345 0.0000
# 6 0.0000 0.0000 0.0000 -17.6849 0.0000 24.0594
#
#
#
# Elastic Compliance Matrix: (Units=1/GPa)
#
#
# Indices 1 2 3 4 5 6 
#
# 1 0.008034 -0.000950 -0.000743 0.000000 -0.002981 0.000000
# 2 -0.000950 0.008595 0.000049 0.000000 0.004114 0.000000
# 3 -0.000743 0.000049 0.005040 0.000000 0.003258 0.000000
# 4 0.000000 0.000000 0.000000 0.032131 0.000000 0.023618
# 5 -0.002981 0.004114 0.003258 0.000000 0.030739 0.000000
# 6 0.000000 0.000000 0.000000 0.023618 0.000000 0.058924
#
#
# Mechanical properties :
#
#
# Convention : Reuss Voigt Hill
#
# Bulk Modulus (GPa) = 54.40321 59.76799 57.08560
# Shear Modulus (GPa) = 32.70574 50.46020 41.58297
#
# Velocity S-wave (km/s) = 3.41636 4.24352 3.85220
# Velocity P-wave (km/s) = 5.91410 6.73342 6.33701
#
# Compressibility (1/GPa) = 0.01838127
#
# Stress axis : x y z
#
# Youngs Moduli (GPa) = 124.46557 116.34443 198.41099
#
# Poissons Ratio (x) = 0.11055 0.14739
# Poissons Ratio (y) = 0.11826 -0.00970
# Poissons Ratio (z) = 0.09246 -0.00569
#
# Static dielectric constant tensor:
#      x y z
#    x 2.165900 0.000000 -0.025320 
#    y 0.000000 6.871540 0.000000 
#    z -0.025320 0.000000 2.044680 
# 
# From -- ./inp_files/7141.got.cif
#   From: 2010.05.17/outbox.cif.g08.bks.cpg/sg14_4_cif.got.tgz:7141.got - 2010.06.03 17:49:19.
