data_PCOD9253181
_publ_section_title
;
Structure prediction by ZEFSAII (Michael W. Deem and Ramdas Pophale) SiO2 
 PCOD9253181
Probable space group: P 21/C
;
_chemical_formula_sum "Si O2"
_cell_formula_units_Z 18
_cell_length_a 7.244753
_cell_length_b 8.083173
_cell_length_c 14.632265
_cell_angle_alpha 90.000000
_cell_angle_beta 46.717273
_cell_angle_gamma 90.000000
_cell_volume 623.786759
_symmetry_space_group_name_H-M "P 21/C"
_symmetry_group_IT_number 14
_symmetry_cell_setting 'monoclinic'
loop_
_space_group_symop_operation_xyz
x,y,z
-x,1/2+y,1/2-z
-x,-y,-z
x,1/2-y,1/2+z
loop_
_atom_site_type_symbol
_atom_site_label
_atom_site_fract_x
_atom_site_fract_y
_atom_site_fract_z
Si Si1 0.752486 0.403847 0.936364
Si Si2 0.893829 0.033277 0.136562
Si Si3 0.573393 0.776665 0.184954
Si Si4 0.209423 0.568013 0.688818
Si Si5 0.000000 0.500000 0.000000
O O1 0.779934 0.242890 0.866471
O O2 0.000941 0.523575 0.837895
O O3 0.500000 0.500000 0.000000
O O4 0.794496 0.367920 0.027051
O O5 0.687145 0.176574 0.214675
O O6 0.114532 0.049582 0.138199
O O7 0.728728 0.865974 0.213261
O O8 0.000000 0.000000 0.000000
O O9 0.473368 0.928443 0.153567
O O10 0.772931 0.646597 0.076473
#
# Coordination Sequence:
#
# PCOD9253181 Si02
#       5
#     4   4   4   4   2
#     4  12  26  49  76 108 157 203 257 322 394 461
#     4  12  30  50  79 116 155 209 263 324 394 470
#     4  12  28  49  80 112 161 205 268 323 394 472
#     4  12  26  49  75 116 151 202 262 321 386 469
#     4  12  24  48  76 108 154 210 244 320 396 458
#
# _framework density 28.856016
#
# number of rings (size 3 to 8) (size 9 to 14) (size 15 to 20)
#    0.000    0.000    6.667    1.333    6.222    2.667 
#    0.000    0.000    0.000    0.000    0.000    0.000 
#    0.000    0.000    0.000    0.000    0.000    0.000 
#
# Total GULP energy -100306.914803 kJ/mol
# GULP energy per Si atom -5572.606378 kJ/mol
# Density = 2.879034 g / cm^3
# Si number density = 28.856016 Si / 1000 Ang^3
#
#
#
# Elastic Constant Matrix: (Units=GPa)
#
#
# Indices 1 2 3 4 5 6 
#
# 1 178.2813 9.0754 16.4292 0.0000 -43.8880 0.0000
# 2 9.0754 77.9368 20.9798 0.0000 -9.0214 0.0000
# 3 16.4292 20.9798 114.7002 0.0000 -39.1655 0.0000
# 4 0.0000 0.0000 0.0000 61.3136 0.0000 -7.7665
# 5 -43.8880 -9.0214 -39.1655 0.0000 43.9130 0.0000
# 6 0.0000 0.0000 0.0000 -7.7665 0.0000 53.3411
#
#
#
# Elastic Compliance Matrix: (Units=1/GPa)
#
#
# Indices 1 2 3 4 5 6 
#
# 1 0.007827 -0.000396 0.002293 0.000000 0.009786 0.000000
# 2 -0.000396 0.013536 -0.002307 0.000000 0.000327 0.000000
# 3 0.002293 -0.002307 0.013563 0.000000 0.013915 0.000000
# 4 0.000000 0.000000 0.000000 0.016616 0.000000 0.002419
# 5 0.009786 0.000327 0.013915 0.000000 0.045031 0.000000
# 6 0.000000 0.000000 0.000000 0.002419 0.000000 0.019100
#
#
# Mechanical properties :
#
#
# Convention : Reuss Voigt Hill
#
# Bulk Modulus (GPa) = 29.32064 51.54301 40.43183
# Shear Modulus (GPa) = 39.10468 53.34244 46.22356
#
# Velocity S-wave (km/s) = 3.68525 4.30417 4.00668
# Velocity P-wave (km/s) = 5.31894 6.52703 5.95371
#
# Compressibility (1/GPa) = 0.03410567
#
# Stress axis : x y z
#
# Youngs Moduli (GPa) = 127.76111 73.87690 73.72853
#
# Poissons Ratio (x) = 0.02925 -0.16906
# Poissons Ratio (y) = 0.05058 0.17013
# Poissons Ratio (z) = -0.29295 0.17047
#
# Static dielectric constant tensor:
#      x y z
#    x 1.762280 0.000000 -0.317540 
#    y 0.000000 2.367600 0.000000 
#    z -0.317540 0.000000 1.854260 
# 
# From -- ./inp_files/64305.got.cif
#   From: 2010.05.17/outbox.cif.g08.bks.cpg/sg14_33_cif.got.tgz:64305.got - 2010.06.03 17:49:19.
