data_PCOD9253364
_publ_section_title
;
Structure prediction by ZEFSAII (Michael W. Deem and Ramdas Pophale) SiO2 
 PCOD9253364
Probable space group: P 21/C
;
_chemical_formula_sum "Si O2"
_cell_formula_units_Z 16
_cell_length_a 9.987637
_cell_length_b 5.530012
_cell_length_c 28.642758
_cell_angle_alpha 90.000000
_cell_angle_beta 155.827076
_cell_angle_gamma 90.000000
_cell_volume 647.812058
_symmetry_space_group_name_H-M "P 21/C"
_symmetry_group_IT_number 14
_symmetry_cell_setting 'monoclinic'
loop_
_space_group_symop_operation_xyz
x,y,z
-x,1/2+y,1/2-z
-x,-y,-z
x,1/2-y,1/2+z
loop_
_atom_site_type_symbol
_atom_site_label
_atom_site_fract_x
_atom_site_fract_y
_atom_site_fract_z
Si Si1 0.539828 0.865954 0.061767
Si Si2 0.207759 0.997687 0.518088
Si Si3 0.221073 0.819640 0.777357
Si Si4 0.655435 0.156847 0.285240
O O1 0.246391 0.735102 0.996372
O O2 0.835764 0.681325 0.146476
O O3 0.697779 0.037756 0.150607
O O4 0.500000 0.000000 0.000000
O O5 0.015549 0.181228 0.422716
O O6 0.573330 0.072996 0.649542
O O7 0.000000 0.000000 0.500000
O O8 0.359773 0.923984 0.773417
O O9 0.499381 0.923745 0.261081
#
# Coordination Sequence:
#
# PCOD9253364 Si02
#       4
#     4   4   4   4
#     4  12  29  48  81 118 166 217 280 344 428 503
#     4  12  27  50  81 115 162 220 278 348 422 506
#     4  12  27  48  78 115 164 212 276 345 418 502
#     4  12  29  49  82 120 165 215 280 345 420 499
#
# _framework density 24.698519999999998
#
# number of rings (size 3 to 8) (size 9 to 14) (size 15 to 20)
#    0.000    0.000    5.000    3.000   10.500    4.000 
#    0.000    0.000    0.000    0.000    0.000    0.000 
#    0.000    0.000    0.000    0.000    0.000    0.000 
#
# Total GULP energy -89329.482173 kJ/mol
# GULP energy per Si atom -5583.092636 kJ/mol
# Density = 2.464230 g / cm^3
# Si number density = 24.698520 Si / 1000 Ang^3
#
#
#
# Elastic Constant Matrix: (Units=GPa)
#
#
# Indices 1 2 3 4 5 6 
#
# 1 157.6968 19.9409 9.3517 0.0000 -27.4669 0.0000
# 2 19.9409 51.6441 -6.5584 0.0000 8.5177 0.0000
# 3 9.3517 -6.5584 74.2033 0.0004 -11.3635 0.0000
# 4 0.0000 0.0000 0.0004 30.4026 0.0000 -11.3641
# 5 -27.4669 8.5177 -11.3635 0.0000 53.6343 0.0000
# 6 0.0000 0.0000 0.0000 -11.3641 0.0000 43.5889
#
#
#
# Elastic Compliance Matrix: (Units=1/GPa)
#
#
# Indices 1 2 3 4 5 6 
#
# 1 0.007610 -0.003736 -0.000622 0.000000 0.004359 0.000000
# 2 -0.003736 0.021844 0.001630 0.000000 -0.005037 0.000000
# 3 -0.000622 0.001630 0.014067 0.000000 0.002403 0.000000
# 4 0.000000 0.000000 0.000000 0.036443 0.000000 0.009501
# 5 0.004359 -0.005037 0.002403 0.000000 0.022186 0.000000
# 6 0.000000 0.000000 0.000000 0.009501 0.000000 0.025419
#
#
# Mechanical properties :
#
#
# Convention : Reuss Voigt Hill
#
# Bulk Modulus (GPa) = 26.27095 36.55693 31.41394
# Shear Modulus (GPa) = 34.31424 42.91250 38.61337
#
# Velocity S-wave (km/s) = 3.73141 4.17280 3.95826
# Velocity P-wave (km/s) = 5.40595 6.16845 5.79974
#
# Compressibility (1/GPa) = 0.03806485
#
# Stress axis : x y z
#
# Youngs Moduli (GPa) = 131.41000 45.77985 71.08865
#
# Poissons Ratio (x) = 0.17104 0.04420
# Poissons Ratio (y) = 0.49097 -0.11588
# Poissons Ratio (z) = 0.08171 -0.07463
#
# Static dielectric constant tensor:
#      x y z
#    x 1.970740 0.000000 0.075700 
#    y 0.000000 2.192700 0.000000 
#    z 0.075700 0.000000 2.009980 
# 
# From -- ./inp_files/38421.got.cif
#   From: 2010.05.17/outbox.cif.g08.bks.cpg/sg14_20_cif.got.tgz:38421.got - 2010.06.03 17:49:19.
