data_PCOD9253615
_publ_section_title
;
Structure prediction by ZEFSAII (Michael W. Deem and Ramdas Pophale) SiO2 
 PCOD9253615
Probable space group: P 21/C
;
_chemical_formula_sum "Si O2"
_cell_formula_units_Z 28
_cell_length_a 12.000000
_cell_length_b 9.000000
_cell_length_c 21.000000
_cell_angle_alpha 90.000000
_cell_angle_beta 140.000000
_cell_angle_gamma 90.000000
_cell_volume 1457.842299
_symmetry_space_group_name_H-M "P 21/C"
_symmetry_group_IT_number 14
_symmetry_cell_setting 'monoclinic'
loop_
_space_group_symop_operation_xyz
x,y,z
-x,1/2+y,1/2-z
-x,-y,-z
x,1/2-y,1/2+z
loop_
_atom_site_type_symbol
_atom_site_label
_atom_site_fract_x
_atom_site_fract_y
_atom_site_fract_z
Si Si1 0.877471 0.773600 0.877572
Si Si2 0.614632 0.431260 0.109103
Si Si3 0.079595 0.824329 0.098132
Si Si4 0.724088 0.022413 0.287903
Si Si5 0.000283 0.516829 0.320869
Si Si6 0.347515 0.574272 0.390353
Si Si7 0.580884 0.520998 0.240354
O O1 0.869122 0.599741 0.865556
O O2 0.971683 0.846659 0.857790
O O3 0.672857 0.818036 0.782091
O O4 0.966411 0.815433 0.984064
O O5 0.816589 0.488745 0.203371
O O6 0.623186 0.252871 0.102761
O O7 0.542920 0.471782 0.149963
O O8 0.500000 0.500000 0.000000
O O9 0.171978 0.673684 0.157590
O O10 0.979793 0.885032 0.117404
O O11 0.248373 0.929267 0.162655
O O12 0.657122 0.015090 0.185142
O O13 0.573326 0.013426 0.276142
O O14 0.163532 0.540102 0.345762
O O15 0.500000 0.500000 0.500000
#
# Coordination Sequence:
#
# PCOD9253615 Si02
#       7
#     4   4   4   4   4   4   4
#     4  10  23  38  70  95 123 177 217 267 343 391
#     4  10  24  49  69 100 133 183 220 275 345 388
#     4  10  21  44  66  94 131 175 217 275 340 382
#     4  12  24  41  63 103 133 164 228 272 330 401
#     4  10  24  47  66  93 141 174 221 281 326 408
#     4  12  29  42  68 100 133 181 226 277 338 395
#     4  10  22  43  67  92 135 170 218 280 322 404
#
# _framework density 19.206467
#
# number of rings (size 3 to 8) (size 9 to 14) (size 15 to 20)
#    0.000    1.714    2.857    3.000   10.000    1.143 
#    2.571    0.000    0.000    0.000    0.000    0.000 
#    0.000    0.000    0.000    0.000    0.000    0.000 
#
# Total GULP energy -156088.140057 kJ/mol
# GULP energy per Si atom -5574.576431 kJ/mol
# Density = 1.916275 g / cm^3
# Si number density = 19.206467 Si / 1000 Ang^3
#
#
#
# Elastic Constant Matrix: (Units=GPa)
#
#
# Indices 1 2 3 4 5 6 
#
# 1 178.5396 32.6165 63.3234 0.0000 -15.2117 0.0000
# 2 32.6165 61.1259 22.2450 0.0000 -3.7353 0.0000
# 3 63.3234 22.2450 157.7268 0.0000 -31.9510 0.0000
# 4 0.0000 0.0000 0.0000 37.9512 0.0000 -8.7447
# 5 -15.2117 -3.7353 -31.9510 0.0000 32.8645 0.0000
# 6 0.0000 0.0000 0.0000 -8.7447 0.0000 9.5595
#
#
#
# Elastic Compliance Matrix: (Units=1/GPa)
#
#
# Indices 1 2 3 4 5 6 
#
# 1 0.006985 -0.002863 -0.002256 0.000000 0.000715 0.000000
# 2 -0.002863 0.018425 -0.001611 0.000000 -0.000797 0.000000
# 3 -0.002256 -0.001611 0.008996 0.000000 0.007519 0.000000
# 4 0.000000 0.000000 0.000000 0.033387 0.000000 0.030541
# 5 0.000715 -0.000797 0.007519 0.000000 0.037978 0.000000
# 6 0.000000 0.000000 0.000000 0.030541 0.000000 0.132547
#
#
# Mechanical properties :
#
#
# Convention : Reuss Voigt Hill
#
# Bulk Modulus (GPa) = 47.73850 70.41803 59.07827
# Shear Modulus (GPa) = 19.32313 34.68886 27.00599
#
# Velocity S-wave (km/s) = 3.17531 4.25444 3.75385
# Velocity P-wave (km/s) = 6.19297 7.80237 7.04378
#
# Compressibility (1/GPa) = 0.02094745
#
# Stress axis : x y z
#
# Youngs Moduli (GPa) = 143.16621 54.27532 111.16097
#
# Poissons Ratio (x) = 0.15536 0.25076
# Poissons Ratio (y) = 0.40981 0.17905
# Poissons Ratio (z) = 0.32295 0.08742
#
# Static dielectric constant tensor:
#      x y z
#    x 1.659390 0.000000 0.002270 
#    y 0.000000 1.774650 0.000000 
#    z 0.002270 0.000000 1.646760 
# 
# From -- ./inp_files/67098.got.cif
#   From: 2010.05.17/outbox.ucp.g08.bks.cvg/sg14_34_cif.got.tgz:67098.got - 2010.06.11 12:31:08.
