data_PCOD9253923
_publ_section_title
;
Structure prediction by ZEFSAII (Michael W. Deem and Ramdas Pophale) SiO2 
 PCOD9253923
Probable space group: C 2/C
;
_chemical_formula_sum "Si O2"
_cell_formula_units_Z 48
_cell_length_a 14.590654
_cell_length_b 26.513238
_cell_length_c 5.395456
_cell_angle_alpha 90.000000
_cell_angle_beta 78.165245
_cell_angle_gamma 90.000000
_cell_volume 2042.840343
_symmetry_space_group_name_H-M "C 2/C"
_symmetry_group_IT_number 15
_symmetry_cell_setting 'monoclinic'
loop_
_space_group_symop_operation_xyz
x,y,z
-x,y,1/2-z
-x,-y,-z
x,-y,1/2+z
1/2+x,1/2+y,z
1/2-x,1/2+y,1/2-z
1/2-x,1/2-y,-z
1/2+x,1/2-y,1/2+z
loop_
_atom_site_type_symbol
_atom_site_label
_atom_site_fract_x
_atom_site_fract_y
_atom_site_fract_z
Si Si1 0.558074 0.209491 0.971516
Si Si2 0.295484 0.131109 0.465210
Si Si3 0.385715 0.525411 0.481550
Si Si4 0.890508 0.863484 0.161104
Si Si5 0.826463 0.485232 0.878657
Si Si6 0.864391 0.814287 0.676161
O O1 0.500000 0.223083 0.250000
O O2 0.610554 0.157970 0.006410
O O3 0.500000 0.205248 0.750000
O O4 0.629461 0.255760 0.889159
O O5 0.222099 0.132794 0.731837
O O6 0.304893 0.073892 0.375471
O O7 0.240766 0.164372 0.290293
O O8 0.414403 0.486600 0.683760
O O9 0.415046 0.580359 0.559625
O O10 0.272009 0.516879 0.545045
O O11 0.917654 0.845478 0.425041
O O12 0.903808 0.825686 0.925618
O O13 0.876856 0.495845 0.107445
#
# Coordination Sequence:
#
# PCOD9253923 Si02
#       6
#     8   8   8   8   8   8
#     4  12  28  44  59  82 119 160 199 247 298 344
#     4  10  23  36  66  86 119 152 201 239 289 348
#     4  10  15  26  45  86 125 145 165 231 300 326
#     4  10  19  31  61  91 115 145 195 239 291 338
#     4  10  17  29  52  88 119 147 178 238 294 327
#     4  10  21  39  61  85 113 148 201 248 292 345
#
# _framework density 23.496696
#
# number of rings (size 3 to 8) (size 9 to 14) (size 15 to 20)
#    1.000    0.667    3.333    4.500    2.333    0.667 
#    0.000    0.000    0.000    3.000    0.000    0.000 
#    0.000  162.667    0.000    0.000    0.000    0.000 
#
# Total GULP energy -134069.136520 kJ/mol
# GULP energy per Si atom -5586.214022 kJ/mol
# Density = 2.344322 g / cm^3
# Si number density = 23.496696 Si / 1000 Ang^3
#
#
#
# Elastic Constant Matrix: (Units=GPa)
#
#
# Indices 1 2 3 4 5 6 
#
# 1 28.5940 20.6112 23.0988 0.0000 13.7353 0.0000
# 2 20.6112 94.4302 15.5596 0.0000 17.5553 0.0000
# 3 23.0988 15.5596 154.4195 0.0000 36.1133 0.0000
# 4 0.0000 0.0000 0.0000 27.5963 0.0000 9.3933
# 5 13.7353 17.5553 36.1133 0.0000 18.3914 0.0000
# 6 0.0000 0.0000 0.0000 9.3933 0.0000 7.4472
#
#
#
# Elastic Compliance Matrix: (Units=1/GPa)
#
#
# Indices 1 2 3 4 5 6 
#
# 1 0.056951 -0.005140 0.001476 0.000000 -0.040526 0.000000
# 2 -0.005140 0.014090 0.002953 0.000000 -0.015408 0.000000
# 3 0.001476 0.002953 0.012712 0.000000 -0.028883 0.000000
# 4 0.000000 0.000000 0.000000 0.063498 0.000000 -0.080091
# 5 -0.040526 -0.015408 -0.028883 0.000000 0.156061 0.000000
# 6 0.000000 0.000000 0.000000 -0.080091 0.000000 0.235298
#
#
# Mechanical properties :
#
#
# Convention : Reuss Voigt Hill
#
# Bulk Modulus (GPa) = 12.14601 43.99813 28.07207
# Shear Modulus (GPa) = 8.81094 25.23192 17.02143
#
# Velocity S-wave (km/s) = 1.93856 3.28052 2.69442
# Velocity P-wave (km/s) = 3.19236 5.75456 4.65328
#
# Compressibility (1/GPa) = 0.08233157
#
# Stress axis : x y z
#
# Youngs Moduli (GPa) = 17.55881 70.97363 78.66503
#
# Poissons Ratio (x) = 0.36480 -0.11614
# Poissons Ratio (y) = 0.09025 -0.23227
# Poissons Ratio (z) = -0.02592 -0.20956
#
# Static dielectric constant tensor:
#      x y z
#    x 1.989200 0.000000 0.031540 
#    y 0.000000 1.832010 0.000000 
#    z 0.031540 0.000000 1.926620 
# 
# From -- ./inp_files/10733.got.cif
#   From: 2010.05.17/outbox.cif.g08.bks.cpg/sg15_6_cif.got.tgz:10733.got - 2010.06.03 18:47:42.
