data_PCOD9253104
_publ_section_title
;
Structure prediction by ZEFSAII (Michael W. Deem and Ramdas Pophale) SiO2 
 PCOD9253104
Probable space group: P 21/C
;
_chemical_formula_sum "Si O2"
_cell_formula_units_Z 16
_cell_length_a 7.862674
_cell_length_b 16.410132
_cell_length_c 9.592006
_cell_angle_alpha 90.000000
_cell_angle_beta 147.945127
_cell_angle_gamma 90.000000
_cell_volume 656.850315
_symmetry_space_group_name_H-M "P 21/C"
_symmetry_group_IT_number 14
_symmetry_cell_setting 'monoclinic'
loop_
_space_group_symop_operation_xyz
x,y,z
-x,1/2+y,1/2-z
-x,-y,-z
x,1/2-y,1/2+z
loop_
_atom_site_type_symbol
_atom_site_label
_atom_site_fract_x
_atom_site_fract_y
_atom_site_fract_z
Si Si1 0.847323 0.227674 0.436566
Si Si2 0.913012 0.013380 0.100398
Si Si3 0.878428 0.674330 0.596039
Si Si4 0.209847 0.428963 0.073385
O O1 0.963273 0.309849 0.444119
O O2 0.065349 0.156883 0.519240
O O3 0.480571 0.207684 0.152315
O O4 0.912809 0.222338 0.645622
O O5 0.872947 0.920765 0.127607
O O6 0.574269 0.059144 0.872766
O O7 0.000000 0.000000 0.000000
O O8 0.167463 0.057211 0.377713
O O9 0.000000 0.500000 0.000000
#
# Coordination Sequence:
#
# PCOD9253104 Si02
#       4
#     4   4   4   4
#     4  12  27  44  71  96 140 175 223 271 338 397
#     4  12  26  43  71 100 135 171 229 278 326 388
#     4  12  26  46  65 102 134 178 219 274 331 403
#     4  12  23  46  71  96 129 181 221 274 327 394
#
# _framework density 24.358671000000001
#
# number of rings (size 3 to 8) (size 9 to 14) (size 15 to 20)
#    0.000    0.000    5.000    4.500    7.000    0.000 
#    0.000    0.000    0.000    0.000    0.000    0.000 
#    0.000    0.000    0.000    0.000    0.000    0.000 
#
# Total GULP energy -89797.507925 kJ/mol
# GULP energy per Si atom -5612.344245 kJ/mol
# Density = 2.430323 g / cm^3
# Si number density = 24.358671 Si / 1000 Ang^3
#
#
#
# Elastic Constant Matrix: (Units=GPa)
#
#
# Indices 1 2 3 4 5 6 
#
# 1 50.7208 5.7009 -13.2556 0.0000 -19.2539 0.0000
# 2 5.7009 67.9453 12.2886 0.0000 10.4581 0.0000
# 3 -13.2556 12.2886 92.0717 0.0000 -15.6991 0.0000
# 4 0.0000 0.0000 0.0000 -8.6984 0.0000 -19.8517
# 5 -19.2539 10.4581 -15.6991 0.0000 44.4228 0.0000
# 6 0.0000 0.0000 0.0000 -19.8517 0.0000 43.3278
#
#
#
# Elastic Compliance Matrix: (Units=1/GPa)
#
#
# Indices 1 2 3 4 5 6 
#
# 1 0.028887 -0.006440 0.007887 0.000000 0.016824 0.000000
# 2 -0.006440 0.017428 -0.004713 0.000000 -0.008559 0.000000
# 3 0.007887 -0.004713 0.014257 0.000000 0.009566 0.000000
# 4 0.000000 0.000000 0.000000 -0.056199 0.000000 -0.025749
# 5 0.016824 -0.008559 0.009566 0.000000 0.035199 0.000000
# 6 0.000000 0.000000 0.000000 -0.025749 0.000000 0.011282
#
#
# Mechanical properties :
#
#
# Convention : Reuss Voigt Hill
#
# Bulk Modulus (GPa) = 18.50448 24.46729 21.48589
# Shear Modulus (GPa) = 66.31450 29.54402 47.92926
#
# Velocity S-wave (km/s) = 5.22334 3.48641 4.44063
# Velocity P-wave (km/s) = 6.63256 5.12574 5.92723
#
# Compressibility (1/GPa) = 0.05404097
#
# Stress axis : x y z
#
# Youngs Moduli (GPa) = 34.61744 57.37943 70.14243
#
# Poissons Ratio (x) = 0.36951 -0.55321
# Poissons Ratio (y) = 0.22293 0.33056
# Poissons Ratio (z) = -0.27303 0.27041
#
# Static dielectric constant tensor:
#      x y z
#    x 1.928880 0.000000 -0.061660 
#    y 0.000000 1.822530 0.000000 
#    z -0.061660 0.000000 1.857950 
# 
# From -- ./inp_files/5183.got.cif
#   From: 2010.05.17/outbox.cif.g08.bks.cpg/sg14_3_cif.got.tgz:5183.got - 2010.06.03 17:49:19.
