data_PCOD9253718
_publ_section_title
;
Structure prediction by ZEFSAII (Michael W. Deem and Ramdas Pophale) SiO2 
 PCOD9253718
Probable space group: P 21/C
;
_chemical_formula_sum "Si O2"
_cell_formula_units_Z 32
_cell_length_a 12.000000
_cell_length_b 18.000000
_cell_length_c 15.000000
_cell_angle_alpha 90.000000
_cell_angle_beta 150.000000
_cell_angle_gamma 90.000000
_cell_volume 1620.000000
_symmetry_space_group_name_H-M "P 21/C"
_symmetry_group_IT_number 14
_symmetry_cell_setting 'monoclinic'
loop_
_space_group_symop_operation_xyz
x,y,z
-x,1/2+y,1/2-z
-x,-y,-z
x,1/2-y,1/2+z
loop_
_atom_site_type_symbol
_atom_site_label
_atom_site_fract_x
_atom_site_fract_y
_atom_site_fract_z
Si Si1 0.806658 0.688247 0.304461
Si Si2 0.581319 0.420359 0.019123
Si Si3 0.096251 0.016628 0.366880
Si Si4 0.556147 0.838238 0.108976
Si Si5 0.737899 0.980391 0.330323
Si Si6 0.037467 0.819724 0.778782
Si Si7 0.017603 0.672053 0.642006
Si Si8 0.681420 0.576324 0.526331
O O1 0.652352 0.759960 0.203264
O O2 0.962060 0.700494 0.325980
O O3 0.949023 0.681293 0.492205
O O4 0.635110 0.620132 0.170195
O O5 0.775098 0.448196 0.088458
O O6 0.729415 0.361425 0.178773
O O7 0.500000 0.500000 0.000000
O O8 0.258529 0.027530 0.562447
O O9 0.080756 0.100444 0.319427
O O10 0.840196 0.984394 0.188162
O O11 0.682770 0.902321 0.249162
O O12 0.604155 0.859268 0.039943
O O13 0.296890 0.838284 0.950320
O O14 0.544282 0.036698 0.164554
O O15 0.000000 0.000000 0.500000
O O16 0.999363 0.749953 0.684916
O O17 0.835982 0.614474 0.558365
#
# Coordination Sequence:
#
# PCOD9253718 Si02
#       8
#     4   4   4   4   4   4   4   4
#     4  12  26  48  69 100 141 184 235 284 341 418
#     4  11  24  46  70 100 141 181 230 287 336 408
#     4  11  23  42  70  99 139 176 224 284 344 408
#     4  12  24  45  69  99 143 177 225 294 346 405
#     4  12  23  39  69 105 132 179 225 271 356 417
#     4  12  24  47  70 101 141 179 232 289 343 411
#     4  11  26  47  72 100 137 189 228 281 355 405
#     4  11  23  45  68 101 140 173 223 290 341 410
#
# _framework density 19.753086
#
# number of rings (size 3 to 8) (size 9 to 14) (size 15 to 20)
#    0.000    0.500    6.250    2.625    0.000    1.500 
#    6.750    0.000    0.000    0.000    0.000    0.000 
#    0.000    0.000    0.000    0.000    0.000    0.000 
#
# Total GULP energy -178271.241046 kJ/mol
# GULP energy per Si atom -5570.976283 kJ/mol
# Density = 1.970813 g / cm^3
# Si number density = 19.753086 Si / 1000 Ang^3
#
#
#
# Elastic Constant Matrix: (Units=GPa)
#
#
# Indices 1 2 3 4 5 6 
#
# 1 31.6823 33.5480 99.3401 0.0000 4.4852 0.0000
# 2 33.5480 88.5183 -2.1809 0.0000 -26.0730 0.0000
# 3 99.3401 -2.1809 33.0767 0.0000 -37.4258 0.0000
# 4 0.0000 0.0000 0.0000 36.1291 0.0000 0.1467
# 5 4.4852 -26.0730 -37.4258 0.0000 27.0276 0.0000
# 6 0.0000 0.0000 0.0000 0.1467 0.0000 15.6059
#
#
#
# Elastic Compliance Matrix: (Units=1/GPa)
#
#
# Indices 1 2 3 4 5 6 
#
# 1 0.002486 0.003121 0.007625 0.000000 0.013157 0.000000
# 2 0.003121 0.010982 -0.004856 0.000000 0.003353 0.000000
# 3 0.007625 -0.004856 -0.000493 0.000000 -0.006632 0.000000
# 4 0.000000 0.000000 0.000000 0.027680 0.000000 -0.000260
# 5 0.013157 0.003353 -0.006632 0.000000 0.028867 0.000000
# 6 0.000000 0.000000 0.000000 -0.000260 0.000000 0.064081
#
#
# Mechanical properties :
#
#
# Convention : Reuss Voigt Hill
#
# Bulk Modulus (GPa) = 40.39165 46.07684 43.23425
# Shear Modulus (GPa) = 38.43965 17.25718 27.84842
#
# Velocity S-wave (km/s) = 4.41614 2.95895 3.75884
# Velocity P-wave (km/s) = 6.81878 5.92038 6.38540
#
# Compressibility (1/GPa) = 0.02475759
#
# Stress axis : x y z
#
# Youngs Moduli (GPa) = 402.18016 91.05633 -2029.35811
#
# Poissons Ratio (x) = -0.28419 15.47466
# Poissons Ratio (y) = -1.25520 -9.85362
# Poissons Ratio (z) = -3.06678 0.44213
#
# Static dielectric constant tensor:
#      x y z
#    x 1.520530 0.000000 0.062580 
#    y 0.000000 1.729980 0.000000 
#    z 0.062580 0.000000 1.652020 
# 
# From -- ./inp_files/45461.got.cif
#   From: 2010.05.17/outbox.ucp.g08.bks.cvg/sg14_23_cif.got.tgz:45461.got - 2010.06.11 12:31:08.
