data_PCOD9253106
_publ_section_title
;
Structure prediction by ZEFSAII (Michael W. Deem and Ramdas Pophale) SiO2 
 PCOD9253106
Probable space group: P 21/C
;
_chemical_formula_sum "Si O2"
_cell_formula_units_Z 32
_cell_length_a 18.646112
_cell_length_b 14.278893
_cell_length_c 12.058789
_cell_angle_alpha 90.000000
_cell_angle_beta 25.783928
_cell_angle_gamma 90.000000
_cell_volume 1396.543120
_symmetry_space_group_name_H-M "P 21/C"
_symmetry_group_IT_number 14
_symmetry_cell_setting 'monoclinic'
loop_
_space_group_symop_operation_xyz
x,y,z
-x,1/2+y,1/2-z
-x,-y,-z
x,1/2-y,1/2+z
loop_
_atom_site_type_symbol
_atom_site_label
_atom_site_fract_x
_atom_site_fract_y
_atom_site_fract_z
Si Si1 0.340166 0.515862 0.803844
Si Si2 0.927279 0.604443 0.102429
Si Si3 0.478332 0.845886 0.732652
Si Si4 0.780165 0.160826 0.107064
Si Si5 0.744779 0.348584 0.261272
Si Si6 0.363338 0.533670 0.027528
Si Si7 0.839927 0.830116 0.483868
Si Si8 0.361559 0.177118 0.853140
O O1 0.500000 0.500000 0.500000
O O2 0.234156 0.585531 0.874019
O O3 0.358057 0.557477 0.902682
O O4 0.244647 0.419116 0.956256
O O5 0.788718 0.619674 0.385118
O O6 0.849262 0.637662 0.097205
O O7 0.000000 0.500000 0.000000
O O8 0.085972 0.665397 0.909945
O O9 0.329281 0.843577 0.851692
O O10 0.559251 0.748672 0.663833
O O11 0.605657 0.923008 0.511061
O O12 0.390738 0.887146 0.965415
O O13 0.695431 0.246728 0.289776
O O14 0.776124 0.071501 0.195092
O O15 0.970893 0.184364 0.816166
O O16 0.516729 0.596002 0.855996
O O17 0.720845 0.743420 0.624627
#
# Coordination Sequence:
#
# PCOD9253106 Si02
#       8
#     4   4   4   4   4   4   4   4
#     4  12  24  45  79 106 139 196 257 311 362 447
#     4  12  25  46  75 109 143 196 256 313 367 452
#     4  12  25  50  74 107 152 195 253 308 380 452
#     4  12  28  46  70 110 153 189 238 312 389 448
#     4  12  23  46  73 102 146 189 247 306 375 441
#     4  12  26  46  75 108 149 199 243 312 381 450
#     4  12  26  47  73 110 150 193 250 313 380 448
#     4  12  26  46  75 111 145 196 259 311 366 451
#
# _framework density 22.913720999999999
#
# number of rings (size 3 to 8) (size 9 to 14) (size 15 to 20)
#    0.000    0.000    7.500    2.625    1.750    0.500 
#    0.000    0.000    0.000    0.000    0.000    0.000 
#    0.000    0.000    0.000    0.000    0.000    0.000 
#
# Total GULP energy -178832.438407 kJ/mol
# GULP energy per Si atom -5588.513700 kJ/mol
# Density = 2.286157 g / cm^3
# Si number density = 22.913721 Si / 1000 Ang^3
#
#
#
# Elastic Constant Matrix: (Units=GPa)
#
#
# Indices 1 2 3 4 5 6 
#
# 1 123.7356 12.9340 3.0835 0.0000 -6.2168 0.0000
# 2 12.9340 72.0090 -13.2234 0.0000 -0.4417 0.0000
# 3 3.0835 -13.2234 23.6796 0.0000 -5.5299 0.0000
# 4 0.0000 0.0000 0.0000 39.8987 0.0000 -1.5305
# 5 -6.2168 -0.4417 -5.5299 0.0000 27.7225 0.0000
# 6 0.0000 0.0000 0.0000 -1.5305 0.0000 31.6409
#
#
#
# Elastic Compliance Matrix: (Units=1/GPa)
#
#
# Indices 1 2 3 4 5 6 
#
# 1 0.008391 -0.001821 -0.001759 0.000000 0.001502 0.000000
# 2 -0.001821 0.015983 0.009573 0.000000 0.001756 0.000000
# 3 -0.001759 0.009573 0.050082 0.000000 0.009748 0.000000
# 4 0.000000 0.000000 0.000000 0.025110 0.000000 0.001215
# 5 0.001502 0.001756 0.009748 0.000000 0.038381 0.000000
# 6 0.000000 0.000000 0.000000 0.001215 0.000000 0.031663
#
#
# Mechanical properties :
#
#
# Convention : Reuss Voigt Hill
#
# Bulk Modulus (GPa) = 11.56856 25.00135 18.28495
# Shear Modulus (GPa) = 26.81843 34.29442 30.55643
#
# Velocity S-wave (km/s) = 3.42484 3.87289 3.65573
# Velocity P-wave (km/s) = 4.54962 5.56181 5.08098
#
# Compressibility (1/GPa) = 0.08644121
#
# Stress axis : x y z
#
# Youngs Moduli (GPa) = 119.16983 62.56701 19.96738
#
# Poissons Ratio (x) = 0.11393 0.03512
# Poissons Ratio (y) = 0.21701 -0.19114
# Poissons Ratio (z) = 0.20960 -0.59892
#
# Static dielectric constant tensor:
#      x y z
#    x 1.988360 0.000000 0.044060 
#    y 0.000000 2.084120 0.000000 
#    z 0.044060 0.000000 1.927740 
# 
# From -- ./inp_files/34207.got.cif
#   From: 2010.05.17/outbox.cif.g08.bks.cpg/sg14_18_cif.got.tgz:34207.got - 2010.06.03 17:49:19.
