data_PCOD9253678
_publ_section_title
;
Structure prediction by ZEFSAII (Michael W. Deem and Ramdas Pophale) SiO2 
 PCOD9253678
Probable space group: P 21/C
;
_chemical_formula_sum "Si O2"
_cell_formula_units_Z 28
_cell_length_a 30.000000
_cell_length_b 9.000000
_cell_length_c 30.000000
_cell_angle_alpha 90.000000
_cell_angle_beta 10.000000
_cell_angle_gamma 90.000000
_cell_volume 1406.550239
_symmetry_space_group_name_H-M "P 21/C"
_symmetry_group_IT_number 14
_symmetry_cell_setting 'monoclinic'
loop_
_space_group_symop_operation_xyz
x,y,z
-x,1/2+y,1/2-z
-x,-y,-z
x,1/2-y,1/2+z
loop_
_atom_site_type_symbol
_atom_site_label
_atom_site_fract_x
_atom_site_fract_y
_atom_site_fract_z
Si Si1 0.710547 0.484193 0.236505
Si Si2 0.504430 0.247925 0.497965
Si Si3 0.240710 0.088404 0.045036
Si Si4 0.903112 0.104171 0.974825
Si Si5 0.253058 0.797806 0.969590
Si Si6 0.840848 0.571977 0.268703
Si Si7 0.600120 0.508720 0.972722
O O1 0.726852 0.338196 0.252306
O O2 0.671417 0.623562 0.307805
O O3 0.438915 0.453157 0.478070
O O4 0.942464 0.514408 0.973661
O O5 0.375389 0.137486 0.589153
O O6 0.583394 0.143241 0.461274
O O7 0.984362 0.185191 0.285561
O O8 0.203970 0.048997 0.134027
O O9 0.488897 0.196590 0.791716
O O10 0.271234 0.933901 0.987282
O O11 0.812428 0.122943 0.013216
O O12 0.658925 0.051103 0.244688
O O13 0.026650 0.265089 0.864502
O O14 0.150999 0.002263 0.740633
#
# Coordination Sequence:
#
# PCOD9253678 Si02
#       7
#     4   4   4   4   4   4   4
#     4  11  23  40  62  90 127 167 219 262 322 373
#     4  10  24  40  62  92 126 172 218 276 312 378
#     4  11  24  45  73 101 134 175 222 271 339 405
#     4  11  21  41  66  90 126 172 210 256 327 397
#     4  11  24  45  73 101 134 175 222 271 339 405
#     4  11  21  41  66  90 126 172 210 256 327 397
#     4  11  23  40  62  90 127 167 219 262 322 373
#
# _framework density 19.906860999999999
#
# number of rings (size 3 to 8) (size 9 to 14) (size 15 to 20)
#    0.000    1.143    2.857    4.286    0.000    8.000 
#    7.714    0.000    0.000    0.000    0.000    0.000 
#    0.000    0.000    0.000    0.000    0.000    0.000 
#
# Total GULP energy -156342.528130 kJ/mol
# GULP energy per Si atom -5583.661719 kJ/mol
# Density = 1.986155 g / cm^3
# Si number density = 19.906861 Si / 1000 Ang^3
#
#
#
# Elastic Constant Matrix: (Units=GPa)
#
#
# Indices 1 2 3 4 5 6 
#
# 1 89.1376 35.0525 55.9913 0.0000 16.2117 0.0000
# 2 35.0525 87.5089 28.9019 0.0000 12.8262 0.0000
# 3 55.9913 28.9019 172.1202 0.0000 9.3118 0.0000
# 4 0.0000 0.0000 0.0000 25.7465 0.0000 0.3138
# 5 16.2117 12.8262 9.3118 0.0000 36.2591 0.0000
# 6 0.0000 0.0000 0.0000 0.3138 0.0000 31.4310
#
#
#
# Elastic Compliance Matrix: (Units=1/GPa)
#
#
# Indices 1 2 3 4 5 6 
#
# 1 0.016606 -0.004513 -0.004390 0.000000 -0.004701 0.000000
# 2 -0.004513 0.013867 -0.000714 0.000000 -0.002704 0.000000
# 3 -0.004390 -0.000714 0.007340 0.000000 0.000330 0.000000
# 4 0.000000 0.000000 0.000000 0.038845 0.000000 -0.000388
# 5 -0.004701 -0.002704 0.000330 0.000000 0.030553 0.000000
# 6 0.000000 0.000000 0.000000 -0.000388 0.000000 0.031820
#
#
# Mechanical properties :
#
#
# Convention : Reuss Voigt Hill
#
# Bulk Modulus (GPa) = 53.82315 65.40646 59.61480
# Shear Modulus (GPa) = 30.40314 33.94205 32.17260
#
# Velocity S-wave (km/s) = 3.91227 4.13370 4.02451
# Velocity P-wave (km/s) = 6.89231 7.46397 7.18383
#
# Compressibility (1/GPa) = 0.01857937
#
# Stress axis : x y z
#
# Youngs Moduli (GPa) = 60.22092 72.11220 136.24058
#
# Poissons Ratio (x) = 0.32542 0.59806
# Poissons Ratio (y) = 0.27176 0.09731
# Poissons Ratio (z) = 0.26436 0.05151
#
# Static dielectric constant tensor:
#      x y z
#    x 1.721510 0.000000 -0.015380 
#    y 0.000000 1.734280 0.000000 
#    z -0.015380 0.000000 1.717000 
# 
# From -- ./inp_files/80882.got.cif
#   From: 2010.05.17/outbox.ucp.g08.bks.cvg/sg14_41_cif.got.tgz:80882.got - 2010.06.11 12:31:08.
