data_PCOD9253806
_publ_section_title
;
Structure prediction by ZEFSAII (Michael W. Deem and Ramdas Pophale) SiO2 
 PCOD9253806
Probable space group: C 2/C
;
_chemical_formula_sum "Si O2"
_cell_formula_units_Z 36
_cell_length_a 9.310115
_cell_length_b 11.685878
_cell_length_c 13.404207
_cell_angle_alpha 90.000000
_cell_angle_beta 73.717155
_cell_angle_gamma 90.000000
_cell_volume 1399.840849
_symmetry_space_group_name_H-M "C 2/C"
_symmetry_group_IT_number 15
_symmetry_cell_setting 'monoclinic'
loop_
_space_group_symop_operation_xyz
x,y,z
-x,y,1/2-z
-x,-y,-z
x,-y,1/2+z
1/2+x,1/2+y,z
1/2-x,1/2+y,1/2-z
1/2-x,1/2-y,-z
1/2+x,1/2-y,1/2+z
loop_
_atom_site_type_symbol
_atom_site_label
_atom_site_fract_x
_atom_site_fract_y
_atom_site_fract_z
Si Si1 0.000000 0.602041 0.750000
Si Si2 0.307541 0.015492 0.458927
Si Si3 0.545122 0.820016 0.929626
Si Si4 0.307413 0.691799 0.248835
Si Si5 0.964326 0.893398 0.924787
O O1 0.107446 0.532956 0.655740
O O2 0.116803 0.684795 0.786229
O O3 0.374013 0.141594 0.457232
O O4 0.377511 0.926064 0.527264
O O5 0.131609 0.001787 0.519538
O O6 0.633512 0.804987 0.808516
O O7 0.563241 0.705051 0.988809
O O8 0.366751 0.607400 0.151824
O O9 0.380632 0.651807 0.339711
#
# Coordination Sequence:
#
# PCOD9253806 Si02
#       5
#     4   8   8   8   8
#     4  10  14  26  42  64  96 134 156 202 260 288
#     4  10  17  24  43  69 102 127 166 214 244 305
#     4  10  16  25  41  73  98 126 176 204 243 318
#     4   9  15  24  43  62 100 132 159 204 255 294
#     4   9  15  27  41  66 100 136 159 203 267 289
#
# _framework density 25.717210000000001
#
# number of rings (size 3 to 8) (size 9 to 14) (size 15 to 20)
#    0.000    2.667    6.667    1.333    0.000    0.000 
#    0.000    0.000    0.000    1.333    0.000    1.556 
#    0.000    2.444    0.000    0.222    0.000    0.000 
#
# Total GULP energy -100510.504212 kJ/mol
# GULP energy per Si atom -5583.916901 kJ/mol
# Density = 2.565868 g / cm^3
# Si number density = 25.717210 Si / 1000 Ang^3
#
#
#
# Elastic Constant Matrix: (Units=GPa)
#
#
# Indices 1 2 3 4 5 6 
#
# 1 88.7209 10.9071 63.8172 0.0000 -48.9372 0.0000
# 2 10.9071 61.7555 38.2821 0.0000 -14.5445 0.0000
# 3 63.8172 38.2821 140.1139 0.0000 -35.3885 0.0000
# 4 0.0000 0.0000 0.0000 67.9889 0.0000 -23.3584
# 5 -48.9372 -14.5445 -35.3885 0.0000 44.2203 0.0000
# 6 0.0000 0.0000 0.0000 -23.3584 0.0000 44.8240
#
#
#
# Elastic Compliance Matrix: (Units=1/GPa)
#
#
# Indices 1 2 3 4 5 6 
#
# 1 0.037441 0.008183 -0.010207 0.000000 0.035958 0.000000
# 2 0.008183 0.021543 -0.006939 0.000000 0.010589 0.000000
# 3 -0.010207 -0.006939 0.012850 0.000000 -0.003295 0.000000
# 4 0.000000 0.000000 0.000000 0.017916 0.000000 0.009336
# 5 0.035958 0.010589 -0.003295 0.000000 0.063254 0.000000
# 6 0.000000 0.000000 0.000000 0.009336 0.000000 0.027175
#
#
# Mechanical properties :
#
#
# Convention : Reuss Voigt Hill
#
# Bulk Modulus (GPa) = 18.54989 57.40035 37.97512
# Shear Modulus (GPa) = 23.14034 43.24557 33.19295
#
# Velocity S-wave (km/s) = 3.00292 4.10516 3.59652
# Velocity P-wave (km/s) = 4.38772 6.69612 5.66083
#
# Compressibility (1/GPa) = 0.05390868
#
# Stress axis : x y z
#
# Youngs Moduli (GPa) = 26.70843 46.41932 77.82261
#
# Poissons Ratio (x) = -0.37987 0.79435
# Poissons Ratio (y) = -0.21857 0.53999
# Poissons Ratio (z) = 0.27262 0.32209
#
# Static dielectric constant tensor:
#      x y z
#    x 2.301490 0.000000 0.018330 
#    y 0.000000 2.010000 0.000000 
#    z 0.018330 0.000000 2.030930 
# 
# From -- ./inp_files/195531.got.cif
#   From: 2010.05.17/outbox.cif.g08.bks.cpg/sg15_98_cif.got.tgz:195531.got - 2010.06.03 18:47:42.
