data_PCOD9253239
_publ_section_title
;
Structure prediction by ZEFSAII (Michael W. Deem and Ramdas Pophale) SiO2 
 PCOD9253239
Probable space group: P 21/C
;
_chemical_formula_sum "Si O2"
_cell_formula_units_Z 24
_cell_length_a 26.348193
_cell_length_b 8.960485
_cell_length_c 8.557417
_cell_angle_alpha 90.000000
_cell_angle_beta 149.196204
_cell_angle_gamma 90.000000
_cell_volume 1034.617050
_symmetry_space_group_name_H-M "P 21/C"
_symmetry_group_IT_number 14
_symmetry_cell_setting 'monoclinic'
loop_
_space_group_symop_operation_xyz
x,y,z
-x,1/2+y,1/2-z
-x,-y,-z
x,1/2-y,1/2+z
loop_
_atom_site_type_symbol
_atom_site_label
_atom_site_fract_x
_atom_site_fract_y
_atom_site_fract_z
Si Si1 0.038831 0.143401 0.687643
Si Si2 0.753266 0.187105 0.081643
Si Si3 0.238143 0.510024 0.726376
Si Si4 0.055033 0.878706 0.244403
Si Si5 0.555379 0.378158 0.249484
Si Si6 0.577064 0.913150 0.097936
O O1 0.950332 0.247845 0.391609
O O2 0.023698 0.160222 0.830220
O O3 0.155357 0.116394 0.970719
O O4 0.000000 0.000000 0.500000
O O5 0.786988 0.360549 0.208001
O O6 0.839058 0.094069 0.399569
O O7 0.647787 0.179397 0.891083
O O8 0.741499 0.109232 0.878830
O O9 0.326357 0.414282 0.037326
O O10 0.000000 0.000000 0.000000
O O11 0.594416 0.475336 0.498488
O O12 0.500000 0.500000 0.000000
O O13 0.477890 0.244323 0.087250
O O14 0.500000 0.000000 0.000000
#
# Coordination Sequence:
#
# PCOD9253239 Si02
#       6
#     4   4   4   4   4   4
#     4  12  25  48  74 109 151 194 250 311 369 449
#     4  12  25  47  78 107 150 204 251 302 387 457
#     4  12  27  47  79 111 153 199 254 309 381 456
#     4  12  27  46  76 112 153 198 252 310 377 455
#     4  12  28  50  79 113 152 201 257 320 388 456
#     4  12  26  49  76 110 152 197 258 320 380 459
#
# _framework density 23.196988999999999
#
# number of rings (size 3 to 8) (size 9 to 14) (size 15 to 20)
#    0.000    0.000    5.000    4.000    4.667    1.333 
#    3.000    0.000    0.000    0.000    0.000    0.000 
#    0.000    0.000    0.000    0.000    0.000    0.000 
#
# Total GULP energy -133647.488851 kJ/mol
# GULP energy per Si atom -5568.645369 kJ/mol
# Density = 2.314419 g / cm^3
# Si number density = 23.196989 Si / 1000 Ang^3
#
#
#
# Elastic Constant Matrix: (Units=GPa)
#
#
# Indices 1 2 3 4 5 6 
#
# 1 80.7320 -2.0157 27.8580 0.0000 -10.9367 0.0000
# 2 -2.0157 55.3049 27.9520 0.0000 -3.2016 0.0000
# 3 27.8580 27.9520 198.0987 0.0000 3.6984 0.0000
# 4 0.0000 0.0000 0.0000 40.7660 0.0000 -1.1150
# 5 -10.9367 -3.2016 3.6984 0.0000 42.1935 0.0000
# 6 0.0000 0.0000 0.0000 -1.1150 0.0000 27.3408
#
#
#
# Elastic Compliance Matrix: (Units=1/GPa)
#
#
# Indices 1 2 3 4 5 6 
#
# 1 0.013746 0.001874 -0.002270 0.000000 0.003904 0.000000
# 2 0.001874 0.019851 -0.003107 0.000000 0.002265 0.000000
# 3 -0.002270 -0.003107 0.005831 0.000000 -0.001335 0.000000
# 4 0.000000 0.000000 0.000000 0.024558 0.000000 0.001001
# 5 0.003904 0.002265 -0.001335 0.000000 0.025001 0.000000
# 6 0.000000 0.000000 0.000000 0.001001 0.000000 0.036616
#
#
# Mechanical properties :
#
#
# Convention : Reuss Voigt Hill
#
# Bulk Modulus (GPa) = 30.84326 49.08048 39.96187
# Shear Modulus (GPa) = 34.86368 40.74948 37.80658
#
# Velocity S-wave (km/s) = 3.88098 4.19581 4.04146
# Velocity P-wave (km/s) = 5.77995 6.68410 6.24840
#
# Compressibility (1/GPa) = 0.03242199
#
# Stress axis : x y z
#
# Youngs Moduli (GPa) = 72.74945 50.37463 171.50925
#
# Poissons Ratio (x) = -0.09443 0.38940
# Poissons Ratio (y) = -0.13637 0.53287
# Poissons Ratio (z) = 0.16517 0.15651
#
# Static dielectric constant tensor:
#      x y z
#    x 1.866130 0.000000 0.067220 
#    y 0.000000 1.859250 0.000000 
#    z 0.067220 0.000000 1.949910 
# 
# From -- ./inp_files/19972.got.cif
#   From: 2010.05.17/outbox.cif.g08.bks.cpg/sg14_10_cif.got.tgz:19972.got - 2010.06.03 17:49:19.
