data_PCOD9253733
_publ_section_title
;
Structure prediction by ZEFSAII (Michael W. Deem and Ramdas Pophale) SiO2 
 PCOD9253733
Probable space group: P 21/C
;
_chemical_formula_sum "Si O2"
_cell_formula_units_Z 24
_cell_length_a 12.000000
_cell_length_b 12.000000
_cell_length_c 18.000000
_cell_angle_alpha 90.000000
_cell_angle_beta 150.000000
_cell_angle_gamma 90.000000
_cell_volume 1296.000000
_symmetry_space_group_name_H-M "P 21/C"
_symmetry_group_IT_number 14
_symmetry_cell_setting 'monoclinic'
loop_
_space_group_symop_operation_xyz
x,y,z
-x,1/2+y,1/2-z
-x,-y,-z
x,1/2-y,1/2+z
loop_
_atom_site_type_symbol
_atom_site_label
_atom_site_fract_x
_atom_site_fract_y
_atom_site_fract_z
Si Si1 0.912851 0.335548 0.859319
Si Si2 0.375835 0.075129 0.276720
Si Si3 0.888987 0.045803 0.613406
Si Si4 0.799660 0.671581 0.823009
Si Si5 0.521767 0.535564 0.337813
Si Si6 0.030782 0.916677 0.167152
O O1 0.663161 0.375748 0.738735
O O2 0.020052 0.426634 0.864963
O O3 0.925915 0.211190 0.833538
O O4 0.059710 0.338520 0.019433
O O5 0.623560 0.058124 0.451361
O O6 0.290468 0.202592 0.236179
O O7 0.424646 0.048397 0.218528
O O8 0.190181 0.995079 0.207716
O O9 0.033306 0.133319 0.646757
O O10 0.920969 0.064478 0.718723
O O11 0.595891 0.582956 0.711695
O O12 0.768326 0.553652 0.511547
#
# Coordination Sequence:
#
# PCOD9253733 Si02
#       6
#     4   4   4   4   4   4
#     4  11  24  46  72  96 137 184 219 282 338 390
#     4  12  25  42  72 100 135 177 230 275 325 409
#     4  11  26  48  67 100 141 177 222 277 350 393
#     4  11  24  44  75  96 133 187 225 276 330 398
#     4  11  24  44  69 100 134 178 230 272 332 404
#     4  12  29  40  71 108 136 172 226 284 337 398
#
# _framework density 18.518519000000001
#
# number of rings (size 3 to 8) (size 9 to 14) (size 15 to 20)
#    0.000    0.667    5.000    2.000    9.333    4.000 
#    0.000    0.000    0.000    0.000    0.000    0.000 
#    0.000    0.000    0.000    0.000    0.000    0.000 
#
# Total GULP energy -134051.744839 kJ/mol
# GULP energy per Si atom -5585.489368 kJ/mol
# Density = 1.847637 g / cm^3
# Si number density = 18.518519 Si / 1000 Ang^3
#
#
#
# Elastic Constant Matrix: (Units=GPa)
#
#
# Indices 1 2 3 4 5 6 
#
# 1 32.7474 87.8181 22.2998 0.0000 52.2234 0.0000
# 2 87.8181 154.7790 37.6558 0.0000 13.3465 0.0000
# 3 22.2998 37.6558 121.9146 0.0000 20.7165 0.0000
# 4 0.0000 0.0000 0.0000 21.2065 0.0000 14.7504
# 5 52.2234 13.3465 20.7165 0.0000 36.4952 0.0000
# 6 0.0000 0.0000 0.0000 14.7504 0.0000 21.8862
#
#
#
# Elastic Compliance Matrix: (Units=1/GPa)
#
#
# Indices 1 2 3 4 5 6 
#
# 1 -0.012857 0.006418 -0.002610 0.000000 0.017533 0.000000
# 2 0.006418 0.003854 -0.000625 0.000000 -0.010239 0.000000
# 3 -0.002610 -0.000625 0.009075 0.000000 -0.001188 0.000000
# 4 0.000000 0.000000 0.000000 0.088769 0.000000 -0.059827
# 5 0.017533 -0.010239 -0.001188 0.000000 0.006731 0.000000
# 6 0.000000 0.000000 0.000000 -0.059827 0.000000 0.086012
#
#
# Mechanical properties :
#
#
# Convention : Reuss Voigt Hill
#
# Bulk Modulus (GPa) = 155.30617 67.22095 111.26356
# Shear Modulus (GPa) = 28.19093 26.69539 27.44316
#
# Velocity S-wave (km/s) = 3.90591 3.80090 3.85376
# Velocity P-wave (km/s) = 10.21709 7.45926 8.94510
#
# Compressibility (1/GPa) = 0.00643889
#
# Stress axis : x y z
#
# Youngs Moduli (GPa) = -77.77643 259.45746 110.19719
#
# Poissons Ratio (x) = -1.66522 0.28760
# Poissons Ratio (y) = 0.49918 0.06882
# Poissons Ratio (z) = -0.20299 0.16204
#
# Static dielectric constant tensor:
#      x y z
#    x 1.594880 0.000000 -0.049970 
#    y 0.000000 1.637090 0.000000 
#    z -0.049970 0.000000 1.771600 
# 
# From -- ./inp_files/24088.got.cif
#   From: 2010.05.17/outbox.ucp.g08.bks.cvg/sg14_13_cif.got.tgz:24088.got - 2010.06.11 12:31:08.
