data_PCOD9253166
_publ_section_title
;
Structure prediction by ZEFSAII (Michael W. Deem and Ramdas Pophale) SiO2 
 PCOD9253166
Probable space group: P 21/C
;
_chemical_formula_sum "Si O2"
_cell_formula_units_Z 20
_cell_length_a 7.725059
_cell_length_b 7.142614
_cell_length_c 13.935352
_cell_angle_alpha 90.000000
_cell_angle_beta 91.916712
_cell_angle_gamma 90.000000
_cell_volume 768.482309
_symmetry_space_group_name_H-M "P 21/C"
_symmetry_group_IT_number 14
_symmetry_cell_setting 'monoclinic'
loop_
_space_group_symop_operation_xyz
x,y,z
-x,1/2+y,1/2-z
-x,-y,-z
x,1/2-y,1/2+z
loop_
_atom_site_type_symbol
_atom_site_label
_atom_site_fract_x
_atom_site_fract_y
_atom_site_fract_z
Si Si1 0.630958 0.582054 0.793746
Si Si2 0.916987 0.055931 0.600632
Si Si3 0.051133 0.156665 0.801682
Si Si4 0.325007 0.506555 0.653856
Si Si5 0.374737 0.831962 0.530417
O O1 0.436460 0.561265 0.750710
O O2 0.686843 0.423932 0.869652
O O3 0.762250 0.558860 0.706589
O O4 0.651461 0.782997 0.846230
O O5 0.898110 0.853295 0.649908
O O6 0.002493 0.172719 0.687787
O O7 0.756316 0.173272 0.559411
O O8 0.000000 0.000000 0.500000
O O9 0.878807 0.067050 0.845419
O O10 0.410024 0.624237 0.568822
O O11 0.500000 0.000000 0.500000
#
# Coordination Sequence:
#
# PCOD9253166 Si02
#       5
#     4   4   4   4   4
#     4  12  25  45  77 113 155 206 254 324 393 454
#     4  12  24  46  75 107 151 199 250 318 383 458
#     4  12  24  48  74 110 156 194 256 328 380 454
#     4  12  25  45  77 113 155 206 254 324 393 454
#     4  12  26  50  72 111 161 200 264 320 385 476
#
# _framework density 26.025321999999999
#
# number of rings (size 3 to 8) (size 9 to 14) (size 15 to 20)
#    0.000    0.000    8.000    2.400    0.000    0.800 
#    3.600    3.000    0.000    0.000    0.000    0.000 
#    0.000    0.000    0.000    0.000    0.000    0.000 
#
# Total GULP energy -111658.561494 kJ/mol
# GULP energy per Si atom -5582.928075 kJ/mol
# Density = 2.596609 g / cm^3
# Si number density = 26.025322 Si / 1000 Ang^3
#
#
#
# Elastic Constant Matrix: (Units=GPa)
#
#
# Indices 1 2 3 4 5 6 
#
# 1 62.7927 14.1866 -1.3849 0.0000 -5.7477 0.0000
# 2 14.1866 136.9797 19.5036 0.0000 -19.3664 0.0000
# 3 -1.3849 19.5036 107.8913 0.0000 -4.0135 0.0000
# 4 0.0000 0.0000 0.0000 72.3007 0.0000 -5.1947
# 5 -5.7477 -19.3664 -4.0135 0.0000 45.4945 0.0000
# 6 0.0000 0.0000 0.0000 -5.1947 0.0000 36.2528
#
#
#
# Elastic Compliance Matrix: (Units=1/GPa)
#
#
# Indices 1 2 3 4 5 6 
#
# 1 0.016426 -0.001574 0.000549 0.000000 0.001454 0.000000
# 2 -0.001574 0.008101 -0.001368 0.000000 0.003129 0.000000
# 3 0.000549 -0.001368 0.009535 0.000000 0.000328 0.000000
# 4 0.000000 0.000000 0.000000 0.013975 0.000000 0.002003
# 5 0.001454 0.003129 0.000328 0.000000 0.023525 0.000000
# 6 0.000000 0.000000 0.000000 0.002003 0.000000 0.027871
#
#
# Mechanical properties :
#
#
# Convention : Reuss Voigt Hill
#
# Bulk Modulus (GPa) = 34.15693 41.36379 37.76036
# Shear Modulus (GPa) = 43.86843 49.16683 46.51763
#
# Velocity S-wave (km/s) = 4.11007 4.35120 4.23235
# Velocity P-wave (km/s) = 5.97298 6.41655 6.19873
#
# Compressibility (1/GPa) = 0.02927664
#
# Stress axis : x y z
#
# Youngs Moduli (GPa) = 60.87841 123.44906 104.87492
#
# Poissons Ratio (x) = 0.19430 -0.05762
# Poissons Ratio (y) = 0.09582 0.14348
# Poissons Ratio (z) = -0.03345 0.16890
#
# Static dielectric constant tensor:
#      x y z
#    x 2.374830 0.000000 0.002710 
#    y 0.000000 1.510190 0.000000 
#    z 0.002710 0.000000 2.085480 
# 
# From -- ./inp_files/38856.got.cif
#   From: 2010.05.17/outbox.cif.g08.bks.cpg/sg14_20_cif.got.tgz:38856.got - 2010.06.03 17:49:19.
