data_PCOD9253994
_publ_section_title
;
Structure prediction by ZEFSAII (Michael W. Deem and Ramdas Pophale) SiO2 
 PCOD9253994
Probable space group: C 2/C
;
_chemical_formula_sum "Si O2"
_cell_formula_units_Z 64
_cell_length_a 9.078149
_cell_length_b 21.774179
_cell_length_c 30.422776
_cell_angle_alpha 90.000000
_cell_angle_beta 150.344221
_cell_angle_gamma 90.000000
_cell_volume 2975.481054
_symmetry_space_group_name_H-M "C 2/C"
_symmetry_group_IT_number 15
_symmetry_cell_setting 'monoclinic'
loop_
_space_group_symop_operation_xyz
x,y,z
-x,y,1/2-z
-x,-y,-z
x,-y,1/2+z
1/2+x,1/2+y,z
1/2-x,1/2+y,1/2-z
1/2-x,1/2-y,-z
1/2+x,1/2-y,1/2+z
loop_
_atom_site_type_symbol
_atom_site_label
_atom_site_fract_x
_atom_site_fract_y
_atom_site_fract_z
Si Si1 0.687792 0.577971 0.185691
Si Si2 0.751426 0.003712 0.214893
Si Si3 0.351485 0.557535 0.936540
Si Si4 0.126227 0.720041 0.391656
Si Si5 0.756048 0.222114 0.282510
Si Si6 0.462363 0.102946 0.071600
Si Si7 0.619075 0.639917 0.473499
Si Si8 0.099586 0.689006 0.032160
O O1 0.600875 0.537309 0.204905
O O2 0.756007 0.647157 0.220534
O O3 0.500531 0.589185 0.092597
O O4 0.000000 0.551786 0.250000
O O5 0.617005 0.053866 0.144819
O O6 0.000000 0.969838 0.250000
O O7 0.475580 0.964317 0.161427
O O8 0.500000 0.500000 0.000000
O O9 0.619918 0.581192 0.975310
O O10 0.301912 0.609329 0.960543
O O11 0.036215 0.665532 0.400146
O O12 0.356584 0.688112 0.416536
O O13 0.304468 0.772590 0.462708
O O14 0.846967 0.743813 0.291799
O O15 0.500000 0.243699 0.250000
O O16 0.105231 0.230391 0.382842
O O17 0.603176 0.127064 0.062503
O O18 0.878338 0.671834 0.513447
#
# Coordination Sequence:
#
# PCOD9253994 Si02
#       8
#     8   8   8   8   8   8   8   8
#     4  10  15  30  53  85 109 134 178 247 291 313
#     4  11  20  34  60  89 109 141 193 245 298 339
#     4   9  20  38  57  80 112 156 178 229 305 352
#     4  11  19  35  57  83 118 157 186 232 294 342
#     4  10  18  31  53  86 115 139 192 245 278 320
#     4  10  21  36  55  85 121 145 188 241 287 344
#     4  10  19  34  56  83 118 142 194 239 280 338
#     4  11  22  33  57  89 114 156 198 232 281 346
#
# _framework density 21.509126999999999
#
# number of rings (size 3 to 8) (size 9 to 14) (size 15 to 20)
#    0.000    1.750    5.000    3.750    0.000    0.000 
#    0.000    6.875    5.500    0.000    3.250    0.000 
#    0.000    0.000    0.000    0.000    0.000    0.000 
#
# Total GULP energy -178303.021754 kJ/mol
# GULP energy per Si atom -5571.969430 kJ/mol
# Density = 2.146017 g / cm^3
# Si number density = 21.509127 Si / 1000 Ang^3
#
#
#
# Elastic Constant Matrix: (Units=GPa)
#
#
# Indices 1 2 3 4 5 6 
#
# 1 68.2436 -3.2881 -7.5666 -0.0046 0.1428 0.0002
# 2 -3.2881 21.0270 16.6573 -0.0030 -2.5047 -0.0017
# 3 -7.5666 16.6573 65.1182 -0.0093 3.7045 -0.0048
# 4 -0.0046 -0.0030 -0.0093 26.4623 -0.0061 2.6574
# 5 0.1428 -2.5047 3.7045 -0.0061 18.9081 -0.0020
# 6 0.0002 -0.0017 -0.0048 2.6574 -0.0020 16.1848
#
#
#
# Elastic Compliance Matrix: (Units=1/GPa)
#
#
# Indices 1 2 3 4 5 6 
#
# 1 0.014870 0.001149 0.001448 0.000003 -0.000244 0.000000
# 2 0.001149 0.062090 -0.016399 0.000004 0.011429 0.000003
# 3 0.001448 -0.016399 0.020068 0.000004 -0.006115 0.000003
# 4 0.000003 0.000004 0.000004 0.038423 0.000011 -0.006309
# 5 -0.000244 0.011429 -0.006115 0.000011 0.055601 0.000004
# 6 0.000000 0.000003 0.000003 -0.006309 0.000004 0.062822
#
#
# Mechanical properties :
#
#
# Convention : Reuss Voigt Hill
#
# Bulk Modulus (GPa) = 14.40441 18.44380 16.42410
# Shear Modulus (GPa) = 16.41386 22.21677 19.31532
#
# Velocity S-wave (km/s) = 2.76544 3.21736 2.99993
# Velocity P-wave (km/s) = 4.11197 4.73238 4.43304
#
# Compressibility (1/GPa) = 0.06942319
#
# Stress axis : x y z
#
# Youngs Moduli (GPa) = 67.25045 16.10555 49.83109
#
# Poissons Ratio (x) = -0.01851 -0.07214
# Poissons Ratio (y) = -0.07730 0.81720
# Poissons Ratio (z) = -0.09736 0.26412
#
# Static dielectric constant tensor:
#      x y z
#    x 1.845190 0.000000 0.008440 
#    y 0.000000 1.793840 0.000000 
#    z 0.008440 0.000000 1.854760 
# 
# From -- ./inp_files/309121.got.cif
#   From: 2010.05.17/outbox.cif.g08.bks.cpg/sg15_155_cif.got.tgz:309121.got - 2010.06.03 18:47:42.
