data_PCOD9253472
_publ_section_title
;
Structure prediction by ZEFSAII (Michael W. Deem and Ramdas Pophale) SiO2 
 PCOD9253472
Probable space group: P 21/C
;
_chemical_formula_sum "Si O2"
_cell_formula_units_Z 32
_cell_length_a 12.000000
_cell_length_b 15.000000
_cell_length_c 18.000000
_cell_angle_alpha 90.000000
_cell_angle_beta 30.000000
_cell_angle_gamma 90.000000
_cell_volume 1620.000000
_symmetry_space_group_name_H-M "P 21/C"
_symmetry_group_IT_number 14
_symmetry_cell_setting 'monoclinic'
loop_
_space_group_symop_operation_xyz
x,y,z
-x,1/2+y,1/2-z
-x,-y,-z
x,1/2-y,1/2+z
loop_
_atom_site_type_symbol
_atom_site_label
_atom_site_fract_x
_atom_site_fract_y
_atom_site_fract_z
Si Si1 0.525193 0.631674 0.454625
Si Si2 0.141490 0.526952 0.741754
Si Si3 0.021972 0.180678 0.016044
Si Si4 0.175486 0.876696 0.373135
Si Si5 0.265419 0.544996 0.967726
Si Si6 0.545635 0.726035 0.815081
Si Si7 0.536551 0.364817 0.776038
Si Si8 0.366431 0.309785 0.441869
O O1 0.276653 0.588925 0.605874
O O2 0.685676 0.551413 0.337095
O O3 0.540555 0.716300 0.392729
O O4 0.611878 0.658375 0.486586
O O5 0.102171 0.586744 0.836703
O O6 0.899704 0.483257 0.869872
O O7 0.928042 0.280000 0.060943
O O8 0.802355 0.121917 0.131625
O O9 0.220894 0.179217 0.841704
O O10 0.137750 0.173101 0.030064
O O11 0.122628 0.932588 0.476129
O O12 0.442808 0.864648 0.212681
O O13 0.380073 0.641240 0.915817
O O14 0.418396 0.460369 0.855480
O O15 0.501998 0.804010 0.776850
O O16 0.437226 0.294081 0.893411
#
# Coordination Sequence:
#
# PCOD9253472 Si02
#       8
#     4   4   4   4   4   4   4   4
#     4  10  22  40  64  91 125 165 211 262 318 368
#     4  10  21  37  62  93 120 162 218 262 310 366
#     4  10  18  39  64  86 124 166 202 253 318 369
#     4  10  18  36  64  91 117 157 213 265 307 356
#     4  12  21  38  62  98 126 160 215 260 314 377
#     4  11  22  40  62  99 129 156 212 265 310 371
#     4  10  22  39  64  94 123 164 209 257 321 369
#     4   9  19  39  59  86 121 165 207 251 314 372
#
# _framework density 19.753086
#
# number of rings (size 3 to 8) (size 9 to 14) (size 15 to 20)
#    0.000    1.750    3.750    3.375    0.000    0.500 
#    9.000    0.625    2.750    0.000    0.000    0.000 
#    0.000    0.000    0.000    0.000    0.000    0.000 
#
# Total GULP energy -178271.369623 kJ/mol
# GULP energy per Si atom -5570.980301 kJ/mol
# Density = 1.970813 g / cm^3
# Si number density = 19.753086 Si / 1000 Ang^3
#
#
#
# Elastic Constant Matrix: (Units=GPa)
#
#
# Indices 1 2 3 4 5 6 
#
# 1 44.2224 6.0304 34.0859 0.0000 -7.6004 0.0000
# 2 6.0304 78.5039 25.7839 0.0000 4.0873 0.0000
# 3 34.0859 25.7839 98.5098 0.0000 -9.6990 0.0000
# 4 0.0000 0.0000 0.0000 22.3364 0.0000 -5.4324
# 5 -7.6004 4.0873 -9.6990 0.0000 25.2853 0.0000
# 6 0.0000 0.0000 0.0000 -5.4324 0.0000 17.7590
#
#
#
# Elastic Compliance Matrix: (Units=1/GPa)
#
#
# Indices 1 2 3 4 5 6 
#
# 1 0.031601 0.000784 -0.010618 0.000000 0.005299 0.000000
# 2 0.000784 0.014315 -0.004389 0.000000 -0.003762 0.000000
# 3 -0.010618 -0.004389 0.015308 0.000000 0.003390 0.000000
# 4 0.000000 0.000000 0.000000 0.048368 0.000000 0.014796
# 5 0.005299 -0.003762 0.003390 0.000000 0.043050 0.000000
# 6 0.000000 0.000000 0.000000 0.014796 0.000000 0.060835
#
#
# Mechanical properties :
#
#
# Convention : Reuss Voigt Hill
#
# Bulk Modulus (GPa) = 30.50736 39.22628 34.86682
# Shear Modulus (GPa) = 19.77470 23.43187 21.60329
#
# Velocity S-wave (km/s) = 3.16744 3.44792 3.31065
# Velocity P-wave (km/s) = 5.37166 5.97932 5.68362
#
# Compressibility (1/GPa) = 0.03277897
#
# Stress axis : x y z
#
# Youngs Moduli (GPa) = 31.64463 69.85567 65.32712
#
# Poissons Ratio (x) = -0.05476 0.69363
# Poissons Ratio (y) = -0.02481 0.28669
# Poissons Ratio (z) = 0.33600 0.30656
#
# Static dielectric constant tensor:
#      x y z
#    x 1.743310 0.000000 -0.042020 
#    y 0.000000 1.700020 0.000000 
#    z -0.042020 0.000000 1.767960 
# 
# From -- ./inp_files/58002.got.cif
#   From: 2010.05.17/outbox.ucp.g08.bks.cvg/sg14_30_cif.got.tgz:58002.got - 2010.06.11 12:31:08.
