data_PCOD9253335
_publ_section_title
;
Structure prediction by ZEFSAII (Michael W. Deem and Ramdas Pophale) SiO2 
 PCOD9253335
Probable space group: P 21/C
;
_chemical_formula_sum "Si O2"
_cell_formula_units_Z 16
_cell_length_a 8.208235
_cell_length_b 8.232342
_cell_length_c 11.032170
_cell_angle_alpha 90.000000
_cell_angle_beta 58.855024
_cell_angle_gamma 90.000000
_cell_volume 638.024781
_symmetry_space_group_name_H-M "P 21/C"
_symmetry_group_IT_number 14
_symmetry_cell_setting 'monoclinic'
loop_
_space_group_symop_operation_xyz
x,y,z
-x,1/2+y,1/2-z
-x,-y,-z
x,1/2-y,1/2+z
loop_
_atom_site_type_symbol
_atom_site_label
_atom_site_fract_x
_atom_site_fract_y
_atom_site_fract_z
Si Si1 0.456208 0.848884 0.828800
Si Si2 0.240834 0.186169 0.638685
Si Si3 0.161538 0.371067 0.435705
Si Si4 0.775477 0.471435 0.053960
O O1 0.564725 0.781889 0.905929
O O2 0.303866 0.702179 0.868255
O O3 0.352893 0.021228 0.872899
O O4 0.627881 0.891753 0.667344
O O5 0.137491 0.273271 0.568740
O O6 0.140013 0.193329 0.806360
O O7 0.254503 0.003827 0.578921
O O8 0.000000 0.500000 0.500000
O O9 0.000000 0.500000 0.000000
#
# Coordination Sequence:
#
# PCOD9253335 Si02
#       4
#     4   4   4   4
#     4  12  26  50  79 117 159 210 270 333 406 477
#     4  12  26  53  75 118 158 209 269 336 401 482
#     4  12  29  50  82 117 160 212 269 334 408 481
#     4  12  27  51  81 117 164 213 268 334 405 487
#
# _framework density 25.077394999999999
#
# number of rings (size 3 to 8) (size 9 to 14) (size 15 to 20)
#    0.000    0.000    5.000    3.000    3.500    0.000 
#    0.000    0.000    0.000    0.000    0.000    0.000 
#    0.000    0.000    0.000    0.000    0.000    0.000 
#
# Total GULP energy -89140.048381 kJ/mol
# GULP energy per Si atom -5571.253024 kJ/mol
# Density = 2.502032 g / cm^3
# Si number density = 25.077395 Si / 1000 Ang^3
#
#
#
# Elastic Constant Matrix: (Units=GPa)
#
#
# Indices 1 2 3 4 5 6 
#
# 1 140.8524 36.0131 70.2336 0.0000 8.8180 0.0000
# 2 36.0131 100.7268 61.5948 0.0000 19.1413 0.0000
# 3 70.2336 61.5948 139.0323 0.0000 22.7711 0.0000
# 4 0.0000 0.0000 0.0000 45.3352 0.0000 -7.8620
# 5 8.8180 19.1413 22.7711 0.0000 40.1641 0.0000
# 6 0.0000 0.0000 0.0000 -7.8620 0.0000 63.2297
#
#
#
# Elastic Compliance Matrix: (Units=1/GPa)
#
#
# Indices 1 2 3 4 5 6 
#
# 1 0.009547 -0.000746 -0.004638 0.000000 0.000889 0.000000
# 2 -0.000746 0.014105 -0.005289 0.000000 -0.003560 0.000000
# 3 -0.004638 -0.005289 0.012456 0.000000 -0.003523 0.000000
# 4 0.000000 0.000000 0.000000 0.022544 0.000000 0.002803
# 5 0.000889 -0.003560 -0.003523 0.000000 0.028397 0.000000
# 6 0.000000 0.000000 0.000000 0.002803 0.000000 0.016164
#
#
# Mechanical properties :
#
#
# Convention : Reuss Voigt Hill
#
# Bulk Modulus (GPa) = 67.74194 79.58829 73.66512
# Shear Modulus (GPa) = 38.61598 43.93047 41.27323
#
# Velocity S-wave (km/s) = 3.92838 4.18999 4.06129
# Velocity P-wave (km/s) = 6.90275 7.43061 7.17154
#
# Compressibility (1/GPa) = 0.01476190
#
# Stress axis : x y z
#
# Youngs Moduli (GPa) = 104.74025 70.89479 80.28504
#
# Poissons Ratio (x) = 0.05291 0.37236
# Poissons Ratio (y) = 0.07817 0.42463
# Poissons Ratio (z) = 0.48578 0.37496
#
# Static dielectric constant tensor:
#      x y z
#    x 2.039190 0.000000 -0.174260 
#    y 0.000000 2.536000 0.000000 
#    z -0.174260 0.000000 2.158470 
# 
# From -- ./inp_files/22909.got.cif
#   From: 2010.05.17/outbox.cif.g08.bks.cpg/sg14_12_cif.got.tgz:22909.got - 2010.06.03 17:49:19.
