data_PCOD9253398
_publ_section_title
;
Structure prediction by ZEFSAII (Michael W. Deem and Ramdas Pophale) SiO2 
 PCOD9253398
Probable space group: P 21/C
;
_chemical_formula_sum "Si O2"
_cell_formula_units_Z 16
_cell_length_a 25.369209
_cell_length_b 4.900586
_cell_length_c 28.426310
_cell_angle_alpha 90.000000
_cell_angle_beta 169.725551
_cell_angle_gamma 90.000000
_cell_volume 630.349273
_symmetry_space_group_name_H-M "P 21/C"
_symmetry_group_IT_number 14
_symmetry_cell_setting 'monoclinic'
loop_
_space_group_symop_operation_xyz
x,y,z
-x,1/2+y,1/2-z
-x,-y,-z
x,1/2-y,1/2+z
loop_
_atom_site_type_symbol
_atom_site_label
_atom_site_fract_x
_atom_site_fract_y
_atom_site_fract_z
Si Si1 0.391328 0.450702 0.457774
Si Si2 0.845013 0.081879 0.092530
Si Si3 0.191500 0.214238 0.037695
Si Si4 0.292451 0.449619 0.726477
O O1 0.500000 0.500000 0.500000
O O2 0.602404 0.640288 0.674845
O O3 0.457308 0.144793 0.532025
O O4 0.065236 0.569244 0.177142
O O5 0.979013 0.862654 0.246381
O O6 0.878519 0.953706 0.070690
O O7 0.503649 0.139298 0.802805
O O8 0.230609 0.018140 0.117181
O O9 0.000000 0.500000 0.500000
#
# Coordination Sequence:
#
# PCOD9253398 Si02
#       4
#     4   4   4   4
#     4  12  28  51  80 121 163 209 266 328 408 488
#     4  12  30  56  80 120 162 216 282 336 404 482
#     4  12  30  52  86 116 168 214 272 340 410 478
#     4  12  28  51  80 121 163 209 266 328 408 488
#
# _framework density 25.382750000000001
#
# number of rings (size 3 to 8) (size 9 to 14) (size 15 to 20)
#    0.000    0.000    2.500    4.500    0.000   20.000 
#    0.000    0.000    0.000    0.000    0.000    0.000 
#    0.000    0.000    0.000    0.000    0.000    0.000 
#
# Total GULP energy -89994.595724 kJ/mol
# GULP energy per Si atom -5624.662233 kJ/mol
# Density = 2.532498 g / cm^3
# Si number density = 25.382750 Si / 1000 Ang^3
#
#
#
# Elastic Constant Matrix: (Units=GPa)
#
#
# Indices 1 2 3 4 5 6 
#
# 1 185.7293 25.0973 51.9786 0.0000 7.1157 0.0000
# 2 25.0973 76.4796 19.6703 0.0000 15.6911 0.0000
# 3 51.9786 19.6703 144.7280 0.0000 36.7867 0.0000
# 4 0.0000 0.0000 0.0000 52.8051 0.0000 -0.4312
# 5 7.1157 15.6911 36.7867 0.0000 48.7549 0.0000
# 6 0.0000 0.0000 0.0000 -0.4312 0.0000 40.8597
#
#
#
# Elastic Compliance Matrix: (Units=1/GPa)
#
#
# Indices 1 2 3 4 5 6 
#
# 1 0.006225 -0.001728 -0.002365 0.000000 0.001432 0.000000
# 2 -0.001728 0.014583 -0.000288 0.000000 -0.004224 0.000000
# 3 -0.002365 -0.000288 0.009511 0.000000 -0.006738 0.000000
# 4 0.000000 0.000000 0.000000 0.018939 0.000000 0.000200
# 5 0.001432 -0.004224 -0.006738 0.000000 0.026745 0.000000
# 6 0.000000 0.000000 0.000000 0.000200 0.000000 0.024476
#
#
# Mechanical properties :
#
#
# Convention : Reuss Voigt Hill
#
# Bulk Modulus (GPa) = 46.38802 66.71438 56.55120
# Shear Modulus (GPa) = 42.94577 49.16333 46.05455
#
# Velocity S-wave (km/s) = 4.11777 4.40577 4.26420
# Velocity P-wave (km/s) = 6.39712 7.22645 6.82439
#
# Compressibility (1/GPa) = 0.02155729
#
# Stress axis : x y z
#
# Youngs Moduli (GPa) = 160.65220 68.57228 105.14609
#
# Poissons Ratio (x) = 0.11851 0.24863
# Poissons Ratio (y) = 0.27765 0.03025
# Poissons Ratio (z) = 0.37988 0.01972
#
# Static dielectric constant tensor:
#      x y z
#    x 1.990800 0.000000 -0.034930 
#    y 0.000000 1.968110 0.000000 
#    z -0.034930 0.000000 1.973410 
# 
# From -- ./inp_files/78464.got.cif
#   From: 2010.05.17/outbox.cif.g08.bks.cpg/sg14_40_cif.got.tgz:78464.got - 2010.06.03 17:49:19.
