data_PCOD9253084
_publ_section_title
;
Structure prediction by ZEFSAII (Michael W. Deem and Ramdas Pophale) SiO2 
 PCOD9253084
Probable space group: P 21/C
;
_chemical_formula_sum "Si O2"
_cell_formula_units_Z 24
_cell_length_a 13.121466
_cell_length_b 8.347074
_cell_length_c 15.503369
_cell_angle_alpha 90.000000
_cell_angle_beta 147.818175
_cell_angle_gamma 90.000000
_cell_volume 904.378543
_symmetry_space_group_name_H-M "P 21/C"
_symmetry_group_IT_number 14
_symmetry_cell_setting 'monoclinic'
loop_
_space_group_symop_operation_xyz
x,y,z
-x,1/2+y,1/2-z
-x,-y,-z
x,1/2-y,1/2+z
loop_
_atom_site_type_symbol
_atom_site_label
_atom_site_fract_x
_atom_site_fract_y
_atom_site_fract_z
Si Si1 0.209412 0.421305 0.661176
Si Si2 0.184025 0.371826 0.448351
Si Si3 0.112941 0.078695 0.661176
Si Si4 0.805356 0.329421 0.657463
Si Si5 0.712677 0.371826 0.948351
Si Si6 0.509570 0.170579 0.657463
O O1 0.269951 0.387701 0.605656
O O2 0.199086 0.250000 0.699086
O O3 0.351290 0.558103 0.799147
O O4 0.000000 0.500000 0.500000
O O5 0.144537 0.546921 0.383785
O O6 0.347421 0.289662 0.506186
O O7 0.993219 0.268223 0.319165
O O8 0.941360 0.112299 0.605656
O O9 0.247003 0.941897 0.799147
O O10 0.000000 0.000000 0.500000
O O11 0.664951 0.210338 0.506186
O O12 0.645111 0.268223 0.819165
O O13 0.623032 0.546921 0.883784
#
# Coordination Sequence:
#
# PCOD9253084 Si02
#       6
#     4   4   4   4   4   4
#     4  12  24  42  70 102 137 177 223 287 353 399
#     4  12  23  43  73  99 135 183 238 278 327 426
#     4  12  24  42  70 102 137 177 223 287 353 399
#     4  12  23  43  72 101 135 182 237 273 337 415
#     4  12  23  43  73  99 135 183 238 278 327 426
#     4  12  23  43  72 101 135 182 237 273 337 415
#
# _framework density 26.537561
#
# number of rings (size 3 to 8) (size 9 to 14) (size 15 to 20)
#    0.000    0.000   10.000    0.000    0.000    0.000 
#    0.000    1.667    0.000    0.000    0.000    0.000 
#    0.000    0.000    0.000    0.000    0.000    0.000 
#
# Total GULP energy -134409.109440 kJ/mol
# GULP energy per Si atom -5600.379560 kJ/mol
# Density = 2.647716 g / cm^3
# Si number density = 26.537561 Si / 1000 Ang^3
#
#
#
# Elastic Constant Matrix: (Units=GPa)
#
#
# Indices 1 2 3 4 5 6 
#
# 1 57.3119 6.1029 4.1283 0.0000 -1.8284 0.0000
# 2 6.1029 109.2416 19.1703 0.0000 -0.4174 0.0000
# 3 4.1283 19.1703 48.7079 0.0000 2.1033 0.0000
# 4 0.0000 0.0000 0.0000 52.5930 0.0000 0.2516
# 5 -1.8284 -0.4174 2.1033 0.0000 55.0833 0.0000
# 6 0.0000 0.0000 0.0000 0.2516 0.0000 60.4669
#
#
#
# Elastic Compliance Matrix: (Units=1/GPa)
#
#
# Indices 1 2 3 4 5 6 
#
# 1 0.017638 -0.000769 -0.001219 0.000000 0.000626 0.000000
# 2 -0.000769 0.009869 -0.003828 0.000000 0.000195 0.000000
# 3 -0.001219 -0.003828 0.022180 0.000000 -0.000916 0.000000
# 4 0.000000 0.000000 0.000000 0.019014 0.000000 -0.000079
# 5 0.000626 0.000195 -0.000916 0.000000 0.018212 0.000000
# 6 0.000000 0.000000 0.000000 -0.000079 0.000000 0.016538
#
#
# Mechanical properties :
#
#
# Convention : Reuss Voigt Hill
#
# Bulk Modulus (GPa) = 26.27741 30.45162 28.36451
# Shear Modulus (GPa) = 39.13319 46.01929 42.57624
#
# Velocity S-wave (km/s) = 3.84426 4.16879 4.00981
# Velocity P-wave (km/s) = 5.44315 5.88826 5.67008
#
# Compressibility (1/GPa) = 0.03805550
#
# Stress axis : x y z
#
# Youngs Moduli (GPa) = 56.69551 101.32300 45.08577
#
# Poissons Ratio (x) = 0.07792 0.05497
# Poissons Ratio (y) = 0.04360 0.17257
# Poissons Ratio (z) = 0.06913 0.38783
#
# Static dielectric constant tensor:
#      x y z
#    x 2.196750 0.000000 0.004490 
#    y 0.000000 2.041550 0.000000 
#    z 0.004490 0.000000 2.056050 
# 
# From -- ./inp_files/8548.got.cif
#   From: 2010.05.17/outbox.cif.g08.bks.cpg/sg14_5_cif.got.tgz:8548.got - 2010.06.03 17:49:19.
