data_PCOD9253736
_publ_section_title
;
Structure prediction by ZEFSAII (Michael W. Deem and Ramdas Pophale) SiO2 
 PCOD9253736
Probable space group: P 21/C
;
_chemical_formula_sum "Si O2"
_cell_formula_units_Z 32
_cell_length_a 18.000000
_cell_length_b 12.000000
_cell_length_c 15.000000
_cell_angle_alpha 90.000000
_cell_angle_beta 30.000000
_cell_angle_gamma 90.000000
_cell_volume 1620.000000
_symmetry_space_group_name_H-M "P 21/C"
_symmetry_group_IT_number 14
_symmetry_cell_setting 'monoclinic'
loop_
_space_group_symop_operation_xyz
x,y,z
-x,1/2+y,1/2-z
-x,-y,-z
x,1/2-y,1/2+z
loop_
_atom_site_type_symbol
_atom_site_label
_atom_site_fract_x
_atom_site_fract_y
_atom_site_fract_z
Si Si1 0.603181 0.723156 0.713104
Si Si2 0.422822 0.523860 0.987013
Si Si3 0.092244 0.609880 0.374426
Si Si4 0.954142 0.737797 0.862471
Si Si5 0.892317 0.978448 0.529814
Si Si6 0.849734 0.233030 0.517182
Si Si7 0.505664 0.281022 0.860877
Si Si8 0.423695 0.383388 0.605246
O O1 0.526053 0.615542 0.834622
O O2 0.780944 0.729376 0.534548
O O3 0.557612 0.719853 0.658599
O O4 0.543010 0.830444 0.831954
O O5 0.433435 0.403485 0.930273
O O6 0.500000 0.500000 0.000000
O O7 0.257241 0.569529 0.174679
O O8 0.098731 0.696993 0.449930
O O9 0.000000 0.500000 0.500000
O O10 0.023025 0.678256 0.363945
O O11 0.041226 0.748594 0.679254
O O12 0.962437 0.609118 0.887108
O O13 0.749330 0.912933 0.714736
O O14 0.846237 0.099650 0.539631
O O15 0.000000 0.000000 0.500000
O O16 0.684153 0.278559 0.669768
O O17 0.462714 0.213459 0.994499
O O18 0.500000 0.500000 0.500000
#
# Coordination Sequence:
#
# PCOD9253736 Si02
#       8
#     4   4   4   4   4   4   4   4
#     4  11  27  44  69 106 137 183 232 286 348 414
#     4  12  24  47  73 100 142 183 238 288 346 420
#     4  12  27  45  72 101 142 186 232 293 352 412
#     4  11  28  45  69 104 145 180 234 286 349 418
#     4  11  25  45  71  99 139 182 228 282 344 410
#     4  12  26  46  71 106 138 184 233 284 350 417
#     4  12  27  45  74 103 138 185 232 288 350 411
#     4  11  24  45  69  98 139 177 231 284 340 404
#
# _framework density 19.753086
#
# number of rings (size 3 to 8) (size 9 to 14) (size 15 to 20)
#    0.000    0.500    5.000    1.500    8.750    2.000 
#    0.000    0.000    0.000    0.000    0.000    0.000 
#    0.000    0.000    0.000    0.000    0.000    0.000 
#
# Total GULP energy -178854.998714 kJ/mol
# GULP energy per Si atom -5589.218710 kJ/mol
# Density = 1.970813 g / cm^3
# Si number density = 19.753086 Si / 1000 Ang^3
#
#
#
# Elastic Constant Matrix: (Units=GPa)
#
#
# Indices 1 2 3 4 5 6 
#
# 1 77.3595 0.2232 36.4178 0.0000 7.1436 0.0000
# 2 0.2232 107.3145 46.3078 0.0000 11.7185 0.0000
# 3 36.4178 46.3078 137.0223 0.0000 17.3356 0.0000
# 4 0.0000 0.0000 0.0000 41.6762 0.0000 0.3127
# 5 7.1436 11.7185 17.3356 0.0000 15.6832 0.0000
# 6 0.0000 0.0000 0.0000 0.3127 0.0000 31.5037
#
#
#
# Elastic Compliance Matrix: (Units=1/GPa)
#
#
# Indices 1 2 3 4 5 6 
#
# 1 0.015325 0.002268 -0.004350 0.000000 -0.003866 0.000000
# 2 0.002268 0.011556 -0.003819 0.000000 -0.005446 0.000000
# 3 -0.004350 -0.003819 0.010618 0.000000 -0.006902 0.000000
# 4 0.000000 0.000000 0.000000 0.023996 0.000000 -0.000238
# 5 -0.003866 -0.005446 -0.006902 0.000000 0.077222 0.000000
# 6 0.000000 0.000000 0.000000 -0.000238 0.000000 0.031745
#
#
# Mechanical properties :
#
#
# Convention : Reuss Voigt Hill
#
# Bulk Modulus (GPa) = 38.91696 54.17709 46.54702
# Shear Modulus (GPa) = 26.20114 33.68915 29.94514
#
# Velocity S-wave (km/s) = 3.64597 4.13427 3.89777
# Velocity P-wave (km/s) = 6.12116 7.09057 6.62363
#
# Compressibility (1/GPa) = 0.02569574
#
# Stress axis : x y z
#
# Youngs Moduli (GPa) = 65.25258 86.53179 94.17778
#
# Poissons Ratio (x) = -0.19621 0.40970
# Poissons Ratio (y) = -0.14796 0.35969
# Poissons Ratio (z) = 0.28387 0.33048
#
# Static dielectric constant tensor:
#      x y z
#    x 1.693640 0.000000 0.013230 
#    y 0.000000 1.601480 0.000000 
#    z 0.013230 0.000000 1.679040 
# 
# From -- ./inp_files/48987.got.cif
#   From: 2010.05.17/outbox.ucp.g08.bks.cvg/sg14_25_cif.got.tgz:48987.got - 2010.06.11 12:31:08.
