data_PCOD9253185
_publ_section_title
;
Structure prediction by ZEFSAII (Michael W. Deem and Ramdas Pophale) SiO2 
 PCOD9253185
Probable space group: P 21/C
;
_chemical_formula_sum "Si O2"
_cell_formula_units_Z 20
_cell_length_a 9.603450
_cell_length_b 10.751647
_cell_length_c 8.435534
_cell_angle_alpha 90.000000
_cell_angle_beta 117.510250
_cell_angle_gamma 90.000000
_cell_volume 772.508608
_symmetry_space_group_name_H-M "P 21/C"
_symmetry_group_IT_number 14
_symmetry_cell_setting 'monoclinic'
loop_
_space_group_symop_operation_xyz
x,y,z
-x,1/2+y,1/2-z
-x,-y,-z
x,1/2-y,1/2+z
loop_
_atom_site_type_symbol
_atom_site_label
_atom_site_fract_x
_atom_site_fract_y
_atom_site_fract_z
Si Si1 0.921430 0.633396 0.989239
Si Si2 0.603270 0.991387 0.895657
Si Si3 0.781404 0.304651 0.327382
Si Si4 0.713124 0.757611 0.103391
Si Si5 0.403998 0.628543 0.067941
O O1 0.809848 0.666549 0.784240
O O2 0.815178 0.643825 0.090447
O O3 0.000000 0.500000 0.000000
O O4 0.048648 0.743981 0.075528
O O5 0.488021 0.994457 0.681419
O O6 0.735726 0.094638 0.937730
O O7 0.684959 0.857378 0.948524
O O8 0.500000 0.000000 0.000000
O O9 0.667018 0.190842 0.311711
O O10 0.733385 0.363676 0.134023
O O11 0.545587 0.712230 0.076337
#
# Coordination Sequence:
#
# PCOD9253185 Si02
#       5
#     4   4   4   4   4
#     4  12  31  50  75 109 161 203 254 319 388 461
#     4  12  26  47  82 113 152 197 263 329 375 459
#     4  12  26  47  76 115 152 205 258 309 394 456
#     4  12  26  51  74 110 152 199 256 315 386 454
#     4  12  24  48  78 115 147 197 259 316 381 459
#
# _framework density 25.889679000000001
#
# number of rings (size 3 to 8) (size 9 to 14) (size 15 to 20)
#    0.000    0.000    6.000    1.800    8.400    4.000 
#    0.000    0.000    0.000    0.000    0.000    0.000 
#    0.000    0.000    0.000    0.000    0.000    0.000 
#
# Total GULP energy -112116.522907 kJ/mol
# GULP energy per Si atom -5605.826145 kJ/mol
# Density = 2.583075 g / cm^3
# Si number density = 25.889679 Si / 1000 Ang^3
#
#
#
# Elastic Constant Matrix: (Units=GPa)
#
#
# Indices 1 2 3 4 5 6 
#
# 1 106.0114 20.7787 27.7195 0.0000 15.5946 0.0000
# 2 20.7787 86.1566 23.3082 0.0000 9.0422 0.0000
# 3 27.7195 23.3082 131.0637 0.0000 11.0926 0.0000
# 4 0.0000 0.0000 0.0000 44.6788 0.0000 3.3053
# 5 15.5946 9.0422 11.0926 0.0000 34.8465 0.0000
# 6 0.0000 0.0000 0.0000 3.3053 0.0000 58.9133
#
#
#
# Elastic Compliance Matrix: (Units=1/GPa)
#
#
# Indices 1 2 3 4 5 6 
#
# 1 0.010771 -0.001750 -0.001641 0.000000 -0.003843 0.000000
# 2 -0.001750 0.012701 -0.001722 0.000000 -0.001964 0.000000
# 3 -0.001641 -0.001722 0.008410 0.000000 -0.001496 0.000000
# 4 0.000000 0.000000 0.000000 0.022475 0.000000 -0.001261
# 5 -0.003843 -0.001964 -0.001496 0.000000 0.031403 0.000000
# 6 0.000000 0.000000 0.000000 -0.001261 0.000000 0.017045
#
#
# Mechanical properties :
#
#
# Convention : Reuss Voigt Hill
#
# Bulk Modulus (GPa) = 46.18158 51.87161 49.02660
# Shear Modulus (GPa) = 41.57996 44.44940 43.01468
#
# Velocity S-wave (km/s) = 4.01190 4.14802 4.08052
# Velocity P-wave (km/s) = 6.27192 6.55900 6.41707
#
# Compressibility (1/GPa) = 0.02165366
#
# Stress axis : x y z
#
# Youngs Moduli (GPa) = 92.84574 78.73424 118.90734
#
# Poissons Ratio (x) = 0.13780 0.19517
# Poissons Ratio (y) = 0.16249 0.20480
# Poissons Ratio (z) = 0.15240 0.13561
#
# Static dielectric constant tensor:
#      x y z
#    x 2.037470 0.000000 -0.027680 
#    y 0.000000 2.106470 0.000000 
#    z -0.027680 0.000000 2.033280 
# 
# From -- ./inp_files/12093.got.cif
#   From: 2010.05.17/outbox.cif.g08.bks.cpg/sg14_7_cif.got.tgz:12093.got - 2010.06.03 17:49:19.
