data_PCOD9253244
_publ_section_title
;
Structure prediction by ZEFSAII (Michael W. Deem and Ramdas Pophale) SiO2 
 PCOD9253244
Probable space group: P 21/C
;
_chemical_formula_sum "Si O2"
_cell_formula_units_Z 20
_cell_length_a 14.760756
_cell_length_b 5.014260
_cell_length_c 22.892068
_cell_angle_alpha 90.000000
_cell_angle_beta 150.889913
_cell_angle_gamma 90.000000
_cell_volume 824.277951
_symmetry_space_group_name_H-M "P 21/C"
_symmetry_group_IT_number 14
_symmetry_cell_setting 'monoclinic'
loop_
_space_group_symop_operation_xyz
x,y,z
-x,1/2+y,1/2-z
-x,-y,-z
x,1/2-y,1/2+z
loop_
_atom_site_type_symbol
_atom_site_label
_atom_site_fract_x
_atom_site_fract_y
_atom_site_fract_z
Si Si1 0.937324 0.877960 0.181833
Si Si2 0.718082 0.960313 0.395713
Si Si3 0.959512 0.458644 0.563652
Si Si4 0.344731 0.681981 0.747255
Si Si5 0.477088 0.251022 0.529247
O O1 0.995438 0.986559 0.151963
O O2 0.730921 0.760308 0.062457
O O3 0.059740 0.632489 0.273688
O O4 0.871306 0.168716 0.505999
O O5 0.682876 0.061688 0.310058
O O6 0.805116 0.671154 0.455332
O O7 0.522496 0.971893 0.320170
O O8 0.152606 0.518498 0.640182
O O9 0.391609 0.755091 0.840314
O O10 0.500000 0.500000 0.500000
O O11 0.500000 0.000000 0.500000
#
# Coordination Sequence:
#
# PCOD9253244 Si02
#       5
#     4   4   4   4   4
#     4  12  25  48  73 109 152 199 253 314 376 457
#     4  12  28  49  78 117 154 201 259 316 380 467
#     4  12  27  50  77 114 156 202 257 314 387 463
#     4  12  28  51  81 114 158 205 257 323 390 452
#     4  12  28  48  77 111 150 201 259 315 382 457
#
# _framework density 24.263660999999999
#
# number of rings (size 3 to 8) (size 9 to 14) (size 15 to 20)
#    0.000    0.000    2.000    7.200    2.800    6.400 
#    0.000    0.000    0.000    0.000    0.000    0.000 
#    0.000    0.000    0.000    0.000    0.000    0.000 
#
# Total GULP energy -112253.585297 kJ/mol
# GULP energy per Si atom -5612.679265 kJ/mol
# Density = 2.420844 g / cm^3
# Si number density = 24.263661 Si / 1000 Ang^3
#
#
#
# Elastic Constant Matrix: (Units=GPa)
#
#
# Indices 1 2 3 4 5 6 
#
# 1 119.8166 0.4109 37.5353 0.0000 1.1512 0.0000
# 2 0.4109 71.2218 -2.4551 0.0000 -16.5673 0.0000
# 3 37.5353 -2.4551 106.8154 0.0000 -14.0952 0.0000
# 4 0.0000 0.0000 0.0000 28.4082 0.0000 5.3610
# 5 1.1512 -16.5673 -14.0952 0.0000 63.3599 0.0000
# 6 0.0000 0.0000 0.0000 5.3610 0.0000 39.5107
#
#
#
# Elastic Compliance Matrix: (Units=1/GPa)
#
#
# Indices 1 2 3 4 5 6 
#
# 1 0.009444 -0.000419 -0.003467 0.000000 -0.001052 0.000000
# 2 -0.000419 0.015050 0.001044 0.000000 0.004175 0.000000
# 3 -0.003467 0.001044 0.010971 0.000000 0.002777 0.000000
# 4 0.000000 0.000000 0.000000 0.036126 0.000000 -0.004902
# 5 -0.001052 0.004175 0.002777 0.000000 0.017511 0.000000
# 6 0.000000 0.000000 0.000000 -0.004902 0.000000 0.025975
#
#
# Mechanical properties :
#
#
# Convention : Reuss Voigt Hill
#
# Bulk Modulus (GPa) = 33.57840 40.98179 37.28009
# Shear Modulus (GPa) = 38.25919 43.74662 41.00290
#
# Velocity S-wave (km/s) = 3.97521 4.25074 4.11529
# Velocity P-wave (km/s) = 5.91090 6.40458 6.16269
#
# Compressibility (1/GPa) = 0.02978105
#
# Stress axis : x y z
#
# Youngs Moduli (GPa) = 105.88989 66.44401 91.15213
#
# Poissons Ratio (x) = 0.02783 0.31603
# Poissons Ratio (y) = 0.04435 -0.09517
# Poissons Ratio (z) = 0.36713 -0.06937
#
# Static dielectric constant tensor:
#      x y z
#    x 1.912190 0.000000 -0.000830 
#    y 0.000000 1.862400 0.000000 
#    z -0.000830 0.000000 1.952830 
# 
# From -- ./inp_files/67921.got.cif
#   From: 2010.05.17/outbox.cif.g08.bks.cpg/sg14_34_cif.got.tgz:67921.got - 2010.06.03 17:49:19.
