data_PCOD9253147
_publ_section_title
;
Structure prediction by ZEFSAII (Michael W. Deem and Ramdas Pophale) SiO2 
 PCOD9253147
Probable space group: P 21/C
;
_chemical_formula_sum "Si O2"
_cell_formula_units_Z 32
_cell_length_a 11.583256
_cell_length_b 17.933406
_cell_length_c 14.464945
_cell_angle_alpha 90.000000
_cell_angle_beta 149.771334
_cell_angle_gamma 90.000000
_cell_volume 1512.754824
_symmetry_space_group_name_H-M "P 21/C"
_symmetry_group_IT_number 14
_symmetry_cell_setting 'monoclinic'
loop_
_space_group_symop_operation_xyz
x,y,z
-x,1/2+y,1/2-z
-x,-y,-z
x,1/2-y,1/2+z
loop_
_atom_site_type_symbol
_atom_site_label
_atom_site_fract_x
_atom_site_fract_y
_atom_site_fract_z
Si Si1 0.133681 0.076835 0.605856
Si Si2 0.175757 0.820672 0.738345
Si Si3 0.740278 0.965566 0.632044
Si Si4 0.921743 0.697216 0.258899
Si Si5 0.482298 0.047995 0.700908
Si Si6 0.145030 0.431267 0.488093
Si Si7 0.308881 0.356702 0.412734
Si Si8 0.175486 0.825059 0.119958
O O1 0.382457 0.067263 0.731263
O O2 0.171363 0.100962 0.736987
O O3 0.995517 0.137787 0.450540
O O4 0.000000 0.000000 0.500000
O O5 0.225085 0.740669 0.725804
O O6 0.057792 0.812729 0.756635
O O7 0.418421 0.862539 0.913455
O O8 0.779372 0.878470 0.679004
O O9 0.725635 0.972024 0.510973
O O10 0.500000 0.000000 0.500000
O O11 0.947767 0.011883 0.818259
O O12 0.766494 0.770357 0.144888
O O13 0.095666 0.705208 0.465258
O O14 0.613178 0.119186 0.749792
O O15 0.657994 0.980081 0.828656
O O16 0.243058 0.389054 0.466844
O O17 0.029571 0.373617 0.478081
#
# Coordination Sequence:
#
# PCOD9253147 Si02
#       8
#     4   4   4   4   4   4   4   4
#     4  12  27  49  73 104 144 197 247 296 362 439
#     4  12  27  49  71 105 147 188 241 298 360 441
#     4  12  24  43  76 105 142 186 236 301 367 426
#     4  12  25  49  72 104 144 189 238 297 369 431
#     4  12  24  44  74 105 143 192 234 300 369 424
#     4  12  26  46  69 111 145 179 247 301 359 436
#     4  12  28  46  73 104 145 196 242 298 365 436
#     4  12  24  46  75 105 145 183 241 300 361 435
#
# _framework density 21.153462000000001
#
# number of rings (size 3 to 8) (size 9 to 14) (size 15 to 20)
#    0.000    0.000    6.250    4.125    0.000    1.000 
#    2.250    0.000    0.000    0.000    0.000    0.000 
#    0.000    0.000    0.000    0.000    0.000    0.000 
#
# Total GULP energy -179211.374088 kJ/mol
# GULP energy per Si atom -5600.355440 kJ/mol
# Density = 2.110532 g / cm^3
# Si number density = 21.153462 Si / 1000 Ang^3
#
#
#
# Elastic Constant Matrix: (Units=GPa)
#
#
# Indices 1 2 3 4 5 6 
#
# 1 98.9600 21.5668 9.4824 0.0000 -3.9139 0.0000
# 2 21.5668 97.8665 11.9007 0.0000 -0.3066 0.0000
# 3 9.4824 11.9007 80.3822 0.0000 -12.1774 0.0000
# 4 0.0000 0.0000 0.0000 26.8193 0.0000 -2.8504
# 5 -3.9139 -0.3066 -12.1774 0.0000 37.8018 0.0000
# 6 0.0000 0.0000 0.0000 -2.8504 0.0000 35.2208
#
#
#
# Elastic Compliance Matrix: (Units=1/GPa)
#
#
# Indices 1 2 3 4 5 6 
#
# 1 0.010707 -0.002259 -0.000803 0.000000 0.000832 0.000000
# 2 -0.002259 0.010889 -0.001438 0.000000 -0.000609 0.000000
# 3 -0.000803 -0.001438 0.013387 0.000000 0.004218 0.000000
# 4 0.000000 0.000000 0.000000 0.037610 0.000000 0.003044
# 5 0.000832 -0.000609 0.004218 0.000000 0.027894 0.000000
# 6 0.000000 0.000000 0.000000 0.003044 0.000000 0.028639
#
#
# Mechanical properties :
#
#
# Convention : Reuss Voigt Hill
#
# Bulk Modulus (GPa) = 38.48572 40.34537 39.41555
# Shear Modulus (GPa) = 34.06314 35.58565 34.82439
#
# Velocity S-wave (km/s) = 4.01719 4.10599 4.06183
# Velocity P-wave (km/s) = 6.30477 6.44926 6.37743
#
# Compressibility (1/GPa) = 0.02598367
#
# Stress axis : x y z
#
# Youngs Moduli (GPa) = 93.39433 91.83727 74.69894
#
# Poissons Ratio (x) = 0.20749 0.05995
# Poissons Ratio (y) = 0.21101 0.10740
# Poissons Ratio (z) = 0.07496 0.13204
#
# Static dielectric constant tensor:
#      x y z
#    x 1.753550 0.000000 -0.011680 
#    y 0.000000 1.751040 0.000000 
#    z -0.011680 0.000000 1.745690 
# 
# From -- ./inp_files/45464.got.cif
#   From: 2010.05.17/outbox.cif.g08.bks.cpg/sg14_23_cif.got.tgz:45464.got - 2010.06.03 17:49:19.
