data_PCOD9253373
_publ_section_title
;
Structure prediction by ZEFSAII (Michael W. Deem and Ramdas Pophale) SiO2 
 PCOD9253373
Probable space group: P 21/C
;
_chemical_formula_sum "Si O2"
_cell_formula_units_Z 20
_cell_length_a 7.190651
_cell_length_b 21.605238
_cell_length_c 7.838054
_cell_angle_alpha 90.000000
_cell_angle_beta 142.894225
_cell_angle_gamma 90.000000
_cell_volume 734.616153
_symmetry_space_group_name_H-M "P 21/C"
_symmetry_group_IT_number 14
_symmetry_cell_setting 'monoclinic'
loop_
_space_group_symop_operation_xyz
x,y,z
-x,1/2+y,1/2-z
-x,-y,-z
x,1/2-y,1/2+z
loop_
_atom_site_type_symbol
_atom_site_label
_atom_site_fract_x
_atom_site_fract_y
_atom_site_fract_z
Si Si1 0.199955 0.316181 0.233943
Si Si2 0.849070 0.503850 0.686207
Si Si3 0.242778 0.318261 0.666909
Si Si4 0.520561 0.053630 0.373581
Si Si5 0.173618 0.863799 0.846829
O O1 0.152907 0.318148 0.401880
O O2 0.352059 0.250419 0.294889
O O3 0.459222 0.366771 0.381488
O O4 0.926272 0.329388 0.900857
O O5 0.500000 0.500000 0.500000
O O6 0.775944 0.540272 0.459258
O O7 0.950935 0.433286 0.734792
O O8 0.147136 0.540543 0.974699
O O9 0.479859 0.373970 0.883924
O O10 0.957294 0.328917 0.585227
O O11 0.500000 0.000000 0.500000
#
# Coordination Sequence:
#
# PCOD9253373 Si02
#       5
#     4   4   4   4   4
#     4  12  30  50  81 122 155 225 274 346 417 493
#     4  12  27  52  81 121 166 213 274 344 415 497
#     4  12  29  53  85 115 171 213 285 339 418 497
#     4  12  27  50  81 118 162 217 267 338 420 489
#     4  12  29  54  82 119 169 213 279 345 411 499
#
# _framework density 27.225102
#
# number of rings (size 3 to 8) (size 9 to 14) (size 15 to 20)
#    0.000    0.000    4.000    3.600    2.800    8.000 
#    0.000    0.000    0.000    0.000    0.000    0.000 
#    0.000    0.000    0.000    0.000    0.000    0.000 
#
# Total GULP energy -112096.126016 kJ/mol
# GULP energy per Si atom -5604.806301 kJ/mol
# Density = 2.716314 g / cm^3
# Si number density = 27.225102 Si / 1000 Ang^3
#
#
#
# Elastic Constant Matrix: (Units=GPa)
#
#
# Indices 1 2 3 4 5 6 
#
# 1 140.7340 10.9906 30.1555 0.0000 -7.3377 0.0000
# 2 10.9906 173.9095 21.8461 0.0000 -9.4503 0.0000
# 3 30.1555 21.8461 145.3406 0.0000 1.1894 0.0000
# 4 0.0000 0.0000 0.0000 38.0654 0.0000 7.2294
# 5 -7.3377 -9.4503 1.1894 0.0000 41.2147 0.0000
# 6 0.0000 0.0000 0.0000 7.2294 0.0000 44.6770
#
#
#
# Elastic Compliance Matrix: (Units=1/GPa)
#
#
# Indices 1 2 3 4 5 6 
#
# 1 0.007522 -0.000209 -0.001540 0.000000 0.001336 0.000000
# 2 -0.000209 0.005945 -0.000861 0.000000 0.001351 0.000000
# 3 -0.001540 -0.000861 0.007335 0.000000 -0.000683 0.000000
# 4 0.000000 0.000000 0.000000 0.027104 0.000000 -0.004386
# 5 0.001336 0.001351 -0.000683 0.000000 0.024830 0.000000
# 6 0.000000 0.000000 0.000000 -0.004386 0.000000 0.023093
#
#
# Mechanical properties :
#
#
# Convention : Reuss Voigt Hill
#
# Bulk Modulus (GPa) = 64.18355 65.10763 64.64559
# Shear Modulus (GPa) = 47.06211 51.25753 49.15982
#
# Velocity S-wave (km/s) = 4.16219 4.34375 4.25394
# Velocity P-wave (km/s) = 6.83555 7.00885 6.92274
#
# Compressibility (1/GPa) = 0.01558032
#
# Stress axis : x y z
#
# Youngs Moduli (GPa) = 132.95086 168.21064 136.33335
#
# Poissons Ratio (x) = 0.03521 0.20996
# Poissons Ratio (y) = 0.02783 0.11741
# Poissons Ratio (z) = 0.20475 0.14486
#
# Static dielectric constant tensor:
#      x y z
#    x 2.213100 0.000000 -0.035710 
#    y 0.000000 2.150130 0.000000 
#    z -0.035710 0.000000 2.066510 
# 
# From -- ./inp_files/10840.got.cif
#   From: 2010.05.17/outbox.cif.g08.bks.cpg/sg14_6_cif.got.tgz:10840.got - 2010.06.03 17:49:19.
