data_PCOD9253716
_publ_section_title
;
Structure prediction by ZEFSAII (Michael W. Deem and Ramdas Pophale) SiO2 
 PCOD9253716
Probable space group: P 21/C
;
_chemical_formula_sum "Si O2"
_cell_formula_units_Z 24
_cell_length_a 24.000000
_cell_length_b 12.000000
_cell_length_c 12.000000
_cell_angle_alpha 90.000000
_cell_angle_beta 20.000000
_cell_angle_gamma 90.000000
_cell_volume 1182.021615
_symmetry_space_group_name_H-M "P 21/C"
_symmetry_group_IT_number 14
_symmetry_cell_setting 'monoclinic'
loop_
_space_group_symop_operation_xyz
x,y,z
-x,1/2+y,1/2-z
-x,-y,-z
x,1/2-y,1/2+z
loop_
_atom_site_type_symbol
_atom_site_label
_atom_site_fract_x
_atom_site_fract_y
_atom_site_fract_z
Si Si1 0.921309 0.340532 0.436072
Si Si2 0.253060 0.873866 0.304899
Si Si3 0.626876 0.686465 0.104149
Si Si4 0.246574 0.244548 0.884961
Si Si5 0.187844 0.531854 0.166010
Si Si6 0.989236 0.534342 0.147321
O O1 0.867395 0.232489 0.468875
O O2 0.810376 0.363365 0.752495
O O3 0.910585 0.441107 0.371924
O O4 0.105826 0.336685 0.134606
O O5 0.254851 0.935798 0.419728
O O6 0.167873 0.942052 0.364735
O O7 0.436087 0.833930 0.945035
O O8 0.659155 0.740043 0.171034
O O9 0.679501 0.737148 0.882051
O O10 0.720857 0.569570 0.945363
O O11 0.133386 0.137031 0.114581
O O12 0.000000 0.500000 0.500000
O O13 0.000000 0.500000 0.000000
#
# Coordination Sequence:
#
# PCOD9253716 Si02
#       6
#     4   4   4   4   4   4
#     4  11  23  42  67  96 129 174 237 272 329 407
#     4  11  27  41  69 100 137 176 222 285 348 402
#     4  12  25  45  67 104 141 178 227 286 354 404
#     4  11  24  42  68  96 134 181 228 279 339 416
#     4  12  21  45  72  95 128 186 233 274 333 421
#     4  11  23  43  67  97 128 176 226 280 334 407
#
# _framework density 20.304196999999998
#
# number of rings (size 3 to 8) (size 9 to 14) (size 15 to 20)
#    0.000    0.667    5.000    2.500    7.000    0.000 
#    3.000    1.667    0.000    0.000    0.000    0.000 
#    0.000    0.000    0.000    0.000    0.000    0.000 
#
# Total GULP energy -133621.996649 kJ/mol
# GULP energy per Si atom -5567.583194 kJ/mol
# Density = 2.025798 g / cm^3
# Si number density = 20.304197 Si / 1000 Ang^3
#
#
#
# Elastic Constant Matrix: (Units=GPa)
#
#
# Indices 1 2 3 4 5 6 
#
# 1 167.7279 32.5515 49.6887 0.0000 23.0152 0.0000
# 2 32.5515 57.3765 14.9956 0.0000 10.4829 0.0000
# 3 49.6887 14.9956 92.3064 0.0000 6.4079 0.0000
# 4 0.0000 0.0000 0.0000 20.8438 0.0000 8.3056
# 5 23.0152 10.4829 6.4079 0.0000 42.7011 0.0000
# 6 0.0000 0.0000 0.0000 8.3056 0.0000 30.4419
#
#
#
# Elastic Compliance Matrix: (Units=1/GPa)
#
#
# Indices 1 2 3 4 5 6 
#
# 1 0.008047 -0.003063 -0.003623 0.000000 -0.003042 0.000000
# 2 -0.003063 0.020094 -0.001402 0.000000 -0.003072 0.000000
# 3 -0.003623 -0.001402 0.012987 0.000000 0.000348 0.000000
# 4 0.000000 0.000000 0.000000 0.053828 0.000000 -0.014686
# 5 -0.003042 -0.003072 0.000348 0.000000 0.025760 0.000000
# 6 0.000000 0.000000 0.000000 -0.014686 0.000000 0.036856
#
#
# Mechanical properties :
#
#
# Convention : Reuss Voigt Hill
#
# Bulk Modulus (GPa) = 40.07675 56.87582 48.47629
# Shear Modulus (GPa) = 27.46248 33.47569 30.46909
#
# Velocity S-wave (km/s) = 3.68170 4.06483 3.87800
# Velocity P-wave (km/s) = 6.15258 7.07836 6.63164
#
# Compressibility (1/GPa) = 0.02495212
#
# Stress axis : x y z
#
# Youngs Moduli (GPa) = 124.26793 49.76587 76.99733
#
# Poissons Ratio (x) = 0.15242 0.27897
# Poissons Ratio (y) = 0.38060 0.10799
# Poissons Ratio (z) = 0.45023 0.06979
#
# Static dielectric constant tensor:
#      x y z
#    x 1.753820 0.000000 0.023170 
#    y 0.000000 1.724060 0.000000 
#    z 0.023170 0.000000 1.716250 
# 
# From -- ./inp_files/24171.got.cif
#   From: 2010.05.17/outbox.ucp.g08.bks.cvg/sg14_13_cif.got.tgz:24171.got - 2010.06.11 12:31:08.
