data_PCOD9253723
_publ_section_title
;
Structure prediction by ZEFSAII (Michael W. Deem and Ramdas Pophale) SiO2 
 PCOD9253723
Probable space group: P 21/C
;
_chemical_formula_sum "Si O2"
_cell_formula_units_Z 28
_cell_length_a 30.000000
_cell_length_b 9.000000
_cell_length_c 30.000000
_cell_angle_alpha 90.000000
_cell_angle_beta 170.000000
_cell_angle_gamma 90.000000
_cell_volume 1406.550239
_symmetry_space_group_name_H-M "P 21/C"
_symmetry_group_IT_number 14
_symmetry_cell_setting 'monoclinic'
loop_
_space_group_symop_operation_xyz
x,y,z
-x,1/2+y,1/2-z
-x,-y,-z
x,1/2-y,1/2+z
loop_
_atom_site_type_symbol
_atom_site_label
_atom_site_fract_x
_atom_site_fract_y
_atom_site_fract_z
Si Si1 0.062654 0.596404 0.942945
Si Si2 0.761612 0.011148 0.730963
Si Si3 0.569048 0.698110 0.961309
Si Si4 0.551116 0.872038 0.694835
Si Si5 0.788231 0.448223 0.010513
Si Si6 0.078017 0.737390 0.177090
Si Si7 0.715804 0.791835 0.957425
O O1 0.807473 0.696049 0.682501
O O2 0.974908 0.440297 0.880687
O O3 0.148333 0.538040 0.979022
O O4 0.303856 0.698088 0.200606
O O5 0.802197 0.168916 0.745977
O O6 0.500000 0.000000 0.500000
O O7 0.704478 0.881049 0.638225
O O8 0.000000 0.000000 0.000000
O O9 0.501028 0.548139 0.865837
O O10 0.292457 0.778618 0.426629
O O11 0.639148 0.842032 0.831933
O O12 0.800096 0.814266 0.912444
O O13 0.022619 0.368209 0.267378
O O14 0.744184 0.613564 0.986404
O O15 0.530359 0.350150 0.758099
#
# Coordination Sequence:
#
# PCOD9253723 Si02
#       7
#     4   4   4   4   4   4   4
#     4  12  25  45  64 100 139 174 225 279 330 393
#     4  11  23  46  72 102 133 169 218 271 332 417
#     4  11  25  42  72 100 133 175 225 268 335 401
#     4  11  23  44  66  94 130 182 230 267 324 408
#     4  12  28  44  64  95 137 180 224 288 331 382
#     4  11  23  44  72  95 132 181 216 270 336 406
#     4  12  27  45  65  96 134 177 237 281 343 372
#
# _framework density 19.906860999999999
#
# number of rings (size 3 to 8) (size 9 to 14) (size 15 to 20)
#    0.000    0.571    1.429    7.714    8.000    0.000 
#    0.000    4.286    0.000    0.000    0.000    0.000 
#    0.000    0.000    0.000    0.000    0.000    0.000 
#
# Total GULP energy -156291.312187 kJ/mol
# GULP energy per Si atom -5581.832578 kJ/mol
# Density = 1.986155 g / cm^3
# Si number density = 19.906861 Si / 1000 Ang^3
#
#
#
# Elastic Constant Matrix: (Units=GPa)
#
#
# Indices 1 2 3 4 5 6 
#
# 1 49.2695 13.4581 13.8395 0.0000 -3.4426 0.0000
# 2 13.4581 156.4185 63.3363 0.0000 3.0363 0.0000
# 3 13.8395 63.3363 182.0503 0.0000 -3.3470 0.0000
# 4 0.0000 0.0000 0.0000 52.4222 0.0000 1.4793
# 5 -3.4426 3.0363 -3.3470 0.0000 46.4511 0.0000
# 6 0.0000 0.0000 0.0000 1.4793 0.0000 24.7292
#
#
#
# Elastic Compliance Matrix: (Units=1/GPa)
#
#
# Indices 1 2 3 4 5 6 
#
# 1 0.021096 -0.001406 -0.001085 0.000000 0.001577 0.000000
# 2 -0.001406 0.007556 -0.002536 0.000000 -0.000781 0.000000
# 3 -0.001085 -0.002536 0.006468 0.000000 0.000551 0.000000
# 4 0.000000 0.000000 0.000000 0.019108 0.000000 -0.001143
# 5 0.001577 -0.000781 0.000551 0.000000 0.021736 0.000000
# 6 0.000000 0.000000 0.000000 -0.001143 0.000000 0.040506
#
#
# Mechanical properties :
#
#
# Convention : Reuss Voigt Hill
#
# Bulk Modulus (GPa) = 39.89769 63.22289 51.56029
# Shear Modulus (GPa) = 37.06978 44.52747 40.79863
#
# Velocity S-wave (km/s) = 4.31996 4.73460 4.53202
# Velocity P-wave (km/s) = 6.70585 7.85601 7.30361
#
# Compressibility (1/GPa) = 0.02506411
#
# Stress axis : x y z
#
# Youngs Moduli (GPa) = 47.40296 132.34088 154.60623
#
# Poissons Ratio (x) = 0.18609 0.16782
# Poissons Ratio (y) = 0.06665 0.39213
# Poissons Ratio (z) = 0.05146 0.33566
#
# Static dielectric constant tensor:
#      x y z
#    x 1.784890 0.000000 0.024840 
#    y 0.000000 1.716080 0.000000 
#    z 0.024840 0.000000 1.688420 
# 
# From -- ./inp_files/80919.got.cif
#   From: 2010.05.17/outbox.ucp.g08.bks.cvg/sg14_41_cif.got.tgz:80919.got - 2010.06.11 12:31:08.
