data_PCOD9253840
_publ_section_title
;
Structure prediction by ZEFSAII (Michael W. Deem and Ramdas Pophale) SiO2 
 PCOD9253840
Probable space group: C 2/C
;
_chemical_formula_sum "Si O2"
_cell_formula_units_Z 48
_cell_length_a 20.582813
_cell_length_b 7.785696
_cell_length_c 13.498278
_cell_angle_alpha 90.000000
_cell_angle_beta 62.636242
_cell_angle_gamma 90.000000
_cell_volume 1921.080180
_symmetry_space_group_name_H-M "C 2/C"
_symmetry_group_IT_number 15
_symmetry_cell_setting 'monoclinic'
loop_
_space_group_symop_operation_xyz
x,y,z
-x,y,1/2-z
-x,-y,-z
x,-y,1/2+z
1/2+x,1/2+y,z
1/2-x,1/2+y,1/2-z
1/2-x,1/2-y,-z
1/2+x,1/2-y,1/2+z
loop_
_atom_site_type_symbol
_atom_site_label
_atom_site_fract_x
_atom_site_fract_y
_atom_site_fract_z
Si Si1 0.230111 0.773376 0.240147
Si Si2 0.793292 0.584083 0.428518
Si Si3 0.172375 0.156753 0.988889
Si Si4 0.895237 0.170278 0.083306
Si Si5 0.884445 0.021762 0.285764
Si Si6 0.556182 0.188875 0.136936
O O1 0.203795 0.614920 0.190393
O O2 0.318956 0.771346 0.165820
O O3 0.188214 0.936552 0.217338
O O4 0.197063 0.745264 0.372441
O O5 0.750000 0.750000 0.500000
O O6 0.747842 0.418242 0.479797
O O7 0.871221 0.577008 0.421272
O O8 0.133743 0.988954 0.962832
O O9 0.126956 0.167439 0.122785
O O10 0.927385 0.099922 0.163026
O O11 0.954569 0.260907 0.969997
O O12 0.920714 0.857874 0.314212
O O13 0.500000 0.100755 0.250000
#
# Coordination Sequence:
#
# PCOD9253840 Si02
#       6
#     8   8   8   8   8   8
#     4   9  15  25  44  65  85 110 139 177 216 251
#     4  10  14  30  46  63  86 112 140 183 208 244
#     4   9  15  25  44  65  85 109 139 178 219 249
#     4   9  16  27  41  61  87 114 139 175 215 253
#     4   9  16  27  41  62  91 111 136 176 215 257
#     4  10  18  28  44  64  84 114 148 175 209 256
#
# _framework density 24.985942000000001
#
# number of rings (size 3 to 8) (size 9 to 14) (size 15 to 20)
#    0.000    2.667    6.667    0.000    0.000    1.333 
#    0.000    0.000    0.000    1.000    0.000    1.167 
#    0.000    0.000    0.000    0.000    0.000    0.000 
#
# Total GULP energy -133680.897039 kJ/mol
# GULP energy per Si atom -5570.037377 kJ/mol
# Density = 2.492907 g / cm^3
# Si number density = 24.985942 Si / 1000 Ang^3
#
#
#
# Elastic Constant Matrix: (Units=GPa)
#
#
# Indices 1 2 3 4 5 6 
#
# 1 11.2126 -1.0078 22.7495 0.0000 10.9831 0.0000
# 2 -1.0078 55.0286 14.6056 0.0000 8.0681 0.0000
# 3 22.7495 14.6056 182.4824 0.0000 43.4855 0.0000
# 4 0.0000 0.0000 0.0000 25.3512 0.0000 -0.2644
# 5 10.9831 8.0681 43.4855 0.0000 38.2730 0.0000
# 6 0.0000 0.0000 0.0000 -0.2644 0.0000 9.8392
#
#
#
# Elastic Compliance Matrix: (Units=1/GPa)
#
#
# Indices 1 2 3 4 5 6 
#
# 1 0.142769 0.010062 -0.011430 0.000000 -0.030104 0.000000
# 2 0.010062 0.019540 -0.001575 0.000000 -0.005217 0.000000
# 3 -0.011430 -0.001575 0.008461 0.000000 -0.006001 0.000000
# 4 0.000000 0.000000 0.000000 0.039457 0.000000 0.001060
# 5 -0.030104 -0.005217 -0.006001 0.000000 0.042685 0.000000
# 6 0.000000 0.000000 0.000000 0.001060 0.000000 0.101663
#
#
# Mechanical properties :
#
#
# Convention : Reuss Voigt Hill
#
# Bulk Modulus (GPa) = 6.06490 35.71313 20.88902
# Shear Modulus (GPa) = 12.03595 28.85110 20.44353
#
# Velocity S-wave (km/s) = 2.19717 3.40176 2.86352
# Velocity P-wave (km/s) = 2.97814 5.45469 4.39448
#
# Compressibility (1/GPa) = 0.16488307
#
# Stress axis : x y z
#
# Youngs Moduli (GPa) = 7.00434 51.17815 118.18751
#
# Poissons Ratio (x) = -0.51496 1.35089
# Poissons Ratio (y) = -0.07048 0.18616
# Poissons Ratio (z) = 0.08006 0.08061
#
# Static dielectric constant tensor:
#      x y z
#    x 2.147640 0.000000 -0.050070 
#    y 0.000000 2.146130 0.000000 
#    z -0.050070 0.000000 2.087900 
# 
# From -- ./inp_files/118300.got.cif
#   From: 2010.05.17/outbox.cif.g08.bks.cpg/sg15_60_cif.got.tgz:118300.got - 2010.06.03 18:47:42.
