data_PCOD9253877
_publ_section_title
;
Structure prediction by ZEFSAII (Michael W. Deem and Ramdas Pophale) SiO2 
 PCOD9253877
Probable space group: C 2/C
;
_chemical_formula_sum "Si O2"
_cell_formula_units_Z 60
_cell_length_a 16.340182
_cell_length_b 11.000051
_cell_length_c 23.421550
_cell_angle_alpha 90.000000
_cell_angle_beta 137.643596
_cell_angle_gamma 90.000000
_cell_volume 2836.349540
_symmetry_space_group_name_H-M "C 2/C"
_symmetry_group_IT_number 15
_symmetry_cell_setting 'monoclinic'
loop_
_space_group_symop_operation_xyz
x,y,z
-x,y,1/2-z
-x,-y,-z
x,-y,1/2+z
1/2+x,1/2+y,z
1/2-x,1/2+y,1/2-z
1/2-x,1/2-y,-z
1/2+x,1/2-y,1/2+z
loop_
_atom_site_type_symbol
_atom_site_label
_atom_site_fract_x
_atom_site_fract_y
_atom_site_fract_z
Si Si1 0.124853 0.474170 0.096232
Si Si2 0.213568 0.049109 0.002026
Si Si3 0.462025 0.471290 0.829414
Si Si4 0.739462 0.785283 0.080281
Si Si5 0.142357 0.560047 0.825769
Si Si6 0.500000 0.335729 0.250000
Si Si7 0.714254 0.300547 0.805054
Si Si8 0.288623 0.062338 0.247877
O O1 0.175527 0.345771 0.101288
O O2 0.218976 0.584905 0.129981
O O3 0.124521 0.484756 0.164878
O O4 0.000000 0.500000 0.000000
O O5 0.179804 0.164516 0.024742
O O6 0.310122 0.973236 0.087463
O O7 0.265604 0.111532 0.971818
O O8 0.093198 0.974566 0.924950
O O9 0.459445 0.577186 0.780982
O O10 0.422663 0.346631 0.777873
O O11 0.349001 0.486581 0.814401
O O12 0.882511 0.766188 0.166249
O O13 0.171368 0.452595 0.795406
O O14 0.213466 0.676676 0.837693
O O15 0.000000 0.582130 0.750000
O O16 0.780369 0.307754 0.776624
#
# Coordination Sequence:
#
# PCOD9253877 Si02
#       8
#     8   8   8   8   8   4   8   8
#     4   9  19  39  68  94 121 172 228 269 316 402
#     4  10  24  37  59 101 129 172 212 283 319 392
#     4   8  18  40  64  85 120 170 223 255 322 399
#     4  10  20  38  62  95 132 168 220 264 335 386
#     4  12  26  42  62 101 142 169 217 281 340 385
#     4  10  14  34  68  84 122 170 222 264 310 402
#     4   8  21  42  62  89 121 174 217 263 323 393
#     4   8  21  42  61  89 121 180 213 258 330 397
#
# _framework density 21.153950999999999
#
# number of rings (size 3 to 8) (size 9 to 14) (size 15 to 20)
#    1.600    0.800    2.667    0.000    3.733    2.667 
#    2.400    1.333    0.000    0.000    0.000    0.000 
#    0.000    0.000    0.000    0.000    0.000    0.000 
#
# Total GULP energy -167101.023891 kJ/mol
# GULP energy per Si atom -5570.034130 kJ/mol
# Density = 2.110580 g / cm^3
# Si number density = 21.153951 Si / 1000 Ang^3
#
#
#
# Elastic Constant Matrix: (Units=GPa)
#
#
# Indices 1 2 3 4 5 6 
#
# 1 33.8002 4.5798 0.7087 0.0000 -6.0141 0.0000
# 2 4.5798 58.4701 11.0780 0.0000 -4.9305 0.0000
# 3 0.7087 11.0780 130.4505 0.0000 4.7977 0.0000
# 4 0.0000 0.0000 0.0000 18.7794 0.0000 -7.6763
# 5 -6.0141 -4.9305 4.7977 0.0000 26.5377 0.0000
# 6 0.0000 0.0000 0.0000 -7.6763 0.0000 24.6815
#
#
#
# Elastic Compliance Matrix: (Units=1/GPa)
#
#
# Indices 1 2 3 4 5 6 
#
# 1 0.031037 -0.001812 -0.000263 0.000000 0.006744 0.000000
# 2 -0.001812 0.017821 -0.001621 0.000000 0.003193 0.000000
# 3 -0.000263 -0.001621 0.007870 0.000000 -0.001784 0.000000
# 4 0.000000 0.000000 0.000000 0.061005 0.000000 0.018974
# 5 0.006744 0.003193 -0.001784 0.000000 0.040127 0.000000
# 6 0.000000 0.000000 0.000000 0.018974 0.000000 0.046417
#
#
# Mechanical properties :
#
#
# Convention : Reuss Voigt Hill
#
# Bulk Modulus (GPa) = 20.26924 28.38374 24.32649
# Shear Modulus (GPa) = 21.91877 27.75668 24.83773
#
# Velocity S-wave (km/s) = 3.22243 3.62626 3.43029
# Velocity P-wave (km/s) = 4.84231 5.56595 5.21670
#
# Compressibility (1/GPa) = 0.04933583
#
# Stress axis : x y z
#
# Youngs Moduli (GPa) = 32.21990 56.11320 127.05794
#
# Poissons Ratio (x) = 0.10170 0.03338
# Poissons Ratio (y) = 0.05840 0.20596
# Poissons Ratio (z) = 0.00847 0.09096
#
# Static dielectric constant tensor:
#      x y z
#    x 1.765100 0.000000 -0.019620 
#    y 0.000000 1.804530 0.000000 
#    z -0.019620 0.000000 1.768070 
# 
# From -- ./inp_files/277422.got.cif
#   From: 2010.05.17/outbox.cif.g08.bks.cpg/sg15_139_cif.got.tgz:277422.got - 2010.06.03 18:47:42.
