data_PCOD9253305
_publ_section_title
;
Structure prediction by ZEFSAII (Michael W. Deem and Ramdas Pophale) SiO2 
 PCOD9253305
Probable space group: P 21/C
;
_chemical_formula_sum "Si O2"
_cell_formula_units_Z 20
_cell_length_a 8.716281
_cell_length_b 11.589044
_cell_length_c 8.554064
_cell_angle_alpha 90.000000
_cell_angle_beta 68.079364
_cell_angle_gamma 90.000000
_cell_volume 801.603778
_symmetry_space_group_name_H-M "P 21/C"
_symmetry_group_IT_number 14
_symmetry_cell_setting 'monoclinic'
loop_
_space_group_symop_operation_xyz
x,y,z
-x,1/2+y,1/2-z
-x,-y,-z
x,1/2-y,1/2+z
loop_
_atom_site_type_symbol
_atom_site_label
_atom_site_fract_x
_atom_site_fract_y
_atom_site_fract_z
Si Si1 0.890540 0.288924 0.288255
Si Si2 0.639438 0.047191 0.068413
Si Si3 0.610259 0.620242 0.085535
Si Si4 0.855845 0.083588 0.494987
Si Si5 0.250468 0.169984 0.783735
O O1 0.758126 0.366235 0.431677
O O2 0.885061 0.152835 0.325478
O O3 0.853120 0.315994 0.123805
O O4 0.073524 0.331170 0.266952
O O5 0.552639 0.108956 0.249216
O O6 0.730659 0.935133 0.103683
O O7 0.500000 0.000000 0.000000
O O8 0.695055 0.495108 0.051397
O O9 0.724320 0.711323 0.134348
O O10 0.611508 0.661207 0.905861
O O11 0.000000 0.000000 0.500000
#
# Coordination Sequence:
#
# PCOD9253305 Si02
#       5
#     4   4   4   4   4
#     4  12  27  47  79 109 151 202 255 314 383 453
#     4  12  28  48  75 113 156 201 256 318 387 458
#     4  12  27  49  74 111 155 197 252 321 381 456
#     4  12  26  48  77 114 152 194 257 314 378 458
#     4  12  26  49  77 107 151 205 257 313 388 452
#
# _framework density 24.949984000000001
#
# number of rings (size 3 to 8) (size 9 to 14) (size 15 to 20)
#    0.000    0.000    6.000    2.400    5.600    3.200 
#    0.000    0.000    0.000    0.000    0.000    0.000 
#    0.000    0.000    0.000    0.000    0.000    0.000 
#
# Total GULP energy -112249.794599 kJ/mol
# GULP energy per Si atom -5612.489730 kJ/mol
# Density = 2.489320 g / cm^3
# Si number density = 24.949984 Si / 1000 Ang^3
#
#
#
# Elastic Constant Matrix: (Units=GPa)
#
#
# Indices 1 2 3 4 5 6 
#
# 1 74.7990 34.2235 15.6189 0.0000 -2.1683 0.0000
# 2 34.2235 101.8654 18.8178 0.0000 15.5820 0.0000
# 3 15.6189 18.8178 68.8648 0.0000 3.7500 0.0000
# 4 0.0000 0.0000 0.0000 47.0275 0.0000 0.5138
# 5 -2.1683 15.5820 3.7500 0.0000 43.4315 0.0000
# 6 0.0000 0.0000 0.0000 0.5138 0.0000 35.2355
#
#
#
# Elastic Compliance Matrix: (Units=1/GPa)
#
#
# Indices 1 2 3 4 5 6 
#
# 1 0.016502 -0.005566 -0.002387 0.000000 0.003027 0.000000
# 2 -0.005566 0.012768 -0.001971 0.000000 -0.004689 0.000000
# 3 -0.002387 -0.001971 0.015643 0.000000 -0.000763 0.000000
# 4 0.000000 0.000000 0.000000 0.021268 0.000000 -0.000310
# 5 0.003027 -0.004689 -0.000763 0.000000 0.024924 0.000000
# 6 0.000000 0.000000 0.000000 -0.000310 0.000000 0.028385
#
#
# Mechanical properties :
#
#
# Convention : Reuss Voigt Hill
#
# Bulk Modulus (GPa) = 39.89653 42.53883 41.21768
# Shear Modulus (GPa) = 33.85409 36.93016 35.39213
#
# Velocity S-wave (km/s) = 3.68758 3.85147 3.77041
# Velocity P-wave (km/s) = 5.84434 6.07166 5.95908
#
# Compressibility (1/GPa) = 0.02506484
#
# Stress axis : x y z
#
# Youngs Moduli (GPa) = 60.59858 78.31877 63.92766
#
# Poissons Ratio (x) = 0.43595 0.15257
# Poissons Ratio (y) = 0.33731 0.12602
# Poissons Ratio (z) = 0.14462 0.15439
#
# Static dielectric constant tensor:
#      x y z
#    x 1.975680 0.000000 -0.010330 
#    y 0.000000 1.939170 0.000000 
#    z -0.010330 0.000000 1.954490 
# 
# From -- ./inp_files/7886.got.cif
#   From: 2010.05.17/outbox.cif.g08.bks.cpg/sg14_4_cif.got.tgz:7886.got - 2010.06.03 17:49:19.
