data_PCOD9253747
_publ_section_title
;
Structure prediction by ZEFSAII (Michael W. Deem and Ramdas Pophale) SiO2 
 PCOD9253747
Probable space group: P 21/C
;
_chemical_formula_sum "Si O2"
_cell_formula_units_Z 32
_cell_length_a 15.000000
_cell_length_b 21.000000
_cell_length_c 15.000000
_cell_angle_alpha 90.000000
_cell_angle_beta 20.000000
_cell_angle_gamma 90.000000
_cell_volume 1616.045177
_symmetry_space_group_name_H-M "P 21/C"
_symmetry_group_IT_number 14
_symmetry_cell_setting 'monoclinic'
loop_
_space_group_symop_operation_xyz
x,y,z
-x,1/2+y,1/2-z
-x,-y,-z
x,1/2-y,1/2+z
loop_
_atom_site_type_symbol
_atom_site_label
_atom_site_fract_x
_atom_site_fract_y
_atom_site_fract_z
Si Si1 0.079363 0.055454 0.350887
Si Si2 0.433334 0.087363 0.384390
Si Si3 0.972005 0.436866 0.464263
Si Si4 0.941588 0.709570 0.109299
Si Si5 0.999721 0.822835 0.927618
Si Si6 0.502858 0.257282 0.834019
Si Si7 0.464708 0.653190 0.850610
Si Si8 0.538858 0.469928 0.269962
O O1 0.815845 0.054789 0.543323
O O2 0.101006 0.131812 0.359603
O O3 0.000000 0.000000 0.500000
O O4 0.321656 0.035912 0.055433
O O5 0.206936 0.073126 0.671292
O O6 0.467100 0.165906 0.346320
O O7 0.405629 0.041832 0.321446
O O8 0.704230 0.057947 0.163006
O O9 0.918794 0.373046 0.572652
O O10 0.000000 0.500000 0.500000
O O11 0.975736 0.749765 0.984937
O O12 0.704734 0.737103 0.393453
O O13 0.209918 0.733078 0.904716
O O14 0.701986 0.843502 0.195234
O O15 0.192810 0.834540 0.660799
O O16 0.470493 0.211299 0.778483
O O17 0.507469 0.584641 0.761984
#
# Coordination Sequence:
#
# PCOD9253747 Si02
#       8
#     4   4   4   4   4   4   4   4
#     4  12  26  46  74  99 133 185 233 280 342 393
#     4  12  24  42  68  98 134 178 220 271 337 403
#     4  12  23  41  63  97 139 177 213 271 333 401
#     4  12  23  46  68  95 137 179 222 279 340 401
#     4  12  24  39  67  99 132 168 230 271 325 406
#     4  12  23  44  69  93 135 185 217 270 345 402
#     4  12  24  41  66 100 130 178 220 273 336 398
#     4  12  25  45  69 101 140 177 227 281 335 412
#
# _framework density 19.801427
#
# number of rings (size 3 to 8) (size 9 to 14) (size 15 to 20)
#    0.000    0.000    5.000    6.000    0.000    2.000 
#    0.000    0.000    0.000    0.000    0.000    0.000 
#    0.000    0.000    0.000    0.000    0.000    0.000 
#
# Total GULP energy -178241.839526 kJ/mol
# GULP energy per Si atom -5570.057485 kJ/mol
# Density = 1.975636 g / cm^3
# Si number density = 19.801427 Si / 1000 Ang^3
#
#
#
# Elastic Constant Matrix: (Units=GPa)
#
#
# Indices 1 2 3 4 5 6 
#
# 1 21.1631 11.2210 -6.6010 0.0000 11.5717 0.0000
# 2 11.2210 173.7516 19.0655 0.0000 33.7756 0.0000
# 3 -6.6010 19.0655 148.2199 0.0000 31.8837 0.0000
# 4 0.0000 0.0000 0.0000 34.0830 0.0000 7.5919
# 5 11.5717 33.7756 31.8837 0.0000 50.4953 0.0000
# 6 0.0000 0.0000 0.0000 7.5919 0.0000 46.5095
#
#
#
# Elastic Compliance Matrix: (Units=1/GPa)
#
#
# Indices 1 2 3 4 5 6 
#
# 1 0.059060 -0.001264 0.006390 0.000000 -0.016724 0.000000
# 2 -0.001264 0.006644 -0.000020 0.000000 -0.004142 0.000000
# 3 0.006390 -0.000020 0.008501 0.000000 -0.006818 0.000000
# 4 0.000000 0.000000 0.000000 0.030447 0.000000 -0.004970
# 5 -0.016724 -0.004142 -0.006818 0.000000 0.030712 0.000000
# 6 0.000000 0.000000 0.000000 -0.004970 0.000000 0.022312
#
#
# Mechanical properties :
#
#
# Convention : Reuss Voigt Hill
#
# Bulk Modulus (GPa) = 11.84601 43.38952 27.61777
# Shear Modulus (GPa) = 28.47323 47.51417 37.99370
#
# Velocity S-wave (km/s) = 3.79613 4.90382 4.38509
# Velocity P-wave (km/s) = 5.02091 7.35004 6.29415
#
# Compressibility (1/GPa) = 0.08441663
#
# Stress axis : x y z
#
# Youngs Moduli (GPa) = 16.93194 150.50399 117.63841
#
# Poissons Ratio (x) = 0.19030 -0.75174
# Poissons Ratio (y) = 0.02141 0.00235
# Poissons Ratio (z) = -0.10820 0.00301
#
# Static dielectric constant tensor:
#      x y z
#    x 1.882530 0.000000 -0.015550 
#    y 0.000000 1.818340 0.000000 
#    z -0.015550 0.000000 1.671790 
# 
# From -- ./inp_files/47603.got.cif
#   From: 2010.05.17/outbox.ucp.g08.bks.cvg/sg14_24_cif.got.tgz:47603.got - 2010.06.11 12:31:08.
