data_PCOD9253995
_publ_section_title
;
Structure prediction by ZEFSAII (Michael W. Deem and Ramdas Pophale) SiO2 
 PCOD9253995
Probable space group: C 2/C
;
_chemical_formula_sum "Si O2"
_cell_formula_units_Z 64
_cell_length_a 14.694877
_cell_length_b 11.572450
_cell_length_c 19.903396
_cell_angle_alpha 90.000000
_cell_angle_beta 106.646963
_cell_angle_gamma 90.000000
_cell_volume 3242.827831
_symmetry_space_group_name_H-M "C 2/C"
_symmetry_group_IT_number 15
_symmetry_cell_setting 'monoclinic'
loop_
_space_group_symop_operation_xyz
x,y,z
-x,y,1/2-z
-x,-y,-z
x,-y,1/2+z
1/2+x,1/2+y,z
1/2-x,1/2+y,1/2-z
1/2-x,1/2-y,-z
1/2+x,1/2-y,1/2+z
loop_
_atom_site_type_symbol
_atom_site_label
_atom_site_fract_x
_atom_site_fract_y
_atom_site_fract_z
Si Si1 0.864835 0.360170 0.668014
Si Si2 0.105880 0.465108 0.540054
Si Si3 0.622252 0.618246 0.646892
Si Si4 0.746423 0.615030 0.016775
Si Si5 0.581088 0.886644 0.674477
Si Si6 0.154769 0.209164 0.515306
Si Si7 0.576813 0.492600 0.917425
Si Si8 0.613303 0.405627 0.289413
O O1 0.782695 0.397972 0.600538
O O2 0.868823 0.409390 0.743942
O O3 0.860233 0.220571 0.676001
O O4 0.966988 0.394636 0.658127
O O5 0.182803 0.539506 0.515449
O O6 0.119194 0.466943 0.623234
O O7 0.107761 0.329727 0.523485
O O8 0.000000 0.500000 0.500000
O O9 0.596543 0.750824 0.661426
O O10 0.676212 0.637228 0.588048
O O11 0.528764 0.543427 0.609183
O O12 0.660434 0.570833 0.726689
O O13 0.750000 0.750000 0.000000
O O14 0.640829 0.572761 0.978854
O O15 0.250000 0.250000 0.500000
O O16 0.090357 0.132765 0.452253
O O17 0.621686 0.503812 0.851960
O O18 0.500000 0.399470 0.250000
#
# Coordination Sequence:
#
# PCOD9253995 Si02
#       8
#     8   8   8   8   8   8   8   8
#     4  10  15  30  55  89 113 152 194 248 294 356
#     4  11  23  39  61  87 116 162 203 244 297 370
#     4   9  18  35  62  86 113 159 211 239 295 368
#     4  12  22  33  59  91 125 146 203 259 302 337
#     4   9  16  32  58  82 114 152 205 238 293 361
#     4  11  23  39  59  88 126 163 197 244 311 366
#     4  11  20  36  57  91 122 156 199 257 298 356
#     4   9  15  31  58  86 113 151 206 249 290 353
#
# _framework density 19.735862000000001
#
# number of rings (size 3 to 8) (size 9 to 14) (size 15 to 20)
#    0.000    1.750    7.500    0.375    1.750    0.000 
#    0.000    1.250    0.000    4.500    0.000    0.000 
#    0.000    0.000    0.000    0.000    0.000    0.000 
#
# Total GULP energy -178417.090464 kJ/mol
# GULP energy per Si atom -5575.534077 kJ/mol
# Density = 1.969094 g / cm^3
# Si number density = 19.735862 Si / 1000 Ang^3
#
#
#
# Elastic Constant Matrix: (Units=GPa)
#
#
# Indices 1 2 3 4 5 6 
#
# 1 32.7635 12.3791 29.4490 0.0000 -10.9975 0.0000
# 2 12.3791 75.1618 36.5512 0.0000 -8.4511 0.0000
# 3 29.4490 36.5512 156.9260 0.0000 -20.8968 0.0000
# 4 0.0000 0.0000 0.0000 27.7438 0.0000 -1.3467
# 5 -10.9975 -8.4511 -20.8968 0.0000 33.0539 0.0000
# 6 0.0000 0.0000 0.0000 -1.3467 0.0000 26.7784
#
#
#
# Elastic Compliance Matrix: (Units=1/GPa)
#
#
# Indices 1 2 3 4 5 6 
#
# 1 0.039601 -0.002800 -0.005591 0.000000 0.008925 0.000000
# 2 -0.002800 0.015298 -0.002884 0.000000 0.001157 0.000000
# 3 -0.005591 -0.002884 0.008460 0.000000 0.002751 0.000000
# 4 0.000000 0.000000 0.000000 0.036132 0.000000 0.001817
# 5 0.008925 0.001157 0.002751 0.000000 0.035258 0.000000
# 6 0.000000 0.000000 0.000000 0.001817 0.000000 0.037435
#
#
# Mechanical properties :
#
#
# Convention : Reuss Voigt Hill
#
# Bulk Modulus (GPa) = 24.50404 46.84555 35.67480
# Shear Modulus (GPa) = 23.99970 29.94669 26.97320
#
# Velocity S-wave (km/s) = 3.49097 3.89958 3.70091
# Velocity P-wave (km/s) = 5.35650 6.63802 6.03139
#
# Compressibility (1/GPa) = 0.04080959
#
# Stress axis : x y z
#
# Youngs Moduli (GPa) = 25.25202 65.36713 118.20859
#
# Poissons Ratio (x) = 0.18301 0.66089
# Poissons Ratio (y) = 0.07070 0.34089
# Poissons Ratio (z) = 0.14118 0.18851
#
# Static dielectric constant tensor:
#      x y z
#    x 1.694460 0.000000 -0.047870 
#    y 0.000000 1.654930 0.000000 
#    z -0.047870 0.000000 1.754780 
# 
# From -- ./inp_files/243743.got.cif
#   From: 2010.05.17/outbox.cif.g08.bks.cpg/sg15_122_cif.got.tgz:243743.got - 2010.06.03 18:47:42.
