data_PCOD9253558
_publ_section_title
;
Structure prediction by ZEFSAII (Michael W. Deem and Ramdas Pophale) SiO2 
 PCOD9253558
Probable space group: P 21/C
;
_chemical_formula_sum "Si O2"
_cell_formula_units_Z 32
_cell_length_a 9.000000
_cell_length_b 27.000000
_cell_length_c 9.000000
_cell_angle_alpha 90.000000
_cell_angle_beta 50.000000
_cell_angle_gamma 90.000000
_cell_volume 1675.339197
_symmetry_space_group_name_H-M "P 21/C"
_symmetry_group_IT_number 14
_symmetry_cell_setting 'monoclinic'
loop_
_space_group_symop_operation_xyz
x,y,z
-x,1/2+y,1/2-z
-x,-y,-z
x,1/2-y,1/2+z
loop_
_atom_site_type_symbol
_atom_site_label
_atom_site_fract_x
_atom_site_fract_y
_atom_site_fract_z
Si Si1 0.527590 0.630690 0.013827
Si Si2 0.805300 0.414466 0.219670
Si Si3 0.403064 0.729855 0.918962
Si Si4 0.399268 0.946738 0.845584
Si Si5 0.742305 0.691036 0.136048
Si Si6 0.200311 0.087519 0.261008
Si Si7 0.392356 0.063255 0.824925
Si Si8 0.828371 0.297187 0.220951
O O1 0.402591 0.593779 0.205861
O O2 0.671016 0.659659 0.036437
O O3 0.429316 0.678386 0.994310
O O4 0.617689 0.596244 0.821874
O O5 0.754673 0.438344 0.417010
O O6 0.609476 0.425717 0.251117
O O7 0.819707 0.356232 0.248224
O O8 0.999274 0.424878 0.987259
O O9 0.590980 0.766059 0.780887
O O10 0.326864 0.715109 0.806643
O O11 0.239419 0.764416 0.097999
O O12 0.615617 0.939371 0.777954
O O13 0.377938 0.003820 0.806323
O O14 0.768340 0.646859 0.239792
O O15 0.952088 0.714096 0.968591
O O16 0.237688 0.075634 0.059885
#
# Coordination Sequence:
#
# PCOD9253558 Si02
#       8
#     4   4   4   4   4   4   4   4
#     4  11  23  42  62  93 134 167 203 271 319 366
#     4  10  20  40  64  92 129 163 212 261 311 385
#     4  12  23  41  64  91 127 167 214 256 313 380
#     4  10  22  39  63  89 127 170 212 259 321 374
#     4  10  24  43  63  93 130 167 206 261 316 381
#     4   9  20  39  65  94 125 165 210 261 316 373
#     4  11  21  38  64  94 122 168 216 260 318 377
#     4  11  24  40  65  94 123 168 211 255 318 383
#
# _framework density 19.10061
#
# number of rings (size 3 to 8) (size 9 to 14) (size 15 to 20)
#    0.000    1.500    2.500    4.125    1.750    2.000 
#    2.250    5.000    0.000    9.000    0.000    0.000 
#    0.000    0.000    0.000    0.000    0.000    0.000 
#
# Total GULP energy -178329.086841 kJ/mol
# GULP energy per Si atom -5572.783964 kJ/mol
# Density = 1.905714 g / cm^3
# Si number density = 19.100610 Si / 1000 Ang^3
#
#
#
# Elastic Constant Matrix: (Units=GPa)
#
#
# Indices 1 2 3 4 5 6 
#
# 1 26.0615 10.5996 19.9105 0.0000 -0.4434 0.0000
# 2 10.5996 120.8382 52.1893 0.0000 -4.8515 0.0000
# 3 19.9105 52.1893 150.7023 0.0000 -8.1977 0.0000
# 4 0.0000 0.0000 0.0000 40.1157 0.0000 9.8276
# 5 -0.4434 -4.8515 -8.1977 0.0000 42.4019 0.0000
# 6 0.0000 0.0000 0.0000 9.8276 0.0000 28.5847
#
#
#
# Elastic Compliance Matrix: (Units=1/GPa)
#
#
# Indices 1 2 3 4 5 6 
#
# 1 0.042945 -0.001562 -0.005172 0.000000 -0.000730 0.000000
# 2 -0.001562 0.009797 -0.003159 0.000000 0.000494 0.000000
# 3 -0.005172 -0.003159 0.008480 0.000000 0.001224 0.000000
# 4 0.000000 0.000000 0.000000 0.027221 0.000000 -0.009359
# 5 -0.000730 0.000494 0.001224 0.000000 0.023869 0.000000
# 6 0.000000 0.000000 0.000000 -0.009359 0.000000 0.038201
#
#
# Mechanical properties :
#
#
# Convention : Reuss Voigt Hill
#
# Bulk Modulus (GPa) = 24.13512 51.44453 37.78982
# Shear Modulus (GPa) = 27.15722 36.54731 31.85226
#
# Velocity S-wave (km/s) = 3.77476 4.37900 4.08806
# Velocity P-wave (km/s) = 5.62687 7.24979 6.48927
#
# Compressibility (1/GPa) = 0.04143339
#
# Stress axis : x y z
#
# Youngs Moduli (GPa) = 23.28536 102.07244 117.92867
#
# Poissons Ratio (x) = 0.15948 0.60998
# Poissons Ratio (y) = 0.03638 0.37259
# Poissons Ratio (z) = 0.12044 0.32250
#
# Static dielectric constant tensor:
#      x y z
#    x 1.696140 0.000000 0.010660 
#    y 0.000000 1.676200 0.000000 
#    z 0.010660 0.000000 1.695670 
# 
# From -- ./inp_files/11043.got.cif
#   From: 2010.05.17/outbox.ucp.g08.bks.cvg/sg14_6_cif.got.tgz:11043.got - 2010.06.11 12:31:08.
