data_PCOD9253429
_publ_section_title
;
Structure prediction by ZEFSAII (Michael W. Deem and Ramdas Pophale) SiO2 
 PCOD9253429
Probable space group: P 21/C
;
_chemical_formula_sum "Si O2"
_cell_formula_units_Z 32
_cell_length_a 7.816300
_cell_length_b 18.863347
_cell_length_c 12.034328
_cell_angle_alpha 90.000000
_cell_angle_beta 39.047690
_cell_angle_gamma 90.000000
_cell_volume 1117.788501
_symmetry_space_group_name_H-M "P 21/C"
_symmetry_group_IT_number 14
_symmetry_cell_setting 'monoclinic'
loop_
_space_group_symop_operation_xyz
x,y,z
-x,1/2+y,1/2-z
-x,-y,-z
x,1/2-y,1/2+z
loop_
_atom_site_type_symbol
_atom_site_label
_atom_site_fract_x
_atom_site_fract_y
_atom_site_fract_z
Si Si1 0.884655 0.837203 0.091638
Si Si2 0.746926 0.169327 0.384909
Si Si3 0.688625 0.224147 0.667533
Si Si4 0.822311 0.101165 0.743865
Si Si5 0.965687 0.469628 0.788252
Si Si6 0.733477 0.755171 0.858424
Si Si7 0.330799 0.022958 0.882027
Si Si8 0.452044 0.110930 0.153142
O O1 0.626181 0.800885 0.160149
O O2 0.867791 0.810991 0.227842
O O3 0.824307 0.921269 0.118165
O O4 0.167568 0.801817 0.909450
O O5 0.742235 0.190831 0.517185
O O6 0.514269 0.219174 0.451513
O O7 0.723955 0.085069 0.388215
O O8 0.045035 0.194748 0.198046
O O9 0.866643 0.175912 0.663557
O O10 0.618081 0.059882 0.763579
O O11 0.068043 0.047967 0.646377
O O12 0.641625 0.107014 0.946921
O O13 0.145690 0.473959 0.586049
O O14 0.166942 0.428011 0.771074
O O15 0.619470 0.806163 0.815910
O O16 0.406462 0.940273 0.827765
#
# Coordination Sequence:
#
# PCOD9253429 Si02
#       8
#     4   4   4   4   4   4   4   4
#     4   9  17  29  44  63  87 112 141 175 212 252
#     4   9  17  28  43  63  88 114 139 174 213 251
#     4   9  17  28  43  63  88 114 139 174 213 251
#     4   8  14  25  42  65  87 108 141 180 213 246
#     4   8  14  25  42  65  87 108 141 180 213 246
#     4   9  17  29  44  63  87 112 141 175 212 252
#     4   8  14  26  44  63  84 112 145 176 206 248
#     4   8  14  26  44  63  84 112 145 176 206 248
#
# _framework density 28.627958
#
# number of rings (size 3 to 8) (size 9 to 14) (size 15 to 20)
#    0.000    3.500    0.000    1.500    0.000    1.500 
#    0.000    3.750    0.000    8.250    0.000    3.500 
#    0.000    0.000    0.000    0.000    0.000    0.000 
#
# Total GULP energy -178780.974007 kJ/mol
# GULP energy per Si atom -5586.905438 kJ/mol
# Density = 2.856280 g / cm^3
# Si number density = 28.627958 Si / 1000 Ang^3
#
#
#
# Elastic Constant Matrix: (Units=GPa)
#
#
# Indices 1 2 3 4 5 6 
#
# 1 73.7814 13.4057 14.7841 0.0000 -26.6935 0.0000
# 2 13.4057 158.7972 18.0153 0.0000 -9.6075 0.0000
# 3 14.7841 18.0153 94.2417 0.0000 -22.3766 0.0000
# 4 0.0000 0.0000 0.0000 27.6757 0.0000 -2.8235
# 5 -26.6935 -9.6075 -22.3766 0.0000 39.8239 0.0000
# 6 0.0000 0.0000 0.0000 -2.8235 0.0000 42.2307
#
#
#
# Elastic Compliance Matrix: (Units=1/GPa)
#
#
# Indices 1 2 3 4 5 6 
#
# 1 0.017995 -0.000815 0.000173 0.000000 0.011962 0.000000
# 2 -0.000815 0.006508 -0.001008 0.000000 0.000458 0.000000
# 3 0.000173 -0.001008 0.012401 0.000000 0.006841 0.000000
# 4 0.000000 0.000000 0.000000 0.036381 0.000000 0.002432
# 5 0.011962 0.000458 0.006841 0.000000 0.037083 0.000000
# 6 0.000000 0.000000 0.000000 0.002432 0.000000 0.023842
#
#
# Mechanical properties :
#
#
# Convention : Reuss Voigt Hill
#
# Bulk Modulus (GPa) = 29.75758 46.58119 38.16938
# Shear Modulus (GPa) = 33.62246 40.65375 37.13811
#
# Velocity S-wave (km/s) = 3.43076 3.77247 3.60567
# Velocity P-wave (km/s) = 5.10986 5.93986 5.54042
#
# Compressibility (1/GPa) = 0.03360489
#
# Stress axis : x y z
#
# Youngs Moduli (GPa) = 55.57149 153.65373 80.64037
#
# Poissons Ratio (x) = 0.12523 -0.01397
# Poissons Ratio (y) = 0.04529 0.08125
# Poissons Ratio (z) = -0.00963 0.15482
#
# Static dielectric constant tensor:
#      x y z
#    x 2.348810 0.000000 0.014280 
#    y 0.000000 2.227200 0.000000 
#    z 0.014280 0.000000 2.259980 
# 
# From -- ./inp_files/30205.got.cif
#   From: 2010.05.17/outbox.cif.g08.bks.cpg/sg14_16_cif.got.tgz:30205.got - 2010.06.03 17:49:19.
