data_PCOD9253687
_publ_section_title
;
Structure prediction by ZEFSAII (Michael W. Deem and Ramdas Pophale) SiO2 
 PCOD9253687
Probable space group: P 21/C
;
_chemical_formula_sum "Si O2"
_cell_formula_units_Z 28
_cell_length_a 15.000000
_cell_length_b 9.000000
_cell_length_c 12.000000
_cell_angle_alpha 90.000000
_cell_angle_beta 60.000000
_cell_angle_gamma 90.000000
_cell_volume 1402.961154
_symmetry_space_group_name_H-M "P 21/C"
_symmetry_group_IT_number 14
_symmetry_cell_setting 'monoclinic'
loop_
_space_group_symop_operation_xyz
x,y,z
-x,1/2+y,1/2-z
-x,-y,-z
x,1/2-y,1/2+z
loop_
_atom_site_type_symbol
_atom_site_label
_atom_site_fract_x
_atom_site_fract_y
_atom_site_fract_z
Si Si1 0.487414 0.099038 0.397637
Si Si2 0.975331 0.260414 0.015573
Si Si3 0.396670 0.416529 0.527393
Si Si4 0.872833 0.524102 0.954297
Si Si5 0.330412 0.468721 0.327568
Si Si6 0.336730 0.372653 0.805802
Si Si7 0.876701 0.972370 0.186539
O O1 0.434721 0.251459 0.470081
O O2 0.416911 0.043797 0.337692
O O3 0.500000 0.000000 0.500000
O O4 0.600129 0.095692 0.272148
O O5 0.896913 0.361594 0.992128
O O6 0.928862 0.126495 0.116762
O O7 0.033295 0.372277 0.063230
O O8 0.054123 0.172238 0.885139
O O9 0.500000 0.500000 0.500000
O O10 0.337944 0.483129 0.456808
O O11 0.330705 0.418838 0.681146
O O12 0.772530 0.600551 0.069637
O O13 0.858319 0.522102 0.830331
O O14 0.371799 0.300335 0.280858
O O15 0.222502 0.464743 0.331624
#
# Coordination Sequence:
#
# PCOD9253687 Si02
#       7
#     4   4   4   4   4   4   4
#     4  11  22  40  66  91 129 169 215 265 324 389
#     4  10  24  44  68 101 131 171 224 274 340 394
#     4  11  24  43  64  93 134 172 217 272 316 391
#     4  11  23  44  71  97 132 176 220 272 337 400
#     4  11  23  41  65  96 129 176 213 264 331 387
#     4  11  23  41  66  97 129 174 218 264 329 391
#     4  11  23  45  68 101 134 170 222 282 333 394
#
# _framework density 19.957787
#
# number of rings (size 3 to 8) (size 9 to 14) (size 15 to 20)
#    0.000    1.143    4.286    1.714    2.000    1.143 
#   18.000    0.000    0.000    0.000    0.000    0.000 
#    0.000    0.000    0.000    0.000    0.000    0.000 
#
# Total GULP energy -156191.070587 kJ/mol
# GULP energy per Si atom -5578.252521 kJ/mol
# Density = 1.991236 g / cm^3
# Si number density = 19.957787 Si / 1000 Ang^3
#
#
#
# Elastic Constant Matrix: (Units=GPa)
#
#
# Indices 1 2 3 4 5 6 
#
# 1 78.1807 12.9525 39.0754 0.0000 24.7768 0.0000
# 2 12.9525 53.9325 18.8375 0.0000 8.8355 0.0000
# 3 39.0754 18.8375 150.8546 0.0000 37.9981 0.0000
# 4 0.0000 0.0000 0.0000 19.1932 0.0000 1.3982
# 5 24.7768 8.8355 37.9981 0.0000 37.4074 0.0000
# 6 0.0000 0.0000 0.0000 1.3982 0.0000 25.8113
#
#
#
# Elastic Compliance Matrix: (Units=1/GPa)
#
#
# Indices 1 2 3 4 5 6 
#
# 1 0.016844 -0.001942 -0.001916 0.000000 -0.008751 0.000000
# 2 -0.001942 0.019840 -0.001502 0.000000 -0.001873 0.000000
# 3 -0.001916 -0.001502 0.009278 0.000000 -0.007800 0.000000
# 4 0.000000 0.000000 0.000000 0.052308 0.000000 -0.002834
# 5 -0.008751 -0.001873 -0.007800 0.000000 0.040895 0.000000
# 6 0.000000 0.000000 0.000000 -0.002834 0.000000 0.038896
#
#
# Mechanical properties :
#
#
# Convention : Reuss Voigt Hill
#
# Bulk Modulus (GPa) = 28.37725 47.18875 37.78300
# Shear Modulus (GPa) = 24.93410 30.62254 27.77832
#
# Velocity S-wave (km/s) = 3.53844 3.92135 3.73480
# Velocity P-wave (km/s) = 5.56269 6.64818 6.12951
#
# Compressibility (1/GPa) = 0.03523950
#
# Stress axis : x y z
#
# Youngs Moduli (GPa) = 59.36897 50.40362 107.78705
#
# Poissons Ratio (x) = 0.09790 0.20653
# Poissons Ratio (y) = 0.11531 0.16194
# Poissons Ratio (z) = 0.11376 0.07573
#
# Static dielectric constant tensor:
#      x y z
#    x 1.722500 0.000000 -0.065100 
#    y 0.000000 1.722240 0.000000 
#    z -0.065100 0.000000 1.768730 
# 
# From -- ./inp_files/31468.got.cif
#   From: 2010.05.17/outbox.ucp.g08.bks.cvg/sg14_16_cif.got.tgz:31468.got - 2010.06.11 12:31:08.
