data_PCOD9253279
_publ_section_title
;
Structure prediction by ZEFSAII (Michael W. Deem and Ramdas Pophale) SiO2 
 PCOD9253279
Probable space group: P 21/C
;
_chemical_formula_sum "Si O2"
_cell_formula_units_Z 22
_cell_length_a 13.900643
_cell_length_b 12.279846
_cell_length_c 9.889758
_cell_angle_alpha 90.000000
_cell_angle_beta 151.847974
_cell_angle_gamma 90.000000
_cell_volume 796.495054
_symmetry_space_group_name_H-M "P 21/C"
_symmetry_group_IT_number 14
_symmetry_cell_setting 'monoclinic'
loop_
_space_group_symop_operation_xyz
x,y,z
-x,1/2+y,1/2-z
-x,-y,-z
x,1/2-y,1/2+z
loop_
_atom_site_type_symbol
_atom_site_label
_atom_site_fract_x
_atom_site_fract_y
_atom_site_fract_z
Si Si1 0.811395 0.157873 0.539517
Si Si2 0.453768 0.506177 0.641551
Si Si3 0.878611 0.654680 0.799321
Si Si4 0.000000 0.000000 0.000000
Si Si5 0.654705 0.720999 0.781771
Si Si6 0.666003 0.372984 0.263986
O O1 0.755935 0.285224 0.483676
O O2 0.904351 0.151514 0.503541
O O3 0.600233 0.094007 0.291502
O O4 0.955358 0.090627 0.820170
O O5 0.227159 0.463375 0.337937
O O6 0.546702 0.606822 0.676998
O O7 0.464146 0.541588 0.810504
O O8 0.827941 0.700109 0.883878
O O9 0.755986 0.733624 0.543037
O O10 0.149981 0.928824 0.086555
O O11 0.488616 0.805157 0.520368
#
# Coordination Sequence:
#
# PCOD9253279 Si02
#       6
#     4   4   4   2   4   4
#     4  12  30  48  78 124 156 217 280 338 409 497
#     4  12  25  54  77 112 161 215 268 343 403 485
#     4  12  28  49  80 119 156 215 267 339 406 496
#     4  12  28  50  82 118 168 216 272 346 412 486
#     4  12  27  53  82 114 168 212 272 338 418 484
#     4  12  27  51  82 119 164 215 276 337 410 499
#
# _framework density 27.621013000000001
#
# number of rings (size 3 to 8) (size 9 to 14) (size 15 to 20)
#    0.000    0.000    5.455    2.727    7.636    2.182 
#    0.000    0.000    0.000    0.000    0.000    0.000 
#    0.000    0.000    0.000    0.000    0.000    0.000 
#
# Total GULP energy -123108.681343 kJ/mol
# GULP energy per Si atom -5595.849152 kJ/mol
# Density = 2.755815 g / cm^3
# Si number density = 27.621013 Si / 1000 Ang^3
#
#
#
# Elastic Constant Matrix: (Units=GPa)
#
#
# Indices 1 2 3 4 5 6 
#
# 1 219.9857 81.6702 29.4051 0.0000 29.9696 0.0000
# 2 81.6702 130.7588 26.3615 0.0000 11.9075 0.0000
# 3 29.4051 26.3615 66.0652 0.0000 9.4287 0.0000
# 4 0.0000 0.0000 0.0000 34.3002 0.0000 -6.5458
# 5 29.9696 11.9075 9.4287 0.0000 40.9325 0.0000
# 6 0.0000 0.0000 0.0000 -6.5458 0.0000 60.2698
#
#
#
# Elastic Compliance Matrix: (Units=1/GPa)
#
#
# Indices 1 2 3 4 5 6 
#
# 1 0.006456 -0.003520 -0.000973 0.000000 -0.003479 0.000000
# 2 -0.003520 0.010353 -0.002588 0.000000 0.000161 0.000000
# 3 -0.000973 -0.002588 0.016950 0.000000 -0.002439 0.000000
# 4 0.000000 0.000000 0.000000 0.029771 0.000000 0.003233
# 5 -0.003479 0.000161 -0.002439 0.000000 0.027493 0.000000
# 6 0.000000 0.000000 0.000000 0.003233 0.000000 0.016943
#
#
# Mechanical properties :
#
#
# Convention : Reuss Voigt Hill
#
# Bulk Modulus (GPa) = 51.02106 76.85369 63.93738
# Shear Modulus (GPa) = 38.86206 45.72536 42.29371
#
# Velocity S-wave (km/s) = 3.75504 4.07314 3.91732
# Velocity P-wave (km/s) = 6.10838 7.07145 6.60749
#
# Compressibility (1/GPa) = 0.01959975
#
# Stress axis : x y z
#
# Youngs Moduli (GPa) = 154.88379 96.59055 58.99650
#
# Poissons Ratio (x) = 0.33997 0.05739
# Poissons Ratio (y) = 0.54514 0.15265
# Poissons Ratio (z) = 0.15066 0.24993
#
# Static dielectric constant tensor:
#      x y z
#    x 2.098780 0.000000 -0.076410 
#    y 0.000000 2.127410 0.000000 
#    z -0.076410 0.000000 2.187950 
# 
# From -- ./inp_files/32436.got.cif
#   From: 2010.05.17/outbox.cif.g08.bks.cpg/sg14_17_cif.got.tgz:32436.got - 2010.06.03 17:49:19.
