data_PCOD9253230
_publ_section_title
;
Structure prediction by ZEFSAII (Michael W. Deem and Ramdas Pophale) SiO2 
 PCOD9253230
Probable space group: P 21/C
;
_chemical_formula_sum "Si O2"
_cell_formula_units_Z 20
_cell_length_a 20.934549
_cell_length_b 4.565737
_cell_length_c 8.270004
_cell_angle_alpha 90.000000
_cell_angle_beta 66.310957
_cell_angle_gamma 90.000000
_cell_volume 723.855937
_symmetry_space_group_name_H-M "P 21/C"
_symmetry_group_IT_number 14
_symmetry_cell_setting 'monoclinic'
loop_
_space_group_symop_operation_xyz
x,y,z
-x,1/2+y,1/2-z
-x,-y,-z
x,1/2-y,1/2+z
loop_
_atom_site_type_symbol
_atom_site_label
_atom_site_fract_x
_atom_site_fract_y
_atom_site_fract_z
Si Si1 0.243379 0.823364 0.604275
Si Si2 0.456397 0.205195 0.112029
Si Si3 0.603369 0.159263 0.124432
Si Si4 0.972158 0.823037 0.875366
Si Si5 0.811527 0.825887 0.033650
O O1 0.322507 0.715612 0.528282
O O2 0.194904 0.549689 0.610381
O O3 0.235158 0.049272 0.463954
O O4 0.217559 0.997103 0.785326
O O5 0.551234 0.011557 0.042022
O O6 0.392224 0.421482 0.237674
O O7 0.433185 0.950707 0.272598
O O8 0.500000 0.500000 0.000000
O O9 0.891635 0.739147 0.974351
O O10 0.018661 0.545168 0.784458
O O11 0.000000 0.000000 0.000000
#
# Coordination Sequence:
#
# PCOD9253230 Si02
#       5
#     4   4   4   4   4
#     4  12  28  51  79 108 166 205 266 315 406 475
#     4   8  21  43  75 115 149 193 273 316 392 454
#     4   9  22  44  74 115 152 207 251 336 389 464
#     4  12  25  46  80 116 159 202 265 326 389 457
#     4  12  27  50  77 119 154 215 257 324 389 489
#
# _framework density 27.629808000000001
#
# number of rings (size 3 to 8) (size 9 to 14) (size 15 to 20)
#    1.200    0.000    0.000    5.400    0.000    8.800 
#    0.000    2.000    0.000    9.600    0.000    0.000 
#    0.000    0.000    0.000    0.000    0.000    0.000 
#
# Total GULP energy -111922.896726 kJ/mol
# GULP energy per Si atom -5596.144836 kJ/mol
# Density = 2.756692 g / cm^3
# Si number density = 27.629808 Si / 1000 Ang^3
#
#
#
# Elastic Constant Matrix: (Units=GPa)
#
#
# Indices 1 2 3 4 5 6 
#
# 1 123.1261 42.6153 39.4818 0.0000 -25.8541 0.0000
# 2 42.6153 176.4718 42.2788 0.0000 2.5929 0.0000
# 3 39.4818 42.2788 127.1450 0.0000 -32.4649 0.0000
# 4 0.0000 0.0000 0.0000 473.0381 0.0000 376.0949
# 5 -25.8541 2.5929 -32.4649 0.0000 47.6669 0.0000
# 6 0.0000 0.0000 0.0000 376.0949 0.0000 374.7551
#
#
#
# Elastic Compliance Matrix: (Units=1/GPa)
#
#
# Indices 1 2 3 4 5 6 
#
# 1 0.010325 -0.002279 -0.001194 0.000000 0.004911 0.000000
# 2 -0.002279 0.006838 -0.002393 0.000000 -0.003238 0.000000
# 3 -0.001194 -0.002393 0.010773 0.000000 0.006820 0.000000
# 4 0.000000 0.000000 0.000000 0.010460 0.000000 -0.010498
# 5 0.004911 -0.003238 0.006820 0.000000 0.028463 0.000000
# 6 0.000000 0.000000 0.000000 -0.010498 0.000000 0.013204
#
#
# Mechanical properties :
#
#
# Convention : Reuss Voigt Hill
#
# Bulk Modulus (GPa) = 61.71784 75.05497 68.38641
# Shear Modulus (GPa) = 51.44225 199.24981 125.34603
#
# Velocity S-wave (km/s) = 4.31958 8.50121 6.74275
# Velocity P-wave (km/s) = 6.87490 11.11685 9.24253
#
# Compressibility (1/GPa) = 0.01620277
#
# Stress axis : x y z
#
# Youngs Moduli (GPa) = 96.85461 146.24450 92.82615
#
# Poissons Ratio (x) = 0.33333 0.11086
# Poissons Ratio (y) = 0.22076 0.22211
# Poissons Ratio (z) = 0.11568 0.34992
#
# Static dielectric constant tensor:
#      x y z
#    x 2.290520 0.000000 0.127320 
#    y 0.000000 2.288820 0.000000 
#    z 0.127320 0.000000 2.204380 
# 
# From -- ./inp_files/18336.got.cif
#   From: 2010.05.17/outbox.cif.g08.bks.cpg/sg14_10_cif.got.tgz:18336.got - 2010.06.03 17:49:19.
