data_PCOD9253939
_publ_section_title
;
Structure prediction by ZEFSAII (Michael W. Deem and Ramdas Pophale) SiO2 
 PCOD9253939
Probable space group: C 2/C
;
_chemical_formula_sum "Si O2"
_cell_formula_units_Z 60
_cell_length_a 13.185240
_cell_length_b 14.690009
_cell_length_c 22.409967
_cell_angle_alpha 90.000000
_cell_angle_beta 142.513415
_cell_angle_gamma 90.000000
_cell_volume 2641.592950
_symmetry_space_group_name_H-M "C 2/C"
_symmetry_group_IT_number 15
_symmetry_cell_setting 'monoclinic'
loop_
_space_group_symop_operation_xyz
x,y,z
-x,y,1/2-z
-x,-y,-z
x,-y,1/2+z
1/2+x,1/2+y,z
1/2-x,1/2+y,1/2-z
1/2-x,1/2-y,-z
1/2+x,1/2-y,1/2+z
loop_
_atom_site_type_symbol
_atom_site_label
_atom_site_fract_x
_atom_site_fract_y
_atom_site_fract_z
Si Si1 0.326510 0.407959 0.607197
Si Si2 0.399198 0.650677 0.827104
Si Si3 0.568617 0.232355 0.881828
Si Si4 0.986929 0.711300 0.517139
Si Si5 0.711096 0.469737 0.520554
Si Si6 0.099270 0.683727 0.445617
Si Si7 0.763063 0.880732 0.380770
Si Si8 0.500000 0.570322 0.750000
O O1 0.468869 0.330640 0.665309
O O2 0.170380 0.356190 0.561788
O O3 0.287738 0.444873 0.523384
O O4 0.368411 0.498622 0.661983
O O5 0.437847 0.757794 0.852984
O O6 0.249833 0.627389 0.803067
O O7 0.418082 0.625091 0.766530
O O8 0.548854 0.589567 0.927516
O O9 0.615268 0.162231 0.851766
O O10 0.750000 0.250000 0.000000
O O11 0.457698 0.209353 0.887921
O O12 0.919238 0.813035 0.470343
O O13 0.106736 0.677295 0.520823
O O14 0.868026 0.407442 0.575721
O O15 0.711189 0.516066 0.585148
O O16 0.250000 0.750000 0.500000
#
# Coordination Sequence:
#
# PCOD9253939 Si02
#       8
#     8   8   8   8   8   8   8   4
#     4   9  16  29  48  76  96 125 163 205 250 289
#     4   9  19  30  46  67  97 137 161 209 244 292
#     4   8  13  26  48  72 100 119 149 198 261 312
#     4   9  15  29  50  73 105 131 149 201 275 310
#     4  10  15  27  47  76 102 113 162 213 249 304
#     4   9  19  30  45  73 105 130 161 202 263 311
#     4   9  14  27  48  72  91 128 158 196 261 301
#     4  10  20  32  50  66 100 126 182 206 220 300
#
# _framework density 22.713567999999999
#
# number of rings (size 3 to 8) (size 9 to 14) (size 15 to 20)
#    0.000    3.200    4.000    0.400    0.000    0.533 
#    0.000    0.000    8.800    4.800    0.000    0.000 
#    0.000    0.000    0.000    0.000    0.000    0.000 
#
# Total GULP energy -167110.821883 kJ/mol
# GULP energy per Si atom -5570.360729 kJ/mol
# Density = 2.266187 g / cm^3
# Si number density = 22.713568 Si / 1000 Ang^3
#
#
#
# Elastic Constant Matrix: (Units=GPa)
#
#
# Indices 1 2 3 4 5 6 
#
# 1 137.3432 32.6194 35.2922 0.0000 -47.2587 0.0000
# 2 32.6194 102.5962 20.6849 0.0000 -16.6793 0.0000
# 3 35.2922 20.6849 86.1295 -0.0001 -39.6637 0.0000
# 4 0.0000 0.0000 -0.0001 16.9661 0.0000 -14.8721
# 5 -47.2587 -16.6793 -39.6637 0.0000 41.2784 0.0000
# 6 0.0000 0.0000 0.0000 -14.8721 0.0000 29.7593
#
#
#
# Elastic Compliance Matrix: (Units=1/GPa)
#
#
# Indices 1 2 3 4 5 6 
#
# 1 0.012674 -0.001927 0.002858 0.000000 0.016478 0.000000
# 2 -0.001927 0.010775 -0.001451 0.000000 0.000753 0.000000
# 3 0.002858 -0.001451 0.021569 0.000000 0.023410 0.000000
# 4 0.000000 0.000000 0.000000 0.104889 0.000001 0.052418
# 5 0.016478 0.000753 0.023410 0.000001 0.065889 0.000000
# 6 0.000000 0.000000 0.000000 0.052418 0.000000 0.059798
#
#
# Mechanical properties :
#
#
# Convention : Reuss Voigt Hill
#
# Bulk Modulus (GPa) = 22.73961 55.91799 39.32880
# Shear Modulus (GPa) = 17.16481 33.43227 25.29854
#
# Velocity S-wave (km/s) = 2.75200 3.84071 3.34100
# Velocity P-wave (km/s) = 4.48678 6.65885 5.67765
#
# Compressibility (1/GPa) = 0.04397613
#
# Stress axis : x y z
#
# Youngs Moduli (GPa) = 78.90045 92.81063 46.36356
#
# Poissons Ratio (x) = 0.17884 -0.13249
# Poissons Ratio (y) = 0.15204 0.06729
# Poissons Ratio (z) = -0.22546 0.13469
#
# Static dielectric constant tensor:
#      x y z
#    x 1.984980 0.000000 0.012830 
#    y 0.000000 1.863550 0.000000 
#    z 0.012830 0.000000 2.000320 
# 
# From -- ./inp_files/244224.got.cif
#   From: 2010.05.17/outbox.cif.g08.bks.cpg/sg15_123_cif.got.tgz:244224.got - 2010.06.03 18:47:42.
