data_PCOD9253797
_publ_section_title
;
Structure prediction by ZEFSAII (Michael W. Deem and Ramdas Pophale) SiO2 
 PCOD9253797
Probable space group: C 2/C
;
_chemical_formula_sum "Si O2"
_cell_formula_units_Z 44
_cell_length_a 16.904619
_cell_length_b 8.124566
_cell_length_c 14.167665
_cell_angle_alpha 90.000000
_cell_angle_beta 60.807180
_cell_angle_gamma 90.000000
_cell_volume 1698.672776
_symmetry_space_group_name_H-M "C 2/C"
_symmetry_group_IT_number 15
_symmetry_cell_setting 'monoclinic'
loop_
_space_group_symop_operation_xyz
x,y,z
-x,y,1/2-z
-x,-y,-z
x,-y,1/2+z
1/2+x,1/2+y,z
1/2-x,1/2+y,1/2-z
1/2-x,1/2-y,-z
1/2+x,1/2-y,1/2+z
loop_
_atom_site_type_symbol
_atom_site_label
_atom_site_fract_x
_atom_site_fract_y
_atom_site_fract_z
Si Si1 0.307258 0.031701 0.838369
Si Si2 0.500000 0.369401 0.750000
Si Si3 0.134294 0.911632 0.534347
Si Si4 0.080541 0.872382 0.351649
Si Si5 0.216074 0.710349 0.824813
Si Si6 0.900288 0.704648 0.426075
O O1 0.238040 0.119618 0.949151
O O2 0.236189 0.901869 0.829490
O O3 0.375725 0.917686 0.856318
O O4 0.337769 0.148936 0.735795
O O5 0.583410 0.297376 0.640829
O O6 0.456273 0.479840 0.691802
O O7 0.130268 0.103494 0.572239
O O8 0.084545 0.898588 0.461840
O O9 0.180291 0.840525 0.254262
O O10 0.007300 0.725352 0.380359
O O11 0.159522 0.651659 0.948465
#
# Coordination Sequence:
#
# PCOD9253797 Si02
#       6
#     8   4   8   8   8   8
#     4  10  20  35  57  86 117 157 198 239 297 358
#     4  10  14  24  46  76 108 140 178 242 290 324
#     4   9  18  30  51  85 115 143 193 248 291 339
#     4  10  19  31  54  87 114 149 197 240 287 351
#     4  10  20  36  57  85 120 154 193 249 298 345
#     4  10  18  34  58  85 114 156 201 240 292 359
#
# _framework density 25.902574999999999
#
# number of rings (size 3 to 8) (size 9 to 14) (size 15 to 20)
#    0.000    2.182    0.000    7.636    0.000    0.000 
#    0.000    1.818    0.000    4.364    0.000   38.182 
#    0.000    0.000    0.000    0.000    0.000    0.000 
#
# Total GULP energy -122822.776964 kJ/mol
# GULP energy per Si atom -5582.853498 kJ/mol
# Density = 2.584362 g / cm^3
# Si number density = 25.902575 Si / 1000 Ang^3
#
#
#
# Elastic Constant Matrix: (Units=GPa)
#
#
# Indices 1 2 3 4 5 6 
#
# 1 137.0723 51.0941 83.2409 0.0000 8.5958 0.0000
# 2 51.0941 72.9148 48.9805 0.0000 31.9633 0.0000
# 3 83.2409 48.9805 185.3376 0.0000 -7.7258 0.0000
# 4 0.0000 0.0000 0.0000 44.9051 0.0000 15.3014
# 5 8.5958 31.9633 -7.7258 0.0000 55.4934 0.0000
# 6 0.0000 0.0000 0.0000 15.3014 0.0000 38.9323
#
#
#
# Elastic Compliance Matrix: (Units=1/GPa)
#
#
# Indices 1 2 3 4 5 6 
#
# 1 0.011762 -0.006530 -0.003496 0.000000 0.001453 0.000000
# 2 -0.006530 0.029259 -0.005492 0.000000 -0.016606 0.000000
# 3 -0.003496 -0.005492 0.008622 0.000000 0.004905 0.000000
# 4 0.000000 0.000000 0.000000 0.025713 0.000000 -0.010106
# 5 0.001453 -0.016606 0.004905 0.000000 0.028043 0.000000
# 6 0.000000 0.000000 0.000000 -0.010106 0.000000 0.029657
#
#
# Mechanical properties :
#
#
# Convention : Reuss Voigt Hill
#
# Bulk Modulus (GPa) = 53.74572 84.66175 69.20373
# Shear Modulus (GPa) = 29.36111 42.00009 35.68060
#
# Velocity S-wave (km/s) = 3.37043 4.03111 3.71548
# Velocity P-wave (km/s) = 5.99505 7.37713 6.72171
#
# Compressibility (1/GPa) = 0.01860613
#
# Stress axis : x y z
#
# Youngs Moduli (GPa) = 85.02279 34.17755 115.98662
#
# Poissons Ratio (x) = 0.22318 0.40552
# Poissons Ratio (y) = 0.55519 0.63699
# Poissons Ratio (z) = 0.29726 0.18770
#
# Static dielectric constant tensor:
#      x y z
#    x 2.157960 0.000000 -0.050550 
#    y 0.000000 2.135660 0.000000 
#    z -0.050550 0.000000 2.087860 
# 
# From -- ./inp_files/171295.got.cif
#   From: 2010.05.17/outbox.cif.g08.bks.cpg/sg15_86_cif.got.tgz:171295.got - 2010.06.03 18:47:42.
