data_PCOD9253883
_publ_section_title
;
Structure prediction by ZEFSAII (Michael W. Deem and Ramdas Pophale) SiO2 
 PCOD9253883
Probable space group: C 2/C
;
_chemical_formula_sum "Si O2"
_cell_formula_units_Z 40
_cell_length_a 6.462835
_cell_length_b 23.480886
_cell_length_c 11.282504
_cell_angle_alpha 90.000000
_cell_angle_beta 67.745216
_cell_angle_gamma 90.000000
_cell_volume 1584.614541
_symmetry_space_group_name_H-M "C 2/C"
_symmetry_group_IT_number 15
_symmetry_cell_setting 'monoclinic'
loop_
_space_group_symop_operation_xyz
x,y,z
-x,y,1/2-z
-x,-y,-z
x,-y,1/2+z
1/2+x,1/2+y,z
1/2-x,1/2+y,1/2-z
1/2-x,1/2-y,-z
1/2+x,1/2-y,1/2+z
loop_
_atom_site_type_symbol
_atom_site_label
_atom_site_fract_x
_atom_site_fract_y
_atom_site_fract_z
Si Si1 0.132549 0.919354 0.527848
Si Si2 0.217397 0.285803 0.294707
Si Si3 0.597459 0.909216 0.366424
Si Si4 0.948595 0.787984 0.012905
Si Si5 0.261486 0.506163 0.207494
O O1 0.397223 0.916522 0.504205
O O2 0.082215 0.854699 0.503153
O O3 0.931587 0.942189 0.651882
O O4 0.156818 0.962335 0.412137
O O5 0.211547 0.348435 0.356387
O O6 0.000000 0.286731 0.250000
O O7 0.160656 0.235790 0.397717
O O8 0.419024 0.279176 0.158991
O O9 0.500000 0.906375 0.250000
O O10 0.749864 0.965677 0.327486
O O11 0.750000 0.750000 0.000000
O O12 0.000000 0.523826 0.250000
#
# Coordination Sequence:
#
# PCOD9253883 Si02
#       5
#     8   8   8   8   8
#     4   9  13  21  34  53  76 101 121 151 200 226
#     4   9  14  22  33  53  81 102 113 151 188 232
#     4   8  11  21  31  48  77  93 117 146 192 223
#     4  10  15  22  36  55  84 100 120 150 197 234
#     4   8  14  21  34  51  79  97 122 161 193 217
#
# _framework density 25.242730999999999
#
# number of rings (size 3 to 8) (size 9 to 14) (size 15 to 20)
#    0.000    3.600    8.000    0.000    0.000    0.000 
#    0.000    0.000    0.000    0.000    0.000    2.800 
#    0.000    0.000    0.000    0.000    0.000    0.000 
#
# Total GULP energy -111537.939506 kJ/mol
# GULP energy per Si atom -5576.896975 kJ/mol
# Density = 2.518528 g / cm^3
# Si number density = 25.242731 Si / 1000 Ang^3
#
#
#
# Elastic Constant Matrix: (Units=GPa)
#
#
# Indices 1 2 3 4 5 6 
#
# 1 77.4889 36.7710 67.1404 0.0000 -25.6794 0.0000
# 2 36.7710 139.9947 125.8917 0.0000 -25.3469 0.0000
# 3 67.1404 125.8917 186.6686 0.0000 -56.0368 0.0000
# 4 0.0000 0.0000 0.0000 44.7405 0.0000 -23.0938
# 5 -25.6794 -25.3469 -56.0368 0.0000 61.8046 0.0000
# 6 0.0000 0.0000 0.0000 -23.0938 0.0000 26.4099
#
#
#
# Elastic Compliance Matrix: (Units=1/GPa)
#
#
# Indices 1 2 3 4 5 6 
#
# 1 0.019336 0.002613 -0.008221 0.000000 0.001652 0.000000
# 2 0.002613 0.019715 -0.015777 0.000000 -0.005133 0.000000
# 3 -0.008221 -0.015777 0.021965 0.000000 0.010029 0.000000
# 4 0.000000 0.000000 0.000000 0.040739 0.000000 0.035624
# 5 0.001652 -0.005133 0.010029 0.000000 0.023854 0.000000
# 6 0.000000 0.000000 0.000000 0.035624 0.000000 0.069015
#
#
# Mechanical properties :
#
#
# Convention : Reuss Voigt Hill
#
# Bulk Modulus (GPa) = 54.80755 95.97313 75.39034
# Shear Modulus (GPa) = 20.53596 38.21426 29.37511
#
# Velocity S-wave (km/s) = 2.85536 3.89507 3.41501
# Velocity P-wave (km/s) = 5.71228 7.63750 6.74394
#
# Compressibility (1/GPa) = 0.01824566
#
# Stress axis : x y z
#
# Youngs Moduli (GPa) = 51.71799 50.72319 45.52716
#
# Poissons Ratio (x) = -0.13256 0.37430
# Poissons Ratio (y) = -0.13516 0.71828
# Poissons Ratio (z) = 0.42519 0.80026
#
# Static dielectric constant tensor:
#      x y z
#    x 1.700300 0.000000 0.113970 
#    y 0.000000 1.965410 0.000000 
#    z 0.113970 0.000000 2.011260 
# 
# From -- ./inp_files/136773.got.cif
#   From: 2010.05.17/outbox.cif.g08.bks.cpg/sg15_69_cif.got.tgz:136773.got - 2010.06.03 18:47:42.
