data_PCOD9253829
_publ_section_title
;
Structure prediction by ZEFSAII (Michael W. Deem and Ramdas Pophale) SiO2 
 PCOD9253829
Probable space group: C 2/C
;
_chemical_formula_sum "Si O2"
_cell_formula_units_Z 44
_cell_length_a 19.268226
_cell_length_b 6.891349
_cell_length_c 20.004134
_cell_angle_alpha 90.000000
_cell_angle_beta 35.297221
_cell_angle_gamma 90.000000
_cell_volume 1534.817799
_symmetry_space_group_name_H-M "C 2/C"
_symmetry_group_IT_number 15
_symmetry_cell_setting 'monoclinic'
loop_
_space_group_symop_operation_xyz
x,y,z
-x,y,1/2-z
-x,-y,-z
x,-y,1/2+z
1/2+x,1/2+y,z
1/2-x,1/2+y,1/2-z
1/2-x,1/2-y,-z
1/2+x,1/2-y,1/2+z
loop_
_atom_site_type_symbol
_atom_site_label
_atom_site_fract_x
_atom_site_fract_y
_atom_site_fract_z
Si Si1 0.321662 0.471642 0.388464
Si Si2 0.317730 0.131278 0.734677
Si Si3 0.000000 0.329011 0.250000
Si Si4 0.893804 0.079086 0.696072
Si Si5 0.435911 0.941125 0.442723
Si Si6 0.651147 0.495285 0.978757
O O1 0.383782 0.686520 0.340954
O O2 0.401868 0.368978 0.268421
O O3 0.190601 0.451052 0.457504
O O4 0.312475 0.432530 0.474748
O O5 0.360619 0.347748 0.721292
O O6 0.441039 0.030711 0.613462
O O7 0.255209 0.007617 0.842728
O O8 0.214385 0.160951 0.761778
O O9 0.984522 0.450802 0.328542
O O10 0.025305 0.111007 0.561123
O O11 0.391201 0.720116 0.486997
#
# Coordination Sequence:
#
# PCOD9253829 Si02
#       6
#     8   8   4   8   8   8
#     4  11  17  30  55  82 102 128 181 231 262 292
#     4  11  22  36  51  79 115 140 174 210 268 322
#     4  10  14  28  50  80 106 124 172 230 268 292
#     4  11  22  35  54  82 108 144 171 216 264 317
#     4  10  17  27  50  81 107 129 164 226 274 294
#     4  10  18  34  56  79 102 139 182 224 256 305
#
# _framework density 28.667898999999998
#
# number of rings (size 3 to 8) (size 9 to 14) (size 15 to 20)
#    0.000    1.455    7.273    3.818    0.000    0.727 
#    0.000    0.000    0.000    1.091    9.455    0.000 
#    0.000    0.000    0.000    0.000    0.000    0.000 
#
# Total GULP energy -123111.572717 kJ/mol
# GULP energy per Si atom -5595.980578 kJ/mol
# Density = 2.860265 g / cm^3
# Si number density = 28.667899 Si / 1000 Ang^3
#
#
#
# Elastic Constant Matrix: (Units=GPa)
#
#
# Indices 1 2 3 4 5 6 
#
# 1 150.4780 19.6913 63.7933 -0.0014 -41.3009 0.0038
# 2 19.6913 92.2460 31.6474 -0.0024 -12.0210 0.0061
# 3 63.7933 31.6474 184.5446 -0.0005 -26.5258 0.0022
# 4 -0.0014 -0.0024 -0.0005 16.2770 0.0009 -19.5567
# 5 -41.3009 -12.0210 -26.5258 0.0009 67.1825 -0.0021
# 6 0.0038 0.0061 0.0022 -19.5567 -0.0021 34.8304
#
#
#
# Elastic Compliance Matrix: (Units=1/GPa)
#
#
# Indices 1 2 3 4 5 6 
#
# 1 0.008941 -0.000516 -0.002359 -0.000001 0.004473 -0.000001
# 2 -0.000516 0.011666 -0.001662 -0.000002 0.001114 -0.000003
# 3 -0.002359 -0.001662 0.006645 0.000000 0.000876 0.000000
# 4 -0.000001 -0.000002 0.000000 0.188811 0.000000 0.106014
# 5 0.004473 0.001114 0.000876 0.000000 0.018180 0.000000
# 6 -0.000001 -0.000003 0.000000 0.106014 0.000000 0.088235
#
#
# Mechanical properties :
#
#
# Convention : Reuss Voigt Hill
#
# Bulk Modulus (GPa) = 55.01475 73.05919 64.03697
# Shear Modulus (GPa) = 14.80990 44.46709 29.63850
#
# Velocity S-wave (km/s) = 2.27535 3.94269 3.21885
# Velocity P-wave (km/s) = 5.11224 6.80194 6.01670
#
# Compressibility (1/GPa) = 0.01817695
#
# Stress axis : x y z
#
# Youngs Moduli (GPa) = 111.84712 85.71810 150.48407
#
# Poissons Ratio (x) = 0.04426 0.35503
# Poissons Ratio (y) = 0.05775 0.25011
# Poissons Ratio (z) = 0.26387 0.14247
#
# Static dielectric constant tensor:
#      x y z
#    x 2.282310 0.000000 -0.042200 
#    y 0.000000 2.389740 0.000000 
#    z -0.042200 0.000000 2.176140 
# 
# From -- ./inp_files/122592.got.cif
#   From: 2010.05.17/outbox.cif.g08.bks.cpg/sg15_62_cif.got.tgz:122592.got - 2010.06.03 18:47:42.
