data_PCOD9253871
_publ_section_title
;
Structure prediction by ZEFSAII (Michael W. Deem and Ramdas Pophale) SiO2 
 PCOD9253871
Probable space group: C 2/C
;
_chemical_formula_sum "Si O2"
_cell_formula_units_Z 60
_cell_length_a 11.465245
_cell_length_b 14.062295
_cell_length_c 18.708985
_cell_angle_alpha 90.000000
_cell_angle_beta 121.595730
_cell_angle_gamma 90.000000
_cell_volume 2569.271870
_symmetry_space_group_name_H-M "C 2/C"
_symmetry_group_IT_number 15
_symmetry_cell_setting 'monoclinic'
loop_
_space_group_symop_operation_xyz
x,y,z
-x,y,1/2-z
-x,-y,-z
x,-y,1/2+z
1/2+x,1/2+y,z
1/2-x,1/2+y,1/2-z
1/2-x,1/2-y,-z
1/2+x,1/2-y,1/2+z
loop_
_atom_site_type_symbol
_atom_site_label
_atom_site_fract_x
_atom_site_fract_y
_atom_site_fract_z
Si Si1 0.425129 0.979019 0.320426
Si Si2 0.928445 0.888658 0.379345
Si Si3 0.253031 0.988581 0.404180
Si Si4 0.766659 0.142761 0.479239
Si Si5 0.049678 0.843535 0.843098
Si Si6 0.000000 0.875472 0.250000
Si Si7 0.715580 0.404407 0.673499
Si Si8 0.342623 0.862961 0.156828
O O1 0.371665 0.986530 0.383277
O O2 0.366554 0.894765 0.247987
O O3 0.583437 0.948793 0.361693
O O4 0.351807 0.072133 0.262701
O O5 0.940170 0.835001 0.306140
O O6 0.818913 0.849692 0.399712
O O7 0.075003 0.887427 0.462264
O O8 0.872311 0.996312 0.351379
O O9 0.303688 0.926903 0.487010
O O10 0.128413 0.932554 0.324295
O O11 0.176892 0.086620 0.403640
O O12 0.750000 0.250000 0.500000
O O13 0.732412 0.129893 0.386089
O O14 0.099320 0.737117 0.847445
O O15 0.000000 0.881275 0.750000
O O16 0.907394 0.836969 0.840856
#
# Coordination Sequence:
#
# PCOD9253871 Si02
#       8
#     8   8   8   8   8   4   8   8
#     4  10  19  37  63  95 133 163 212 283 341 386
#     4  10  20  42  66  91 132 173 230 271 341 394
#     4  11  19  37  63  95 127 171 226 277 325 396
#     4  11  26  41  67  94 136 183 232 273 333 406
#     4  12  19  35  64 103 125 168 229 272 333 398
#     4  10  14  32  64  92 112 164 222 280 318 382
#     4  11  21  39  67  95 128 179 224 270 336 406
#     4  10  22  35  63 101 133 164 215 290 338 385
#
# _framework density 23.352919
#
# number of rings (size 3 to 8) (size 9 to 14) (size 15 to 20)
#    0.000    1.333    8.667    0.400    1.867    0.000 
#    0.000    4.667    0.000    8.000    0.000    0.000 
#    0.000    0.000    0.000    0.000    0.000    0.000 
#
# Total GULP energy -167105.358015 kJ/mol
# GULP energy per Si atom -5570.178601 kJ/mol
# Density = 2.329977 g / cm^3
# Si number density = 23.352919 Si / 1000 Ang^3
#
#
#
# Elastic Constant Matrix: (Units=GPa)
#
#
# Indices 1 2 3 4 5 6 
#
# 1 151.6879 48.7782 35.2033 0.0000 -38.7394 0.0000
# 2 48.7782 74.8497 22.0313 0.0000 -17.0168 0.0000
# 3 35.2033 22.0313 69.2044 0.0000 -42.5604 0.0000
# 4 0.0000 0.0000 0.0000 5.9925 0.0000 -0.6433
# 5 -38.7394 -17.0168 -42.5604 0.0000 36.2751 0.0000
# 6 0.0000 0.0000 0.0000 -0.6433 0.0000 28.5045
#
#
#
# Elastic Compliance Matrix: (Units=1/GPa)
#
#
# Indices 1 2 3 4 5 6 
#
# 1 0.011138 -0.005298 0.006492 0.000000 0.017025 0.000000
# 2 -0.005298 0.017525 -0.004697 0.000000 -0.002948 0.000000
# 3 0.006492 -0.004697 0.055851 0.000000 0.070258 0.000000
# 4 0.000000 0.000000 0.000000 0.167281 0.000000 0.003775
# 5 0.017025 -0.002948 0.070258 0.000000 0.126797 0.000000
# 6 0.000000 0.000000 0.000000 0.003775 0.000000 0.035167
#
#
# Mechanical properties :
#
#
# Convention : Reuss Voigt Hill
#
# Bulk Modulus (GPa) = 12.90206 56.41863 34.66035
# Shear Modulus (GPa) = 11.19562 26.80303 18.99932
#
# Velocity S-wave (km/s) = 2.19192 3.39150 2.85542
# Velocity P-wave (km/s) = 3.45584 6.28872 5.07399
#
# Compressibility (1/GPa) = 0.07750700
#
# Stress axis : x y z
#
# Youngs Moduli (GPa) = 89.78434 57.06046 17.90470
#
# Poissons Ratio (x) = 0.30233 -0.11623
# Poissons Ratio (y) = 0.47571 0.08410
# Poissons Ratio (z) = -0.58284 0.26800
#
# Static dielectric constant tensor:
#      x y z
#    x 2.180640 0.000000 0.045270 
#    y 0.000000 1.918560 0.000000 
#    z 0.045270 0.000000 1.973760 
# 
# From -- ./inp_files/198387.got.cif
#   From: 2010.05.17/outbox.cif.g08.bks.cpg/sg15_100_cif.got.tgz:198387.got - 2010.06.03 18:47:42.
