data_PCOD9253488
_publ_section_title
;
Structure prediction by ZEFSAII (Michael W. Deem and Ramdas Pophale) SiO2 
 PCOD9253488
Probable space group: P 21/C
;
_chemical_formula_sum "Si O2"
_cell_formula_units_Z 32
_cell_length_a 12.000000
_cell_length_b 9.000000
_cell_length_c 15.000000
_cell_angle_alpha 90.000000
_cell_angle_beta 70.000000
_cell_angle_gamma 90.000000
_cell_volume 1522.302046
_symmetry_space_group_name_H-M "P 21/C"
_symmetry_group_IT_number 14
_symmetry_cell_setting 'monoclinic'
loop_
_space_group_symop_operation_xyz
x,y,z
-x,1/2+y,1/2-z
-x,-y,-z
x,1/2-y,1/2+z
loop_
_atom_site_type_symbol
_atom_site_label
_atom_site_fract_x
_atom_site_fract_y
_atom_site_fract_z
Si Si1 0.130058 0.570667 0.347374
Si Si2 0.527139 0.971894 0.352853
Si Si3 0.803120 0.405579 0.207378
Si Si4 0.701599 0.912702 0.052495
Si Si5 0.870846 0.929204 0.856379
Si Si6 0.263286 0.056105 0.452728
Si Si7 0.783663 0.903468 0.349674
Si Si8 0.536150 0.327545 0.313884
O O1 0.156253 0.744865 0.335962
O O2 0.218953 0.493718 0.393877
O O3 0.167187 0.498687 0.243841
O O4 0.986845 0.555920 0.387570
O O5 0.392220 0.976536 0.426368
O O6 0.545449 0.148794 0.325938
O O7 0.639069 0.908333 0.377315
O O8 0.517519 0.867608 0.268561
O O9 0.880710 0.471123 0.265891
O O10 0.796135 0.508178 0.122490
O O11 0.668056 0.391315 0.279754
O O12 0.723810 0.734734 0.052347
O O13 0.559178 0.914381 0.098754
O O14 0.756211 0.971896 0.946115
O O15 0.841461 0.760124 0.834169
O O16 0.190897 0.023212 0.561687
#
# Coordination Sequence:
#
# PCOD9253488 Si02
#       8
#     4   4   4   4   4   4   4   4
#     4  12  23  43  63  89 126 167 211 260 309 366
#     4  10  19  35  62  92 127 158 197 248 317 374
#     4  11  23  40  61  94 127 156 209 264 309 371
#     4  10  21  42  65  89 123 164 206 255 319 372
#     4  11  26  41  62  90 123 171 216 252 305 376
#     4   9  22  38  64  93 122 156 205 255 314 381
#     4  11  21  41  63  89 123 168 205 250 315 366
#     4  10  19  36  62  95 124 156 199 256 317 375
#
# _framework density 21.020796000000001
#
# number of rings (size 3 to 8) (size 9 to 14) (size 15 to 20)
#    0.000    1.500    2.500    2.250    3.500    1.500 
#    0.000    6.875    0.000    0.000    0.000    0.000 
#    0.000    0.000    0.000    0.000    0.000    0.000 
#
# Total GULP energy -178579.000729 kJ/mol
# GULP energy per Si atom -5580.593773 kJ/mol
# Density = 2.097295 g / cm^3
# Si number density = 21.020796 Si / 1000 Ang^3
#
#
#
# Elastic Constant Matrix: (Units=GPa)
#
#
# Indices 1 2 3 4 5 6 
#
# 1 69.3560 -5.9581 -18.4571 0.0000 6.1151 0.0000
# 2 -5.9581 28.6536 -4.7710 0.0000 6.9152 0.0000
# 3 -18.4571 -4.7710 51.7983 0.0000 -1.3844 0.0000
# 4 0.0000 0.0000 0.0000 7.7588 0.0000 1.1531
# 5 6.1151 6.9152 -1.3844 0.0000 17.0331 0.0000
# 6 0.0000 0.0000 0.0000 1.1531 0.0000 25.5664
#
#
#
# Elastic Compliance Matrix: (Units=1/GPa)
#
#
# Indices 1 2 3 4 5 6 
#
# 1 0.017521 0.006804 0.006642 0.000000 -0.008513 0.000000
# 2 0.006804 0.041852 0.005772 0.000000 -0.018965 0.000000
# 3 0.006642 0.005772 0.022126 0.000000 -0.002930 0.000000
# 4 0.000000 0.000000 0.000000 0.129756 0.000000 -0.005852
# 5 -0.008513 -0.018965 -0.002930 0.000000 0.069227 0.000000
# 6 0.000000 0.000000 0.000000 -0.005852 0.000000 0.039378
#
#
# Mechanical properties :
#
#
# Convention : Reuss Voigt Hill
#
# Bulk Modulus (GPa) = 8.33775 10.15949 9.24862
# Shear Modulus (GPa) = 15.55685 22.00459 18.78072
#
# Velocity S-wave (km/s) = 2.72337 3.23894 2.99228
# Velocity P-wave (km/s) = 3.72345 4.33949 4.04322
#
# Compressibility (1/GPa) = 0.11993647
#
# Stress axis : x y z
#
# Youngs Moduli (GPa) = 57.07401 23.89344 45.19588
#
# Poissons Ratio (x) = -0.16256 -0.30021
# Poissons Ratio (y) = -0.38831 -0.26089
# Poissons Ratio (z) = -0.37911 -0.13792
#
# Static dielectric constant tensor:
#      x y z
#    x 1.756520 0.000000 -0.042530 
#    y 0.000000 1.247740 0.000000 
#    z -0.042530 0.000000 1.814180 
# 
# From -- ./inp_files/43681.got.cif
#   From: 2010.05.17/outbox.ucp.g08.bks.cvg/sg14_22_cif.got.tgz:43681.got - 2010.06.11 12:31:08.
