data_PCOD9253499
_publ_section_title
;
Structure prediction by ZEFSAII (Michael W. Deem and Ramdas Pophale) SiO2 
 PCOD9253499
Probable space group: P 21/C
;
_chemical_formula_sum "Si O2"
_cell_formula_units_Z 28
_cell_length_a 9.000000
_cell_length_b 9.000000
_cell_length_c 27.000000
_cell_angle_alpha 90.000000
_cell_angle_beta 140.000000
_cell_angle_gamma 90.000000
_cell_volume 1405.776502
_symmetry_space_group_name_H-M "P 21/C"
_symmetry_group_IT_number 14
_symmetry_cell_setting 'monoclinic'
loop_
_space_group_symop_operation_xyz
x,y,z
-x,1/2+y,1/2-z
-x,-y,-z
x,1/2-y,1/2+z
loop_
_atom_site_type_symbol
_atom_site_label
_atom_site_fract_x
_atom_site_fract_y
_atom_site_fract_z
Si Si1 0.635702 0.712404 0.741973
Si Si2 0.174951 0.883087 0.986471
Si Si3 0.288258 0.875247 0.588310
Si Si4 0.567643 0.673938 0.433225
Si Si5 0.164248 0.825890 0.388071
Si Si6 0.152359 0.432207 0.963479
Si Si7 0.647658 0.591745 0.343155
O O1 0.523344 0.825554 0.673919
O O2 0.498421 0.557088 0.703792
O O3 0.618182 0.792702 0.790753
O O4 0.904773 0.682434 0.801866
O O5 0.192775 0.782208 0.942560
O O6 0.918129 0.950424 0.918327
O O7 0.185446 0.772826 0.036115
O O8 0.380297 0.002123 0.040705
O O9 0.112020 0.940020 0.584594
O O10 0.296956 0.988529 0.544667
O O11 0.340535 0.758866 0.393657
O O12 0.768513 0.763580 0.513144
O O13 0.582210 0.672860 0.377615
O O14 0.195573 0.987143 0.422340
#
# Coordination Sequence:
#
# PCOD9253499 Si02
#       7
#     4   4   4   4   4   4   4
#     4  11  23  40  58  89 125 158 196 253 311 365
#     4  10  20  40  65  91 112 158 211 259 294 354
#     4  10  19  38  64  88 117 156 206 257 301 350
#     4  12  21  39  63  92 118 159 208 251 297 372
#     4  10  24  40  57  89 129 160 192 245 320 372
#     4  10  21  36  65  88 117 157 208 253 296 357
#     4  11  23  38  65  89 118 156 210 256 301 356
#
# _framework density 19.917818
#
# number of rings (size 3 to 8) (size 9 to 14) (size 15 to 20)
#    0.000    1.429    2.857    3.000    4.000    0.000 
#    2.571    0.000    3.143    0.000    0.000    0.000 
#    0.000    0.000    0.000    0.000    0.000    0.000 
#
# Total GULP energy -156293.531670 kJ/mol
# GULP energy per Si atom -5581.911845 kJ/mol
# Density = 1.987248 g / cm^3
# Si number density = 19.917818 Si / 1000 Ang^3
#
#
#
# Elastic Constant Matrix: (Units=GPa)
#
#
# Indices 1 2 3 4 5 6 
#
# 1 42.7736 13.6272 13.8344 0.0000 6.9155 0.0000
# 2 13.6272 75.4949 12.6651 0.0000 0.3480 0.0000
# 3 13.8344 12.6651 90.0503 0.0000 0.7673 0.0000
# 4 0.0000 0.0000 0.0000 39.6724 0.0000 -2.8456
# 5 6.9155 0.3480 0.7673 0.0000 15.2181 0.0000
# 6 0.0000 0.0000 0.0000 -2.8456 0.0000 29.3058
#
#
#
# Elastic Compliance Matrix: (Units=1/GPa)
#
#
# Indices 1 2 3 4 5 6 
#
# 1 0.027938 -0.004387 -0.003569 0.000000 -0.012416 0.000000
# 2 -0.004387 0.014256 -0.001346 0.000000 0.001735 0.000000
# 3 -0.003569 -0.001346 0.011834 0.000000 0.001056 0.000000
# 4 0.000000 0.000000 0.000000 0.025383 0.000000 0.002465
# 5 -0.012416 0.001735 0.001056 0.000000 0.071260 0.000000
# 6 0.000000 0.000000 0.000000 0.002465 0.000000 0.034362
#
#
# Mechanical properties :
#
#
# Convention : Reuss Voigt Hill
#
# Bulk Modulus (GPa) = 28.23008 32.06356 30.14682
# Shear Modulus (GPa) = 23.20778 28.05207 25.62992
#
# Velocity S-wave (km/s) = 3.41717 3.75692 3.59107
# Velocity P-wave (km/s) = 5.45651 5.91204 5.68883
#
# Compressibility (1/GPa) = 0.03542320
#
# Stress axis : x y z
#
# Youngs Moduli (GPa) = 35.79312 70.14798 84.50553
#
# Poissons Ratio (x) = 0.30774 0.30163
# Poissons Ratio (y) = 0.15702 0.11373
# Poissons Ratio (z) = 0.12776 0.09440
#
# Static dielectric constant tensor:
#      x y z
#    x 1.715670 0.000000 0.019640 
#    y 0.000000 1.721020 0.000000 
#    z 0.019640 0.000000 1.690840 
# 
# From -- ./inp_files/60321.got.cif
#   From: 2010.05.17/outbox.ucp.g08.bks.cvg/sg14_31_cif.got.tgz:60321.got - 2010.06.11 12:31:08.
