data_PCOD9253813
_publ_section_title
;
Structure prediction by ZEFSAII (Michael W. Deem and Ramdas Pophale) SiO2 
 PCOD9253813
Probable space group: C 2/C
;
_chemical_formula_sum "Si O2"
_cell_formula_units_Z 56
_cell_length_a 9.035627
_cell_length_b 17.002289
_cell_length_c 17.858173
_cell_angle_alpha 90.000000
_cell_angle_beta 58.986167
_cell_angle_gamma 90.000000
_cell_volume 2351.285094
_symmetry_space_group_name_H-M "C 2/C"
_symmetry_group_IT_number 15
_symmetry_cell_setting 'monoclinic'
loop_
_space_group_symop_operation_xyz
x,y,z
-x,y,1/2-z
-x,-y,-z
x,-y,1/2+z
1/2+x,1/2+y,z
1/2-x,1/2+y,1/2-z
1/2-x,1/2-y,-z
1/2+x,1/2-y,1/2+z
loop_
_atom_site_type_symbol
_atom_site_label
_atom_site_fract_x
_atom_site_fract_y
_atom_site_fract_z
Si Si1 0.449135 0.119282 0.489961
Si Si2 0.084586 0.795138 0.823914
Si Si3 0.779619 0.335605 0.900641
Si Si4 0.432477 0.702230 0.689236
Si Si5 0.147603 0.522275 0.857925
Si Si6 0.000000 0.536969 0.250000
Si Si7 0.000000 0.057126 0.250000
Si Si8 0.286761 0.260408 0.080027
O O1 0.278988 0.139452 0.486883
O O2 0.401891 0.102487 0.587745
O O3 0.594202 0.183891 0.439589
O O4 0.528878 0.042893 0.429287
O O5 0.102234 0.809822 0.908994
O O6 0.260477 0.750879 0.757623
O O7 0.076511 0.882311 0.790809
O O8 0.912031 0.752153 0.843758
O O9 0.868863 0.405270 0.828781
O O10 0.912058 0.263495 0.862385
O O11 0.500000 0.659225 0.750000
O O12 0.371421 0.677681 0.619285
O O13 0.342652 0.494854 0.820433
O O14 0.101245 0.516315 0.783208
O O15 0.250000 0.250000 0.000000
#
# Coordination Sequence:
#
# PCOD9253813 Si02
#       8
#     8   8   8   8   8   4   4   8
#     4   9  19  36  47  75 116 142 163 217 293 334
#     4  11  16  29  53  81 106 126 182 236 254 310
#     4   9  15  28  51  78 106 130 166 220 273 322
#     4   9  16  30  53  78 104 137 173 229 274 313
#     4  10  19  30  54  78 108 137 173 225 277 328
#     4  10  14  26  48  79  95 134 174 202 268 328
#     4  12  16  28  52  87  97 130 190 232 260 308
#     4  11  21  33  53  82 109 140 184 228 275 321
#
# _framework density 23.816763000000002
#
# number of rings (size 3 to 8) (size 9 to 14) (size 15 to 20)
#    0.000    2.000    6.429    0.857    0.000    0.000 
#    0.000    8.571    3.143    0.000    5.571    0.000 
#    0.000    0.000    0.000    0.000    0.000    0.000 
#
# Total GULP energy -155950.525191 kJ/mol
# GULP energy per Si atom -5569.661614 kJ/mol
# Density = 2.376256 g / cm^3
# Si number density = 23.816763 Si / 1000 Ang^3
#
#
#
# Elastic Constant Matrix: (Units=GPa)
#
#
# Indices 1 2 3 4 5 6 
#
# 1 172.0634 23.8842 41.2972 0.0000 22.5112 0.0000
# 2 23.8842 25.5439 16.6361 0.0000 1.1106 0.0000
# 3 41.2972 16.6361 85.9744 0.0000 22.6047 0.0000
# 4 0.0000 0.0000 0.0000 23.8022 0.0000 -7.9952
# 5 22.5112 1.1106 22.6047 0.0000 53.8906 0.0000
# 6 0.0000 0.0000 0.0000 -7.9952 0.0000 -4.7185
#
#
#
# Elastic Compliance Matrix: (Units=1/GPa)
#
#
# Indices 1 2 3 4 5 6 
#
# 1 0.007310 -0.005519 -0.001878 0.000000 -0.002152 0.000000
# 2 -0.005519 0.049410 -0.008147 0.000000 0.004704 0.000000
# 3 -0.001878 -0.008147 0.015577 0.000000 -0.005582 0.000000
# 4 0.000000 0.000000 0.000000 0.026774 0.000000 -0.045367
# 5 -0.002152 0.004704 -0.005582 0.000000 0.021699 0.000000
# 6 0.000000 0.000000 0.000000 -0.045367 0.000000 -0.135059
#
#
# Mechanical properties :
#
#
# Convention : Reuss Voigt Hill
#
# Bulk Modulus (GPa) = 24.26548 49.69074 36.97811
# Shear Modulus (GPa) = 163.74973 28.04582 95.89777
#
# Velocity S-wave (km/s) = 8.30080 3.43529 6.35234
# Velocity P-wave (km/s) = 10.10354 6.05343 8.32843
#
# Compressibility (1/GPa) = 0.04121080
#
# Stress axis : x y z
#
# Youngs Moduli (GPa) = 136.79717 20.23900 64.19634
#
# Poissons Ratio (x) = 0.11169 0.12053
# Poissons Ratio (y) = 0.75494 0.52299
# Poissons Ratio (z) = 0.25685 0.16488
#
# Static dielectric constant tensor:
#      x y z
#    x 1.960010 0.000000 0.114250 
#    y 0.000000 1.886850 0.000000 
#    z 0.114250 0.000000 2.063300 
# 
# From -- ./inp_files/192914.got.cif
#   From: 2010.05.17/outbox.cif.g08.bks.cpg/sg15_97_cif.got.tgz:192914.got - 2010.06.03 18:47:42.
