data_PCOD9253737
_publ_section_title
;
Structure prediction by ZEFSAII (Michael W. Deem and Ramdas Pophale) SiO2 
 PCOD9253737
Probable space group: P 21/C
;
_chemical_formula_sum "Si O2"
_cell_formula_units_Z 28
_cell_length_a 21.000000
_cell_length_b 9.000000
_cell_length_c 9.000000
_cell_angle_alpha 90.000000
_cell_angle_beta 130.000000
_cell_angle_gamma 90.000000
_cell_volume 1303.041598
_symmetry_space_group_name_H-M "P 21/C"
_symmetry_group_IT_number 14
_symmetry_cell_setting 'monoclinic'
loop_
_space_group_symop_operation_xyz
x,y,z
-x,1/2+y,1/2-z
-x,-y,-z
x,1/2-y,1/2+z
loop_
_atom_site_type_symbol
_atom_site_label
_atom_site_fract_x
_atom_site_fract_y
_atom_site_fract_z
Si Si1 0.921807 0.765942 0.581249
Si Si2 0.411234 0.059379 0.923794
Si Si3 0.325769 0.733068 0.714085
Si Si4 0.065450 0.566574 0.713701
Si Si5 0.208557 0.745303 0.288022
Si Si6 0.364662 0.390233 0.694662
Si Si7 0.827999 0.911484 0.173013
O O1 0.871801 0.800783 0.355859
O O2 0.878086 0.628875 0.599927
O O3 0.016519 0.708792 0.708661
O O4 0.916925 0.926067 0.654640
O O5 0.389648 0.227650 0.814365
O O6 0.359257 0.901295 0.812651
O O7 0.409096 0.090819 0.099281
O O8 0.500000 0.000000 0.000000
O O9 0.298946 0.751796 0.503132
O O10 0.236072 0.722143 0.661439
O O11 0.368395 0.561481 0.780939
O O12 0.146894 0.630808 0.757165
O O13 0.000000 0.500000 0.500000
O O14 0.171887 0.580197 0.263656
O O15 0.267653 0.374399 0.505904
#
# Coordination Sequence:
#
# PCOD9253737 Si02
#       7
#     4   4   4   4   4   4   4
#     4  12  26  43  68  97 141 181 246 306 371 433
#     4  12  29  50  80 118 155 195 243 305 381 454
#     4  11  25  50  75 109 148 196 249 304 374 443
#     4  12  28  41  64 100 137 189 240 306 376 425
#     4  11  26  44  71  97 144 192 244 304 366 443
#     4  11  28  48  79 113 148 197 251 303 372 456
#     4  11  24  45  71 100 135 187 245 302 369 434
#
# _framework density 21.488185999999999
#
# number of rings (size 3 to 8) (size 9 to 14) (size 15 to 20)
#    0.000    0.571    4.286    2.571   14.000    1.714 
#    0.000    0.000    0.000    0.000    0.000    0.000 
#    0.000    0.000    0.000    0.000    0.000    0.000 
#
# Total GULP energy -155922.563339 kJ/mol
# GULP energy per Si atom -5568.662976 kJ/mol
# Density = 2.143928 g / cm^3
# Si number density = 21.488186 Si / 1000 Ang^3
#
#
#
# Elastic Constant Matrix: (Units=GPa)
#
#
# Indices 1 2 3 4 5 6 
#
# 1 115.0674 41.5498 8.2738 0.0000 3.6184 0.0000
# 2 41.5498 187.4851 32.7816 0.0000 -6.6633 0.0000
# 3 8.2738 32.7816 26.9259 0.0000 -6.5153 0.0000
# 4 0.0000 0.0000 0.0000 51.4651 0.0000 0.1857
# 5 3.6184 -6.6633 -6.5153 0.0000 28.9927 0.0000
# 6 0.0000 0.0000 0.0000 0.1857 0.0000 56.9320
#
#
#
# Elastic Compliance Matrix: (Units=1/GPa)
#
#
# Indices 1 2 3 4 5 6 
#
# 1 0.009545 -0.002020 -0.000925 0.000000 -0.001863 0.000000
# 2 -0.002020 0.007206 -0.008133 0.000000 0.000081 0.000000
# 3 -0.000925 -0.008133 0.049598 0.000000 0.009392 0.000000
# 4 0.000000 0.000000 0.000000 0.019431 0.000000 -0.000063
# 5 -0.001863 0.000081 0.009392 0.000000 0.036853 0.000000
# 6 0.000000 0.000000 0.000000 -0.000063 0.000000 0.017565
#
#
# Mechanical properties :
#
#
# Convention : Reuss Voigt Hill
#
# Bulk Modulus (GPa) = 22.62787 54.96542 38.79664
# Shear Modulus (GPa) = 28.23496 43.93618 36.08557
#
# Velocity S-wave (km/s) = 3.62881 4.52670 4.10240
# Velocity P-wave (km/s) = 5.30198 7.27711 6.36660
#
# Compressibility (1/GPa) = 0.04419329
#
# Stress axis : x y z
#
# Youngs Moduli (GPa) = 104.76696 138.76602 20.16212
#
# Poissons Ratio (x) = 0.28029 0.01864
# Poissons Ratio (y) = 0.21161 0.16399
# Poissons Ratio (z) = 0.09688 1.12864
#
# Static dielectric constant tensor:
#      x y z
#    x 1.823410 0.000000 -0.010220 
#    y 0.000000 1.822500 0.000000 
#    z -0.010220 0.000000 1.838740 
# 
# From -- ./inp_files/18780.got.cif
#   From: 2010.05.17/outbox.ucp.g08.bks.cvg/sg14_10_cif.got.tgz:18780.got - 2010.06.11 12:31:08.
