data_PCOD9253190
_publ_section_title
;
Structure prediction by ZEFSAII (Michael W. Deem and Ramdas Pophale) SiO2 
 PCOD9253190
Probable space group: P 21/C
;
_chemical_formula_sum "Si O2"
_cell_formula_units_Z 22
_cell_length_a 5.105315
_cell_length_b 17.339074
_cell_length_c 10.480472
_cell_angle_alpha 90.000000
_cell_angle_beta 114.260685
_cell_angle_gamma 90.000000
_cell_volume 845.812894
_symmetry_space_group_name_H-M "P 21/C"
_symmetry_group_IT_number 14
_symmetry_cell_setting 'monoclinic'
loop_
_space_group_symop_operation_xyz
x,y,z
-x,1/2+y,1/2-z
-x,-y,-z
x,1/2-y,1/2+z
loop_
_atom_site_type_symbol
_atom_site_label
_atom_site_fract_x
_atom_site_fract_y
_atom_site_fract_z
Si Si1 0.194587 0.792088 0.818909
Si Si2 0.233829 0.946642 0.481902
Si Si3 0.273829 0.825349 0.108191
Si Si4 0.848503 0.917745 0.165594
Si Si5 0.634560 0.886358 0.766591
Si Si6 0.000000 0.500000 0.500000
O O1 0.206501 0.722974 0.720671
O O2 0.491301 0.835806 0.849116
O O3 0.584885 0.636024 0.653221
O O4 0.208243 0.774340 0.971893
O O5 0.072650 0.915523 0.325720
O O6 0.375418 0.890625 0.612950
O O7 0.500000 0.000000 0.500000
O O8 0.000000 0.000000 0.500000
O O9 0.041321 0.895866 0.072504
O O10 0.903286 0.657382 0.253451
O O11 0.792136 0.000327 0.093259
O O12 0.727344 0.966750 0.845938
#
# Coordination Sequence:
#
# PCOD9253190 Si02
#       6
#     4   4   4   4   4   2
#     4  12  27  51  76 111 151 208 269 325 394 466
#     4  12  26  46  70 113 155 196 243 315 394 479
#     4  12  27  51  76 111 151 211 268 325 396 463
#     4  12  27  47  78 111 158 203 260 326 400 475
#     4  12  27  47  79 111 155 202 258 327 406 471
#     4  12  24  48  82 112 158 198 262 328 398 486
#
# _framework density 26.010480999999999
#
# number of rings (size 3 to 8) (size 9 to 14) (size 15 to 20)
#    0.000    0.000    5.455    3.273    2.545    1.455 
#    0.000    0.000    0.000    0.000    0.000    0.000 
#    0.000    0.000    0.000    0.000    0.000    0.000 
#
# Total GULP energy -122750.070932 kJ/mol
# GULP energy per Si atom -5579.548679 kJ/mol
# Density = 2.595128 g / cm^3
# Si number density = 26.010481 Si / 1000 Ang^3
#
#
#
# Elastic Constant Matrix: (Units=GPa)
#
#
# Indices 1 2 3 4 5 6 
#
# 1 218.4815 59.3744 67.6791 0.0000 1.1690 0.0000
# 2 59.3744 92.3047 51.9835 0.0000 -14.5162 0.0000
# 3 67.6791 51.9835 215.6334 0.0000 -7.8150 0.0000
# 4 0.0000 0.0000 0.0000 36.7870 0.0000 -14.6990
# 5 1.1690 -14.5162 -7.8150 0.0000 53.0449 0.0000
# 6 0.0000 0.0000 0.0000 -14.6990 0.0000 52.9715
#
#
#
# Elastic Compliance Matrix: (Units=1/GPa)
#
#
# Indices 1 2 3 4 5 6 
#
# 1 0.005819 -0.003330 -0.001067 0.000000 -0.001197 0.000000
# 2 -0.003330 0.014936 -0.002417 0.000000 0.003805 0.000000
# 3 -0.001067 -0.002417 0.005562 0.000000 0.000181 0.000000
# 4 0.000000 0.000000 0.000000 0.030573 0.000000 0.008484
# 5 -0.001197 0.003805 0.000181 0.000000 0.019946 0.000000
# 6 0.000000 0.000000 0.000000 0.008484 0.000000 0.021232
#
#
# Mechanical properties :
#
#
# Convention : Reuss Voigt Hill
#
# Bulk Modulus (GPa) = 78.82097 98.27707 88.54902
# Shear Modulus (GPa) = 43.13074 51.71954 47.42514
#
# Velocity S-wave (km/s) = 4.07653 4.46400 4.27465
# Velocity P-wave (km/s) = 7.24753 8.02717 7.64729
#
# Compressibility (1/GPa) = 0.01268698
#
# Stress axis : x y z
#
# Youngs Moduli (GPa) = 171.85061 66.95366 179.80130
#
# Poissons Ratio (x) = 0.22298 0.19182
# Poissons Ratio (y) = 0.57234 0.43466
# Poissons Ratio (z) = 0.18334 0.16186
#
# Static dielectric constant tensor:
#      x y z
#    x 2.187830 0.000000 -0.047750 
#    y 0.000000 2.419100 0.000000 
#    z -0.047750 0.000000 2.147960 
# 
# From -- ./inp_files/21107.got.cif
#   From: 2010.05.17/outbox.cif.g08.bks.cpg/sg14_11_cif.got.tgz:21107.got - 2010.06.03 17:49:19.
