data_PCOD9253315
_publ_section_title
;
Structure prediction by ZEFSAII (Michael W. Deem and Ramdas Pophale) SiO2 
 PCOD9253315
Probable space group: P 21/C
;
_chemical_formula_sum "Si O2"
_cell_formula_units_Z 28
_cell_length_a 9.492467
_cell_length_b 13.861875
_cell_length_c 9.415728
_cell_angle_alpha 90.000000
_cell_angle_beta 105.990881
_cell_angle_gamma 90.000000
_cell_volume 1191.012802
_symmetry_space_group_name_H-M "P 21/C"
_symmetry_group_IT_number 14
_symmetry_cell_setting 'monoclinic'
loop_
_space_group_symop_operation_xyz
x,y,z
-x,1/2+y,1/2-z
-x,-y,-z
x,1/2-y,1/2+z
loop_
_atom_site_type_symbol
_atom_site_label
_atom_site_fract_x
_atom_site_fract_y
_atom_site_fract_z
Si Si1 0.734217 0.416725 0.291752
Si Si2 0.460671 0.072849 0.363838
Si Si3 0.979093 0.443719 0.139881
Si Si4 0.363897 0.798895 0.794076
Si Si5 0.146808 0.242336 0.707167
Si Si6 0.094104 0.600729 0.371191
Si Si7 0.342849 0.248420 0.998793
O O1 0.623815 0.506644 0.274006
O O2 0.655673 0.312686 0.257665
O O3 0.848228 0.413068 0.453188
O O4 0.820848 0.436178 0.168978
O O5 0.590176 0.131257 0.322498
O O6 0.365082 0.153118 0.417867
O O7 0.500000 0.000000 0.500000
O O8 0.031121 0.336079 0.123789
O O9 0.075976 0.501456 0.281701
O O10 0.000000 0.500000 0.000000
O O11 0.215666 0.835163 0.824396
O O12 0.500380 0.802057 0.942484
O O13 0.060588 0.343001 0.682266
O O14 0.207162 0.205327 0.874794
O O15 0.284857 0.239105 0.641062
#
# Coordination Sequence:
#
# PCOD9253315 Si02
#       7
#     4   4   4   4   4   4   4
#     4  12  27  50  79 116 161 208 271 336 400 484
#     4  12  27  48  77 114 162 205 265 326 403 480
#     4  12  28  47  79 114 154 206 269 324 403 477
#     4  12  28  49  82 116 162 210 269 329 406 475
#     4  12  26  49  75 109 155 200 265 327 400 469
#     4  12  29  49  79 115 155 209 267 331 399 479
#     4  12  26  49  76 110 156 208 256 330 396 473
#
# _framework density 23.509402999999999
#
# number of rings (size 3 to 8) (size 9 to 14) (size 15 to 20)
#    0.000    0.000    4.286    4.714    8.000    0.571 
#    0.000    0.000    0.000    0.000    0.000    0.000 
#    0.000    0.000    0.000    0.000    0.000    0.000 
#
# Total GULP energy -156759.071395 kJ/mol
# GULP energy per Si atom -5598.538264 kJ/mol
# Density = 2.345589 g / cm^3
# Si number density = 23.509403 Si / 1000 Ang^3
#
#
#
# Elastic Constant Matrix: (Units=GPa)
#
#
# Indices 1 2 3 4 5 6 
#
# 1 85.1743 24.1715 29.2738 0.0000 -10.8719 0.0000
# 2 24.1715 100.7395 29.8772 0.0000 -14.0993 0.0000
# 3 29.2738 29.8772 117.0468 0.0000 6.7356 0.0000
# 4 0.0000 0.0000 0.0000 31.1848 0.0000 4.9707
# 5 -10.8719 -14.0993 6.7356 0.0000 41.3786 0.0000
# 6 0.0000 0.0000 0.0000 4.9707 0.0000 42.0891
#
#
#
# Elastic Compliance Matrix: (Units=1/GPa)
#
#
# Indices 1 2 3 4 5 6 
#
# 1 0.013814 -0.001882 -0.003176 0.000000 0.003505 0.000000
# 2 -0.001882 0.011749 -0.002756 0.000000 0.003958 0.000000
# 3 -0.003176 -0.002756 0.010240 0.000000 -0.003440 0.000000
# 4 0.000000 0.000000 0.000000 0.032682 0.000000 -0.003860
# 5 0.003505 0.003958 -0.003440 0.000000 0.026997 0.000000
# 6 0.000000 0.000000 0.000000 -0.003860 0.000000 0.024215
#
#
# Mechanical properties :
#
#
# Convention : Reuss Voigt Hill
#
# Bulk Modulus (GPa) = 49.56860 52.17839 50.87349
# Shear Modulus (GPa) = 35.19892 37.57304 36.38598
#
# Velocity S-wave (km/s) = 3.87360 4.00210 3.93838
# Velocity P-wave (km/s) = 6.41379 6.60293 6.50905
#
# Compressibility (1/GPa) = 0.02017406
#
# Stress axis : x y z
#
# Youngs Moduli (GPa) = 72.39167 85.11013 97.66093
#
# Poissons Ratio (x) = 0.16017 0.31019
# Poissons Ratio (y) = 0.13623 0.26918
# Poissons Ratio (z) = 0.22993 0.23458
#
# Static dielectric constant tensor:
#      x y z
#    x 2.010650 0.000000 0.108050 
#    y 0.000000 1.867740 0.000000 
#    z 0.108050 0.000000 1.953460 
# 
# From -- ./inp_files/24938.got.cif
#   From: 2010.05.17/outbox.cif.g08.bks.cpg/sg14_13_cif.got.tgz:24938.got - 2010.06.03 17:49:19.
