data_PCOD9253329
_publ_section_title
;
Structure prediction by ZEFSAII (Michael W. Deem and Ramdas Pophale) SiO2 
 PCOD9253329
Probable space group: P 21/C
;
_chemical_formula_sum "Si O2"
_cell_formula_units_Z 16
_cell_length_a 8.288049
_cell_length_b 17.342086
_cell_length_c 9.786971
_cell_angle_alpha 90.000000
_cell_angle_beta 30.987751
_cell_angle_gamma 90.000000
_cell_volume 724.247032
_symmetry_space_group_name_H-M "P 21/C"
_symmetry_group_IT_number 14
_symmetry_cell_setting 'monoclinic'
loop_
_space_group_symop_operation_xyz
x,y,z
-x,1/2+y,1/2-z
-x,-y,-z
x,1/2-y,1/2+z
loop_
_atom_site_type_symbol
_atom_site_label
_atom_site_fract_x
_atom_site_fract_y
_atom_site_fract_z
Si Si1 0.988040 0.208375 0.230111
Si Si2 0.369833 0.304863 0.732933
Si Si3 0.690530 0.978958 0.639091
Si Si4 0.981493 0.536441 0.363800
O O1 0.194484 0.193774 0.214982
O O2 0.687569 0.257660 0.488165
O O3 0.167418 0.258484 0.988954
O O4 0.912412 0.124916 0.221720
O O5 0.409310 0.391828 0.756675
O O6 0.391932 0.031023 0.897058
O O7 0.000000 0.000000 0.500000
O O8 0.804029 0.991342 0.400997
O O9 0.000000 0.500000 0.500000
#
# Coordination Sequence:
#
# PCOD9253329 Si02
#       4
#     4   4   4   4
#     4  12  28  48  73 109 150 193 244 301 368 440
#     4  12  28  47  75 105 150 194 243 301 372 437
#     4  12  26  50  77 105 144 199 245 300 364 437
#     4  12  28  48  77 110 149 191 249 305 363 434
#
# _framework density 22.091909999999999
#
# number of rings (size 3 to 8) (size 9 to 14) (size 15 to 20)
#    0.000    0.000    2.500    6.000   14.000    0.000 
#    0.000    0.000    0.000    0.000    0.000    0.000 
#    0.000    0.000    0.000    0.000    0.000    0.000 
#
# Total GULP energy -89705.944851 kJ/mol
# GULP energy per Si atom -5606.621553 kJ/mol
# Density = 2.204163 g / cm^3
# Si number density = 22.091910 Si / 1000 Ang^3
#
#
#
# Elastic Constant Matrix: (Units=GPa)
#
#
# Indices 1 2 3 4 5 6 
#
# 1 39.0486 15.0286 10.7550 0.0000 6.5444 0.0000
# 2 15.0286 169.7464 77.1880 0.0000 0.2676 0.0000
# 3 10.7550 77.1880 210.0810 0.0000 -4.2919 0.0000
# 4 0.0000 0.0000 0.0000 55.7176 0.0000 1.5198
# 5 6.5444 0.2676 -4.2919 0.0000 54.6858 0.0000
# 6 0.0000 0.0000 0.0000 1.5198 0.0000 34.3086
#
#
#
# Elastic Compliance Matrix: (Units=1/GPa)
#
#
# Indices 1 2 3 4 5 6 
#
# 1 0.027154 -0.002084 -0.000692 0.000000 -0.003294 0.000000
# 2 -0.002084 0.007236 -0.002552 0.000000 0.000014 0.000000
# 3 -0.000692 -0.002552 0.005744 0.000000 0.000546 0.000000
# 4 0.000000 0.000000 0.000000 0.017969 0.000000 -0.000796
# 5 -0.003294 0.000014 0.000546 0.000000 0.018723 0.000000
# 6 0.000000 0.000000 0.000000 -0.000796 0.000000 0.029182
#
#
# Mechanical properties :
#
#
# Convention : Reuss Voigt Hill
#
# Bulk Modulus (GPa) = 33.92278 69.42435 51.67356
# Shear Modulus (GPa) = 39.52866 50.00271 44.76569
#
# Velocity S-wave (km/s) = 4.23458 4.76268 4.50637
# Velocity P-wave (km/s) = 6.26877 7.85733 7.10757
#
# Compressibility (1/GPa) = 0.02947872
#
# Stress axis : x y z
#
# Youngs Moduli (GPa) = 36.82721 138.19862 174.09004
#
# Poissons Ratio (x) = 0.28806 0.12039
# Poissons Ratio (y) = 0.07676 0.44422
# Poissons Ratio (z) = 0.02547 0.35263
#
# Static dielectric constant tensor:
#      x y z
#    x 1.855520 0.000000 -0.013510 
#    y 0.000000 1.824330 0.000000 
#    z -0.013510 0.000000 1.737800 
# 
# From -- ./inp_files/5055.got.cif
#   From: 2010.05.17/outbox.cif.g08.bks.cpg/sg14_3_cif.got.tgz:5055.got - 2010.06.03 17:49:19.
