data_PCOD9253493
_publ_section_title
;
Structure prediction by ZEFSAII (Michael W. Deem and Ramdas Pophale) SiO2 
 PCOD9253493
Probable space group: P 21/C
;
_chemical_formula_sum "Si O2"
_cell_formula_units_Z 32
_cell_length_a 15.000000
_cell_length_b 18.000000
_cell_length_c 12.000000
_cell_angle_alpha 90.000000
_cell_angle_beta 150.000000
_cell_angle_gamma 90.000000
_cell_volume 1620.000000
_symmetry_space_group_name_H-M "P 21/C"
_symmetry_group_IT_number 14
_symmetry_cell_setting 'monoclinic'
loop_
_space_group_symop_operation_xyz
x,y,z
-x,1/2+y,1/2-z
-x,-y,-z
x,1/2-y,1/2+z
loop_
_atom_site_type_symbol
_atom_site_label
_atom_site_fract_x
_atom_site_fract_y
_atom_site_fract_z
Si Si1 0.713826 0.372495 0.628229
Si Si2 0.015306 0.807331 0.847584
Si Si3 0.123349 0.153054 0.526899
Si Si4 0.766394 0.813959 0.781981
Si Si5 0.431082 0.807287 0.252301
Si Si6 0.975286 0.636817 0.722896
Si Si7 0.620466 0.137612 0.285349
Si Si8 0.733873 0.950370 0.132312
O O1 0.583765 0.344940 0.387221
O O2 0.653896 0.354732 0.688520
O O3 0.733815 0.461252 0.639096
O O4 0.913607 0.338297 0.834035
O O5 0.904401 0.853957 0.635362
O O6 0.927363 0.821947 0.869480
O O7 0.981195 0.721250 0.776928
O O8 0.227943 0.820579 0.076797
O O9 0.230240 0.227695 0.674875
O O10 0.215290 0.086116 0.693029
O O11 0.584456 0.828027 0.510713
O O12 0.841484 0.859568 0.970937
O O13 0.446600 0.718650 0.247955
O O14 0.884392 0.581686 0.712572
O O15 0.189467 0.619065 0.948758
O O16 0.458384 0.079425 0.117793
#
# Coordination Sequence:
#
# PCOD9253493 Si02
#       8
#     4   4   4   4   4   4   4   4
#     4  11  24  40  63  94 127 152 198 262 308 357
#     4   9  19  35  57  89 118 155 209 254 294 349
#     4  10  19  36  61  88 121 157 194 252 307 352
#     4  11  20  38  62  89 121 162 207 244 299 360
#     4  10  22  38  60  90 120 160 202 254 300 355
#     4  10  22  36  58  87 124 162 201 252 300 360
#     4  11  22  39  61  91 121 156 207 248 302 361
#     4  12  22  40  61  94 124 161 196 252 320 355
#
# _framework density 19.753086
#
# number of rings (size 3 to 8) (size 9 to 14) (size 15 to 20)
#    0.000    1.500    3.750    2.250    1.750    2.000 
#    0.000    0.625    0.000    3.750    0.000    0.000 
#    0.000    0.000    0.000    0.000    0.000    0.000 
#
# Total GULP energy -178618.493016 kJ/mol
# GULP energy per Si atom -5581.827907 kJ/mol
# Density = 1.970813 g / cm^3
# Si number density = 19.753086 Si / 1000 Ang^3
#
#
#
# Elastic Constant Matrix: (Units=GPa)
#
#
# Indices 1 2 3 4 5 6 
#
# 1 42.8526 6.1300 6.1120 0.0000 -11.0903 0.0000
# 2 6.1300 47.2777 32.5059 0.0000 -7.8400 0.0000
# 3 6.1120 32.5059 163.0043 0.0000 -15.5649 0.0000
# 4 0.0000 0.0000 0.0000 28.5252 0.0000 -8.1236
# 5 -11.0903 -7.8400 -15.5649 0.0000 31.2984 0.0000
# 6 0.0000 0.0000 0.0000 -8.1236 0.0000 7.6617
#
#
#
# Elastic Compliance Matrix: (Units=1/GPa)
#
#
# Indices 1 2 3 4 5 6 
#
# 1 0.025868 -0.002094 0.000286 0.000000 0.008784 0.000000
# 2 -0.002094 0.025143 -0.004624 0.000000 0.003256 0.000000
# 3 0.000286 -0.004624 0.007292 0.000000 0.002569 0.000000
# 4 0.000000 0.000000 0.000000 0.050221 0.000000 0.053249
# 5 0.008784 0.003256 0.002569 0.000000 0.037156 0.000000
# 6 0.000000 0.000000 0.000000 0.053249 0.000000 0.186978
#
#
# Mechanical properties :
#
#
# Convention : Reuss Voigt Hill
#
# Bulk Modulus (GPa) = 22.00827 38.07003 30.03915
# Shear Modulus (GPa) = 13.86315 27.38951 20.62633
#
# Velocity S-wave (km/s) = 2.65207 3.72774 3.23493
# Velocity P-wave (km/s) = 4.53253 6.15165 5.40309
#
# Compressibility (1/GPa) = 0.04543747
#
# Stress axis : x y z
#
# Youngs Moduli (GPa) = 38.65810 39.77304 137.14421
#
# Poissons Ratio (x) = 0.08330 -0.03929
# Poissons Ratio (y) = 0.08096 0.63421
# Poissons Ratio (z) = -0.01107 0.18393
#
# Static dielectric constant tensor:
#      x y z
#    x 1.748860 0.000000 0.013580 
#    y 0.000000 1.685900 0.000000 
#    z 0.013580 0.000000 1.706490 
# 
# From -- ./inp_files/33069.got.cif
#   From: 2010.05.17/outbox.ucp.g08.bks.cvg/sg14_17_cif.got.tgz:33069.got - 2010.06.11 12:31:08.
