data_PCOD9253576
_publ_section_title
;
Structure prediction by ZEFSAII (Michael W. Deem and Ramdas Pophale) SiO2 
 PCOD9253576
Probable space group: P 21/C
;
_chemical_formula_sum "Si O2"
_cell_formula_units_Z 30
_cell_length_a 12.000000
_cell_length_b 15.000000
_cell_length_c 9.000000
_cell_angle_alpha 90.000000
_cell_angle_beta 120.000000
_cell_angle_gamma 90.000000
_cell_volume 1402.961154
_symmetry_space_group_name_H-M "P 21/C"
_symmetry_group_IT_number 14
_symmetry_cell_setting 'monoclinic'
loop_
_space_group_symop_operation_xyz
x,y,z
-x,1/2+y,1/2-z
-x,-y,-z
x,1/2-y,1/2+z
loop_
_atom_site_type_symbol
_atom_site_label
_atom_site_fract_x
_atom_site_fract_y
_atom_site_fract_z
Si Si1 0.322983 0.766580 0.478855
Si Si2 0.000000 0.000000 0.000000
Si Si3 0.556601 0.364349 0.674188
Si Si4 0.853286 0.175542 0.899428
Si Si5 0.137050 0.252039 0.083132
Si Si6 0.187644 0.970664 0.700603
Si Si7 0.743118 0.864073 0.073443
Si Si8 0.067695 0.417867 0.860584
O O1 0.409803 0.831766 0.636942
O O2 0.410594 0.712813 0.422489
O O3 0.251758 0.704428 0.550793
O O4 0.208669 0.807073 0.303295
O O5 0.885986 0.072958 0.928510
O O6 0.935063 0.950961 0.807135
O O7 0.667175 0.437357 0.715855
O O8 0.407216 0.384658 0.548745
O O9 0.987990 0.228593 0.017650
O O10 0.197958 0.167185 0.042627
O O11 0.138029 0.328269 0.956550
O O12 0.220176 0.291870 0.273979
O O13 0.080554 0.902297 0.685364
O O14 0.183107 0.049442 0.817890
O O15 0.132649 0.007338 0.508907
#
# Coordination Sequence:
#
# PCOD9253576 Si02
#       8
#     4   2   4   4   4   4   4   4
#     4  10  22  37  59  81 111 149 194 236 283 340
#     4  12  20  30  52  84 114 132 170 226 292 340
#     4  11  21  39  57  82 115 154 195 232 276 344
#     4  11  21  36  57  85 111 145 184 241 295 332
#     4  11  22  38  57  83 117 148 189 235 288 344
#     4  10  21  38  59  82 113 149 193 235 282 341
#     4  11  23  37  58  84 116 157 189 229 281 343
#     4  10  21  36  57  85 113 146 183 239 295 333
#
# _framework density 21.383343
#
# number of rings (size 3 to 8) (size 9 to 14) (size 15 to 20)
#    0.000    1.333    0.000    7.600    0.000    2.133 
#    0.000    0.000    0.000    0.000    0.000   20.533 
#    0.000    0.000    0.000    0.000    0.000    0.000 
#
# Total GULP energy -167033.251716 kJ/mol
# GULP energy per Si atom -5567.775057 kJ/mol
# Density = 2.133467 g / cm^3
# Si number density = 21.383343 Si / 1000 Ang^3
#
#
#
# Elastic Constant Matrix: (Units=GPa)
#
#
# Indices 1 2 3 4 5 6 
#
# 1 52.8661 7.5321 29.1240 0.0000 19.5321 0.0000
# 2 7.5321 25.0286 44.7138 0.0000 -16.8135 0.0000
# 3 29.1240 44.7138 127.1707 0.0000 10.4419 0.0000
# 4 0.0000 0.0000 0.0000 35.3840 0.0000 -2.2832
# 5 19.5321 -16.8135 10.4419 0.0000 29.7092 0.0000
# 6 0.0000 0.0000 0.0000 -2.2832 0.0000 21.3433
#
#
#
# Elastic Compliance Matrix: (Units=1/GPa)
#
#
# Indices 1 2 3 4 5 6 
#
# 1 0.018830 0.034018 -0.017338 0.000000 0.012966 0.000000
# 2 0.034018 -0.129477 0.046942 0.000000 -0.112140 0.000000
# 3 -0.017338 0.046942 -0.008019 0.000000 0.040783 0.000000
# 4 0.000000 0.000000 0.000000 0.028458 0.000000 0.003044
# 5 0.012966 -0.112140 0.040783 0.000000 -0.052663 0.000000
# 6 0.000000 0.000000 0.000000 0.003044 0.000000 0.047179
#
#
# Mechanical properties :
#
#
# Convention : Reuss Voigt Hill
#
# Bulk Modulus (GPa) = 116.58474 40.86724 78.72599
# Shear Modulus (GPa) = -22.71921 25.53365 1.40722
#
# Velocity S-wave (km/s) = -3.26310 3.45931 0.81211
# Velocity P-wave (km/s) = 6.35945 5.92528 6.14620
#
# Compressibility (1/GPa) = 0.00857745
#
# Stress axis : x y z
#
# Youngs Moduli (GPa) = 53.10704 -7.72338 -124.69637
#
# Poissons Ratio (x) = 0.26274 -2.16199
# Poissons Ratio (y) = -1.80662 5.85346
# Poissons Ratio (z) = 0.92077 0.36255
#
# Static dielectric constant tensor:
#      x y z
#    x 1.758560 0.000000 -0.033620 
#    y 0.000000 1.853370 0.000000 
#    z -0.033620 0.000000 1.768790 
# 
# From -- ./inp_files/13431.got.cif
#   From: 2010.05.17/outbox.ucp.g08.bks.cvg/sg14_7_cif.got.tgz:13431.got - 2010.06.11 12:31:08.
