data_PCOD9253282
_publ_section_title
;
Structure prediction by ZEFSAII (Michael W. Deem and Ramdas Pophale) SiO2 
 PCOD9253282
Probable space group: P 21/C
;
_chemical_formula_sum "Si O2"
_cell_formula_units_Z 16
_cell_length_a 21.470284
_cell_length_b 5.525972
_cell_length_c 26.213515
_cell_angle_alpha 90.000000
_cell_angle_beta 12.130809
_cell_angle_gamma 90.000000
_cell_volume 653.565853
_symmetry_space_group_name_H-M "P 21/C"
_symmetry_group_IT_number 14
_symmetry_cell_setting 'monoclinic'
loop_
_space_group_symop_operation_xyz
x,y,z
-x,1/2+y,1/2-z
-x,-y,-z
x,1/2-y,1/2+z
loop_
_atom_site_type_symbol
_atom_site_label
_atom_site_fract_x
_atom_site_fract_y
_atom_site_fract_z
Si Si1 0.282339 0.031431 0.555146
Si Si2 0.707096 0.814740 0.662911
Si Si3 0.594242 0.252647 0.395783
Si Si4 0.316123 0.180269 0.934321
O O1 0.440966 0.226928 0.463725
O O2 0.210353 0.101286 0.554611
O O3 0.508546 0.807479 0.365792
O O4 0.968084 0.990413 0.833131
O O5 0.631002 0.711352 0.667308
O O6 0.052019 0.769455 0.394664
O O7 0.606391 0.088045 0.731789
O O8 0.500000 0.500000 0.500000
O O9 0.500000 0.000000 0.500000
#
# Coordination Sequence:
#
# PCOD9253282 Si02
#       4
#     4   4   4   4
#     4  12  27  48  76 109 153 202 253 317 386 450
#     4  12  27  48  76 109 153 202 253 317 386 450
#     4  12  31  51  78 111 158 204 258 312 379 460
#     4  12  26  44  78 112 148 196 262 314 378 452
#
# _framework density 24.481083999999999
#
# number of rings (size 3 to 8) (size 9 to 14) (size 15 to 20)
#    0.000    0.000    7.500    0.750   14.000    1.000 
#    0.000    0.000    0.000    0.000    0.000    0.000 
#    0.000    0.000    0.000    0.000    0.000    0.000 
#
# Total GULP energy -89399.871681 kJ/mol
# GULP energy per Si atom -5587.491980 kJ/mol
# Density = 2.442536 g / cm^3
# Si number density = 24.481084 Si / 1000 Ang^3
#
#
#
# Elastic Constant Matrix: (Units=GPa)
#
#
# Indices 1 2 3 4 5 6 
#
# 1 106.7856 19.2941 -1.6568 0.0000 15.7008 0.0000
# 2 19.2941 66.2213 12.6353 0.0000 11.6637 0.0000
# 3 -1.6568 12.6353 110.8125 0.0000 -3.2445 0.0000
# 4 0.0000 0.0000 0.0000 34.7519 0.0000 10.3769
# 5 15.7008 11.6637 -3.2445 0.0000 40.3808 0.0000
# 6 0.0000 0.0000 0.0000 10.3769 0.0000 46.8932
#
#
#
# Elastic Compliance Matrix: (Units=1/GPa)
#
#
# Indices 1 2 3 4 5 6 
#
# 1 0.010299 -0.002492 0.000343 0.000000 -0.003257 0.000000
# 2 -0.002492 0.016947 -0.002089 0.000000 -0.004094 0.000000
# 3 0.000343 -0.002089 0.009303 0.000000 0.001218 0.000000
# 4 0.000000 0.000000 0.000000 0.030811 0.000000 -0.006818
# 5 -0.003257 -0.004094 0.001218 0.000000 0.027311 0.000000
# 6 0.000000 0.000000 0.000000 -0.006818 0.000000 0.022834
#
#
# Mechanical properties :
#
#
# Convention : Reuss Voigt Hill
#
# Bulk Modulus (GPa) = 35.62401 38.26271 36.94336
# Shear Modulus (GPa) = 36.94386 41.30830 39.12608
#
# Velocity S-wave (km/s) = 3.88890 4.11220 4.00211
# Velocity P-wave (km/s) = 5.89474 6.18145 6.03980
#
# Compressibility (1/GPa) = 0.02807096
#
# Stress axis : x y z
#
# Youngs Moduli (GPa) = 97.09582 59.00820 107.48893
#
# Poissons Ratio (x) = 0.14708 -0.03685
# Poissons Ratio (y) = 0.24201 0.22459
# Poissons Ratio (z) = -0.03329 0.12330
#
# Static dielectric constant tensor:
#      x y z
#    x 1.925280 0.000000 -0.005540 
#    y 0.000000 2.178770 0.000000 
#    z -0.005540 0.000000 1.913630 
# 
# From -- ./inp_files/52393.got.cif
#   From: 2010.05.17/outbox.cif.g08.bks.cpg/sg14_27_cif.got.tgz:52393.got - 2010.06.03 17:49:19.
