data_PCOD9253627
_publ_section_title
;
Structure prediction by ZEFSAII (Michael W. Deem and Ramdas Pophale) SiO2 
 PCOD9253627
Probable space group: P 21/C
;
_chemical_formula_sum "Si O2"
_cell_formula_units_Z 16
_cell_length_a 9.000000
_cell_length_b 9.000000
_cell_length_c 9.000000
_cell_angle_alpha 90.000000
_cell_angle_beta 90.000000
_cell_angle_gamma 90.000000
_cell_volume 729.000000
_symmetry_space_group_name_H-M "P 21/C"
_symmetry_group_IT_number 14
_symmetry_cell_setting 'monoclinic'
loop_
_space_group_symop_operation_xyz
x,y,z
-x,1/2+y,1/2-z
-x,-y,-z
x,1/2-y,1/2+z
loop_
_atom_site_type_symbol
_atom_site_label
_atom_site_fract_x
_atom_site_fract_y
_atom_site_fract_z
Si Si1 0.629498 0.296075 0.826662
Si Si2 0.324313 0.382915 0.297499
Si Si3 0.138695 0.297957 0.006442
Si Si4 0.815473 0.381327 0.108948
O O1 0.631681 0.444702 0.724237
O O2 0.469979 0.216719 0.828566
O O3 0.750318 0.181654 0.760738
O O4 0.687637 0.346811 0.987473
O O5 0.202077 0.345908 0.423243
O O6 0.245849 0.333020 0.144699
O O7 0.152793 0.442219 0.897380
O O8 0.968880 0.300183 0.062543
#
# Coordination Sequence:
#
# PCOD9253627 Si02
#       4
#     4   4   4   4
#     4  11  23  38  59  86 115 150 190 232 281 336
#     4  11  23  38  59  86 115 150 190 232 281 336
#     4  10  22  40  60  84 115 149 188 235 283 333
#     4  10  22  40  60  84 115 149 188 235 283 333
#
# _framework density 21.947873999999999
#
# number of rings (size 3 to 8) (size 9 to 14) (size 15 to 20)
#    0.000    1.500    0.000    4.500    0.000   11.000 
#    0.000    0.000    0.000    0.000    0.000    0.000 
#    0.000    0.000    0.000    0.000    0.000    0.000 
#
# Total GULP energy -89582.337675 kJ/mol
# GULP energy per Si atom -5598.896105 kJ/mol
# Density = 2.189792 g / cm^3
# Si number density = 21.947874 Si / 1000 Ang^3
#
#
#
# Elastic Constant Matrix: (Units=GPa)
#
#
# Indices 1 2 3 4 5 6 
#
# 1 91.9948 12.6433 -18.9197 0.0000 -0.0191 0.0000
# 2 12.6433 19.9320 -15.2321 0.0000 2.4570 0.0000
# 3 -18.9197 -15.2321 13.5455 0.0000 -1.0097 0.0000
# 4 0.0000 0.0000 0.0000 30.3845 0.0000 -7.6643
# 5 -0.0191 2.4570 -1.0097 0.0000 28.9911 0.0000
# 6 0.0000 0.0000 0.0000 -7.6643 0.0000 31.7104
#
#
#
# Elastic Compliance Matrix: (Units=1/GPa)
#
#
# Indices 1 2 3 4 5 6 
#
# 1 0.025810 0.080607 0.126514 0.000000 -0.002408 0.000000
# 2 0.080607 0.616298 0.803816 0.000000 -0.024184 0.000000
# 3 0.126514 0.803816 1.152349 0.000000 -0.027908 0.000000
# 4 0.000000 0.000000 0.000000 0.035048 0.000000 0.008471
# 5 -0.002408 -0.024184 -0.027908 0.000000 0.035569 0.000000
# 6 0.000000 0.000000 0.000000 0.008471 0.000000 0.033583
#
#
# Mechanical properties :
#
#
# Convention : Reuss Voigt Hill
#
# Bulk Modulus (GPa) = 0.26203 9.16174 4.71188
# Shear Modulus (GPa) = 4.35201 28.01592 16.18396
#
# Velocity S-wave (km/s) = 1.40968 3.57666 2.71842
# Velocity P-wave (km/s) = 1.66410 4.60869 3.46477
#
# Compressibility (1/GPa) = 3.81632970
#
# Stress axis : x y z
#
# Youngs Moduli (GPa) = 38.74430 1.62259 0.86779
#
# Poissons Ratio (x) = -0.13079 -0.10979
# Poissons Ratio (y) = -3.12305 -0.69755
# Poissons Ratio (z) = -4.90168 -1.30427
#
# Static dielectric constant tensor:
#      x y z
#    x 1.758160 0.000000 -0.003330 
#    y 0.000000 1.795540 0.000000 
#    z -0.003330 0.000000 1.821090 
# 
# From -- ./inp_files/7190.got.cif
#   From: 2010.05.17/outbox.ucp.g08.bks.cvg/sg14_4_cif.got.tgz:7190.got - 2010.06.11 12:31:08.
