data_PCOD9253891
_publ_section_title
;
Structure prediction by ZEFSAII (Michael W. Deem and Ramdas Pophale) SiO2 
 PCOD9253891
Probable space group: C 2/C
;
_chemical_formula_sum "Si O2"
_cell_formula_units_Z 48
_cell_length_a 7.894803
_cell_length_b 19.461190
_cell_length_c 14.612682
_cell_angle_alpha 90.000000
_cell_angle_beta 65.204961
_cell_angle_gamma 90.000000
_cell_volume 2038.155902
_symmetry_space_group_name_H-M "C 2/C"
_symmetry_group_IT_number 15
_symmetry_cell_setting 'monoclinic'
loop_
_space_group_symop_operation_xyz
x,y,z
-x,y,1/2-z
-x,-y,-z
x,-y,1/2+z
1/2+x,1/2+y,z
1/2-x,1/2+y,1/2-z
1/2-x,1/2-y,-z
1/2+x,1/2-y,1/2+z
loop_
_atom_site_type_symbol
_atom_site_label
_atom_site_fract_x
_atom_site_fract_y
_atom_site_fract_z
Si Si1 0.791558 0.867315 0.255992
Si Si2 0.697811 0.549684 0.087132
Si Si3 0.895242 0.707844 0.532120
Si Si4 0.740871 0.477140 0.776719
Si Si5 0.197457 0.418565 0.546663
Si Si6 0.098769 0.159588 0.968172
O O1 0.685836 0.821370 0.354493
O O2 0.000000 0.876049 0.250000
O O3 0.806673 0.834600 0.152187
O O4 0.712655 0.943706 0.256240
O O5 0.479302 0.527136 0.146099
O O6 0.759237 0.561875 0.176953
O O7 0.797177 0.484246 0.019906
O O8 0.708358 0.613157 0.015554
O O9 0.750000 0.750000 0.500000
O O10 0.933332 0.640567 0.463391
O O11 0.048922 0.765182 0.515378
O O12 0.837331 0.445143 0.843467
O O13 0.404929 0.383635 0.497455
#
# Coordination Sequence:
#
# PCOD9253891 Si02
#       6
#     8   8   8   8   8   8
#     4  12  15  25  42  60  93 125 155 185 241 278
#     4  10  15  24  40  63  92 122 153 194 232 291
#     4  10  19  26  38  65  98 127 154 190 240 293
#     4  10  15  22  40  66  87 123 150 189 245 277
#     4  10  15  24  39  63  94 120 154 197 230 288
#     4  10  18  27  39  62  98 129 152 189 243 289
#
# _framework density 23.550702000000001
#
# number of rings (size 3 to 8) (size 9 to 14) (size 15 to 20)
#    0.000    1.667   10.000    1.000    0.000    0.000 
#    0.000    0.000    0.000    0.000    0.000   31.500 
#    0.000   24.000    0.000    0.000    0.000   12.333 
#
# Total GULP energy -134292.338734 kJ/mol
# GULP energy per Si atom -5595.514114 kJ/mol
# Density = 2.349710 g / cm^3
# Si number density = 23.550702 Si / 1000 Ang^3
#
#
#
# Elastic Constant Matrix: (Units=GPa)
#
#
# Indices 1 2 3 4 5 6 
#
# 1 84.5006 44.2829 28.8466 0.0000 11.7821 0.0000
# 2 44.2829 194.2577 115.8603 0.0000 9.5050 0.0000
# 3 28.8466 115.8603 215.4446 0.0000 17.4061 0.0000
# 4 0.0000 0.0000 0.0000 49.0378 0.0000 8.9274
# 5 11.7821 9.5050 17.4061 0.0000 24.0099 0.0000
# 6 0.0000 0.0000 0.0000 8.9274 0.0000 3.5618
#
#
#
# Elastic Compliance Matrix: (Units=1/GPa)
#
#
# Indices 1 2 3 4 5 6 
#
# 1 0.014197 -0.003089 0.000238 0.000000 -0.005916 0.000000
# 2 -0.003089 0.008251 -0.004124 0.000000 0.001239 0.000000
# 3 0.000238 -0.004124 0.007122 0.000000 -0.003648 0.000000
# 4 0.000000 0.000000 0.000000 0.037506 0.000000 -0.094006
# 5 -0.005916 0.001239 -0.003648 0.000000 0.046707 0.000000
# 6 0.000000 0.000000 0.000000 -0.094006 0.000000 0.516370
#
#
# Mechanical properties :
#
#
# Convention : Reuss Voigt Hill
#
# Bulk Modulus (GPa) = 64.01672 96.90917 80.46294
# Shear Modulus (GPa) = 7.70052 35.66945 21.68498
#
# Velocity S-wave (km/s) = 1.81021 3.89598 3.03773
# Velocity P-wave (km/s) = 5.62234 7.84071 6.82229
#
# Compressibility (1/GPa) = 0.01562092
#
# Stress axis : x y z
#
# Youngs Moduli (GPa) = 70.43960 121.20204 140.41280
#
# Poissons Ratio (x) = 0.37438 -0.03346
# Poissons Ratio (y) = 0.21758 0.57899
# Poissons Ratio (z) = -0.01678 0.49978
#
# Static dielectric constant tensor:
#      x y z
#    x 2.115440 0.000000 -0.032070 
#    y 0.000000 1.845330 0.000000 
#    z -0.032070 0.000000 1.845030 
# 
# From -- ./inp_files/153291.got.cif
#   From: 2010.05.17/outbox.cif.g08.bks.cpg/sg15_77_cif.got.tgz:153291.got - 2010.06.03 18:47:42.
