data_PCOD9253844
_publ_section_title
;
Structure prediction by ZEFSAII (Michael W. Deem and Ramdas Pophale) SiO2 
 PCOD9253844
Probable space group: C 2/C
;
_chemical_formula_sum "Si O2"
_cell_formula_units_Z 52
_cell_length_a 11.144360
_cell_length_b 14.199023
_cell_length_c 22.328590
_cell_angle_alpha 90.000000
_cell_angle_beta 136.280886
_cell_angle_gamma 90.000000
_cell_volume 2441.915268
_symmetry_space_group_name_H-M "C 2/C"
_symmetry_group_IT_number 15
_symmetry_cell_setting 'monoclinic'
loop_
_space_group_symop_operation_xyz
x,y,z
-x,y,1/2-z
-x,-y,-z
x,-y,1/2+z
1/2+x,1/2+y,z
1/2-x,1/2+y,1/2-z
1/2-x,1/2-y,-z
1/2+x,1/2-y,1/2+z
loop_
_atom_site_type_symbol
_atom_site_label
_atom_site_fract_x
_atom_site_fract_y
_atom_site_fract_z
Si Si1 0.203556 0.881994 0.533563
Si Si2 0.162271 0.315235 0.191836
Si Si3 0.988459 0.238683 0.635120
Si Si4 0.465906 0.330083 0.543262
Si Si5 0.500000 0.755328 0.250000
Si Si6 0.163202 0.335604 0.589871
Si Si7 0.626893 0.939558 0.466557
O O1 0.327148 0.797407 0.602211
O O2 0.077407 0.903183 0.543881
O O3 0.092024 0.839923 0.438013
O O4 0.317759 0.964963 0.546338
O O5 0.369934 0.306159 0.269631
O O6 0.083374 0.218984 0.135903
O O7 0.101373 0.318367 0.238922
O O8 0.059160 0.399125 0.121857
O O9 0.084501 0.315562 0.626734
O O10 0.421547 0.245539 0.481686
O O11 0.283954 0.370094 0.501225
O O12 0.636709 0.689323 0.332037
O O13 0.136415 0.430107 0.542277
#
# Coordination Sequence:
#
# PCOD9253844 Si02
#       7
#     8   8   8   8   4   8   8
#     4  10  22  38  57  78 125 153 192 225 300 345
#     4  10  19  34  61  81 115 146 204 230 291 335
#     4   9  21  40  55  80 109 169 190 229 286 363
#     4  10  18  35  56  86 115 155 177 236 294 359
#     4  10  14  30  52  82 106 144 184 240 262 346
#     4   9  17  31  59  78 109 147 196 228 285 330
#     4  11  19  35  57  93 112 147 188 255 281 334
#
# _framework density 21.294758999999999
#
# number of rings (size 3 to 8) (size 9 to 14) (size 15 to 20)
#    0.000    2.154    3.077    1.385    0.000    1.231 
#    2.769    0.000    0.000    0.000    0.000    0.000 
#    0.000    0.000    0.000    0.000    0.000    0.000 
#
# Total GULP energy -144933.972442 kJ/mol
# GULP energy per Si atom -5574.383555 kJ/mol
# Density = 2.124629 g / cm^3
# Si number density = 21.294759 Si / 1000 Ang^3
#
#
#
# Elastic Constant Matrix: (Units=GPa)
#
#
# Indices 1 2 3 4 5 6 
#
# 1 51.6271 12.5069 15.5109 0.0000 7.7189 0.0000
# 2 12.5069 53.8468 20.5543 0.0000 7.2617 0.0000
# 3 15.5109 20.5543 131.7930 0.0000 28.4690 0.0000
# 4 0.0000 0.0000 0.0000 18.6581 0.0000 8.8493
# 5 7.7189 7.2617 28.4690 0.0000 31.6709 0.0000
# 6 0.0000 0.0000 0.0000 8.8493 0.0000 14.4777
#
#
#
# Elastic Compliance Matrix: (Units=1/GPa)
#
#
# Indices 1 2 3 4 5 6 
#
# 1 0.021177 -0.004041 -0.001176 0.000000 -0.003178 0.000000
# 2 -0.004041 0.020640 -0.002400 0.000000 -0.001590 0.000000
# 3 -0.001176 -0.002400 0.009828 0.000000 -0.007997 0.000000
# 4 0.000000 0.000000 0.000000 0.075477 0.000000 -0.046134
# 5 -0.003178 -0.001590 -0.007997 0.000000 0.039903 0.000000
# 6 0.000000 0.000000 0.000000 -0.046134 0.000000 0.097271
#
#
# Mechanical properties :
#
#
# Convention : Reuss Voigt Hill
#
# Bulk Modulus (GPa) = 27.46384 37.15680 32.31032
# Shear Modulus (GPa) = 17.14285 25.54099 21.34192
#
# Velocity S-wave (km/s) = 2.84038 3.46700 3.16921
# Velocity P-wave (km/s) = 4.86641 5.78908 5.34768
#
# Compressibility (1/GPa) = 0.03641152
#
# Stress axis : x y z
#
# Youngs Moduli (GPa) = 47.22084 48.44852 101.75156
#
# Poissons Ratio (x) = 0.19580 0.11962
# Poissons Ratio (y) = 0.19084 0.24419
# Poissons Ratio (z) = 0.05551 0.11627
#
# Static dielectric constant tensor:
#      x y z
#    x 1.862180 0.000000 -0.003210 
#    y 0.000000 1.806240 0.000000 
#    z -0.003210 0.000000 1.770080 
# 
# From -- ./inp_files/144321.got.cif
#   From: 2010.05.17/outbox.cif.g08.bks.cpg/sg15_73_cif.got.tgz:144321.got - 2010.06.03 18:47:42.
