data_PCOD9253434
_publ_section_title
;
Structure prediction by ZEFSAII (Michael W. Deem and Ramdas Pophale) SiO2 
 PCOD9253434
Probable space group: P 21/C
;
_chemical_formula_sum "Si O2"
_cell_formula_units_Z 28
_cell_length_a 12.576464
_cell_length_b 13.015372
_cell_length_c 12.431682
_cell_angle_alpha 90.000000
_cell_angle_beta 32.676099
_cell_angle_gamma 90.000000
_cell_volume 1098.625560
_symmetry_space_group_name_H-M "P 21/C"
_symmetry_group_IT_number 14
_symmetry_cell_setting 'monoclinic'
loop_
_space_group_symop_operation_xyz
x,y,z
-x,1/2+y,1/2-z
-x,-y,-z
x,1/2-y,1/2+z
loop_
_atom_site_type_symbol
_atom_site_label
_atom_site_fract_x
_atom_site_fract_y
_atom_site_fract_z
Si Si1 0.997733 0.528440 0.829864
Si Si2 0.358683 0.104064 0.739232
Si Si3 0.003767 0.335424 0.973547
Si Si4 0.654861 0.715875 0.534110
Si Si5 0.533141 0.925162 0.717500
Si Si6 0.971268 0.858021 0.147010
Si Si7 0.533219 0.816632 0.915675
O O1 0.060213 0.562717 0.656505
O O2 0.024675 0.416003 0.857562
O O3 0.079740 0.606968 0.851064
O O4 0.759942 0.538923 0.031297
O O5 0.289869 0.144114 0.914995
O O6 0.183806 0.090883 0.802601
O O7 0.509612 0.194674 0.569360
O O8 0.449000 0.995808 0.695348
O O9 0.907853 0.226662 0.023833
O O10 0.230263 0.311135 0.811835
O O11 0.521449 0.807385 0.691755
O O12 0.840880 0.779119 0.330611
O O13 0.535480 0.661622 0.540296
O O14 0.458337 0.908641 0.904076
#
# Coordination Sequence:
#
# PCOD9253434 Si02
#       7
#     4   4   4   4   4   4   4
#     4   9  16  27  47  66  85 114 142 177 212 244
#     4   9  16  26  43  65  90 113 142 175 206 254
#     4   8  15  29  47  66  85 108 147 178 206 256
#     4   8  15  27  41  61  88 115 141 171 205 248
#     4   9  16  26  43  68  88 109 144 176 208 250
#     4   9  16  27  47  67  83 113 145 173 213 252
#     4   8  16  28  44  64  83 114 145 172 214 253
#
# _framework density 25.486391000000001
#
# number of rings (size 3 to 8) (size 9 to 14) (size 15 to 20)
#    0.000    3.714    0.000    2.571    0.000    5.714 
#    0.000    0.000    0.000   35.143    0.000    0.000 
#    0.000    0.000    0.000    0.000    0.000    0.000 
#
# Total GULP energy -156088.133409 kJ/mol
# GULP energy per Si atom -5574.576193 kJ/mol
# Density = 2.542838 g / cm^3
# Si number density = 25.486391 Si / 1000 Ang^3
#
#
#
# Elastic Constant Matrix: (Units=GPa)
#
#
# Indices 1 2 3 4 5 6 
#
# 1 157.4517 77.6686 19.8190 0.0000 22.7243 0.0000
# 2 77.6686 134.2202 0.1926 0.0000 10.6683 0.0000
# 3 19.8190 0.1926 25.5608 0.0000 5.5152 0.0000
# 4 0.0000 0.0000 0.0000 12.7209 0.0000 12.3491
# 5 22.7243 10.6683 5.5152 0.0000 36.1000 0.0000
# 6 0.0000 0.0000 0.0000 12.3491 0.0000 57.5968
#
#
#
# Elastic Compliance Matrix: (Units=1/GPa)
#
#
# Indices 1 2 3 4 5 6 
#
# 1 0.010768 -0.005911 -0.007465 0.000000 -0.003891 0.000000
# 2 -0.005911 0.010880 0.004542 0.000000 -0.000188 0.000000
# 3 -0.007465 0.004542 0.045657 0.000000 -0.003618 0.000000
# 4 0.000000 0.000000 0.000000 0.099273 0.000000 -0.021285
# 5 -0.003891 -0.000188 -0.003618 0.000000 0.030759 0.000000
# 6 0.000000 0.000000 0.000000 -0.021285 0.000000 0.021926
#
#
# Mechanical properties :
#
#
# Convention : Reuss Voigt Hill
#
# Bulk Modulus (GPa) = 20.14670 56.95478 38.55074
# Shear Modulus (GPa) = 19.72563 35.92037 27.82300
#
# Velocity S-wave (km/s) = 2.78504 3.75826 3.30764
# Velocity P-wave (km/s) = 4.27364 6.42093 5.45401
#
# Compressibility (1/GPa) = 0.04963592
#
# Stress axis : x y z
#
# Youngs Moduli (GPa) = 92.86447 91.91569 21.90232
#
# Poissons Ratio (x) = 0.54334 0.16351
# Poissons Ratio (y) = 0.54895 -0.09948
# Poissons Ratio (z) = 0.69326 -0.41748
#
# Static dielectric constant tensor:
#      x y z
#    x 2.061110 0.000000 0.035840 
#    y 0.000000 2.098040 0.000000 
#    z 0.035840 0.000000 2.130450 
# 
# From -- ./inp_files/44775.got.cif
#   From: 2010.05.17/outbox.cif.g08.bks.cpg/sg14_23_cif.got.tgz:44775.got - 2010.06.03 17:49:19.
