data_PCOD9253518
_publ_section_title
;
Structure prediction by ZEFSAII (Michael W. Deem and Ramdas Pophale) SiO2 
 PCOD9253518
Probable space group: P 21/C
;
_chemical_formula_sum "Si O2"
_cell_formula_units_Z 20
_cell_length_a 24.000000
_cell_length_b 9.000000
_cell_length_c 15.000000
_cell_angle_alpha 90.000000
_cell_angle_beta 20.000000
_cell_angle_gamma 90.000000
_cell_volume 1108.145264
_symmetry_space_group_name_H-M "P 21/C"
_symmetry_group_IT_number 14
_symmetry_cell_setting 'monoclinic'
loop_
_space_group_symop_operation_xyz
x,y,z
-x,1/2+y,1/2-z
-x,-y,-z
x,1/2-y,1/2+z
loop_
_atom_site_type_symbol
_atom_site_label
_atom_site_fract_x
_atom_site_fract_y
_atom_site_fract_z
Si Si1 0.818415 0.566897 0.668354
Si Si2 0.568430 0.283550 0.233892
Si Si3 0.671729 0.759350 0.742606
Si Si4 0.178009 0.036524 0.634089
Si Si5 0.473030 0.438560 0.196982
O O1 0.801335 0.692248 0.618350
O O2 0.803744 0.613309 0.795308
O O3 0.987701 0.483896 0.404785
O O4 0.663005 0.461620 0.886867
O O5 0.470573 0.307106 0.474085
O O6 0.473524 0.347081 0.289183
O O7 0.590352 0.106444 0.191709
O O8 0.733708 0.377504 0.988475
O O9 0.741176 0.883087 0.571623
O O10 0.610713 0.637292 0.762145
#
# Coordination Sequence:
#
# PCOD9253518 Si02
#       5
#     4   4   4   4   4
#     4   9  20  36  53  77 110 142 170 213 272 316
#     4  10  20  35  55  79 107 139 179 221 264 314
#     4  11  20  34  58  82 104 138 184 222 260 314
#     4  10  21  37  56  78 110 142 174 220 268 314
#     4  10  20  36  57  78 107 143 179 219 264 316
#
# _framework density 18.048175000000001
#
# number of rings (size 3 to 8) (size 9 to 14) (size 15 to 20)
#    0.000    2.000    0.000    6.600    0.000    3.200 
#    0.000    4.000    0.000   18.000    0.000    0.000 
#    0.000    0.000    0.000    0.000    0.000    0.000 
#
# Total GULP energy -111390.549300 kJ/mol
# GULP energy per Si atom -5569.527465 kJ/mol
# Density = 1.800710 g / cm^3
# Si number density = 18.048175 Si / 1000 Ang^3
#
#
#
# Elastic Constant Matrix: (Units=GPa)
#
#
# Indices 1 2 3 4 5 6 
#
# 1 115.2550 41.6181 19.2957 0.0000 13.7244 0.0000
# 2 41.6181 85.9928 41.9563 0.0000 -2.4316 0.0000
# 3 19.2957 41.9563 37.3554 0.0000 -1.4883 0.0000
# 4 0.0000 0.0000 0.0000 14.4514 0.0000 6.1421
# 5 13.7244 -2.4316 -1.4883 0.0000 40.9438 0.0000
# 6 0.0000 0.0000 0.0000 6.1421 0.0000 28.3232
#
#
#
# Elastic Compliance Matrix: (Units=1/GPa)
#
#
# Indices 1 2 3 4 5 6 
#
# 1 0.011157 -0.005805 0.000595 0.000000 -0.004063 0.000000
# 2 -0.005805 0.028757 -0.029197 0.000000 0.002592 0.000000
# 3 0.000595 -0.029197 0.059265 0.000000 0.000221 0.000000
# 4 0.000000 0.000000 0.000000 0.076223 0.000000 -0.016530
# 5 -0.004063 0.002592 0.000221 0.000000 0.025948 0.000000
# 6 0.000000 0.000000 0.000000 -0.016530 0.000000 0.038891
#
#
# Mechanical properties :
#
#
# Convention : Reuss Voigt Hill
#
# Bulk Modulus (GPa) = 32.93346 49.37148 41.15247
# Shear Modulus (GPa) = 15.66539 25.79255 20.72897
#
# Velocity S-wave (km/s) = 2.94934 3.78444 3.39268
# Velocity P-wave (km/s) = 5.46674 6.81988 6.18045
#
# Compressibility (1/GPa) = 0.03036425
#
# Stress axis : x y z
#
# Youngs Moduli (GPa) = 89.63272 34.77444 16.87350
#
# Poissons Ratio (x) = 0.20185 -0.01003
# Poissons Ratio (y) = 0.52028 0.49266
# Poissons Ratio (z) = -0.05330 1.01531
#
# Static dielectric constant tensor:
#      x y z
#    x 1.619800 0.000000 -0.010460 
#    y 0.000000 1.643510 0.000000 
#    z -0.010460 0.000000 1.620030 
# 
# From -- ./inp_files/28248.got.cif
#   From: 2010.05.17/outbox.ucp.g08.bks.cvg/sg14_15_cif.got.tgz:28248.got - 2010.06.11 12:31:08.
