data_PCOD9253306
_publ_section_title
;
Structure prediction by ZEFSAII (Michael W. Deem and Ramdas Pophale) SiO2 
 PCOD9253306
Probable space group: P 21/C
;
_chemical_formula_sum "Si O2"
_cell_formula_units_Z 28
_cell_length_a 4.855247
_cell_length_b 30.071676
_cell_length_c 7.680203
_cell_angle_alpha 90.000000
_cell_angle_beta 111.951352
_cell_angle_gamma 90.000000
_cell_volume 1040.055039
_symmetry_space_group_name_H-M "P 21/C"
_symmetry_group_IT_number 14
_symmetry_cell_setting 'monoclinic'
loop_
_space_group_symop_operation_xyz
x,y,z
-x,1/2+y,1/2-z
-x,-y,-z
x,1/2-y,1/2+z
loop_
_atom_site_type_symbol
_atom_site_label
_atom_site_fract_x
_atom_site_fract_y
_atom_site_fract_z
Si Si1 0.135317 0.827813 0.978659
Si Si2 0.000000 0.500000 0.500000
Si Si3 0.500000 0.000000 0.500000
Si Si4 0.260975 0.284589 0.337681
Si Si5 0.658344 0.903056 0.424561
Si Si6 0.761125 0.058282 0.264249
Si Si7 0.735661 0.689469 0.056190
Si Si8 0.785764 0.592509 0.555986
O O1 0.499492 0.910105 0.863101
O O2 0.989245 0.821866 0.755686
O O3 0.007416 0.792909 0.092170
O O4 0.029083 0.874500 0.034561
O O5 0.073900 0.534772 0.357052
O O6 0.892296 0.541806 0.591354
O O7 0.522484 0.052352 0.575396
O O8 0.614303 0.017730 0.337349
O O9 0.390301 0.234832 0.390756
O O10 0.521479 0.317351 0.458367
O O11 0.177200 0.296472 0.120067
O O12 0.983901 0.915943 0.574142
O O13 0.555665 0.856684 0.487256
O O14 0.696109 0.896110 0.230066
#
# Coordination Sequence:
#
# PCOD9253306 Si02
#       8
#     4   2   2   4   4   4   4   4
#     4  12  30  55  85 124 168 219 288 355 433 519
#     4  12  26  48  78 112 168 218 282 350 420 506
#     4  12  26  52  74 124 162 216 280 350 420 512
#     4  12  30  53  88 123 166 216 286 355 438 523
#     4  12  29  51  83 118 167 221 285 347 435 519
#     4  12  28  48  80 118 169 222 285 353 428 513
#     4  12  28  56  86 123 167 224 279 363 435 526
#     4  12  29  51  80 120 161 229 282 352 430 515
#
# _framework density 26.921651000000001
#
# number of rings (size 3 to 8) (size 9 to 14) (size 15 to 20)
#    0.000    0.000    4.286    3.429   10.000    3.429 
#    2.571    0.000    0.000    0.000    0.000    0.000 
#    0.000    0.000    0.000    0.000    0.000    0.000 
#
# Total GULP energy -156186.055281 kJ/mol
# GULP energy per Si atom -5578.073403 kJ/mol
# Density = 2.686038 g / cm^3
# Si number density = 26.921651 Si / 1000 Ang^3
#
#
#
# Elastic Constant Matrix: (Units=GPa)
#
#
# Indices 1 2 3 4 5 6 
#
# 1 64.6608 -6.4970 15.4613 0.0000 -0.0786 0.0000
# 2 -6.4970 199.3963 28.8607 0.0000 -5.6576 0.0000
# 3 15.4613 28.8607 176.2360 0.0000 -8.1547 0.0000
# 4 0.0000 0.0000 0.0000 82.3449 0.0000 12.9534
# 5 -0.0786 -5.6576 -8.1547 0.0000 36.8130 0.0000
# 6 0.0000 0.0000 0.0000 12.9534 0.0000 61.9125
#
#
#
# Elastic Compliance Matrix: (Units=1/GPa)
#
#
# Indices 1 2 3 4 5 6 
#
# 1 0.015903 0.000733 -0.001524 0.000000 -0.000191 0.000000
# 2 0.000733 0.005184 -0.000885 0.000000 0.000602 0.000000
# 3 -0.001524 -0.000885 0.006008 0.000000 0.001192 0.000000
# 4 0.000000 0.000000 0.000000 0.012557 0.000000 -0.002627
# 5 -0.000191 0.000602 0.001192 0.000000 0.027520 0.000000
# 6 0.000000 0.000000 0.000000 -0.002627 0.000000 0.016701
#
#
# Mechanical properties :
#
#
# Convention : Reuss Voigt Hill
#
# Bulk Modulus (GPa) = 42.11748 57.32700 49.72224
# Shear Modulus (GPa) = 52.55324 63.04530 57.79927
#
# Velocity S-wave (km/s) = 4.42303 4.84447 4.63854
# Velocity P-wave (km/s) = 6.46240 7.25480 6.87004
#
# Compressibility (1/GPa) = 0.02374311
#
# Stress axis : x y z
#
# Youngs Moduli (GPa) = 62.88032 192.89072 166.44299
#
# Poissons Ratio (x) = -0.14146 0.25368
# Poissons Ratio (y) = -0.04611 0.14738
# Poissons Ratio (z) = 0.09584 0.17080
#
# Static dielectric constant tensor:
#      x y z
#    x 2.169440 0.000000 0.075710 
#    y 0.000000 2.099820 0.000000 
#    z 0.075710 0.000000 2.041700 
# 
# From -- ./inp_files/6676.got.cif
#   From: 2010.05.17/outbox.cif.g08.bks.cpg/sg14_4_cif.got.tgz:6676.got - 2010.06.03 17:49:19.
