data_PCOD9253573
_publ_section_title
;
Structure prediction by ZEFSAII (Michael W. Deem and Ramdas Pophale) SiO2 
 PCOD9253573
Probable space group: P 21/C
;
_chemical_formula_sum "Si O2"
_cell_formula_units_Z 28
_cell_length_a 12.000000
_cell_length_b 6.000000
_cell_length_c 21.000000
_cell_angle_alpha 90.000000
_cell_angle_beta 110.000000
_cell_angle_gamma 90.000000
_cell_volume 1420.815243
_symmetry_space_group_name_H-M "P 21/C"
_symmetry_group_IT_number 14
_symmetry_cell_setting 'monoclinic'
loop_
_space_group_symop_operation_xyz
x,y,z
-x,1/2+y,1/2-z
-x,-y,-z
x,1/2-y,1/2+z
loop_
_atom_site_type_symbol
_atom_site_label
_atom_site_fract_x
_atom_site_fract_y
_atom_site_fract_z
Si Si1 0.660915 0.435856 0.085996
Si Si2 0.855638 0.432081 0.595143
Si Si3 0.567961 0.812767 0.972534
Si Si4 0.041380 0.083330 0.679121
Si Si5 0.163807 0.309434 0.802779
Si Si6 0.796711 0.944468 0.950325
Si Si7 0.114203 0.947859 0.566361
O O1 0.746698 0.245828 0.073172
O O2 0.535799 0.330919 0.079048
O O3 0.727825 0.532751 0.159930
O O4 0.637951 0.636789 0.031554
O O5 0.835306 0.614849 0.644795
O O6 0.867944 0.556818 0.531044
O O7 0.967808 0.282492 0.633137
O O8 0.658880 0.926294 0.942612
O O9 0.500000 0.000000 0.000000
O O10 0.954757 0.958251 0.711442
O O11 0.154880 0.187152 0.734637
O O12 0.073005 0.915463 0.630417
O O13 0.824038 0.205499 0.935646
O O14 0.822171 0.697760 0.923573
O O15 0.000000 0.000000 0.500000
#
# Coordination Sequence:
#
# PCOD9253573 Si02
#       7
#     4   4   4   4   4   4   4
#     4  10  21  35  59  96 125 157 204 272 335 369
#     4  11  20  37  58  94 126 164 205 261 324 382
#     4  11  21  36  63  94 124 158 209 276 329 371
#     4  11  24  36  61  89 130 170 216 252 325 385
#     4  11  21  38  60  92 124 165 216 271 311 391
#     4  12  24  40  62  93 133 165 216 260 321 395
#     4  12  26  40  60  92 135 179 202 256 322 400
#
# _framework density 19.706996
#
# number of rings (size 3 to 8) (size 9 to 14) (size 15 to 20)
#    0.000    0.857    5.714    2.143    4.000    0.000 
#    0.000    0.000    0.000    0.000    7.429    0.000 
#    0.000    0.000    0.000    0.000    0.000    0.000 
#
# Total GULP energy -156009.359717 kJ/mol
# GULP energy per Si atom -5571.762847 kJ/mol
# Density = 1.966214 g / cm^3
# Si number density = 19.706996 Si / 1000 Ang^3
#
#
#
# Elastic Constant Matrix: (Units=GPa)
#
#
# Indices 1 2 3 4 5 6 
#
# 1 72.5481 44.1320 31.3118 0.0000 13.3596 0.0000
# 2 44.1320 111.2639 12.0982 0.0000 14.6886 0.0000
# 3 31.3118 12.0982 71.0255 0.0000 12.1646 0.0000
# 4 0.0000 0.0000 0.0000 34.2715 0.0000 2.0592
# 5 13.3596 14.6886 12.1646 0.0000 15.9947 0.0000
# 6 0.0000 0.0000 0.0000 2.0592 0.0000 46.1795
#
#
#
# Elastic Compliance Matrix: (Units=1/GPa)
#
#
# Indices 1 2 3 4 5 6 
#
# 1 0.022744 -0.007339 -0.007677 0.000000 -0.006418 0.000000
# 2 -0.007339 0.012597 0.002324 0.000000 -0.007206 0.000000
# 3 -0.007677 0.002324 0.018782 0.000000 -0.010006 0.000000
# 4 0.000000 0.000000 0.000000 0.029257 0.000000 -0.001305
# 5 -0.006418 -0.007206 -0.010006 0.000000 0.082109 0.000000
# 6 0.000000 0.000000 0.000000 -0.001305 0.000000 0.021713
#
#
# Mechanical properties :
#
#
# Convention : Reuss Voigt Hill
#
# Bulk Modulus (GPa) = 34.79727 47.76906 41.28316
# Shear Modulus (GPa) = 22.50566 30.44216 26.47391
#
# Velocity S-wave (km/s) = 3.38304 3.93458 3.66919
# Velocity P-wave (km/s) = 5.74069 6.70325 6.24055
#
# Compressibility (1/GPa) = 0.02873789
#
# Stress axis : x y z
#
# Youngs Moduli (GPa) = 43.96796 79.38247 53.24278
#
# Poissons Ratio (x) = 0.58259 0.40876
# Poissons Ratio (y) = 0.32268 -0.12373
# Poissons Ratio (z) = 0.33756 -0.18447
#
# Static dielectric constant tensor:
#      x y z
#    x 1.715970 0.000000 -0.014020 
#    y 0.000000 1.735950 0.000000 
#    z -0.014020 0.000000 1.714650 
# 
# From -- ./inp_files/66268.got.cif
#   From: 2010.05.17/outbox.ucp.g08.bks.cvg/sg14_34_cif.got.tgz:66268.got - 2010.06.11 12:31:08.
