data_PCOD9253151
_publ_section_title
;
Structure prediction by ZEFSAII (Michael W. Deem and Ramdas Pophale) SiO2 
 PCOD9253151
Probable space group: P 21/C
;
_chemical_formula_sum "Si O2"
_cell_formula_units_Z 30
_cell_length_a 11.109831
_cell_length_b 9.584606
_cell_length_c 14.330568
_cell_angle_alpha 90.000000
_cell_angle_beta 119.678529
_cell_angle_gamma 90.000000
_cell_volume 1325.786195
_symmetry_space_group_name_H-M "P 21/C"
_symmetry_group_IT_number 14
_symmetry_cell_setting 'monoclinic'
loop_
_space_group_symop_operation_xyz
x,y,z
-x,1/2+y,1/2-z
-x,-y,-z
x,1/2-y,1/2+z
loop_
_atom_site_type_symbol
_atom_site_label
_atom_site_fract_x
_atom_site_fract_y
_atom_site_fract_z
Si Si1 0.716696 0.324691 0.180061
Si Si2 0.361377 0.200863 0.204378
Si Si3 0.143866 0.311909 0.458727
Si Si4 0.128684 0.881529 0.877766
Si Si5 0.177216 0.117964 0.306312
Si Si6 0.500000 0.000000 0.500000
Si Si7 0.378000 0.978384 0.657879
Si Si8 0.165129 0.754574 0.590734
O O1 0.772682 0.178724 0.164129
O O2 0.813628 0.451615 0.180800
O O3 0.737895 0.328714 0.299097
O O4 0.569474 0.366811 0.083810
O O5 0.298632 0.162076 0.281961
O O6 0.502711 0.114919 0.247111
O O7 0.382442 0.365699 0.199114
O O8 0.244129 0.161466 0.084047
O O9 0.133090 0.453664 0.395606
O O10 0.201657 0.192502 0.413457
O O11 0.991849 0.264814 0.434295
O O12 0.971561 0.841742 0.790794
O O13 0.170909 0.809342 0.990508
O O14 0.411597 0.963354 0.561135
O O15 0.227036 0.909635 0.615085
#
# Coordination Sequence:
#
# PCOD9253151 Si02
#       8
#     4   4   4   4   4   2   4   4
#     4  12  25  45  74 104 152 195 250 309 378 458
#     4  12  29  49  75 107 154 197 263 310 389 462
#     4  12  27  46  78 114 149 194 258 317 379 466
#     4  12  24  44  74 112 143 199 244 317 383 446
#     4  12  24  47  73 110 148 195 247 319 381 453
#     4  12  24  48  72 102 142 206 252 306 384 448
#     4  12  29  49  77 108 151 210 252 321 383 463
#     4  12  25  45  78 109 149 198 254 310 390 452
#
# _framework density 22.628081999999999
#
# number of rings (size 3 to 8) (size 9 to 14) (size 15 to 20)
#    0.000    0.000    6.667    2.800    3.733    1.600 
#    0.000    0.667    0.000    0.000    0.000    0.000 
#    0.000    0.000    0.000    0.000    0.000    0.000 
#
# Total GULP energy -167470.767645 kJ/mol
# GULP energy per Si atom -5582.358922 kJ/mol
# Density = 2.257658 g / cm^3
# Si number density = 22.628082 Si / 1000 Ang^3
#
#
#
# Elastic Constant Matrix: (Units=GPa)
#
#
# Indices 1 2 3 4 5 6 
#
# 1 51.3031 23.9260 32.9830 0.0000 16.0277 0.0000
# 2 23.9260 94.6176 13.6958 0.0000 13.6326 0.0000
# 3 32.9830 13.6958 60.7215 0.0000 8.6497 0.0000
# 4 0.0000 0.0000 0.0000 34.6251 0.0000 2.7544
# 5 16.0277 13.6326 8.6497 0.0000 38.2152 0.0000
# 6 0.0000 0.0000 0.0000 2.7544 0.0000 43.3376
#
#
#
# Elastic Compliance Matrix: (Units=1/GPa)
#
#
# Indices 1 2 3 4 5 6 
#
# 1 0.035689 -0.005245 -0.016881 0.000000 -0.009276 0.000000
# 2 -0.005245 0.012155 0.000425 0.000000 -0.002233 0.000000
# 3 -0.016881 0.000425 0.025374 0.000000 0.001185 0.000000
# 4 0.000000 0.000000 0.000000 0.029028 0.000000 -0.001845
# 5 -0.009276 -0.002233 0.001185 0.000000 0.030586 0.000000
# 6 0.000000 0.000000 0.000000 -0.001845 0.000000 0.023192
#
#
# Mechanical properties :
#
#
# Convention : Reuss Voigt Hill
#
# Bulk Modulus (GPa) = 33.53874 38.65021 36.09447
# Shear Modulus (GPa) = 23.88186 32.30474 28.09330
#
# Velocity S-wave (km/s) = 3.25223 3.78251 3.52735
# Velocity P-wave (km/s) = 5.38113 6.01616 5.70749
#
# Compressibility (1/GPa) = 0.02981627
#
# Stress axis : x y z
#
# Youngs Moduli (GPa) = 28.01980 82.26924 39.41113
#
# Poissons Ratio (x) = 0.43147 0.66531
# Poissons Ratio (y) = 0.14695 -0.01676
# Poissons Ratio (z) = 0.47301 -0.03498
#
# Static dielectric constant tensor:
#      x y z
#    x 1.844180 0.000000 0.032190 
#    y 0.000000 1.827820 0.000000 
#    z 0.032190 0.000000 1.839470 
# 
# From -- ./inp_files/43854.got.cif
#   From: 2010.05.17/outbox.cif.g08.bks.cpg/sg14_22_cif.got.tgz:43854.got - 2010.06.03 17:49:19.
