data_PCOD9253265
_publ_section_title
;
Structure prediction by ZEFSAII (Michael W. Deem and Ramdas Pophale) SiO2 
 PCOD9253265
Probable space group: P 21/C
;
_chemical_formula_sum "Si O2"
_cell_formula_units_Z 16
_cell_length_a 10.358622
_cell_length_b 4.834254
_cell_length_c 17.184432
_cell_angle_alpha 90.000000
_cell_angle_beta 136.136191
_cell_angle_gamma 90.000000
_cell_volume 596.302144
_symmetry_space_group_name_H-M "P 21/C"
_symmetry_group_IT_number 14
_symmetry_cell_setting 'monoclinic'
loop_
_space_group_symop_operation_xyz
x,y,z
-x,1/2+y,1/2-z
-x,-y,-z
x,1/2-y,1/2+z
loop_
_atom_site_type_symbol
_atom_site_label
_atom_site_fract_x
_atom_site_fract_y
_atom_site_fract_z
Si Si1 0.477355 0.347322 0.185173
Si Si2 0.677091 0.138027 0.120561
Si Si3 0.005107 0.205898 0.664410
Si Si4 0.061227 0.290099 0.460512
O O1 0.471901 0.653273 0.218819
O O2 0.608904 0.298015 0.168325
O O3 0.278177 0.253642 0.067547
O O4 0.803331 0.328565 0.118285
O O5 0.819960 0.899658 0.211089
O O6 0.500000 0.000000 0.000000
O O7 0.997070 0.526139 0.639026
O O8 0.016798 0.012237 0.592550
O O9 0.000000 0.500000 0.500000
#
# Coordination Sequence:
#
# PCOD9253265 Si02
#       4
#     4   4   4   4
#     4  12  27  49  77 118 160 213 271 338 412 491
#     4  12  28  53  83 120 167 216 280 344 414 498
#     4  12  27  50  77 119 157 218 271 339 410 488
#     4  12  25  49  78 115 163 209 271 342 412 493
#
# _framework density 26.832035999999999
#
# number of rings (size 3 to 8) (size 9 to 14) (size 15 to 20)
#    0.000    0.000    2.500    6.750    0.000    5.000 
#    0.000    0.000    0.000    0.000    0.000    0.000 
#    0.000    0.000    0.000    0.000    0.000    0.000 
#
# Total GULP energy -89717.788898 kJ/mol
# GULP energy per Si atom -5607.361806 kJ/mol
# Density = 2.677097 g / cm^3
# Si number density = 26.832036 Si / 1000 Ang^3
#
#
#
# Elastic Constant Matrix: (Units=GPa)
#
#
# Indices 1 2 3 4 5 6 
#
# 1 105.3911 0.1622 42.0322 0.0000 11.1956 0.0000
# 2 0.1622 132.5864 24.2217 0.0000 1.6999 0.0000
# 3 42.0322 24.2217 172.1429 0.0000 33.4214 0.0000
# 4 0.0000 0.0000 0.0000 49.8565 0.0000 0.6043
# 5 11.1956 1.6999 33.4214 0.0000 52.5173 0.0000
# 6 0.0000 0.0000 0.0000 0.6043 0.0000 42.0739
#
#
#
# Elastic Compliance Matrix: (Units=1/GPa)
#
#
# Indices 1 2 3 4 5 6 
#
# 1 0.010561 0.000455 -0.002513 0.000000 -0.000667 0.000000
# 2 0.000455 0.007773 -0.001297 0.000000 0.000477 0.000000
# 3 -0.002513 -0.001297 0.007408 0.000000 -0.004137 0.000000
# 4 0.000000 0.000000 0.000000 0.020061 0.000000 -0.000288
# 5 -0.000667 0.000477 -0.004137 0.000000 0.021801 0.000000
# 6 0.000000 0.000000 0.000000 -0.000288 0.000000 0.023772
#
#
# Mechanical properties :
#
#
# Convention : Reuss Voigt Hill
#
# Bulk Modulus (GPa) = 52.54734 60.32806 56.43770
# Shear Modulus (GPa) = 47.87866 51.80315 49.84091
#
# Velocity S-wave (km/s) = 4.22878 4.39868 4.31457
# Velocity P-wave (km/s) = 6.59316 6.95199 6.77495
#
# Compressibility (1/GPa) = 0.01903046
#
# Stress axis : x y z
#
# Youngs Moduli (GPa) = 94.68882 128.65737 134.98010
#
# Poissons Ratio (x) = -0.05851 0.33923
# Poissons Ratio (y) = -0.04306 0.17511
# Poissons Ratio (z) = 0.23797 0.16691
#
# Static dielectric constant tensor:
#      x y z
#    x 2.225090 0.000000 -0.116960 
#    y 0.000000 1.851210 0.000000 
#    z -0.116960 0.000000 2.085140 
# 
# From -- ./inp_files/56487.got.cif
#   From: 2010.05.17/outbox.cif.g08.bks.cpg/sg14_29_cif.got.tgz:56487.got - 2010.06.03 17:49:19.
