data_PCOD9253595
_publ_section_title
;
Structure prediction by ZEFSAII (Michael W. Deem and Ramdas Pophale) SiO2 
 PCOD9253595
Probable space group: P 21/C
;
_chemical_formula_sum "Si O2"
_cell_formula_units_Z 28
_cell_length_a 15.000000
_cell_length_b 12.000000
_cell_length_c 9.000000
_cell_angle_alpha 90.000000
_cell_angle_beta 60.000000
_cell_angle_gamma 90.000000
_cell_volume 1402.961154
_symmetry_space_group_name_H-M "P 21/C"
_symmetry_group_IT_number 14
_symmetry_cell_setting 'monoclinic'
loop_
_space_group_symop_operation_xyz
x,y,z
-x,1/2+y,1/2-z
-x,-y,-z
x,1/2-y,1/2+z
loop_
_atom_site_type_symbol
_atom_site_label
_atom_site_fract_x
_atom_site_fract_y
_atom_site_fract_z
Si Si1 0.212156 0.136497 0.701174
Si Si2 0.067775 0.606644 0.904794
Si Si3 0.458758 0.124420 0.554267
Si Si4 0.737004 0.185677 0.845507
Si Si5 0.914436 0.703708 0.413422
Si Si6 0.585176 0.269372 0.215996
Si Si7 0.129246 0.894695 0.677694
O O1 0.335801 0.136151 0.625783
O O2 0.158899 0.237643 0.649684
O O3 0.175473 0.017944 0.661724
O O4 0.159830 0.151382 0.903943
O O5 0.168279 0.598555 0.715696
O O6 0.985979 0.695509 0.914604
O O7 0.124455 0.642557 0.009736
O O8 0.000000 0.500000 0.000000
O O9 0.515480 0.197002 0.382371
O O10 0.507403 0.164370 0.671760
O O11 0.500000 0.000000 0.500000
O O12 0.663724 0.166818 0.762906
O O13 0.799415 0.305231 0.794050
O O14 0.659462 0.195963 0.048366
O O15 0.006221 0.613361 0.311607
#
# Coordination Sequence:
#
# PCOD9253595 Si02
#       7
#     4   4   4   4   4   4   4
#     4  12  23  42  64  88 129 167 203 261 317 370
#     4  11  21  37  60  96 130 165 204 257 314 385
#     4  11  25  44  68  94 129 167 222 272 324 380
#     4  10  21  39  68  91 128 164 215 264 321 374
#     4  11  24  39  61  93 128 163 206 250 310 385
#     4  10  21  44  67  93 122 168 220 274 318 377
#     4  11  22  40  64  94 127 168 208 250 318 388
#
# _framework density 19.957787
#
# number of rings (size 3 to 8) (size 9 to 14) (size 15 to 20)
#    0.000    1.143    4.286    3.000    0.000    0.000 
#    5.143    2.857    0.000    0.000    0.000    0.000 
#    0.000    0.000    0.000    0.000    0.000    0.000 
#
# Total GULP energy -156032.070673 kJ/mol
# GULP energy per Si atom -5572.573953 kJ/mol
# Density = 1.991236 g / cm^3
# Si number density = 19.957787 Si / 1000 Ang^3
#
#
#
# Elastic Constant Matrix: (Units=GPa)
#
#
# Indices 1 2 3 4 5 6 
#
# 1 171.2806 29.8364 43.4320 0.0000 -21.4312 0.0000
# 2 29.8364 25.7601 3.0566 0.0000 -1.2824 0.0000
# 3 43.4320 3.0566 69.6563 0.0000 -19.1980 0.0000
# 4 0.0000 0.0000 0.0000 19.1694 0.0000 -6.5646
# 5 -21.4312 -1.2824 -19.1980 0.0000 52.5814 0.0000
# 6 0.0000 0.0000 0.0000 -6.5646 0.0000 36.9878
#
#
#
# Elastic Compliance Matrix: (Units=1/GPa)
#
#
# Indices 1 2 3 4 5 6 
#
# 1 0.008924 -0.009698 -0.004672 0.000000 0.001695 0.000000
# 2 -0.009698 0.049568 0.003464 0.000000 -0.001479 0.000000
# 3 -0.004672 0.003464 0.018475 0.000000 0.004926 0.000000
# 4 0.000000 0.000000 0.000000 0.055542 0.000000 0.009858
# 5 0.001695 -0.001479 0.004926 0.000000 0.021471 0.000000
# 6 0.000000 0.000000 0.000000 0.009858 0.000000 0.028785
#
#
# Mechanical properties :
#
#
# Convention : Reuss Voigt Hill
#
# Bulk Modulus (GPa) = 18.13055 46.59412 32.36234
# Shear Modulus (GPa) = 22.42533 34.43920 28.43227
#
# Velocity S-wave (km/s) = 3.35571 4.15854 3.77851
# Velocity P-wave (km/s) = 4.91106 6.81579 5.94027
#
# Compressibility (1/GPa) = 0.05515551
#
# Stress axis : x y z
#
# Youngs Moduli (GPa) = 112.05159 20.17449 54.12807
#
# Poissons Ratio (x) = 0.19565 0.25288
# Poissons Ratio (y) = 1.08667 -0.18751
# Poissons Ratio (z) = 0.52348 -0.06989
#
# Static dielectric constant tensor:
#      x y z
#    x 1.787380 0.000000 0.128420 
#    y 0.000000 1.749330 0.000000 
#    z 0.128420 0.000000 2.007000 
# 
# From -- ./inp_files/15658.got.cif
#   From: 2010.05.17/outbox.ucp.g08.bks.cvg/sg14_8_cif.got.tgz:15658.got - 2010.06.11 12:31:08.
