data_PCOD9253869
_publ_section_title
;
Structure prediction by ZEFSAII (Michael W. Deem and Ramdas Pophale) SiO2 
 PCOD9253869
Probable space group: C 2/C
;
_chemical_formula_sum "Si O2"
_cell_formula_units_Z 40
_cell_length_a 15.477171
_cell_length_b 17.379884
_cell_length_c 8.082499
_cell_angle_alpha 90.000000
_cell_angle_beta 38.910636
_cell_angle_gamma 90.000000
_cell_volume 1365.583005
_symmetry_space_group_name_H-M "C 2/C"
_symmetry_group_IT_number 15
_symmetry_cell_setting 'monoclinic'
loop_
_space_group_symop_operation_xyz
x,y,z
-x,y,1/2-z
-x,-y,-z
x,-y,1/2+z
1/2+x,1/2+y,z
1/2-x,1/2+y,1/2-z
1/2-x,1/2-y,-z
1/2+x,1/2-y,1/2+z
loop_
_atom_site_type_symbol
_atom_site_label
_atom_site_fract_x
_atom_site_fract_y
_atom_site_fract_z
Si Si1 0.044447 0.388053 0.858387
Si Si2 0.385183 0.259003 0.657857
Si Si3 0.250000 0.750000 0.000000
Si Si4 0.748535 0.527686 0.236708
Si Si5 0.660620 0.392837 0.537097
Si Si6 0.500000 0.628933 0.750000
O O1 0.159120 0.327322 0.630716
O O2 0.111665 0.444625 0.888479
O O3 0.000000 0.423999 0.750000
O O4 0.934425 0.328474 0.104862
O O5 0.283680 0.265102 0.654125
O O6 0.341669 0.306337 0.885150
O O7 0.516602 0.311359 0.382550
O O8 0.724163 0.436726 0.286416
O O9 0.727739 0.557370 0.083692
O O10 0.624834 0.573529 0.516734
O O11 0.500000 0.408163 0.750000
#
# Coordination Sequence:
#
# PCOD9253869 Si02
#       6
#     8   8   4   8   8   4
#     4  10  18  34  61  92 118 166 214 262 312 393
#     4  10  19  31  60  90 121 154 224 260 310 376
#     4  10  14  32  56  88 118 156 204 262 308 372
#     4  11  22  37  59  90 130 167 210 266 328 385
#     4  11  23  38  60  94 128 170 214 269 320 384
#     4  10  16  28  56  86 118 152 200 264 306 362
#
# _framework density 29.291519999999998
#
# number of rings (size 3 to 8) (size 9 to 14) (size 15 to 20)
#    0.000    1.600    8.000    0.600    2.800    0.000 
#    0.000    2.000    0.000    0.000    0.000    0.000 
#    0.000    0.000    0.000    0.000    0.000    0.000 
#
# Total GULP energy -111716.346337 kJ/mol
# GULP energy per Si atom -5585.817317 kJ/mol
# Density = 2.922485 g / cm^3
# Si number density = 29.291520 Si / 1000 Ang^3
#
#
#
# Elastic Constant Matrix: (Units=GPa)
#
#
# Indices 1 2 3 4 5 6 
#
# 1 155.2429 36.3531 25.1154 0.0000 2.5655 0.0000
# 2 36.3531 175.6036 61.4726 0.0000 -2.7216 0.0000
# 3 25.1154 61.4726 110.7532 -0.0001 13.3438 0.0000
# 4 0.0000 0.0000 -0.0001 74.1785 0.0000 5.7909
# 5 2.5655 -2.7216 13.3438 0.0000 20.6926 0.0000
# 6 0.0000 0.0000 0.0000 5.7909 0.0000 36.7956
#
#
#
# Elastic Compliance Matrix: (Units=1/GPa)
#
#
# Indices 1 2 3 4 5 6 
#
# 1 0.006853 -0.001116 -0.000883 0.000000 -0.000427 0.000000
# 2 -0.001116 0.007529 -0.004404 0.000000 0.003968 0.000000
# 3 -0.000883 -0.004404 0.012718 0.000000 -0.008671 0.000000
# 4 0.000000 0.000000 0.000000 0.013649 0.000000 -0.002148
# 5 -0.000427 0.003968 -0.008671 0.000000 0.054493 0.000000
# 6 0.000000 0.000000 0.000000 -0.002148 0.000000 0.027515
#
#
# Mechanical properties :
#
#
# Convention : Reuss Voigt Hill
#
# Bulk Modulus (GPa) = 69.95971 76.38689 73.17330
# Shear Modulus (GPa) = 35.63091 47.57726 41.60409
#
# Velocity S-wave (km/s) = 3.49151 4.03459 3.77284
# Velocity P-wave (km/s) = 6.33956 6.91655 6.63433
#
# Compressibility (1/GPa) = 0.01429394
#
# Stress axis : x y z
#
# Youngs Moduli (GPa) = 145.92571 132.82266 78.62639
#
# Poissons Ratio (x) = 0.14825 0.06943
# Poissons Ratio (y) = 0.16287 0.34626
# Poissons Ratio (z) = 0.12886 0.58493
#
# Static dielectric constant tensor:
#      x y z
#    x 2.792330 0.000000 -1.017340 
#    y 0.000000 2.228630 0.000000 
#    z -1.017340 0.000000 3.797020 
# 
# From -- ./inp_files/40590.got.cif
#   From: 2010.05.17/outbox.cif.g08.bks.cpg/sg15_21_cif.got.tgz:40590.got - 2010.06.03 18:47:42.
