data_PCOD9253884
_publ_section_title
;
Structure prediction by ZEFSAII (Michael W. Deem and Ramdas Pophale) SiO2 
 PCOD9253884
Probable space group: C 2/C
;
_chemical_formula_sum "Si O2"
_cell_formula_units_Z 48
_cell_length_a 15.520358
_cell_length_b 31.927813
_cell_length_c 7.496770
_cell_angle_alpha 90.000000
_cell_angle_beta 147.830907
_cell_angle_gamma 90.000000
_cell_volume 1977.876816
_symmetry_space_group_name_H-M "C 2/C"
_symmetry_group_IT_number 15
_symmetry_cell_setting 'monoclinic'
loop_
_space_group_symop_operation_xyz
x,y,z
-x,y,1/2-z
-x,-y,-z
x,-y,1/2+z
1/2+x,1/2+y,z
1/2-x,1/2+y,1/2-z
1/2-x,1/2-y,-z
1/2+x,1/2-y,1/2+z
loop_
_atom_site_type_symbol
_atom_site_label
_atom_site_fract_x
_atom_site_fract_y
_atom_site_fract_z
Si Si1 0.162180 0.266773 0.664488
Si Si2 0.690847 0.884675 0.112572
Si Si3 0.630992 0.800198 0.144000
Si Si4 0.310371 0.445042 0.865421
Si Si5 0.190628 0.144174 0.071800
Si Si6 0.684272 0.028136 0.516574
O O1 0.218748 0.229127 0.637740
O O2 0.979726 0.279348 0.398266
O O3 0.250000 0.250000 0.000000
O O4 0.238011 0.311582 0.747655
O O5 0.696407 0.847718 0.267429
O O6 0.761608 0.865789 0.051301
O O7 0.755316 0.932031 0.253472
O O8 0.500000 0.892444 0.750000
O O9 0.500000 0.801633 0.750000
O O10 0.280363 0.484705 0.689412
O O11 0.500000 0.443931 0.250000
O O12 0.263311 0.397482 0.736232
O O13 0.200524 0.455585 0.844480
O O14 0.000000 0.148819 0.750000
O O15 0.500000 0.019687 0.250000
#
# Coordination Sequence:
#
# PCOD9253884 Si02
#       6
#     8   8   8   8   8   8
#     4  10  15  22  36  56  88 121 152 185 242 299
#     4   9  15  27  40  59  89 120 155 195 242 286
#     4   9  15  22  34  55  84 120 148 186 236 295
#     4  10  21  35  52  73 105 137 170 212 260 302
#     4  10  17  25  39  62  89 127 154 194 244 299
#     4  10  20  34  54  75  99 135 175 215 252 302
#
# _framework density 24.268447999999999
#
# number of rings (size 3 to 8) (size 9 to 14) (size 15 to 20)
#    0.000    2.333    5.000    2.500    0.000    0.000 
#    0.000    0.000    0.000    0.000    0.000    0.000 
#    0.000    2.667    0.000    0.333    0.000    0.000 
#
# Total GULP energy -133952.592806 kJ/mol
# GULP energy per Si atom -5581.358034 kJ/mol
# Density = 2.421321 g / cm^3
# Si number density = 24.268448 Si / 1000 Ang^3
#
#
#
# Elastic Constant Matrix: (Units=GPa)
#
#
# Indices 1 2 3 4 5 6 
#
# 1 69.8455 14.4572 24.1592 0.0000 22.2371 0.0000
# 2 14.4572 251.2336 42.2421 0.0000 -18.4358 0.0000
# 3 24.1592 42.2421 49.3509 0.0000 13.3011 0.0000
# 4 0.0000 0.0000 0.0000 47.1420 0.0000 -0.8383
# 5 22.2371 -18.4358 13.3011 0.0000 28.8812 0.0000
# 6 0.0000 0.0000 0.0000 -0.8383 0.0000 89.1808
#
#
#
# Elastic Compliance Matrix: (Units=1/GPa)
#
#
# Indices 1 2 3 4 5 6 
#
# 1 0.021097 -0.001444 -0.005098 0.000000 -0.014818 0.000000
# 2 -0.001444 0.005657 -0.006174 0.000000 0.007567 0.000000
# 3 -0.005098 -0.006174 0.032023 0.000000 -0.014764 0.000000
# 4 0.000000 0.000000 0.000000 0.021216 0.000000 0.000199
# 5 -0.014818 0.007567 -0.014764 0.000000 0.057663 0.000000
# 6 0.000000 0.000000 0.000000 0.000199 0.000000 0.011215
#
#
# Mechanical properties :
#
#
# Convention : Reuss Voigt Hill
#
# Bulk Modulus (GPa) = 29.99045 59.12743 44.55894
# Shear Modulus (GPa) = 26.96592 52.34557 39.65575
#
# Velocity S-wave (km/s) = 3.33701 4.64932 4.04672
# Velocity P-wave (km/s) = 5.21844 7.29647 6.34313
#
# Compressibility (1/GPa) = 0.03334395
#
# Stress axis : x y z
#
# Youngs Moduli (GPa) = 47.39942 176.77677 31.22764
#
# Poissons Ratio (x) = 0.25531 0.15920
# Poissons Ratio (y) = 0.06846 0.19281
# Poissons Ratio (z) = 0.24164 1.09148
#
# Static dielectric constant tensor:
#      x y z
#    x 1.558220 0.000000 0.179550 
#    y 0.000000 1.992330 0.000000 
#    z 0.179550 0.000000 1.773410 
# 
# From -- ./inp_files/92374.got.cif
#   From: 2010.05.17/outbox.cif.g08.bks.cpg/sg15_47_cif.got.tgz:92374.got - 2010.06.03 18:47:42.
