data_PCOD9253503
_publ_section_title
;
Structure prediction by ZEFSAII (Michael W. Deem and Ramdas Pophale) SiO2 
 PCOD9253503
Probable space group: P 21/C
;
_chemical_formula_sum "Si O2"
_cell_formula_units_Z 32
_cell_length_a 21.000000
_cell_length_b 15.000000
_cell_length_c 15.000000
_cell_angle_alpha 90.000000
_cell_angle_beta 160.000000
_cell_angle_gamma 90.000000
_cell_volume 1616.045177
_symmetry_space_group_name_H-M "P 21/C"
_symmetry_group_IT_number 14
_symmetry_cell_setting 'monoclinic'
loop_
_space_group_symop_operation_xyz
x,y,z
-x,1/2+y,1/2-z
-x,-y,-z
x,1/2-y,1/2+z
loop_
_atom_site_type_symbol
_atom_site_label
_atom_site_fract_x
_atom_site_fract_y
_atom_site_fract_z
Si Si1 0.512092 0.979068 0.336365
Si Si2 0.055155 0.261240 0.904972
Si Si3 0.910958 0.458307 0.683255
Si Si4 0.463293 0.333091 0.698833
Si Si5 0.972749 0.844510 0.317120
Si Si6 0.575390 0.801818 0.505807
Si Si7 0.709672 0.087634 0.747741
Si Si8 0.803538 0.233462 0.745782
O O1 0.536623 0.063525 0.301131
O O2 0.568543 0.028089 0.503732
O O3 0.614833 0.883405 0.486279
O O4 0.294118 0.953162 0.040148
O O5 0.027885 0.368197 0.853975
O O6 0.910778 0.237008 0.793559
O O7 0.012508 0.212034 0.755254
O O8 0.252987 0.227628 0.205502
O O9 0.001304 0.550709 0.833474
O O10 0.846006 0.463668 0.494333
O O11 0.243527 0.334410 0.434858
O O12 0.482212 0.283204 0.629348
O O13 0.585576 0.275559 0.930914
O O14 0.113326 0.808866 0.578724
O O15 0.411221 0.842569 0.351798
O O16 0.833288 0.142932 0.840716
#
# Coordination Sequence:
#
# PCOD9253503 Si02
#       8
#     4   4   4   4   4   4   4   4
#     4   9  19  37  63  91 116 171 220 252 297 386
#     4  12  23  39  65  98 125 165 211 262 325 367
#     4  10  20  37  64  94 122 165 211 258 312 387
#     4  10  22  41  62  91 127 170 212 256 316 375
#     4  11  23  44  63  93 132 162 213 267 312 377
#     4  11  20  38  65  92 124 167 211 260 317 372
#     4  10  19  39  65  90 122 162 220 258 307 372
#     4  11  22  39  64  93 125 164 209 262 312 372
#
# _framework density 19.801427
#
# number of rings (size 3 to 8) (size 9 to 14) (size 15 to 20)
#    0.000    1.500    2.500    6.000    0.000    0.500 
#    2.250    8.125    0.000    3.000    0.000    0.000 
#    0.000    0.000    0.000    0.000    0.000    0.000 
#
# Total GULP energy -178436.132261 kJ/mol
# GULP energy per Si atom -5576.129133 kJ/mol
# Density = 1.975636 g / cm^3
# Si number density = 19.801427 Si / 1000 Ang^3
#
#
#
# Elastic Constant Matrix: (Units=GPa)
#
#
# Indices 1 2 3 4 5 6 
#
# 1 49.3503 0.6027 -5.5348 0.0000 -9.4702 0.0000
# 2 0.6027 82.9835 33.4345 0.0000 0.0472 0.0000
# 3 -5.5348 33.4345 72.2024 0.0000 -15.0640 0.0000
# 4 0.0000 0.0000 0.0000 47.2881 0.0000 -9.6845
# 5 -9.4702 0.0472 -15.0640 0.0000 18.2085 0.0000
# 6 0.0000 0.0000 0.0000 -9.6845 0.0000 36.2481
#
#
#
# Elastic Compliance Matrix: (Units=1/GPa)
#
#
# Indices 1 2 3 4 5 6 
#
# 1 0.024748 -0.003128 0.007291 0.000000 0.018912 0.000000
# 2 -0.003128 0.015965 -0.009646 0.000000 -0.009648 0.000000
# 3 0.007291 -0.009646 0.023776 0.000000 0.023487 0.000000
# 4 0.000000 0.000000 0.000000 0.022371 0.000000 0.005977
# 5 0.018912 -0.009648 0.023487 0.000000 0.084212 0.000000
# 6 0.000000 0.000000 0.000000 0.005977 0.000000 0.029185
#
#
# Mechanical properties :
#
#
# Convention : Reuss Voigt Hill
#
# Bulk Modulus (GPa) = 18.68311 29.06011 23.87161
# Shear Modulus (GPa) = 21.82806 32.08451 26.95629
#
# Velocity S-wave (km/s) = 3.32376 4.02968 3.69362
# Velocity P-wave (km/s) = 4.91789 6.02982 5.50201
#
# Compressibility (1/GPa) = 0.05352427
#
# Stress axis : x y z
#
# Youngs Moduli (GPa) = 40.40657 62.63657 42.05966
#
# Poissons Ratio (x) = 0.19595 -0.30668
# Poissons Ratio (y) = 0.12640 0.40570
# Poissons Ratio (z) = -0.29462 0.60417
#
# Static dielectric constant tensor:
#      x y z
#    x 1.733740 0.000000 0.012780 
#    y 0.000000 1.723310 0.000000 
#    z 0.012780 0.000000 1.710830 
# 
# From -- ./inp_files/50699.got.cif
#   From: 2010.05.17/outbox.ucp.g08.bks.cvg/sg14_26_cif.got.tgz:50699.got - 2010.06.11 12:31:08.
