data_PCOD9253160
_publ_section_title
;
Structure prediction by ZEFSAII (Michael W. Deem and Ramdas Pophale) SiO2 
 PCOD9253160
Probable space group: P 21/C
;
_chemical_formula_sum "Si O2"
_cell_formula_units_Z 20
_cell_length_a 9.302008
_cell_length_b 7.657370
_cell_length_c 23.530789
_cell_angle_alpha 90.000000
_cell_angle_beta 147.472110
_cell_angle_gamma 90.000000
_cell_volume 901.241148
_symmetry_space_group_name_H-M "P 21/C"
_symmetry_group_IT_number 14
_symmetry_cell_setting 'monoclinic'
loop_
_space_group_symop_operation_xyz
x,y,z
-x,1/2+y,1/2-z
-x,-y,-z
x,1/2-y,1/2+z
loop_
_atom_site_type_symbol
_atom_site_label
_atom_site_fract_x
_atom_site_fract_y
_atom_site_fract_z
Si Si1 0.691876 0.701838 0.164091
Si Si2 0.711214 0.464425 0.753078
Si Si3 0.866807 0.957901 0.895146
Si Si4 0.957506 0.131104 0.808551
Si Si5 0.915988 0.077287 0.532756
O O1 0.711159 0.869749 0.211808
O O2 0.879632 0.543983 0.248037
O O3 0.789879 0.775993 0.136409
O O4 0.393965 0.625435 0.066684
O O5 0.449844 0.482945 0.704907
O O6 0.720000 0.276045 0.725498
O O7 0.973824 0.459118 0.879899
O O8 0.926139 0.756738 0.904651
O O9 0.982165 0.068866 0.881708
O O10 0.000000 0.000000 0.000000
O O11 0.000000 0.000000 0.500000
#
# Coordination Sequence:
#
# PCOD9253160 Si02
#       5
#     4   4   4   4   4
#     4  12  26  50  73 110 153 201 248 311 382 450
#     4  12  25  48  74 107 152 195 257 310 370 448
#     4  12  24  45  75 110 144 197 251 311 371 445
#     4  12  27  48  76 110 154 198 249 315 377 455
#     4  12  26  46  76 112 151 199 258 311 377 448
#
# _framework density 22.191618999999999
#
# number of rings (size 3 to 8) (size 9 to 14) (size 15 to 20)
#    0.000    0.000    6.000    4.800    0.000    1.600 
#    3.600    0.000    0.000    0.000    0.000    0.000 
#    0.000    0.000    0.000    0.000    0.000    0.000 
#
# Total GULP energy -111919.929730 kJ/mol
# GULP energy per Si atom -5595.996487 kJ/mol
# Density = 2.214111 g / cm^3
# Si number density = 22.191619 Si / 1000 Ang^3
#
#
#
# Elastic Constant Matrix: (Units=GPa)
#
#
# Indices 1 2 3 4 5 6 
#
# 1 187.1254 63.2124 64.4788 0.0000 10.8451 0.0000
# 2 63.2124 149.5558 27.1264 0.0000 -4.6332 0.0000
# 3 64.4788 27.1264 84.0171 0.0000 2.3463 0.0000
# 4 0.0000 0.0000 0.0000 29.0839 0.0000 0.0389
# 5 10.8451 -4.6332 2.3463 0.0000 25.4751 0.0000
# 6 0.0000 0.0000 0.0000 0.0389 0.0000 58.0747
#
#
#
# Elastic Compliance Matrix: (Units=1/GPa)
#
#
# Indices 1 2 3 4 5 6 
#
# 1 0.008308 -0.002636 -0.005427 0.000000 -0.003517 0.000000
# 2 -0.002636 0.007997 -0.000632 0.000000 0.002635 0.000000
# 3 -0.005427 -0.000632 0.016252 0.000000 0.000698 0.000000
# 4 0.000000 0.000000 0.000000 0.034383 0.000000 -0.000023
# 5 -0.003517 0.002635 0.000698 0.000000 0.041166 0.000000
# 6 0.000000 0.000000 0.000000 -0.000023 0.000000 0.017219
#
#
# Mechanical properties :
#
#
# Convention : Reuss Voigt Hill
#
# Bulk Modulus (GPa) = 65.93592 81.14817 73.54205
# Shear Modulus (GPa) = 33.83586 40.25211 37.04399
#
# Velocity S-wave (km/s) = 3.90899 4.26354 4.09011
# Velocity P-wave (km/s) = 7.08168 7.80279 7.45096
#
# Compressibility (1/GPa) = 0.01516624
#
# Stress axis : x y z
#
# Youngs Moduli (GPa) = 120.36112 125.04579 61.53159
#
# Poissons Ratio (x) = 0.32966 0.33392
# Poissons Ratio (y) = 0.31731 0.03891
# Poissons Ratio (z) = 0.65318 0.07907
#
# Static dielectric constant tensor:
#      x y z
#    x 1.887260 0.000000 -0.073070 
#    y 0.000000 1.921580 0.000000 
#    z -0.073070 0.000000 1.901270 
# 
# From -- ./inp_files/72114.got.cif
#   From: 2010.05.17/outbox.cif.g08.bks.cpg/sg14_37_cif.got.tgz:72114.got - 2010.06.03 17:49:19.
