data_PCOD9253917
_publ_section_title
;
Structure prediction by ZEFSAII (Michael W. Deem and Ramdas Pophale) SiO2 
 PCOD9253917
Probable space group: C 2/C
;
_chemical_formula_sum "Si O2"
_cell_formula_units_Z 40
_cell_length_a 18.318247
_cell_length_b 7.070191
_cell_length_c 11.683558
_cell_angle_alpha 90.000000
_cell_angle_beta 103.985155
_cell_angle_gamma 90.000000
_cell_volume 1468.325476
_symmetry_space_group_name_H-M "C 2/C"
_symmetry_group_IT_number 15
_symmetry_cell_setting 'monoclinic'
loop_
_space_group_symop_operation_xyz
x,y,z
-x,y,1/2-z
-x,-y,-z
x,-y,1/2+z
1/2+x,1/2+y,z
1/2-x,1/2+y,1/2-z
1/2-x,1/2-y,-z
1/2+x,1/2-y,1/2+z
loop_
_atom_site_type_symbol
_atom_site_label
_atom_site_fract_x
_atom_site_fract_y
_atom_site_fract_z
Si Si1 0.352056 0.167904 0.408815
Si Si2 0.204632 0.959322 0.956644
Si Si3 0.583362 0.336118 0.737439
Si Si4 0.483190 0.728070 0.507436
Si Si5 0.109058 0.747968 0.313360
O O1 0.290427 0.049106 0.452683
O O2 0.317343 0.377568 0.428018
O O3 0.437403 0.172377 0.485241
O O4 0.142692 0.624933 0.224543
O O5 0.154120 0.822156 0.850407
O O6 0.172961 0.163208 0.917260
O O7 0.500000 0.278408 0.750000
O O8 0.581722 0.245168 0.611957
O O9 0.580520 0.565729 0.733240
O O10 0.500000 0.500000 0.500000
O O11 0.454651 0.800022 0.619663
#
# Coordination Sequence:
#
# PCOD9253917 Si02
#       5
#     8   8   8   8   8
#     4  11  18  29  46  71 102 128 157 199 247 285
#     4   9  20  29  43  72 102 128 156 196 248 289
#     4  10  15  26  42  66  94 119 149 192 228 283
#     4  12  15  26  47  74  93 123 156 198 241 282
#     4  10  18  28  47  70 101 123 158 195 244 287
#
# _framework density 27.241914000000001
#
# number of rings (size 3 to 8) (size 9 to 14) (size 15 to 20)
#    1.200    0.400    8.000    0.600    0.000    0.000 
#    0.000    1.000    0.000    0.000    0.000    4.200 
#    0.000    0.200    0.000    0.000    0.000    0.000 
#
# Total GULP energy -111581.836344 kJ/mol
# GULP energy per Si atom -5579.091817 kJ/mol
# Density = 2.717991 g / cm^3
# Si number density = 27.241914 Si / 1000 Ang^3
#
#
#
# Elastic Constant Matrix: (Units=GPa)
#
#
# Indices 1 2 3 4 5 6 
#
# 1 239.7606 31.9187 69.9272 0.0000 -11.3327 0.0000
# 2 31.9187 74.2844 31.6089 0.0000 -0.4031 0.0000
# 3 69.9272 31.6089 88.5416 0.0000 -16.9535 0.0000
# 4 0.0000 0.0000 0.0000 25.2265 0.0000 3.7377
# 5 -11.3327 -0.4031 -16.9535 0.0000 55.2313 0.0000
# 6 0.0000 0.0000 0.0000 3.7377 0.0000 18.8712
#
#
#
# Elastic Compliance Matrix: (Units=1/GPa)
#
#
# Indices 1 2 3 4 5 6 
#
# 1 0.005443 -0.000587 -0.004118 0.000000 -0.000152 0.000000
# 2 -0.000587 0.016093 -0.005612 0.000000 -0.001726 0.000000
# 3 -0.004118 -0.005612 0.017403 0.000000 0.004456 0.000000
# 4 0.000000 0.000000 0.000000 0.040839 0.000000 -0.008089
# 5 -0.000152 -0.001726 0.004456 0.000000 0.019430 0.000000
# 6 0.000000 0.000000 0.000000 -0.008089 0.000000 0.054593
#
#
# Mechanical properties :
#
#
# Convention : Reuss Voigt Hill
#
# Bulk Modulus (GPa) = 54.63076 74.38848 64.50962
# Shear Modulus (GPa) = 27.69541 37.80792 32.75167
#
# Velocity S-wave (km/s) = 3.19195 3.72944 3.47111
# Velocity P-wave (km/s) = 5.80364 6.77576 6.30845
#
# Compressibility (1/GPa) = 0.01830470
#
# Stress axis : x y z
#
# Youngs Moduli (GPa) = 183.72672 62.14068 57.46196
#
# Poissons Ratio (x) = 0.03649 0.23663
# Poissons Ratio (y) = 0.10790 0.32245
# Poissons Ratio (z) = 0.75658 0.34870
#
# Static dielectric constant tensor:
#      x y z
#    x 2.067300 0.000000 -0.012330 
#    y 0.000000 2.269110 0.000000 
#    z -0.012330 0.000000 2.219010 
# 
# From -- ./inp_files/167025.got.cif
#   From: 2010.05.17/outbox.cif.g08.bks.cpg/sg15_84_cif.got.tgz:167025.got - 2010.06.03 18:47:42.
