data_PCOD9253455
_publ_section_title
;
Structure prediction by ZEFSAII (Michael W. Deem and Ramdas Pophale) SiO2 
 PCOD9253455
Probable space group: P 21/C
;
_chemical_formula_sum "Si O2"
_cell_formula_units_Z 32
_cell_length_a 23.049092
_cell_length_b 9.675896
_cell_length_c 10.035852
_cell_angle_alpha 90.000000
_cell_angle_beta 29.948484
_cell_angle_gamma 90.000000
_cell_volume 1117.357693
_symmetry_space_group_name_H-M "P 21/C"
_symmetry_group_IT_number 14
_symmetry_cell_setting 'monoclinic'
loop_
_space_group_symop_operation_xyz
x,y,z
-x,1/2+y,1/2-z
-x,-y,-z
x,1/2-y,1/2+z
loop_
_atom_site_type_symbol
_atom_site_label
_atom_site_fract_x
_atom_site_fract_y
_atom_site_fract_z
Si Si1 0.251598 0.394946 0.707110
Si Si2 0.877885 0.133628 0.667210
Si Si3 0.983178 0.310939 0.671020
Si Si4 0.825317 0.560357 0.869820
Si Si5 0.632237 0.496774 0.882998
Si Si6 0.678905 0.149312 0.505154
Si Si7 0.434745 0.610748 0.438987
Si Si8 0.549436 0.703008 0.871704
O O1 0.172975 0.478914 0.756572
O O2 0.323116 0.522639 0.632073
O O3 0.354571 0.304506 0.437249
O O4 0.186786 0.349360 0.970232
O O5 0.946222 0.172226 0.665562
O O6 0.952229 0.177593 0.388189
O O7 0.765975 0.234575 0.889337
O O8 0.907932 0.434584 0.752981
O O9 0.114428 0.348263 0.365605
O O10 0.712902 0.484956 0.030177
O O11 0.541734 0.515566 0.184391
O O12 0.559511 0.402639 0.926434
O O13 0.731022 0.413094 0.758104
O O14 0.631205 0.647429 0.824333
O O15 0.581828 0.254518 0.624484
O O16 0.472027 0.660718 0.512124
#
# Coordination Sequence:
#
# PCOD9253455 Si02
#       8
#     4   4   4   4   4   4   4   4
#     4   9  18  32  54  82 106 142 181 216 264 322
#     4   9  18  32  59  86 108 140 181 220 272 337
#     4   9  18  34  58  82 107 138 176 230 278 323
#     4   9  18  34  55  75 109 138 179 225 267 321
#     4   9  18  32  50  74 110 144 177 225 263 306
#     4   9  18  32  54  82 106 142 181 216 264 322
#     4   9  18  32  49  80 108 144 183 212 264 311
#     4   9  18  32  50  74 110 144 177 225 263 306
#
# _framework density 28.638995000000001
#
# number of rings (size 3 to 8) (size 9 to 14) (size 15 to 20)
#    0.000    3.000    0.000    0.000    3.500    0.000 
#    2.250    3.125    2.750    3.000    0.000    0.000 
#    0.000    0.000    0.000    0.000    0.000    0.000 
#
# Total GULP energy -178295.678496 kJ/mol
# GULP energy per Si atom -5571.739953 kJ/mol
# Density = 2.857381 g / cm^3
# Si number density = 28.638995 Si / 1000 Ang^3
#
#
#
# Elastic Constant Matrix: (Units=GPa)
#
#
# Indices 1 2 3 4 5 6 
#
# 1 17.6961 -17.1536 -67.8873 0.0000 -35.9458 0.0000
# 2 -17.1536 15.8460 -75.1924 0.0000 -51.9055 0.0000
# 3 -67.8873 -75.1924 -94.4843 0.0000 -77.2641 0.0000
# 4 0.0000 0.0000 0.0000 27.4520 0.0000 -13.0391
# 5 -35.9458 -51.9055 -77.2641 0.0000 17.6921 0.0000
# 6 0.0000 0.0000 0.0000 -13.0391 0.0000 45.4795
#
#
#
# Elastic Compliance Matrix: (Units=1/GPa)
#
#
# Indices 1 2 3 4 5 6 
#
# 1 0.021871 -0.010137 -0.004302 0.000000 -0.004091 0.000000
# 2 -0.010137 0.018112 -0.007381 0.000000 0.000307 0.000000
# 3 -0.004302 -0.007381 0.005083 0.000000 -0.008196 0.000000
# 4 0.000000 0.000000 0.000000 0.042170 0.000000 0.012090
# 5 -0.004091 0.000307 -0.008196 0.000000 0.013318 0.000000
# 6 0.000000 0.000000 0.000000 0.012090 0.000000 0.025454
#
#
# Mechanical properties :
#
#
# Convention : Reuss Voigt Hill
#
# Bulk Modulus (GPa) = 701.20628 -42.37876 329.41376
# Shear Modulus (GPa) = 29.39021 24.74414 27.06717
#
# Velocity S-wave (km/s) = 3.20696 2.94258 3.07761
# Velocity P-wave (km/s) = 16.09620 1.81236 11.30935
#
# Compressibility (1/GPa) = 0.00142611
#
# Stress axis : x y z
#
# Youngs Moduli (GPa) = 45.72295 55.21111 196.71912
#
# Poissons Ratio (x) = 0.55968 0.84624
# Poissons Ratio (y) = 0.46350 1.45206
# Poissons Ratio (z) = 0.19669 0.40753
#
# Static dielectric constant tensor:
#      x y z
#    x 2.400400 0.000000 0.048520 
#    y 0.000000 2.913260 0.000000 
#    z 0.048520 0.000000 2.390470 
# 
# From -- ./inp_files/36243.got.cif
#   From: 2010.05.17/outbox.cif.g08.bks.cpg/sg14_19_cif.got.tgz:36243.got - 2010.06.03 17:49:19.
