data_PCOD9253133
_publ_section_title
;
Structure prediction by ZEFSAII (Michael W. Deem and Ramdas Pophale) SiO2 
 PCOD9253133
Probable space group: P 21/C
;
_chemical_formula_sum "Si O2"
_cell_formula_units_Z 20
_cell_length_a 21.044784
_cell_length_b 5.092779
_cell_length_c 8.181217
_cell_angle_alpha 90.000000
_cell_angle_beta 66.879868
_cell_angle_gamma 90.000000
_cell_volume 806.409528
_symmetry_space_group_name_H-M "P 21/C"
_symmetry_group_IT_number 14
_symmetry_cell_setting 'monoclinic'
loop_
_space_group_symop_operation_xyz
x,y,z
-x,1/2+y,1/2-z
-x,-y,-z
x,1/2-y,1/2+z
loop_
_atom_site_type_symbol
_atom_site_label
_atom_site_fract_x
_atom_site_fract_y
_atom_site_fract_z
Si Si1 0.472680 0.911690 0.852696
Si Si2 0.926714 0.943183 0.991172
Si Si3 0.125210 0.560010 0.119706
Si Si4 0.269559 0.557336 0.785422
Si Si5 0.679954 0.946113 0.102509
O O1 0.513893 0.104420 0.687999
O O2 0.393116 0.980612 0.902072
O O3 0.500000 0.000000 0.000000
O O4 0.871695 0.986537 0.193286
O O5 0.922234 0.655751 0.921308
O O6 0.907972 0.154889 0.872224
O O7 0.000000 0.000000 0.000000
O O8 0.197632 0.547604 0.953528
O O9 0.265211 0.482812 0.599895
O O10 0.317564 0.342092 0.825460
O O11 0.301487 0.844862 0.776498
#
# Coordination Sequence:
#
# PCOD9253133 Si02
#       5
#     4   4   4   4   4
#     4  12  25  43  66  94 127 165 208 260 316 375
#     4  12  24  42  66  96 129 168 211 260 313 372
#     4  12  24  43  65  94 129 168 211 260 313 372
#     4  12  25  43  66  94 127 168 211 260 313 372
#     4  12  24  43  65  94 126 165 211 260 313 375
#
# _framework density 24.801296000000001
#
# number of rings (size 3 to 8) (size 9 to 14) (size 15 to 20)
#    0.000    0.000    0.000   12.000    0.000    0.000 
#    0.000    0.000    0.000    0.000    0.000    0.000 
#    0.000    0.000    0.000    0.000    0.000    0.000 
#
# Total GULP energy -112294.068030 kJ/mol
# GULP energy per Si atom -5614.703402 kJ/mol
# Density = 2.474485 g / cm^3
# Si number density = 24.801296 Si / 1000 Ang^3
#
#
#
# Elastic Constant Matrix: (Units=GPa)
#
#
# Indices 1 2 3 4 5 6 
#
# 1 58.5908 27.6607 -16.5700 0.0000 -5.1589 0.0000
# 2 27.6607 56.6481 -0.8829 0.0000 -12.7458 0.0000
# 3 -16.5700 -0.8829 67.1387 0.0000 9.9667 0.0000
# 4 0.0000 0.0000 0.0000 22.5572 0.0000 4.6233
# 5 -5.1589 -12.7458 9.9667 0.0000 41.1250 0.0000
# 6 0.0000 0.0000 0.0000 4.6233 0.0000 38.1795
#
#
#
# Elastic Compliance Matrix: (Units=1/GPa)
#
#
# Indices 1 2 3 4 5 6 
#
# 1 0.024457 -0.012355 0.006210 0.000000 -0.002266 0.000000
# 2 -0.012355 0.025245 -0.003785 0.000000 0.007191 0.000000
# 3 0.006210 -0.003785 0.017049 0.000000 -0.004526 0.000000
# 4 0.000000 0.000000 0.000000 0.045460 0.000000 -0.005505
# 5 -0.002266 0.007191 -0.004526 0.000000 0.027358 0.000000
# 6 0.000000 0.000000 0.000000 -0.005505 0.000000 0.026859
#
#
# Mechanical properties :
#
#
# Convention : Reuss Voigt Hill
#
# Bulk Modulus (GPa) = 21.32604 22.53257 21.92931
# Shear Modulus (GPa) = 24.76250 31.85034 28.30642
#
# Velocity S-wave (km/s) = 3.16323 3.58749 3.38202
# Velocity P-wave (km/s) = 4.68602 5.12495 4.91039
#
# Compressibility (1/GPa) = 0.04689102
#
# Stress axis : x y z
#
# Youngs Moduli (GPa) = 40.88783 39.61199 58.65348
#
# Poissons Ratio (x) = 0.48942 -0.36424
# Poissons Ratio (y) = 0.50518 0.22200
# Poissons Ratio (z) = -0.25392 0.14993
#
# Static dielectric constant tensor:
#      x y z
#    x 1.910160 0.000000 -0.064560 
#    y 0.000000 1.894590 0.000000 
#    z -0.064560 0.000000 1.985490 
# 
# From -- ./inp_files/17225.got.cif
#   From: 2010.05.17/outbox.cif.g08.bks.cpg/sg14_9_cif.got.tgz:17225.got - 2010.06.03 17:49:19.
