data_PCOD9253523
_publ_section_title
;
Structure prediction by ZEFSAII (Michael W. Deem and Ramdas Pophale) SiO2 
 PCOD9253523
Probable space group: P 21/C
;
_chemical_formula_sum "Si O2"
_cell_formula_units_Z 28
_cell_length_a 9.000000
_cell_length_b 21.000000
_cell_length_c 9.000000
_cell_angle_alpha 90.000000
_cell_angle_beta 50.000000
_cell_angle_gamma 90.000000
_cell_volume 1303.041598
_symmetry_space_group_name_H-M "P 21/C"
_symmetry_group_IT_number 14
_symmetry_cell_setting 'monoclinic'
loop_
_space_group_symop_operation_xyz
x,y,z
-x,1/2+y,1/2-z
-x,-y,-z
x,1/2-y,1/2+z
loop_
_atom_site_type_symbol
_atom_site_label
_atom_site_fract_x
_atom_site_fract_y
_atom_site_fract_z
Si Si1 0.009960 0.668032 0.699910
Si Si2 0.716543 0.444470 0.491154
Si Si3 0.267739 0.660220 0.137759
Si Si4 0.383286 0.529856 0.780784
Si Si5 0.102874 0.971993 0.722206
Si Si6 0.134752 0.777112 0.423420
Si Si7 0.358529 0.086519 0.654312
O O1 0.827577 0.627791 0.764277
O O2 0.198063 0.625453 0.534962
O O3 0.001140 0.733841 0.615919
O O4 0.028605 0.681014 0.865004
O O5 0.512643 0.465392 0.694541
O O6 0.669159 0.449360 0.348445
O O7 0.899669 0.494022 0.391625
O O8 0.110814 0.602551 0.261482
O O9 0.244976 0.723350 0.252624
O O10 0.249837 0.682901 0.975475
O O11 0.466804 0.622898 0.041061
O O12 0.538079 0.578530 0.753141
O O13 0.182947 0.526616 0.001465
O O14 0.278268 0.015076 0.675648
#
# Coordination Sequence:
#
# PCOD9253523 Si02
#       7
#     4   4   4   4   4   4   4
#     4  10  22  39  59  85 118 155 204 242 296 360
#     4  10  22  36  62  90 120 156 191 248 308 355
#     4  10  21  40  61  85 120 157 203 242 296 362
#     4  10  20  36  56  94 120 148 190 237 310 359
#     4  10  21  37  62  91 120 153 193 254 310 352
#     4  10  23  39  60  82 115 171 197 242 292 356
#     4  10  22  36  63  89 116 150 195 257 303 354
#
# _framework density 21.488185999999999
#
# number of rings (size 3 to 8) (size 9 to 14) (size 15 to 20)
#    0.000    2.000    0.000    3.857    6.000    3.429 
#    0.000    0.000    6.286    0.000    0.000    0.000 
#    0.000    0.000    0.000    0.000    0.000    0.000 
#
# Total GULP energy -155942.316799 kJ/mol
# GULP energy per Si atom -5569.368457 kJ/mol
# Density = 2.143928 g / cm^3
# Si number density = 21.488186 Si / 1000 Ang^3
#
#
#
# Elastic Constant Matrix: (Units=GPa)
#
#
# Indices 1 2 3 4 5 6 
#
# 1 89.4510 30.1385 8.6058 0.0000 19.4155 0.0000
# 2 30.1385 100.7911 0.2264 0.0000 5.3373 0.0000
# 3 8.6058 0.2264 42.0971 0.0000 18.3962 0.0000
# 4 0.0000 0.0000 0.0000 32.2871 0.0000 4.7989
# 5 19.4155 5.3373 18.3962 0.0000 37.2970 0.0000
# 6 0.0000 0.0000 0.0000 4.7989 0.0000 25.0862
#
#
#
# Elastic Compliance Matrix: (Units=1/GPa)
#
#
# Indices 1 2 3 4 5 6 
#
# 1 0.013916 -0.003803 0.000132 0.000000 -0.006765 0.000000
# 2 -0.003803 0.011054 0.000694 0.000000 0.000056 0.000000
# 3 0.000132 0.000694 0.030336 0.000000 -0.015131 0.000000
# 4 0.000000 0.000000 0.000000 0.031879 0.000000 -0.006098
# 5 -0.006765 0.000056 -0.015131 0.000000 0.037789 0.000000
# 6 0.000000 0.000000 0.000000 -0.006098 0.000000 0.041029
#
#
# Mechanical properties :
#
#
# Convention : Reuss Voigt Hill
#
# Bulk Modulus (GPa) = 20.26298 34.47564 27.36931
# Shear Modulus (GPa) = 26.53803 31.82528 29.18165
#
# Velocity S-wave (km/s) = 3.51808 3.85263 3.68915
# Velocity P-wave (km/s) = 5.09439 5.98909 5.55976
#
# Compressibility (1/GPa) = 0.04935109
#
# Stress axis : x y z
#
# Youngs Moduli (GPa) = 71.85733 90.46284 32.96418
#
# Poissons Ratio (x) = 0.34406 -0.00435
# Poissons Ratio (y) = 0.27330 -0.02287
# Poissons Ratio (z) = -0.00948 -0.06275
#
# Static dielectric constant tensor:
#      x y z
#    x 1.771600 0.000000 0.062590 
#    y 0.000000 1.835150 0.000000 
#    z 0.062590 0.000000 1.865940 
# 
# From -- ./inp_files/10396.got.cif
#   From: 2010.05.17/outbox.ucp.g08.bks.cvg/sg14_6_cif.got.tgz:10396.got - 2010.06.11 12:31:08.
