data_PCOD9253441
_publ_section_title
;
Structure prediction by ZEFSAII (Michael W. Deem and Ramdas Pophale) SiO2 
 PCOD9253441
Probable space group: P 21/C
;
_chemical_formula_sum "Si O2"
_cell_formula_units_Z 20
_cell_length_a 11.555297
_cell_length_b 7.878449
_cell_length_c 12.085405
_cell_angle_alpha 90.000000
_cell_angle_beta 138.328573
_cell_angle_gamma 90.000000
_cell_volume 731.495909
_symmetry_space_group_name_H-M "P 21/C"
_symmetry_group_IT_number 14
_symmetry_cell_setting 'monoclinic'
loop_
_space_group_symop_operation_xyz
x,y,z
-x,1/2+y,1/2-z
-x,-y,-z
x,1/2-y,1/2+z
loop_
_atom_site_type_symbol
_atom_site_label
_atom_site_fract_x
_atom_site_fract_y
_atom_site_fract_z
Si Si1 0.012661 0.215539 0.136869
Si Si2 0.204442 0.681775 0.708804
Si Si3 0.721056 0.466008 0.010524
Si Si4 0.519114 0.159189 0.789579
Si Si5 0.231445 0.005329 0.879207
O O1 0.916070 0.073320 0.143071
O O2 0.186855 0.308130 0.303474
O O3 0.981860 0.176765 0.986241
O O4 0.880166 0.374730 0.063410
O O5 0.348973 0.654677 0.719592
O O6 0.227538 0.865847 0.779617
O O7 0.235160 0.544097 0.827892
O O8 0.557843 0.335852 0.878443
O O9 0.666108 0.624893 0.897151
O O10 0.587517 0.018366 0.925854
#
# Coordination Sequence:
#
# PCOD9253441 Si02
#       5
#     4   4   4   4   4
#     4   9  18  32  50  73 100 130 164 201 242 288
#     4   8  16  32  54  72  96 130 164 200 242 288
#     4   9  18  32  50  73 100 130 164 201 242 288
#     4   9  18  32  50  73 100 130 164 201 242 288
#     4   9  18  32  50  73 100 130 164 201 242 288
#
# _framework density 27.341235000000001
#
# number of rings (size 3 to 8) (size 9 to 14) (size 15 to 20)
#    0.000    4.000    0.000    1.200    0.000    1.600 
#    0.000   32.000    0.000   38.400    0.000    0.000 
#    0.000    0.000    0.000    0.000    0.000    0.000 
#
# Total GULP energy -111787.359623 kJ/mol
# GULP energy per Si atom -5589.367981 kJ/mol
# Density = 2.727900 g / cm^3
# Si number density = 27.341235 Si / 1000 Ang^3
#
#
#
# Elastic Constant Matrix: (Units=GPa)
#
#
# Indices 1 2 3 4 5 6 
#
# 1 45.8330 14.9747 9.3185 0.0000 -15.3052 0.0000
# 2 14.9747 104.9953 65.8571 0.0000 1.3627 0.0000
# 3 9.3185 65.8571 210.7758 0.0000 -22.9309 0.0000
# 4 0.0000 0.0000 0.0000 36.7644 0.0000 11.9822
# 5 -15.3052 1.3627 -22.9309 0.0000 28.4607 0.0000
# 6 0.0000 0.0000 0.0000 11.9822 0.0000 34.9039
#
#
#
# Elastic Compliance Matrix: (Units=1/GPa)
#
#
# Indices 1 2 3 4 5 6 
#
# 1 0.029313 -0.006018 0.002555 0.000000 0.018110 0.000000
# 2 -0.006018 0.013488 -0.004790 0.000000 -0.007742 0.000000
# 3 0.002555 -0.004790 0.006908 0.000000 0.007169 0.000000
# 4 0.000000 0.000000 0.000000 0.030627 0.000000 -0.010514
# 5 0.018110 -0.007742 0.007169 0.000000 0.051022 0.000000
# 6 0.000000 0.000000 0.000000 -0.010514 0.000000 0.032259
#
#
# Mechanical properties :
#
#
# Convention : Reuss Voigt Hill
#
# Bulk Modulus (GPa) = 30.11973 60.21164 45.16569
# Shear Modulus (GPa) = 26.15179 38.12270 32.13725
#
# Velocity S-wave (km/s) = 3.09608 3.73812 3.43215
# Velocity P-wave (km/s) = 4.88069 6.37977 5.67990
#
# Compressibility (1/GPa) = 0.03320083
#
# Stress axis : x y z
#
# Youngs Moduli (GPa) = 34.11498 74.14118 144.75623
#
# Poissons Ratio (x) = 0.44618 -0.36980
# Poissons Ratio (y) = 0.20531 0.69345
# Poissons Ratio (z) = -0.08715 0.35517
#
# Static dielectric constant tensor:
#      x y z
#    x 2.109940 0.000000 0.095950 
#    y 0.000000 2.217840 0.000000 
#    z 0.095950 0.000000 2.295790 
# 
# From -- ./inp_files/23499.got.cif
#   From: 2010.05.17/outbox.cif.g08.bks.cpg/sg14_12_cif.got.tgz:23499.got - 2010.06.03 17:49:19.
