data_PCOD9253137
_publ_section_title
;
Structure prediction by ZEFSAII (Michael W. Deem and Ramdas Pophale) SiO2 
 PCOD9253137
Probable space group: P 21/C
;
_chemical_formula_sum "Si O2"
_cell_formula_units_Z 26
_cell_length_a 23.333814
_cell_length_b 8.545126
_cell_length_c 12.028773
_cell_angle_alpha 90.000000
_cell_angle_beta 152.605060
_cell_angle_gamma 90.000000
_cell_volume 1103.565061
_symmetry_space_group_name_H-M "P 21/C"
_symmetry_group_IT_number 14
_symmetry_cell_setting 'monoclinic'
loop_
_space_group_symop_operation_xyz
x,y,z
-x,1/2+y,1/2-z
-x,-y,-z
x,1/2-y,1/2+z
loop_
_atom_site_type_symbol
_atom_site_label
_atom_site_fract_x
_atom_site_fract_y
_atom_site_fract_z
Si Si1 0.134967 0.800970 0.579801
Si Si2 0.538837 0.884756 0.668413
Si Si3 0.402936 0.939571 0.005004
Si Si4 0.928411 0.785351 0.568970
Si Si5 0.140765 0.486734 0.695450
Si Si6 0.000000 0.500000 0.000000
Si Si7 0.286588 0.352461 0.129917
O O1 0.260130 0.897519 0.785218
O O2 0.167649 0.617874 0.651281
O O3 0.048002 0.803025 0.322118
O O4 0.067014 0.836986 0.579808
O O5 0.463569 0.722686 0.565837
O O6 0.669555 0.807266 0.853722
O O7 0.500000 0.000000 0.500000
O O8 0.541788 0.987058 0.786511
O O9 0.390794 0.075613 0.890989
O O10 0.852318 0.679562 0.353136
O O11 0.838869 0.817843 0.518152
O O12 0.968689 0.937719 0.571542
O O13 0.000000 0.500000 0.500000
O O14 0.246017 0.482412 0.970794
#
# Coordination Sequence:
#
# PCOD9253137 Si02
#       7
#     4   4   4   4   4   2   4
#     4  12  27  42  74 106 160 194 254 302 389 459
#     4  12  31  54  81 109 148 204 268 335 383 447
#     4  12  29  52  77 114 148 205 263 324 388 457
#     4  12  24  45  69 115 155 199 240 310 377 471
#     4  12  24  43  69 109 154 198 237 301 382 464
#     4  12  24  42  70 112 150 196 244 296 370 462
#     4  12  26  49  78 111 153 202 252 318 387 460
#
# _framework density 23.560006999999999
#
# number of rings (size 3 to 8) (size 9 to 14) (size 15 to 20)
#    0.000    0.000    4.615    4.154    8.615    0.000 
#    0.000    0.000    0.000    0.000    0.000    0.000 
#    0.000    0.000    0.000    0.000    0.000    0.000 
#
# Total GULP energy -144942.620571 kJ/mol
# GULP energy per Si atom -5574.716176 kJ/mol
# Density = 2.350638 g / cm^3
# Si number density = 23.560007 Si / 1000 Ang^3
#
#
#
# Elastic Constant Matrix: (Units=GPa)
#
#
# Indices 1 2 3 4 5 6 
#
# 1 91.0242 24.0126 27.6641 0.0000 -11.4383 0.0000
# 2 24.0126 88.5699 21.1468 0.0000 -12.2338 0.0000
# 3 27.6641 21.1468 81.5407 0.0000 -30.9001 0.0000
# 4 0.0000 0.0000 0.0000 31.6683 0.0000 0.8549
# 5 -11.4383 -12.2338 -30.9001 0.0000 30.3204 0.0000
# 6 0.0000 0.0000 0.0000 0.8549 0.0000 58.3202
#
#
#
# Elastic Compliance Matrix: (Units=1/GPa)
#
#
# Indices 1 2 3 4 5 6 
#
# 1 0.012784 -0.002587 -0.003640 0.000000 0.000069 0.000000
# 2 -0.002587 0.012700 -0.001375 0.000000 0.002747 0.000000
# 3 -0.003640 -0.001375 0.021383 0.000000 0.019864 0.000000
# 4 0.000000 0.000000 0.000000 0.031590 0.000000 -0.000463
# 5 0.000069 0.002747 0.019864 0.000000 0.054359 0.000000
# 6 0.000000 0.000000 0.000000 -0.000463 0.000000 0.017153
#
#
# Mechanical properties :
#
#
# Convention : Reuss Voigt Hill
#
# Bulk Modulus (GPa) = 31.58350 45.19798 38.39074
# Shear Modulus (GPa) = 28.45344 36.61587 32.53465
#
# Velocity S-wave (km/s) = 3.47897 3.94655 3.72011
# Velocity P-wave (km/s) = 5.43804 6.32399 5.89768
#
# Compressibility (1/GPa) = 0.03166210
#
# Stress axis : x y z
#
# Youngs Moduli (GPa) = 78.22565 78.74253 46.76698
#
# Poissons Ratio (x) = 0.20372 0.17022
# Poissons Ratio (y) = 0.20239 0.06429
# Poissons Ratio (z) = 0.28473 0.10825
#
# Static dielectric constant tensor:
#      x y z
#    x 2.040660 0.000000 0.099800 
#    y 0.000000 3.295420 0.000000 
#    z 0.099800 0.000000 1.947260 
# 
# From -- ./inp_files/35827.got.cif
#   From: 2010.05.17/outbox.cif.g08.bks.cpg/sg14_18_cif.got.tgz:35827.got - 2010.06.03 17:49:19.
