data_PCOD9253007
_publ_section_title
;
Structure prediction by ZEFSAII (Michael W. Deem and Ramdas Pophale) SiO2 
 PCOD9253007
Probable space group: P 21/C
;
_chemical_formula_sum "Si O2"
_cell_formula_units_Z 28
_cell_length_a 14.589051
_cell_length_b 9.571059
_cell_length_c 8.037093
_cell_angle_alpha 90.000000
_cell_angle_beta 106.204886
_cell_angle_gamma 90.000000
_cell_volume 1077.653990
_symmetry_space_group_name_H-M "P 21/C"
_symmetry_group_IT_number 14
_symmetry_cell_setting 'monoclinic'
loop_
_space_group_symop_operation_xyz
x,y,z
-x,1/2+y,1/2-z
-x,-y,-z
x,1/2-y,1/2+z
loop_
_atom_site_type_symbol
_atom_site_label
_atom_site_fract_x
_atom_site_fract_y
_atom_site_fract_z
Si Si1 0.742058 0.844544 0.368598
Si Si2 0.047076 0.936204 0.261793
Si Si3 0.247818 0.493710 0.777213
Si Si4 0.050356 0.220342 0.089937
Si Si5 0.585167 0.169342 0.520778
Si Si6 0.308282 0.540025 0.449453
Si Si7 0.555295 0.830343 0.829903
O O1 0.839783 0.766407 0.369270
O O2 0.648793 0.745605 0.298183
O O3 0.750243 0.883509 0.567053
O O4 0.732139 0.980382 0.244863
O O5 0.158783 0.910219 0.287041
O O6 0.011859 0.857455 0.406978
O O7 0.038146 0.102646 0.228811
O O8 0.984121 0.862463 0.088487
O O9 0.352392 0.557517 0.853651
O O10 0.239702 0.497362 0.570037
O O11 0.657041 0.300200 0.529224
O O12 0.497014 0.216185 0.586458
O O13 0.532179 0.119174 0.328813
O O14 0.403106 0.451040 0.534971
#
# Coordination Sequence:
#
# PCOD9253007 Si02
#       7
#     4   4   4   4   4   4   4
#     4  12  29  50  83 115 155 212 268 325 404 478
#     4  11  28  51  83 118 163 207 269 338 412 486
#     4  12  29  49  78 115 158 209 264 332 401 483
#     4  11  28  52  82 120 158 208 268 341 409 487
#     4  12  26  45  73 116 160 205 269 325 396 471
#     4  12  28  48  77 111 165 208 266 333 393 481
#     4  12  25  45  75 111 156 210 261 322 391 471
#
# _framework density 25.982365000000001
#
# number of rings (size 3 to 8) (size 9 to 14) (size 15 to 20)
#    0.000    0.286    2.857    3.857   12.000    3.429 
#    0.000    0.000    0.000    0.000    0.000    0.000 
#    0.000    0.000    0.000    0.000    0.000    0.000 
#
# Total GULP energy -156730.310211 kJ/mol
# GULP energy per Si atom -5597.511079 kJ/mol
# Density = 2.592323 g / cm^3
# Si number density = 25.982365 Si / 1000 Ang^3
#
#
#
# Elastic Constant Matrix: (Units=GPa)
#
#
# Indices 1 2 3 4 5 6 
#
# 1 135.3518 41.0977 29.8882 0.0000 -6.2724 0.0000
# 2 41.0977 102.2842 18.9034 0.0000 -9.1365 0.0000
# 3 29.8882 18.9034 115.0819 0.0000 -1.0156 0.0000
# 4 0.0000 0.0000 0.0000 12.5052 0.0000 23.5713
# 5 -6.2724 -9.1365 -1.0156 0.0000 49.1761 0.0000
# 6 0.0000 0.0000 0.0000 23.5713 0.0000 48.2652
#
#
#
# Elastic Compliance Matrix: (Units=1/GPa)
#
#
# Indices 1 2 3 4 5 6 
#
# 1 0.008754 -0.003149 -0.001752 0.000000 0.000495 0.000000
# 2 -0.003149 0.011385 -0.001037 0.000000 0.001692 0.000000
# 3 -0.001752 -0.001037 0.009313 0.000000 -0.000224 0.000000
# 4 0.000000 0.000000 0.000000 1.006385 0.000000 -0.491489
# 5 0.000495 0.001692 -0.000224 0.000000 0.020708 0.000000
# 6 0.000000 0.000000 0.000000 -0.491489 0.000000 0.260748
#
#
# Mechanical properties :
#
#
# Convention : Reuss Voigt Hill
#
# Bulk Modulus (GPa) = 56.89910 59.16627 58.03268
# Shear Modulus (GPa) = 3.74524 39.51119 21.62822
#
# Velocity S-wave (km/s) = 1.20191 3.90384 2.88830
# Velocity P-wave (km/s) = 4.88598 6.56819 5.78852
#
# Compressibility (1/GPa) = 0.01757497
#
# Stress axis : x y z
#
# Youngs Moduli (GPa) = 114.23038 87.83519 107.37854
#
# Poissons Ratio (x) = 0.27663 0.18811
# Poissons Ratio (y) = 0.35976 0.11138
# Poissons Ratio (z) = 0.20012 0.09110
#
# Static dielectric constant tensor:
#      x y z
#    x 2.007870 0.000000 -0.079440 
#    y 0.000000 2.134250 0.000000 
#    z -0.079440 0.000000 2.084050 
# 
# From -- ./inp_files/15906.got.cif
#   From: 2010.05.17/outbox.cif.g08.bks.cpg/sg14_8_cif.got.tgz:15906.got - 2010.06.03 17:49:19.
