data_PCOD9253868
_publ_section_title
;
Structure prediction by ZEFSAII (Michael W. Deem and Ramdas Pophale) SiO2 
 PCOD9253868
Probable space group: C 2/C
;
_chemical_formula_sum "Si O2"
_cell_formula_units_Z 52
_cell_length_a 14.741549
_cell_length_b 18.381960
_cell_length_c 14.973125
_cell_angle_alpha 90.000000
_cell_angle_beta 38.514343
_cell_angle_gamma 90.000000
_cell_volume 2526.583156
_symmetry_space_group_name_H-M "C 2/C"
_symmetry_group_IT_number 15
_symmetry_cell_setting 'monoclinic'
loop_
_space_group_symop_operation_xyz
x,y,z
-x,y,1/2-z
-x,-y,-z
x,-y,1/2+z
1/2+x,1/2+y,z
1/2-x,1/2+y,1/2-z
1/2-x,1/2-y,-z
1/2+x,1/2-y,1/2+z
loop_
_atom_site_type_symbol
_atom_site_label
_atom_site_fract_x
_atom_site_fract_y
_atom_site_fract_z
Si Si1 0.909437 0.158553 0.474716
Si Si2 0.114852 0.731998 0.738245
Si Si3 0.768914 0.462872 0.677394
Si Si4 0.185058 0.008860 0.050362
Si Si5 0.068135 0.598634 0.879101
Si Si6 0.931600 0.926205 0.513986
Si Si7 0.500000 0.977681 0.250000
O O1 0.778863 0.217672 0.577808
O O2 0.850426 0.085415 0.472455
O O3 0.050960 0.189741 0.314600
O O4 0.962242 0.136952 0.533632
O O5 0.101609 0.682439 0.837310
O O6 0.000000 0.708416 0.750000
O O7 0.667008 0.472576 0.668811
O O8 0.819713 0.545478 0.658743
O O9 0.709487 0.425454 0.812872
O O10 0.909936 0.416900 0.540621
O O11 0.355794 0.986928 0.903767
O O12 0.101438 0.944162 0.063012
O O13 0.063879 0.568020 0.782002
O O14 0.000000 0.000000 0.500000
#
# Coordination Sequence:
#
# PCOD9253868 Si02
#       7
#     8   8   8   8   8   8   4
#     4  11  25  36  58  84 122 160 196 240 305 363
#     4  12  23  39  55  83 121 164 191 239 301 362
#     4  10  20  32  60  90 109 155 201 246 291 356
#     4  10  20  37  59  88 120 156 195 258 297 352
#     4  10  18  33  55  84 119 152 195 237 295 351
#     4  10  21  38  55  80 122 153 199 250 300 343
#     4  10  14  32  56  78 120 150 178 234 300 340
#
# _framework density 20.581154999999999
#
# number of rings (size 3 to 8) (size 9 to 14) (size 15 to 20)
#    0.000    1.538    3.846    2.308    4.308    1.846 
#    0.000    0.000    0.000    0.923    0.000    0.000 
#    0.000    0.000    0.000    0.000    0.000    0.000 
#
# Total GULP energy -144874.314033 kJ/mol
# GULP energy per Si atom -5572.089001 kJ/mol
# Density = 2.053431 g / cm^3
# Si number density = 20.581155 Si / 1000 Ang^3
#
#
#
# Elastic Constant Matrix: (Units=GPa)
#
#
# Indices 1 2 3 4 5 6 
#
# 1 93.7693 34.7294 8.7182 -0.0002 -0.2187 0.0002
# 2 34.7294 47.0900 15.7690 -0.0002 -0.3582 0.0003
# 3 8.7182 15.7690 89.7207 0.0001 -8.4192 0.0002
# 4 -0.0002 -0.0002 0.0001 29.3835 0.0003 5.0622
# 5 -0.2187 -0.3582 -8.4192 0.0003 19.0304 -0.0003
# 6 0.0002 0.0003 0.0002 5.0622 -0.0003 28.8277
#
#
#
# Elastic Compliance Matrix: (Units=1/GPa)
#
#
# Indices 1 2 3 4 5 6 
#
# 1 0.014695 -0.011012 0.000526 0.000000 0.000194 0.000000
# 2 -0.011012 0.030851 -0.004496 0.000000 -0.001535 0.000000
# 3 0.000526 -0.004496 0.012392 0.000000 0.005404 0.000000
# 4 0.000000 0.000000 0.000000 0.035094 -0.000001 -0.006163
# 5 0.000194 -0.001535 0.005404 -0.000001 0.054911 0.000001
# 6 0.000000 0.000000 0.000000 -0.006163 0.000001 0.035771
#
#
# Mechanical properties :
#
#
# Convention : Reuss Voigt Hill
#
# Bulk Modulus (GPa) = 35.74901 38.77923 37.26412
# Shear Modulus (GPa) = 22.42109 26.87254 24.64682
#
# Velocity S-wave (km/s) = 3.30419 3.61735 3.46431
# Velocity P-wave (km/s) = 5.65370 6.02743 5.84356
#
# Compressibility (1/GPa) = 0.02797280
#
# Stress axis : x y z
#
# Youngs Moduli (GPa) = 68.05238 32.41342 80.69760
#
# Poissons Ratio (x) = 0.35694 -0.04243
# Poissons Ratio (y) = 0.74939 0.36284
# Poissons Ratio (z) = -0.03578 0.14574
#
# Static dielectric constant tensor:
#      x y z
#    x 1.765750 0.000000 -0.036170 
#    y 0.000000 1.775700 0.000000 
#    z -0.036170 0.000000 2.049190 
# 
# From -- ./inp_files/155406.got.cif
#   From: 2010.05.17/outbox.cif.g08.bks.cpg/sg15_78_cif.got.tgz:155406.got - 2010.06.03 18:47:42.
