data_PCOD9253880
_publ_section_title
;
Structure prediction by ZEFSAII (Michael W. Deem and Ramdas Pophale) SiO2 
 PCOD9253880
Probable space group: C 2/C
;
_chemical_formula_sum "Si O2"
_cell_formula_units_Z 52
_cell_length_a 8.035695
_cell_length_b 26.766835
_cell_length_c 14.356881
_cell_angle_alpha 90.000000
_cell_angle_beta 41.998891
_cell_angle_gamma 90.000000
_cell_volume 2066.246477
_symmetry_space_group_name_H-M "C 2/C"
_symmetry_group_IT_number 15
_symmetry_cell_setting 'monoclinic'
loop_
_space_group_symop_operation_xyz
x,y,z
-x,y,1/2-z
-x,-y,-z
x,-y,1/2+z
1/2+x,1/2+y,z
1/2-x,1/2+y,1/2-z
1/2-x,1/2-y,-z
1/2+x,1/2-y,1/2+z
loop_
_atom_site_type_symbol
_atom_site_label
_atom_site_fract_x
_atom_site_fract_y
_atom_site_fract_z
Si Si1 0.275805 0.643785 0.960100
Si Si2 0.269498 0.605489 0.482685
Si Si3 0.000000 0.057684 0.750000
Si Si4 0.032014 0.769439 0.413639
Si Si5 0.039296 0.509235 0.873951
Si Si6 0.323000 0.901871 0.704682
Si Si7 0.036734 0.703584 0.893694
O O1 0.031638 0.640477 0.125213
O O2 0.347901 0.591446 0.885300
O O3 0.488281 0.671237 0.928422
O O4 0.218140 0.674376 0.890202
O O5 0.229715 0.600721 0.385973
O O6 0.567497 0.604839 0.365866
O O7 0.138488 0.555548 0.579583
O O8 0.134630 0.657261 0.569051
O O9 0.824003 0.026666 0.756029
O O10 0.750000 0.750000 0.500000
O O11 0.096839 0.742580 0.482254
O O12 0.277092 0.764952 0.248425
O O13 0.000000 0.500000 0.000000
O O14 0.954296 0.545434 0.172008
#
# Coordination Sequence:
#
# PCOD9253880 Si02
#       7
#     8   8   4   8   8   8   8
#     4  10  16  26  40  61  89 125 157 195 239 286
#     4   9  16  28  39  59  97 130 160 188 247 298
#     4  12  14  22  36  56  86 118 158 180 232 286
#     4  10  18  29  49  69  92 121 170 205 255 280
#     4  10  15  21  35  58  88 126 159 182 229 303
#     4   9  17  24  38  60  91 135 159 185 239 303
#     4  10  18  31  47  69  91 134 157 211 247 288
#
# _framework density 25.166409000000002
#
# number of rings (size 3 to 8) (size 9 to 14) (size 15 to 20)
#    0.000    2.154    6.154    3.231    0.000    0.000 
#    0.000    0.000    0.000   24.923    0.000    0.000 
#    0.000    0.000   10.462  115.385    2.154    0.000 
#
# Total GULP energy -145048.376094 kJ/mol
# GULP energy per Si atom -5578.783696 kJ/mol
# Density = 2.510913 g / cm^3
# Si number density = 25.166409 Si / 1000 Ang^3
#
#
#
# Elastic Constant Matrix: (Units=GPa)
#
#
# Indices 1 2 3 4 5 6 
#
# 1 68.1294 14.4577 35.2898 0.0000 5.3930 0.0000
# 2 14.4577 81.2215 52.2892 0.0000 4.8851 0.0000
# 3 35.2898 52.2892 163.6948 0.0000 -17.0351 0.0000
# 4 0.0000 0.0000 0.0000 -3.7705 0.0000 -17.5274
# 5 5.3930 4.8851 -17.0351 0.0000 22.1725 0.0000
# 6 0.0000 0.0000 0.0000 -17.5274 0.0000 -5.0560
#
#
#
# Elastic Compliance Matrix: (Units=1/GPa)
#
#
# Indices 1 2 3 4 5 6 
#
# 1 0.017712 0.000419 -0.004794 0.000000 -0.008083 0.000000
# 2 0.000419 0.016876 -0.006389 0.000000 -0.008729 0.000000
# 3 -0.004794 -0.006389 0.010272 0.000000 0.010466 0.000000
# 4 0.000000 0.000000 0.000000 0.017547 0.000000 -0.060828
# 5 -0.008083 -0.008729 0.010466 0.000000 0.057031 0.000000
# 6 0.000000 0.000000 0.000000 -0.060828 0.000000 0.013085
#
#
# Mechanical properties :
#
#
# Convention : Reuss Voigt Hill
#
# Bulk Modulus (GPa) = 42.85797 57.45767 50.15782
# Shear Modulus (GPa) = 30.89699 16.73649 23.81674
#
# Velocity S-wave (km/s) = 3.50767 2.58162 3.07965
# Velocity P-wave (km/s) = 5.78548 5.63622 5.71134
#
# Compressibility (1/GPa) = 0.02333289
#
# Stress axis : x y z
#
# Youngs Moduli (GPa) = 56.45971 59.25630 97.34742
#
# Poissons Ratio (x) = -0.02485 0.46664
# Poissons Ratio (y) = -0.02368 0.62200
# Poissons Ratio (z) = 0.27064 0.37862
#
# Static dielectric constant tensor:
#      x y z
#    x 1.999630 0.000000 0.111560 
#    y 0.000000 2.089860 0.000000 
#    z 0.111560 0.000000 1.866680 
# 
# From -- ./inp_files/201356.got.cif
#   From: 2010.05.17/outbox.cif.g08.bks.cpg/sg15_101_cif.got.tgz:201356.got - 2010.06.03 18:47:42.
