data_PCOD9253788
_publ_section_title
;
Structure prediction by ZEFSAII (Michael W. Deem and Ramdas Pophale) SiO2 
 PCOD9253788
Probable space group: C 2/C
;
_chemical_formula_sum "Si O2"
_cell_formula_units_Z 32
_cell_length_a 7.787190
_cell_length_b 14.145521
_cell_length_c 11.918395
_cell_angle_alpha 90.000000
_cell_angle_beta 88.524057
_cell_angle_gamma 90.000000
_cell_volume 1312.421641
_symmetry_space_group_name_H-M "C 2/C"
_symmetry_group_IT_number 15
_symmetry_cell_setting 'monoclinic'
loop_
_space_group_symop_operation_xyz
x,y,z
-x,y,1/2-z
-x,-y,-z
x,-y,1/2+z
1/2+x,1/2+y,z
1/2-x,1/2+y,1/2-z
1/2-x,1/2-y,-z
1/2+x,1/2-y,1/2+z
loop_
_atom_site_type_symbol
_atom_site_label
_atom_site_fract_x
_atom_site_fract_y
_atom_site_fract_z
Si Si1 0.125948 0.808487 0.417933
Si Si2 0.678438 0.109391 0.794707
Si Si3 0.719591 0.516702 0.027580
Si Si4 0.430239 0.141257 0.465298
O O1 0.250000 0.750000 0.500000
O O2 0.225432 0.835467 0.303870
O O3 0.968162 0.737740 0.400701
O O4 0.087577 0.907944 0.480634
O O5 0.500000 0.067521 0.750000
O O6 0.798131 0.030620 0.850497
O O7 0.612077 0.167796 0.904323
O O8 0.896186 0.578607 0.038443
O O9 0.778175 0.432604 0.941782
#
# Coordination Sequence:
#
# PCOD9253788 Si02
#       4
#     8   8   8   8
#     4  10  15  24  43  65  93 124 155 194 242 282
#     4  10  14  23  38  62  94 115 149 198 230 279
#     4   8  15  24  36  63  99 109 156 208 221 283
#     4   8  15  25  38  63  96 117 152 202 231 279
#
# _framework density 24.382407000000001
#
# number of rings (size 3 to 8) (size 9 to 14) (size 15 to 20)
#    1.500    1.500    5.000    0.000    0.000    0.000 
#    0.000    0.000    0.000    0.000    0.000   22.750 
#    7.500    0.000    0.000    0.000    0.000    8.250 
#
# Total GULP energy -89131.426791 kJ/mol
# GULP energy per Si atom -5570.714174 kJ/mol
# Density = 2.432691 g / cm^3
# Si number density = 24.382407 Si / 1000 Ang^3
#
#
#
# Elastic Constant Matrix: (Units=GPa)
#
#
# Indices 1 2 3 4 5 6 
#
# 1 95.4916 34.2188 21.3630 0.0000 12.7715 0.0000
# 2 34.2188 157.7357 54.7572 0.0000 -3.8337 0.0000
# 3 21.3630 54.7572 138.5968 0.0000 -21.5494 0.0000
# 4 0.0000 0.0000 0.0000 44.9509 0.0000 -6.1044
# 5 12.7715 -3.8337 -21.5494 0.0000 28.1303 0.0000
# 6 0.0000 0.0000 0.0000 -6.1044 0.0000 29.9475
#
#
#
# Elastic Compliance Matrix: (Units=1/GPa)
#
#
# Indices 1 2 3 4 5 6 
#
# 1 0.012833 -0.002158 -0.002358 0.000000 -0.007927 0.000000
# 2 -0.002158 0.007758 -0.002742 0.000000 -0.000064 0.000000
# 3 -0.002358 -0.002742 0.009956 0.000000 0.008324 0.000000
# 4 0.000000 0.000000 0.000000 0.022880 0.000000 0.004664
# 5 -0.007927 -0.000064 0.008324 0.000000 0.045516 0.000000
# 6 0.000000 0.000000 0.000000 0.004664 0.000000 0.034342
#
#
# Mechanical properties :
#
#
# Convention : Reuss Voigt Hill
#
# Bulk Modulus (GPa) = 62.37962 68.05577 65.21769
# Shear Modulus (GPa) = 32.64850 39.37142 36.00996
#
# Velocity S-wave (km/s) = 3.66323 4.02275 3.84719
# Velocity P-wave (km/s) = 6.59786 7.03911 6.82206
#
# Compressibility (1/GPa) = 0.01603088
#
# Stress axis : x y z
#
# Youngs Moduli (GPa) = 77.92314 128.89287 100.43852
#
# Poissons Ratio (x) = 0.27817 0.23683
# Poissons Ratio (y) = 0.16817 0.27545
# Poissons Ratio (z) = 0.18374 0.35348
#
# Static dielectric constant tensor:
#      x y z
#    x 2.212500 0.000000 0.092300 
#    y 0.000000 2.015050 0.000000 
#    z 0.092300 0.000000 1.927390 
# 
# From -- ./inp_files/132390.got.cif
#   From: 2010.05.17/outbox.cif.g08.bks.cpg/sg15_67_cif.got.tgz:132390.got - 2010.06.03 18:47:42.
