data_PCOD9253076
_publ_section_title
;
Structure prediction by ZEFSAII (Michael W. Deem and Ramdas Pophale) SiO2 
 PCOD9253076
Probable space group: P 21/C
;
_chemical_formula_sum "Si O2"
_cell_formula_units_Z 26
_cell_length_a 8.627082
_cell_length_b 8.532012
_cell_length_c 18.095209
_cell_angle_alpha 90.000000
_cell_angle_beta 52.057103
_cell_angle_gamma 90.000000
_cell_volume 1050.386063
_symmetry_space_group_name_H-M "P 21/C"
_symmetry_group_IT_number 14
_symmetry_cell_setting 'monoclinic'
loop_
_space_group_symop_operation_xyz
x,y,z
-x,1/2+y,1/2-z
-x,-y,-z
x,1/2-y,1/2+z
loop_
_atom_site_type_symbol
_atom_site_label
_atom_site_fract_x
_atom_site_fract_y
_atom_site_fract_z
Si Si1 0.866070 0.606006 0.985518
Si Si2 0.160827 0.402384 0.262194
Si Si3 0.213445 0.435627 0.419520
Si Si4 0.741015 0.394143 0.205795
Si Si5 0.500000 0.500000 0.000000
Si Si6 0.225889 0.778824 0.657386
Si Si7 0.521203 0.681070 0.323640
O O1 0.680831 0.519975 0.006635
O O2 0.027857 0.635977 0.874162
O O3 0.791581 0.762157 0.046820
O O4 0.000000 0.500000 0.000000
O O5 0.232745 0.436338 0.324468
O O6 0.148782 0.559747 0.218286
O O7 0.330477 0.293725 0.175199
O O8 0.956465 0.310721 0.325577
O O9 0.375386 0.556067 0.403155
O O10 0.000000 0.500000 0.500000
O O11 0.696393 0.326722 0.299089
O O12 0.666988 0.573482 0.230111
O O13 0.620707 0.294107 0.181658
O O14 0.598109 0.332546 0.945015
#
# Coordination Sequence:
#
# PCOD9253076 Si02
#       7
#     4   4   4   4   2   4   4
#     4  12  27  46  76 110 154 193 253 314 381 459
#     4  12  26  46  73 108 142 205 243 315 384 460
#     4  12  24  44  73 109 145 191 252 314 378 458
#     4  12  24  47  71 108 143 202 247 309 376 463
#     4  12  28  44  70 110 142 198 242 318 370 438
#     4  12  26  48  71 104 156 186 257 308 386 458
#     4  12  23  42  73 103 139 191 254 293 375 450
#
# _framework density 24.752804000000001
#
# number of rings (size 3 to 8) (size 9 to 14) (size 15 to 20)
#    0.000    0.000    4.615    5.538    4.308    1.231 
#    0.000    0.000    0.000    8.308    0.000    0.000 
#    0.000    0.000    0.000    0.000    0.000    0.000 
#
# Total GULP energy -145233.342763 kJ/mol
# GULP energy per Si atom -5585.897799 kJ/mol
# Density = 2.469647 g / cm^3
# Si number density = 24.752804 Si / 1000 Ang^3
#
#
#
# Elastic Constant Matrix: (Units=GPa)
#
#
# Indices 1 2 3 4 5 6 
#
# 1 117.2265 33.9989 -7.2051 0.0000 -21.1826 0.0000
# 2 33.9989 92.6425 5.1635 0.0000 -3.2860 0.0000
# 3 -7.2051 5.1635 62.3413 0.0000 -15.5802 0.0000
# 4 0.0000 0.0000 0.0000 52.6426 0.0000 -17.8431
# 5 -21.1826 -3.2860 -15.5802 0.0000 37.8321 0.0000
# 6 0.0000 0.0000 0.0000 -17.8431 0.0000 28.8103
#
#
#
# Elastic Compliance Matrix: (Units=1/GPa)
#
#
# Indices 1 2 3 4 5 6 
#
# 1 0.011258 -0.004064 0.003483 0.000000 0.007385 0.000000
# 2 -0.004064 0.012325 -0.001997 0.000000 -0.002027 0.000000
# 3 0.003483 -0.001997 0.019009 0.000000 0.009605 0.000000
# 4 0.000000 0.000000 0.000000 0.024043 0.000000 0.014891
# 5 0.007385 -0.002027 0.009605 0.000000 0.034347 0.000000
# 6 0.000000 0.000000 0.000000 0.014891 0.000000 0.043932
#
#
# Mechanical properties :
#
#
# Convention : Reuss Voigt Hill
#
# Bulk Modulus (GPa) = 26.71172 37.34722 32.02947
# Shear Modulus (GPa) = 30.76016 39.87387 35.31702
#
# Velocity S-wave (km/s) = 3.52901 4.01793 3.78138
# Velocity P-wave (km/s) = 5.23642 6.05359 5.65977
#
# Compressibility (1/GPa) = 0.03743675
#
# Stress axis : x y z
#
# Youngs Moduli (GPa) = 88.82911 81.13655 52.60594
#
# Poissons Ratio (x) = 0.32971 -0.18324
# Poissons Ratio (y) = 0.36097 0.10506
# Poissons Ratio (z) = -0.30942 0.16204
#
# Static dielectric constant tensor:
#      x y z
#    x 1.897710 0.000000 -0.025920 
#    y 0.000000 1.923560 0.000000 
#    z -0.025920 0.000000 2.313510 
# 
# From -- ./inp_files/64980.got.cif
#   From: 2010.05.17/outbox.cif.g08.bks.cpg/sg14_33_cif.got.tgz:64980.got - 2010.06.03 17:49:19.
