data_PCOD9253748
_publ_section_title
;
Structure prediction by ZEFSAII (Michael W. Deem and Ramdas Pophale) SiO2 
 PCOD9253748
Probable space group: P 21/C
;
_chemical_formula_sum "Si O2"
_cell_formula_units_Z 28
_cell_length_a 30.000000
_cell_length_b 9.000000
_cell_length_c 30.000000
_cell_angle_alpha 90.000000
_cell_angle_beta 170.000000
_cell_angle_gamma 90.000000
_cell_volume 1406.550239
_symmetry_space_group_name_H-M "P 21/C"
_symmetry_group_IT_number 14
_symmetry_cell_setting 'monoclinic'
loop_
_space_group_symop_operation_xyz
x,y,z
-x,1/2+y,1/2-z
-x,-y,-z
x,1/2-y,1/2+z
loop_
_atom_site_type_symbol
_atom_site_label
_atom_site_fract_x
_atom_site_fract_y
_atom_site_fract_z
Si Si1 0.239519 0.904843 0.363869
Si Si2 0.273689 0.281809 0.853605
Si Si3 0.750768 0.146971 0.378582
Si Si4 0.800995 0.528158 0.077120
Si Si5 0.697490 0.279787 0.424733
Si Si6 0.746028 0.897699 0.253381
Si Si7 0.742635 0.799006 0.352313
O O1 0.215650 0.993835 0.386719
O O2 0.488732 0.798318 0.612147
O O3 0.267296 0.040532 0.355794
O O4 0.991762 0.799666 0.110922
O O5 0.258982 0.233760 0.787704
O O6 0.025242 0.202352 0.630786
O O7 0.526172 0.208434 0.124969
O O8 0.715250 0.225590 0.391129
O O9 0.742457 0.966129 0.373355
O O10 0.079395 0.601791 0.343540
O O11 0.579530 0.642352 0.843177
O O12 0.748731 0.369492 0.002984
O O13 0.739912 0.832886 0.296918
O O14 0.000000 0.000000 0.500000
O O15 0.500000 0.000000 0.000000
#
# Coordination Sequence:
#
# PCOD9253748 Si02
#       7
#     4   4   4   4   4   4   4
#     4  12  26  44  66 100 141 174 221 281 344 397
#     4  12  23  45  72  93 136 187 218 275 338 403
#     4  12  23  44  70  96 129 186 226 259 338 414
#     4  12  27  47  70 101 139 174 224 282 336 403
#     4  12  26  46  70 102 133 177 223 277 337 404
#     4  12  23  43  67 102 134 173 235 285 326 395
#     4  12  26  41  71 102 134 179 229 281 331 398
#
# _framework density 19.906860999999999
#
# number of rings (size 3 to 8) (size 9 to 14) (size 15 to 20)
#    0.000    0.000    5.714    4.286    4.000    1.143 
#    0.000    0.000    0.000    0.000    0.000    0.000 
#    0.000    0.000    0.000    0.000    0.000    0.000 
#
# Total GULP energy -156718.394374 kJ/mol
# GULP energy per Si atom -5597.085513 kJ/mol
# Density = 1.986155 g / cm^3
# Si number density = 19.906861 Si / 1000 Ang^3
#
#
#
# Elastic Constant Matrix: (Units=GPa)
#
#
# Indices 1 2 3 4 5 6 
#
# 1 31.5126 -22.9429 -8.9324 0.0000 -16.0237 0.0000
# 2 -22.9429 121.0470 48.3655 0.0000 -6.7324 0.0000
# 3 -8.9324 48.3655 155.7842 0.0000 -9.8409 0.0000
# 4 0.0000 0.0000 0.0000 54.3348 0.0000 -5.0773
# 5 -16.0237 -6.7324 -9.8409 0.0000 26.9616 0.0000
# 6 0.0000 0.0000 0.0000 -5.0773 0.0000 56.0179
#
#
#
# Elastic Compliance Matrix: (Units=1/GPa)
#
#
# Indices 1 2 3 4 5 6 
#
# 1 0.063442 0.013519 0.002084 0.000000 0.041841 0.000000
# 2 0.013519 0.012358 -0.002415 0.000000 0.010239 0.000000
# 3 0.002084 -0.002415 0.007501 0.000000 0.003373 0.000000
# 4 0.000000 0.000000 0.000000 0.018562 0.000000 0.001682
# 5 0.041841 0.010239 0.003373 0.000000 0.065745 0.000000
# 6 0.000000 0.000000 0.000000 0.001682 0.000000 0.018004
#
#
# Mechanical properties :
#
#
# Convention : Reuss Voigt Hill
#
# Bulk Modulus (GPa) = 9.11763 37.92492 23.52127
# Shear Modulus (GPa) = 25.53693 46.91976 36.22834
#
# Velocity S-wave (km/s) = 3.58553 4.86012 4.27065
# Velocity P-wave (km/s) = 4.66170 7.11245 6.01325
#
# Compressibility (1/GPa) = 0.10967765
#
# Stress axis : x y z
#
# Youngs Moduli (GPa) = 15.76237 80.91948 133.30877
#
# Poissons Ratio (x) = -1.09397 -0.27775
# Poissons Ratio (y) = -0.21310 0.32191
# Poissons Ratio (z) = -0.03284 0.19540
#
# Static dielectric constant tensor:
#      x y z
#    x 1.741750 0.000000 0.019590 
#    y 0.000000 1.678550 0.000000 
#    z 0.019590 0.000000 1.695410 
# 
# From -- ./inp_files/80880.got.cif
#   From: 2010.05.17/outbox.ucp.g08.bks.cvg/sg14_41_cif.got.tgz:80880.got - 2010.06.11 12:31:08.
