data_PCOD9253343
_publ_section_title
;
Structure prediction by ZEFSAII (Michael W. Deem and Ramdas Pophale) SiO2 
 PCOD9253343
Probable space group: P 21/C
;
_chemical_formula_sum "Si O2"
_cell_formula_units_Z 16
_cell_length_a 8.898607
_cell_length_b 10.943448
_cell_length_c 8.199974
_cell_angle_alpha 90.000000
_cell_angle_beta 52.932814
_cell_angle_gamma 90.000000
_cell_volume 637.166704
_symmetry_space_group_name_H-M "P 21/C"
_symmetry_group_IT_number 14
_symmetry_cell_setting 'monoclinic'
loop_
_space_group_symop_operation_xyz
x,y,z
-x,1/2+y,1/2-z
-x,-y,-z
x,1/2-y,1/2+z
loop_
_atom_site_type_symbol
_atom_site_label
_atom_site_fract_x
_atom_site_fract_y
_atom_site_fract_z
Si Si1 0.433540 0.633161 0.503132
Si Si2 0.710811 0.950950 0.322961
Si Si3 0.190551 0.803006 0.866574
Si Si4 0.781460 0.734105 0.075198
O O1 0.500000 0.500000 0.500000
O O2 0.361175 0.716087 0.698276
O O3 0.258344 0.645190 0.494352
O O4 0.619954 0.683383 0.296823
O O5 0.734785 0.879386 0.134374
O O6 0.769584 0.852959 0.423274
O O7 0.500000 0.000000 0.500000
O O8 0.825666 0.077963 0.239266
O O9 0.997162 0.729729 0.993930
#
# Coordination Sequence:
#
# PCOD9253343 Si02
#       4
#     4   4   4   4
#     4  12  29  52  83 118 164 211 267 334 405 477
#     4  12  26  51  82 112 165 209 270 332 405 476
#     4  12  29  53  81 120 159 215 271 328 405 486
#     4  12  27  52  79 116 162 210 266 333 402 471
#
# _framework density 25.111169
#
# number of rings (size 3 to 8) (size 9 to 14) (size 15 to 20)
#    0.000    0.000    5.000    2.250   10.500    1.000 
#    4.500    0.000    0.000    0.000    0.000    0.000 
#    0.000    0.000    0.000    0.000    0.000    0.000 
#
# Total GULP energy -89436.115202 kJ/mol
# GULP energy per Si atom -5589.757200 kJ/mol
# Density = 2.505402 g / cm^3
# Si number density = 25.111169 Si / 1000 Ang^3
#
#
#
# Elastic Constant Matrix: (Units=GPa)
#
#
# Indices 1 2 3 4 5 6 
#
# 1 161.1540 64.8981 44.5168 0.0000 -19.6549 0.0000
# 2 64.8981 128.5929 18.6604 0.0000 -4.9205 0.0000
# 3 44.5168 18.6604 81.1656 0.0000 -36.6882 0.0000
# 4 0.0000 0.0000 0.0000 34.2072 0.0000 13.9665
# 5 -19.6549 -4.9205 -36.6882 0.0000 31.3318 0.0000
# 6 0.0000 0.0000 0.0000 13.9665 0.0000 42.4689
#
#
#
# Elastic Compliance Matrix: (Units=1/GPa)
#
#
# Indices 1 2 3 4 5 6 
#
# 1 0.008879 -0.003923 -0.003673 0.000000 0.000653 0.000000
# 2 -0.003923 0.009833 -0.001112 0.000000 -0.002219 0.000000
# 3 -0.003673 -0.001112 0.028617 0.000000 0.031031 0.000000
# 4 0.000000 0.000000 0.000000 0.033768 0.000000 -0.011105
# 5 0.000653 -0.002219 0.031031 0.000000 0.068314 0.000000
# 6 0.000000 0.000000 0.000000 -0.011105 0.000000 0.027199
#
#
# Mechanical properties :
#
#
# Convention : Reuss Voigt Hill
#
# Bulk Modulus (GPa) = 33.42953 69.67367 51.55160
# Shear Modulus (GPa) = 24.51029 37.79070 31.15050
#
# Velocity S-wave (km/s) = 3.12760 3.88356 3.52590
# Velocity P-wave (km/s) = 5.13654 6.92212 6.09507
#
# Compressibility (1/GPa) = 0.02991367
#
# Stress axis : x y z
#
# Youngs Moduli (GPa) = 112.61966 101.69925 34.94446
#
# Poissons Ratio (x) = 0.39900 0.12834
# Poissons Ratio (y) = 0.44184 0.03885
# Poissons Ratio (z) = 0.41362 0.11306
#
# Static dielectric constant tensor:
#      x y z
#    x 2.104080 0.000000 0.105070 
#    y 0.000000 2.277770 0.000000 
#    z 0.105070 0.000000 2.028830 
# 
# From -- ./inp_files/7780.got.cif
#   From: 2010.05.17/outbox.cif.g08.bks.cpg/sg14_4_cif.got.tgz:7780.got - 2010.06.03 17:49:19.
