data_PCOD9253717
_publ_section_title
;
Structure prediction by ZEFSAII (Michael W. Deem and Ramdas Pophale) SiO2 
 PCOD9253717
Probable space group: P 21/C
;
_chemical_formula_sum "Si O2"
_cell_formula_units_Z 24
_cell_length_a 21.000000
_cell_length_b 12.000000
_cell_length_c 27.000000
_cell_angle_alpha 90.000000
_cell_angle_beta 10.000000
_cell_angle_gamma 90.000000
_cell_volume 1181.502201
_symmetry_space_group_name_H-M "P 21/C"
_symmetry_group_IT_number 14
_symmetry_cell_setting 'monoclinic'
loop_
_space_group_symop_operation_xyz
x,y,z
-x,1/2+y,1/2-z
-x,-y,-z
x,1/2-y,1/2+z
loop_
_atom_site_type_symbol
_atom_site_label
_atom_site_fract_x
_atom_site_fract_y
_atom_site_fract_z
Si Si1 0.421120 0.473587 0.191218
Si Si2 0.798984 0.559620 0.106640
Si Si3 0.241592 0.731146 0.579398
Si Si4 0.195352 0.350912 0.174138
Si Si5 0.879406 0.256584 0.711397
Si Si6 0.631499 0.517585 0.654685
O O1 0.508841 0.502685 0.181580
O O2 0.000000 0.500000 0.500000
O O3 0.523483 0.344693 0.104416
O O4 0.643317 0.548170 0.982236
O O5 0.473019 0.624981 0.384103
O O6 0.646358 0.477217 0.179794
O O7 0.000000 0.500000 0.000000
O O8 0.992517 0.657278 0.924343
O O9 0.140261 0.719791 0.715411
O O10 0.940280 0.734629 0.765260
O O11 0.883282 0.411151 0.446388
O O12 0.496312 0.299083 0.980697
O O13 0.144282 0.366090 0.510734
#
# Coordination Sequence:
#
# PCOD9253717 Si02
#       6
#     4   4   4   4   4   4
#     4  12  21  41  67  97 131 174 226 279 327 400
#     4  11  27  46  64  99 137 173 217 277 336 397
#     4  11  25  41  65  99 130 174 222 268 343 392
#     4  11  24  40  67  98 131 172 225 283 326 399
#     4  12  23  44  68  96 129 179 218 271 340 395
#     4  11  23  42  67  97 133 170 228 269 328 402
#
# _framework density 20.313123000000001
#
# number of rings (size 3 to 8) (size 9 to 14) (size 15 to 20)
#    0.000    0.667    5.000    2.500    2.333    2.000 
#    3.000    0.000    0.000    0.000    0.000    0.000 
#    0.000    0.000    0.000    0.000    0.000    0.000 
#
# Total GULP energy -133937.146350 kJ/mol
# GULP energy per Si atom -5580.714431 kJ/mol
# Density = 2.026689 g / cm^3
# Si number density = 20.313123 Si / 1000 Ang^3
#
#
#
# Elastic Constant Matrix: (Units=GPa)
#
#
# Indices 1 2 3 4 5 6 
#
# 1 185.9368 28.0680 23.4943 0.0000 -9.7666 0.0000
# 2 28.0680 68.6313 10.1639 0.0000 -18.9654 0.0000
# 3 23.4943 10.1639 30.9454 0.0000 -13.1187 0.0000
# 4 0.0000 0.0000 0.0000 28.6580 0.0000 -2.4708
# 5 -9.7666 -18.9654 -13.1187 0.0000 54.4033 0.0000
# 6 0.0000 0.0000 0.0000 -2.4708 0.0000 53.1988
#
#
#
# Elastic Compliance Matrix: (Units=1/GPa)
#
#
# Indices 1 2 3 4 5 6 
#
# 1 0.006201 -0.002078 -0.004300 0.000000 -0.000648 0.000000
# 2 -0.002078 0.017118 -0.001863 0.000000 0.005145 0.000000
# 3 -0.004300 -0.001863 0.039642 0.000000 0.008138 0.000000
# 4 0.000000 0.000000 0.000000 0.035035 0.000000 0.001627
# 5 -0.000648 0.005145 0.008138 0.000000 0.022021 0.000000
# 6 0.000000 0.000000 0.000000 0.001627 0.000000 0.018873
#
#
# Mechanical properties :
#
#
# Convention : Reuss Voigt Hill
#
# Bulk Modulus (GPa) = 21.51588 45.44066 33.47827
# Shear Modulus (GPa) = 29.26270 42.17117 35.71693
#
# Velocity S-wave (km/s) = 3.79962 4.56132 4.19778
# Velocity P-wave (km/s) = 5.46485 7.08234 6.32551
#
# Compressibility (1/GPa) = 0.04647730
#
# Stress axis : x y z
#
# Youngs Moduli (GPa) = 161.25826 58.41685 25.22600
#
# Poissons Ratio (x) = 0.12141 0.10848
# Poissons Ratio (y) = 0.33516 0.04700
# Poissons Ratio (z) = 0.69345 0.10885
#
# Static dielectric constant tensor:
#      x y z
#    x 1.720760 0.000000 -0.016260 
#    y 0.000000 1.711960 0.000000 
#    z -0.016260 0.000000 1.816380 
# 
# From -- ./inp_files/44602.got.cif
#   From: 2010.05.17/outbox.ucp.g08.bks.cvg/sg14_23_cif.got.tgz:44602.got - 2010.06.11 12:31:08.
