data_PCOD9253584
_publ_section_title
;
Structure prediction by ZEFSAII (Michael W. Deem and Ramdas Pophale) SiO2 
 PCOD9253584
Probable space group: P 21/C
;
_chemical_formula_sum "Si O2"
_cell_formula_units_Z 28
_cell_length_a 15.000000
_cell_length_b 9.000000
_cell_length_c 18.000000
_cell_angle_alpha 90.000000
_cell_angle_beta 140.000000
_cell_angle_gamma 90.000000
_cell_volume 1561.973892
_symmetry_space_group_name_H-M "P 21/C"
_symmetry_group_IT_number 14
_symmetry_cell_setting 'monoclinic'
loop_
_space_group_symop_operation_xyz
x,y,z
-x,1/2+y,1/2-z
-x,-y,-z
x,1/2-y,1/2+z
loop_
_atom_site_type_symbol
_atom_site_label
_atom_site_fract_x
_atom_site_fract_y
_atom_site_fract_z
Si Si1 0.592995 0.307851 0.812833
Si Si2 0.607863 0.109248 0.963366
Si Si3 0.694476 0.442373 0.735225
Si Si4 0.561275 0.915988 0.390913
Si Si5 0.846240 0.578140 0.154559
Si Si6 0.349704 0.649525 0.884492
Si Si7 0.856880 0.572051 0.704714
O O1 0.638864 0.180479 0.901600
O O2 0.700503 0.395919 0.826626
O O3 0.487734 0.225009 0.689267
O O4 0.528072 0.437620 0.821789
O O5 0.459720 0.020528 0.871088
O O6 0.598744 0.253476 0.011836
O O7 0.732927 0.004555 0.075067
O O8 0.708100 0.282522 0.703898
O O9 0.803183 0.540795 0.755739
O O10 0.724876 0.914011 0.514240
O O11 0.473976 0.914893 0.412415
O O12 0.767828 0.468327 0.164347
O O13 0.865852 0.749450 0.195078
O O14 0.993719 0.506129 0.220918
#
# Coordination Sequence:
#
# PCOD9253584 Si02
#       7
#     4   4   4   4   4   4   4
#     4  11  22  36  63  90 129 155 205 252 317 357
#     4  11  20  39  63  92 125 162 206 265 306 363
#     4  10  21  40  61  96 125 166 204 261 308 370
#     4  11  23  38  64  94 124 160 206 260 309 374
#     4  12  24  40  65  95 122 170 210 259 307 373
#     4  10  21  37  64  91 123 154 216 258 304 363
#     4  11  24  40  65  87 130 161 215 255 315 363
#
# _framework density 17.926036
#
# number of rings (size 3 to 8) (size 9 to 14) (size 15 to 20)
#    0.000    1.143    2.857    6.429    2.000    0.000 
#    0.000    0.714    3.143    2.571    0.000    0.000 
#    0.000    0.000    0.000    0.000    0.000    0.000 
#
# Total GULP energy -156031.085723 kJ/mol
# GULP energy per Si atom -5572.538776 kJ/mol
# Density = 1.788524 g / cm^3
# Si number density = 17.926036 Si / 1000 Ang^3
#
#
#
# Elastic Constant Matrix: (Units=GPa)
#
#
# Indices 1 2 3 4 5 6 
#
# 1 150.1068 62.2890 52.6439 0.0000 1.3632 0.0000
# 2 62.2890 147.4939 33.3318 0.0000 3.9359 0.0000
# 3 52.6439 33.3318 62.2834 0.0000 1.5346 0.0000
# 4 0.0000 0.0000 0.0000 38.8716 0.0000 -4.8131
# 5 1.3632 3.9359 1.5346 0.0000 42.9430 0.0000
# 6 0.0000 0.0000 0.0000 -4.8131 0.0000 54.4998
#
#
#
# Elastic Compliance Matrix: (Units=1/GPa)
#
#
# Indices 1 2 3 4 5 6 
#
# 1 0.010350 -0.002728 -0.007293 0.000000 0.000182 0.000000
# 2 -0.002728 0.008445 -0.002199 0.000000 -0.000609 0.000000
# 3 -0.007293 -0.002199 0.023406 0.000000 -0.000403 0.000000
# 4 0.000000 0.000000 0.000000 0.026010 0.000000 0.002297
# 5 0.000182 -0.000609 -0.000403 0.000000 0.023351 0.000000
# 6 0.000000 0.000000 0.000000 0.002297 0.000000 0.018552
#
#
# Mechanical properties :
#
#
# Convention : Reuss Voigt Hill
#
# Bulk Modulus (GPa) = 56.29814 72.93481 64.61647
# Shear Modulus (GPa) = 35.59388 41.37084 38.48236
#
# Velocity S-wave (km/s) = 4.46084 4.80923 4.63831
# Velocity P-wave (km/s) = 7.61617 8.46246 8.05044
#
# Compressibility (1/GPa) = 0.01776258
#
# Stress axis : x y z
#
# Youngs Moduli (GPa) = 96.62046 118.41232 42.72335
#
# Poissons Ratio (x) = 0.32299 0.31157
# Poissons Ratio (y) = 0.26355 0.09395
# Poissons Ratio (z) = 0.70462 0.26039
#
# Static dielectric constant tensor:
#      x y z
#    x 1.641120 0.000000 -0.039580 
#    y 0.000000 1.658490 0.000000 
#    z -0.039580 0.000000 1.642230 
# 
# From -- ./inp_files/59094.got.cif
#   From: 2010.05.17/outbox.ucp.g08.bks.cvg/sg14_30_cif.got.tgz:59094.got - 2010.06.11 12:31:08.
