data_PCOD9253359
_publ_section_title
;
Structure prediction by ZEFSAII (Michael W. Deem and Ramdas Pophale) SiO2 
 PCOD9253359
Probable space group: P 21/C
;
_chemical_formula_sum "Si O2"
_cell_formula_units_Z 16
_cell_length_a 8.817573
_cell_length_b 7.436069
_cell_length_c 20.346020
_cell_angle_alpha 90.000000
_cell_angle_beta 153.787445
_cell_angle_gamma 90.000000
_cell_volume 589.252936
_symmetry_space_group_name_H-M "P 21/C"
_symmetry_group_IT_number 14
_symmetry_cell_setting 'monoclinic'
loop_
_space_group_symop_operation_xyz
x,y,z
-x,1/2+y,1/2-z
-x,-y,-z
x,1/2-y,1/2+z
loop_
_atom_site_type_symbol
_atom_site_label
_atom_site_fract_x
_atom_site_fract_y
_atom_site_fract_z
Si Si1 0.162821 0.180877 0.750496
Si Si2 0.589145 0.441397 0.834022
Si Si3 0.442115 0.215468 0.487767
Si Si4 0.426237 0.686199 0.315998
O O1 0.481516 0.277267 0.839045
O O2 0.808394 0.281676 0.600113
O O3 0.162555 0.973464 0.729337
O O4 0.181735 0.197023 0.836103
O O5 0.455364 0.390110 0.709325
O O6 0.370442 0.609467 0.773557
O O7 0.000000 0.500000 0.000000
O O8 0.388432 0.280484 0.541518
O O9 0.500000 0.000000 0.500000
#
# Coordination Sequence:
#
# PCOD9253359 Si02
#       4
#     4   4   4   4
#     4  12  27  51  78 116 157 211 259 338 404 469
#     4  12  28  49  77 114 161 207 270 325 395 493
#     4  12  27  50  82 117 161 205 275 331 398 483
#     4  12  27  47  77 112 156 204 263 321 404 464
#
# _framework density 27.153023999999998
#
# number of rings (size 3 to 8) (size 9 to 14) (size 15 to 20)
#    0.000    0.000    5.000    3.750    3.500    3.000 
#    0.000    0.000    0.000    0.000    0.000    0.000 
#    0.000    0.000    0.000    0.000    0.000    0.000 
#
# Total GULP energy -89275.486928 kJ/mol
# GULP energy per Si atom -5579.717933 kJ/mol
# Density = 2.709122 g / cm^3
# Si number density = 27.153024 Si / 1000 Ang^3
#
#
#
# Elastic Constant Matrix: (Units=GPa)
#
#
# Indices 1 2 3 4 5 6 
#
# 1 187.0065 51.2300 58.0100 0.0000 -41.1670 0.0000
# 2 51.2300 133.1524 15.0170 0.0000 5.6929 0.0000
# 3 58.0100 15.0170 69.5215 0.0000 11.7161 0.0000
# 4 0.0000 0.0000 0.0000 24.5770 0.0000 -9.2383
# 5 -41.1670 5.6929 11.7161 0.0000 56.3840 0.0000
# 6 0.0000 0.0000 0.0000 -9.2383 0.0000 76.6675
#
#
#
# Elastic Compliance Matrix: (Units=1/GPa)
#
#
# Indices 1 2 3 4 5 6 
#
# 1 0.012899 -0.004142 -0.011944 0.000000 0.012318 0.000000
# 2 -0.004142 0.009039 0.002246 0.000000 -0.004404 0.000000
# 3 -0.011944 0.002246 0.026294 0.000000 -0.014411 0.000000
# 4 0.000000 0.000000 0.000000 0.042619 0.000000 0.005136
# 5 0.012318 -0.004404 -0.014411 0.000000 0.030168 0.000000
# 6 0.000000 0.000000 0.000000 0.005136 0.000000 0.013662
#
#
# Mechanical properties :
#
#
# Convention : Reuss Voigt Hill
#
# Bulk Modulus (GPa) = 48.65947 70.91049 59.78498
# Shear Modulus (GPa) = 29.54864 49.22058 39.38461
#
# Velocity S-wave (km/s) = 3.30241 4.26221 3.81263
# Velocity P-wave (km/s) = 5.70093 7.09886 6.43795
#
# Compressibility (1/GPa) = 0.02055099
#
# Stress axis : x y z
#
# Youngs Moduli (GPa) = 77.52548 110.63261 38.03149
#
# Poissons Ratio (x) = 0.45829 0.45426
# Poissons Ratio (y) = 0.32114 -0.08543
# Poissons Ratio (z) = 0.92598 -0.24850
#
# Static dielectric constant tensor:
#      x y z
#    x 2.081980 0.000000 0.097690 
#    y 0.000000 2.047890 0.000000 
#    z 0.097690 0.000000 2.189200 
# 
# From -- ./inp_files/64940.got.cif
#   From: 2010.05.17/outbox.cif.g08.bks.cpg/sg14_33_cif.got.tgz:64940.got - 2010.06.03 17:49:19.
