data_PCOD9253187
_publ_section_title
;
Structure prediction by ZEFSAII (Michael W. Deem and Ramdas Pophale) SiO2 
 PCOD9253187
Probable space group: P 21/C
;
_chemical_formula_sum "Si O2"
_cell_formula_units_Z 18
_cell_length_a 11.807706
_cell_length_b 4.797927
_cell_length_c 18.951901
_cell_angle_alpha 90.000000
_cell_angle_beta 37.639167
_cell_angle_gamma 90.000000
_cell_volume 655.677611
_symmetry_space_group_name_H-M "P 21/C"
_symmetry_group_IT_number 14
_symmetry_cell_setting 'monoclinic'
loop_
_space_group_symop_operation_xyz
x,y,z
-x,1/2+y,1/2-z
-x,-y,-z
x,1/2-y,1/2+z
loop_
_atom_site_type_symbol
_atom_site_label
_atom_site_fract_x
_atom_site_fract_y
_atom_site_fract_z
Si Si1 0.347565 0.897431 0.730000
Si Si2 0.817894 0.251521 0.411004
Si Si3 0.247366 0.120138 0.187262
Si Si4 0.252388 0.245191 0.464230
Si Si5 0.000000 0.500000 0.500000
O O1 0.278608 0.608203 0.731870
O O2 0.549549 0.839945 0.662537
O O3 0.195527 0.006973 0.858619
O O4 0.365509 0.116801 0.655668
O O5 0.722091 0.430264 0.397203
O O6 0.775654 0.426660 0.502919
O O7 0.037845 0.241325 0.287676
O O8 0.767292 0.936179 0.454419
O O9 0.071397 0.216096 0.507502
#
# Coordination Sequence:
#
# PCOD9253187 Si02
#       5
#     4   4   4   4   2
#     4  12  28  48  81 119 158 217 274 334 409 482
#     4  12  24  48  80 117 160 208 263 333 420 484
#     4  12  24  48  80 117 162 211 261 336 417 483
#     4  12  28  48  81 118 157 214 273 335 407 485
#     4  12  28  58  76 114 170 214 274 348 388 488
#
# _framework density 27.452518999999999
#
# number of rings (size 3 to 8) (size 9 to 14) (size 15 to 20)
#    0.000    0.000    4.444    5.333    0.000   12.444 
#    0.000    0.000    0.000    0.000    0.000    0.000 
#    0.000    0.000    0.000    0.000    0.000    0.000 
#
# Total GULP energy -100336.999828 kJ/mol
# GULP energy per Si atom -5574.277768 kJ/mol
# Density = 2.739004 g / cm^3
# Si number density = 27.452519 Si / 1000 Ang^3
#
#
#
# Elastic Constant Matrix: (Units=GPa)
#
#
# Indices 1 2 3 4 5 6 
#
# 1 94.8585 53.8061 41.5613 0.0000 -21.7264 0.0000
# 2 53.8061 145.4981 22.4621 0.0000 -5.3056 0.0000
# 3 41.5613 22.4621 98.8443 0.0000 -16.0523 0.0000
# 4 0.0000 0.0000 0.0000 36.9356 0.0000 14.0212
# 5 -21.7264 -5.3056 -16.0523 0.0000 26.0698 0.0000
# 6 0.0000 0.0000 0.0000 14.0212 0.0000 57.5105
#
#
#
# Elastic Compliance Matrix: (Units=1/GPa)
#
#
# Indices 1 2 3 4 5 6 
#
# 1 0.018364 -0.005669 -0.004595 0.000000 0.011321 0.000000
# 2 -0.005669 0.008879 -0.000120 0.000000 -0.002991 0.000000
# 3 -0.004595 -0.000120 0.012722 0.000000 0.003980 0.000000
# 4 0.000000 0.000000 0.000000 0.029835 0.000000 -0.007274
# 5 0.011321 -0.002991 0.003980 0.000000 0.049636 0.000000
# 6 0.000000 0.000000 0.000000 -0.007274 0.000000 0.019162
#
#
# Mechanical properties :
#
#
# Convention : Reuss Voigt Hill
#
# Bulk Modulus (GPa) = 52.08803 63.87333 57.98068
# Shear Modulus (GPa) = 30.16341 38.86126 34.51234
#
# Velocity S-wave (km/s) = 3.31833 3.76650 3.54950
# Velocity P-wave (km/s) = 5.80490 6.49867 6.16156
#
# Compressibility (1/GPa) = 0.01919827
#
# Stress axis : x y z
#
# Youngs Moduli (GPa) = 54.45536 112.62844 78.60117
#
# Poissons Ratio (x) = 0.63847 0.36114
# Poissons Ratio (y) = 0.30870 0.00942
# Poissons Ratio (z) = 0.25020 0.01350
#
# Static dielectric constant tensor:
#      x y z
#    x 2.399840 0.000000 0.138660 
#    y 0.000000 2.046660 0.000000 
#    z 0.138660 0.000000 2.124290 
# 
# From -- ./inp_files/56389.got.cif
#   From: 2010.05.17/outbox.cif.g08.bks.cpg/sg14_29_cif.got.tgz:56389.got - 2010.06.03 17:49:19.
