data_PCOD9253763
_publ_section_title
;
Structure prediction by ZEFSAII (Michael W. Deem and Ramdas Pophale) SiO2 
 PCOD9253763
Probable space group: C 2/C
;
_chemical_formula_sum "Si O2"
_cell_formula_units_Z 44
_cell_length_a 11.237741
_cell_length_b 15.783157
_cell_length_c 24.837672
_cell_angle_alpha 90.000000
_cell_angle_beta 25.409660
_cell_angle_gamma 90.000000
_cell_volume 1890.294947
_symmetry_space_group_name_H-M "C 2/C"
_symmetry_group_IT_number 15
_symmetry_cell_setting 'monoclinic'
loop_
_space_group_symop_operation_xyz
x,y,z
-x,y,1/2-z
-x,-y,-z
x,-y,1/2+z
1/2+x,1/2+y,z
1/2-x,1/2+y,1/2-z
1/2-x,1/2-y,-z
1/2+x,1/2-y,1/2+z
loop_
_atom_site_type_symbol
_atom_site_label
_atom_site_fract_x
_atom_site_fract_y
_atom_site_fract_z
Si Si1 0.745097 0.377349 0.542666
Si Si2 0.143453 0.191914 0.833570
Si Si3 0.190030 0.756138 0.841923
Si Si4 0.120505 0.550535 0.620840
Si Si5 0.813582 0.121809 0.058690
Si Si6 0.000000 0.833355 0.750000
O O1 0.528327 0.312865 0.602986
O O2 0.795909 0.447731 0.476562
O O3 0.629320 0.390056 0.649572
O O4 0.030602 0.325935 0.429177
O O5 0.105946 0.224042 0.788175
O O6 0.370128 0.115000 0.735082
O O7 0.278998 0.267735 0.813681
O O8 0.876583 0.159064 0.974279
O O9 0.248709 0.811517 0.869909
O O10 0.386001 0.584327 0.545562
O O11 0.086637 0.452658 0.650084
#
# Coordination Sequence:
#
# PCOD9253763 Si02
#       6
#     8   8   8   8   8   4
#     4   8  13  21  32  56  82 112 137 178 208 272
#     4  10  15  24  39  61  91 118 137 181 227 253
#     4   8  14  22  35  56  84 111 148 172 218 267
#     4   9  17  23  35  59  94 115 142 171 228 272
#     4  10  15  25  38  58  94 119 137 178 225 266
#     4  10  12  20  40  54  82 120 138 164 226 256
#
# _framework density 23.276792
#
# number of rings (size 3 to 8) (size 9 to 14) (size 15 to 20)
#    0.000    2.909    3.636    2.182    0.000    0.000 
#    0.000    0.000    0.000    0.000    0.000    5.091 
#   21.818   10.182    0.000    0.182    0.000    0.000 
#
# Total GULP energy -122814.376182 kJ/mol
# GULP energy per Si atom -5582.471645 kJ/mol
# Density = 2.322381 g / cm^3
# Si number density = 23.276792 Si / 1000 Ang^3
#
#
#
# Elastic Constant Matrix: (Units=GPa)
#
#
# Indices 1 2 3 4 5 6 
#
# 1 76.3600 42.8608 48.5505 -0.0163 37.9148 -0.0015
# 2 42.8608 66.7908 27.0766 -0.0350 20.8877 -0.0413
# 3 48.5505 27.0766 124.5373 0.0726 50.5489 0.0858
# 4 -0.0163 -0.0350 0.0726 11.9297 -0.0259 -0.7845
# 5 37.9148 20.8877 50.5489 -0.0259 53.4353 -0.0154
# 6 -0.0015 -0.0413 0.0858 -0.7845 -0.0154 17.9527
#
#
#
# Elastic Compliance Matrix: (Units=1/GPa)
#
#
# Indices 1 2 3 4 5 6 
#
# 1 0.028626 -0.013258 -0.003468 -0.000006 -0.011848 -0.000022
# 2 -0.013258 0.023404 -0.000040 0.000055 0.000297 0.000056
# 3 -0.003468 -0.000040 0.013612 -0.000115 -0.010400 -0.000079
# 4 -0.000006 0.000055 -0.000115 0.084067 0.000134 0.003674
# 5 -0.011848 0.000297 -0.010400 0.000134 0.036843 0.000087
# 6 -0.000022 0.000056 -0.000079 0.003674 0.000087 0.055863
#
#
# Mechanical properties :
#
#
# Convention : Reuss Voigt Hill
#
# Bulk Modulus (GPa) = 31.14504 56.07376 43.60940
# Shear Modulus (GPa) = 17.44283 26.61023 22.02653
#
# Velocity S-wave (km/s) = 2.74042 3.38481 3.07952
# Velocity P-wave (km/s) = 4.83969 6.27839 5.60539
#
# Compressibility (1/GPa) = 0.03210784
#
# Stress axis : x y z
#
# Youngs Moduli (GPa) = 34.93381 42.72817 73.46423
#
# Poissons Ratio (x) = 0.56651 0.25478
# Poissons Ratio (y) = 0.46317 0.00296
# Poissons Ratio (z) = 0.12115 0.00172
#
# Static dielectric constant tensor:
#      x y z
#    x 1.952230 -0.000010 -0.065570 
#    y -0.000010 1.903740 0.000020 
#    z -0.065570 0.000020 1.907790 
# 
# From -- ./inp_files/153605.got.cif
#   From: 2010.05.17/outbox.cif.g08.bks.cpg/sg15_77_cif.got.tgz:153605.got - 2010.06.03 18:47:42.
