data_PCOD9253899
_publ_section_title
;
Structure prediction by ZEFSAII (Michael W. Deem and Ramdas Pophale) SiO2 
 PCOD9253899
Probable space group: C 2/C
;
_chemical_formula_sum "Si O2"
_cell_formula_units_Z 48
_cell_length_a 10.371336
_cell_length_b 20.520755
_cell_length_c 21.320012
_cell_angle_alpha 90.000000
_cell_angle_beta 152.457144
_cell_angle_gamma 90.000000
_cell_volume 2098.188645
_symmetry_space_group_name_H-M "C 2/C"
_symmetry_group_IT_number 15
_symmetry_cell_setting 'monoclinic'
loop_
_space_group_symop_operation_xyz
x,y,z
-x,y,1/2-z
-x,-y,-z
x,-y,1/2+z
1/2+x,1/2+y,z
1/2-x,1/2+y,1/2-z
1/2-x,1/2-y,-z
1/2+x,1/2-y,1/2+z
loop_
_atom_site_type_symbol
_atom_site_label
_atom_site_fract_x
_atom_site_fract_y
_atom_site_fract_z
Si Si1 0.743541 0.107681 0.447892
Si Si2 0.454205 0.199934 0.965416
Si Si3 0.611027 0.322510 0.199779
Si Si4 0.054958 0.845582 0.963476
Si Si5 0.698977 0.974235 0.394438
Si Si6 0.238588 0.186281 0.284331
O O1 0.819096 0.124979 0.408675
O O2 0.511361 0.158080 0.367774
O O3 0.008330 0.121912 0.607511
O O4 0.626062 0.034961 0.407463
O O5 0.329650 0.164560 0.850216
O O6 0.564157 0.270933 0.990910
O O7 0.173799 0.203139 0.888303
O O8 0.695911 0.171554 0.114747
O O9 0.743319 0.264260 0.216094
O O10 0.991984 0.840898 0.862684
O O11 0.285298 0.901203 0.073312
O O12 0.500000 0.975002 0.250000
O O13 0.000000 0.000000 0.500000
#
# Coordination Sequence:
#
# PCOD9253899 Si02
#       6
#     8   8   8   8   8   8
#     4  10  15  26  41  66  96 127 156 202 250 290
#     4   9  15  24  39  69  96 125 155 202 248 288
#     4   9  15  22  40  67 101 124 154 203 254 286
#     4  10  17  26  42  65  94 124 157 194 243 295
#     4  10  21  33  48  71 100 134 164 201 242 293
#     4  10  15  24  43  66  99 125 156 200 248 289
#
# _framework density 22.876874999999998
#
# number of rings (size 3 to 8) (size 9 to 14) (size 15 to 20)
#    0.000    2.333    3.333    3.500    0.000    0.000 
#    0.000    0.000    0.000    2.000    0.000    2.333 
#    0.000    0.000    0.000    0.000    0.000    0.000 
#
# Total GULP energy -133769.185233 kJ/mol
# GULP energy per Si atom -5573.716051 kJ/mol
# Density = 2.282481 g / cm^3
# Si number density = 22.876875 Si / 1000 Ang^3
#
#
#
# Elastic Constant Matrix: (Units=GPa)
#
#
# Indices 1 2 3 4 5 6 
#
# 1 98.9853 23.9009 38.3068 -0.0015 -29.3837 -0.0001
# 2 23.9009 90.7659 60.8486 0.0007 -18.1797 -0.0037
# 3 38.3068 60.8486 201.1210 0.0236 -44.7178 -0.0117
# 4 -0.0015 0.0007 0.0236 35.4414 -0.0030 -9.0974
# 5 -29.3837 -18.1797 -44.7178 -0.0030 41.2296 0.0015
# 6 -0.0001 -0.0037 -0.0117 -9.0974 0.0015 8.4254
#
#
#
# Elastic Compliance Matrix: (Units=1/GPa)
#
#
# Indices 1 2 3 4 5 6 
#
# 1 0.013057 -0.001678 -0.000098 0.000001 0.008459 -0.000001
# 2 -0.001678 0.014169 -0.003748 0.000003 0.000987 0.000004
# 3 -0.000098 -0.003748 0.007566 -0.000003 0.006484 0.000004
# 4 0.000001 0.000003 -0.000003 0.039034 0.000000 0.042147
# 5 0.008459 0.000987 0.006484 0.000000 0.037750 0.000003
# 6 -0.000001 0.000004 0.000004 0.042147 0.000003 0.164196
#
#
# Mechanical properties :
#
#
# Convention : Reuss Voigt Hill
#
# Bulk Modulus (GPa) = 42.11593 70.77608 56.44601
# Shear Modulus (GPa) = 16.96429 34.87368 25.91898
#
# Velocity S-wave (km/s) = 2.72609 3.90860 3.36962
# Velocity P-wave (km/s) = 5.32528 7.16760 6.31400
#
# Compressibility (1/GPa) = 0.02374399
#
# Stress axis : x y z
#
# Youngs Moduli (GPa) = 76.58886 70.57445 132.16275
#
# Poissons Ratio (x) = 0.11842 0.01302
# Poissons Ratio (y) = 0.12851 0.49533
# Poissons Ratio (z) = 0.00754 0.26450
#
# Static dielectric constant tensor:
#      x y z
#    x 1.932040 0.000010 0.061240 
#    y 0.000010 2.093350 0.000000 
#    z 0.061240 0.000000 1.947110 
# 
# From -- ./inp_files/169374.got.cif
#   From: 2010.05.17/outbox.cif.g08.bks.cpg/sg15_85_cif.got.tgz:169374.got - 2010.06.03 18:47:42.
