data_PCOD9253249
_publ_section_title
;
Structure prediction by ZEFSAII (Michael W. Deem and Ramdas Pophale) SiO2 
 PCOD9253249
Probable space group: P 21/C
;
_chemical_formula_sum "Si O2"
_cell_formula_units_Z 16
_cell_length_a 8.036378
_cell_length_b 18.915553
_cell_length_c 6.788751
_cell_angle_alpha 90.000000
_cell_angle_beta 38.172149
_cell_angle_gamma 90.000000
_cell_volume 637.787865
_symmetry_space_group_name_H-M "P 21/C"
_symmetry_group_IT_number 14
_symmetry_cell_setting 'monoclinic'
loop_
_space_group_symop_operation_xyz
x,y,z
-x,1/2+y,1/2-z
-x,-y,-z
x,1/2-y,1/2+z
loop_
_atom_site_type_symbol
_atom_site_label
_atom_site_fract_x
_atom_site_fract_y
_atom_site_fract_z
Si Si1 0.890438 0.695996 0.912146
Si Si2 0.050883 0.350830 0.699652
Si Si3 0.234808 0.002394 0.116488
Si Si4 0.349890 0.634750 0.252729
O O1 0.951450 0.661638 0.065019
O O2 0.655489 0.652048 0.023777
O O3 0.816456 0.778309 0.002536
O O4 0.166479 0.693242 0.533898
O O5 0.204935 0.424291 0.526961
O O6 0.761955 0.361195 0.864633
O O7 0.254823 0.938190 0.943771
O O8 0.000000 0.000000 0.500000
O O9 0.500000 0.000000 0.000000
#
# Coordination Sequence:
#
# PCOD9253249 Si02
#       4
#     4   4   4   4
#     4  12  28  45  75 109 147 188 250 299 362 443
#     4  12  27  48  78 106 151 195 244 303 373 431
#     4  12  25  48  76 107 148 192 246 304 360 439
#     4  12  27  49  73 111 144 196 240 303 368 432
#
# _framework density 25.086713
#
# number of rings (size 3 to 8) (size 9 to 14) (size 15 to 20)
#    0.000    0.000    7.500    0.750    3.500    6.000 
#    0.000    5.000    0.000    0.000    0.000    0.000 
#    0.000    0.000    0.000    0.000    0.000    0.000 
#
# Total GULP energy -89655.848054 kJ/mol
# GULP energy per Si atom -5603.490503 kJ/mol
# Density = 2.502961 g / cm^3
# Si number density = 25.086713 Si / 1000 Ang^3
#
#
#
# Elastic Constant Matrix: (Units=GPa)
#
#
# Indices 1 2 3 4 5 6 
#
# 1 223.1305 38.5836 36.6255 0.0000 -28.4498 0.0000
# 2 38.5836 174.6618 1.8531 0.0000 -3.7833 0.0000
# 3 36.6255 1.8531 86.6489 0.0000 -22.3854 0.0000
# 4 0.0000 0.0000 0.0000 32.8884 0.0000 5.2534
# 5 -28.4498 -3.7833 -22.3854 0.0000 32.9507 0.0000
# 6 0.0000 0.0000 0.0000 5.2534 0.0000 57.1777
#
#
#
# Elastic Compliance Matrix: (Units=1/GPa)
#
#
# Indices 1 2 3 4 5 6 
#
# 1 0.005343 -0.001089 -0.001305 0.000000 0.003602 0.000000
# 2 -0.001089 0.005962 0.000323 0.000000 -0.000036 0.000000
# 3 -0.001305 0.000323 0.014317 0.000000 0.008637 0.000000
# 4 0.000000 0.000000 0.000000 0.030859 0.000000 -0.002835
# 5 0.003602 -0.000036 0.008637 0.000000 0.039322 0.000000
# 6 0.000000 0.000000 0.000000 -0.002835 0.000000 0.017750
#
#
# Mechanical properties :
#
#
# Convention : Reuss Voigt Hill
#
# Bulk Modulus (GPa) = 46.55046 70.95172 58.75109
# Shear Modulus (GPa) = 40.04724 51.76194 45.90459
#
# Velocity S-wave (km/s) = 3.99977 4.54731 4.28230
# Velocity P-wave (km/s) = 6.31878 7.47761 6.92249
#
# Compressibility (1/GPa) = 0.02148206
#
# Stress axis : x y z
#
# Youngs Moduli (GPa) = 187.14863 167.74008 69.84849
#
# Poissons Ratio (x) = 0.18259 0.09113
# Poissons Ratio (y) = 0.20371 -0.02259
# Poissons Ratio (z) = 0.24417 -0.05425
#
# Static dielectric constant tensor:
#      x y z
#    x 1.945410 0.000000 0.066390 
#    y 0.000000 2.043460 0.000000 
#    z 0.066390 0.000000 1.988890 
# 
# From -- ./inp_files/9304.got.cif
#   From: 2010.05.17/outbox.cif.g08.bks.cpg/sg14_5_cif.got.tgz:9304.got - 2010.06.03 17:49:19.
