data_PCOD9253661
_publ_section_title
;
Structure prediction by ZEFSAII (Michael W. Deem and Ramdas Pophale) SiO2 
 PCOD9253661
Probable space group: P 21/C
;
_chemical_formula_sum "Si O2"
_cell_formula_units_Z 28
_cell_length_a 21.000000
_cell_length_b 12.000000
_cell_length_c 9.000000
_cell_angle_alpha 90.000000
_cell_angle_beta 40.000000
_cell_angle_gamma 90.000000
_cell_volume 1457.842299
_symmetry_space_group_name_H-M "P 21/C"
_symmetry_group_IT_number 14
_symmetry_cell_setting 'monoclinic'
loop_
_space_group_symop_operation_xyz
x,y,z
-x,1/2+y,1/2-z
-x,-y,-z
x,1/2-y,1/2+z
loop_
_atom_site_type_symbol
_atom_site_label
_atom_site_fract_x
_atom_site_fract_y
_atom_site_fract_z
Si Si1 0.790568 0.172177 0.032857
Si Si2 0.053462 0.865617 0.779626
Si Si3 0.140092 0.273466 0.831887
Si Si4 0.918996 0.960572 0.762464
Si Si5 0.652868 0.236272 0.022237
Si Si6 0.803003 0.578220 0.966150
Si Si7 0.401366 0.925805 0.143148
O O1 0.856726 0.283552 0.919113
O O2 0.733144 0.170902 0.979385
O O3 0.859053 0.065625 0.928699
O O4 0.711441 0.184765 0.303591
O O5 0.983036 0.903719 0.773731
O O6 0.110638 0.983038 0.721716
O O7 0.972574 0.777814 0.996838
O O8 0.151226 0.371979 0.692103
O O9 0.203170 0.165532 0.662358
O O10 0.164434 0.340821 0.946673
O O11 0.000000 0.000000 0.500000
O O12 0.598403 0.143843 0.014894
O O13 0.602968 0.325047 0.225748
O O14 0.699448 0.506099 0.172692
O O15 0.500000 0.000000 0.000000
#
# Coordination Sequence:
#
# PCOD9253661 Si02
#       7
#     4   4   4   4   4   4   4
#     4  11  22  39  67  93 132 182 227 270 327 403
#     4  12  22  37  62  92 134 179 230 265 328 398
#     4  12  26  39  58  96 136 181 220 277 339 401
#     4  12  22  36  56  89 136 177 229 268 320 395
#     4  10  22  45  71  99 126 168 225 274 342 402
#     4  12  25  44  63  93 137 178 226 280 341 397
#     4  11  26  48  76 101 131 172 227 291 347 403
#
# _framework density 19.206467
#
# number of rings (size 3 to 8) (size 9 to 14) (size 15 to 20)
#    0.000    0.571    7.143    2.143    2.000    1.143 
#    0.000    2.857    0.000    0.000    0.000    0.000 
#    0.000    0.000    0.000    0.000    0.000    0.000 
#
# Total GULP energy -155906.338466 kJ/mol
# GULP energy per Si atom -5568.083517 kJ/mol
# Density = 1.916275 g / cm^3
# Si number density = 19.206467 Si / 1000 Ang^3
#
#
#
# Elastic Constant Matrix: (Units=GPa)
#
#
# Indices 1 2 3 4 5 6 
#
# 1 107.6149 40.9303 32.8229 0.0000 2.1946 0.0000
# 2 40.9303 136.1731 25.1202 0.0000 1.0123 0.0000
# 3 32.8229 25.1202 45.7142 0.0000 -4.4789 0.0000
# 4 0.0000 0.0000 0.0000 42.8188 0.0000 -4.5391
# 5 2.1946 1.0123 -4.4789 0.0000 29.1474 0.0000
# 6 0.0000 0.0000 0.0000 -4.5391 0.0000 53.6485
#
#
#
# Elastic Compliance Matrix: (Units=1/GPa)
#
#
# Indices 1 2 3 4 5 6 
#
# 1 0.012663 -0.002309 -0.008029 0.000000 -0.002107 0.000000
# 2 -0.002309 0.008621 -0.003139 0.000000 -0.000608 0.000000
# 3 -0.008029 -0.003139 0.029885 0.000000 0.005306 0.000000
# 4 0.000000 0.000000 0.000000 0.023566 0.000000 0.001994
# 5 -0.002107 -0.000608 0.005306 0.000000 0.035303 0.000000
# 6 0.000000 0.000000 0.000000 0.001994 0.000000 0.018809
#
#
# Mechanical properties :
#
#
# Convention : Reuss Voigt Hill
#
# Bulk Modulus (GPa) = 41.29889 54.13876 47.71883
# Shear Modulus (GPa) = 30.51152 37.83152 34.17152
#
# Velocity S-wave (km/s) = 3.99006 4.44298 4.22259
# Velocity P-wave (km/s) = 6.54039 7.38709 6.97659
#
# Compressibility (1/GPa) = 0.02421373
#
# Stress axis : x y z
#
# Youngs Moduli (GPa) = 78.97256 115.99230 33.46181
#
# Poissons Ratio (x) = 0.26785 0.26868
# Poissons Ratio (y) = 0.18237 0.10504
# Poissons Ratio (z) = 0.63410 0.36409
#
# Static dielectric constant tensor:
#      x y z
#    x 1.691370 0.000000 0.051000 
#    y 0.000000 1.629720 0.000000 
#    z 0.051000 0.000000 1.695460 
# 
# From -- ./inp_files/18922.got.cif
#   From: 2010.05.17/outbox.ucp.g08.bks.cvg/sg14_10_cif.got.tgz:18922.got - 2010.06.11 12:31:08.
