data_PCOD9253211
_publ_section_title
;
Structure prediction by ZEFSAII (Michael W. Deem and Ramdas Pophale) SiO2 
 PCOD9253211
Probable space group: P 21/C
;
_chemical_formula_sum "Si O2"
_cell_formula_units_Z 16
_cell_length_a 20.697024
_cell_length_b 4.857773
_cell_length_c 8.609328
_cell_angle_alpha 90.000000
_cell_angle_beta 129.751324
_cell_angle_gamma 90.000000
_cell_volume 665.492296
_symmetry_space_group_name_H-M "P 21/C"
_symmetry_group_IT_number 14
_symmetry_cell_setting 'monoclinic'
loop_
_space_group_symop_operation_xyz
x,y,z
-x,1/2+y,1/2-z
-x,-y,-z
x,1/2-y,1/2+z
loop_
_atom_site_type_symbol
_atom_site_label
_atom_site_fract_x
_atom_site_fract_y
_atom_site_fract_z
Si Si1 0.284511 0.624865 0.996620
Si Si2 0.779323 0.600375 0.420145
Si Si3 0.966567 0.481614 0.621057
Si Si4 0.530006 0.364219 0.205683
O O1 0.257037 0.384434 0.071793
O O2 0.378560 0.730843 0.167565
O O3 0.225805 0.885072 0.945186
O O4 0.274415 0.516709 0.806307
O O5 0.874093 0.602480 0.504148
O O6 0.028290 0.666843 0.819627
O O7 0.000000 0.500000 0.500000
O O8 0.529001 0.614611 0.327592
O O9 0.500000 0.500000 0.000000
#
# Coordination Sequence:
#
# PCOD9253211 Si02
#       4
#     4   4   4   4
#     4  12  27  47  73 104 143 189 238 296 357 426
#     4  12  25  47  71 105 144 189 239 294 356 427
#     4  12  25  44  71 105 144 189 238 295 357 424
#     4  12  27  50  76 108 145 189 238 295 359 429
#
# _framework density 24.042351
#
# number of rings (size 3 to 8) (size 9 to 14) (size 15 to 20)
#    0.000    0.000    0.000   10.500    0.000    4.000 
#    0.000    0.000    0.000    0.000    0.000    0.000 
#    0.000    0.000    0.000    0.000    0.000    0.000 
#
# Total GULP energy -89810.924567 kJ/mol
# GULP energy per Si atom -5613.182785 kJ/mol
# Density = 2.398763 g / cm^3
# Si number density = 24.042351 Si / 1000 Ang^3
#
#
#
# Elastic Constant Matrix: (Units=GPa)
#
#
# Indices 1 2 3 4 5 6 
#
# 1 122.9941 51.8379 13.0225 0.0000 14.6075 0.0000
# 2 51.8379 150.4384 10.8425 0.0000 20.6926 0.0000
# 3 13.0225 10.8425 56.0853 0.0000 18.5257 0.0000
# 4 0.0000 0.0000 0.0000 23.2177 0.0000 9.6852
# 5 14.6075 20.6926 18.5257 0.0000 26.9072 0.0000
# 6 0.0000 0.0000 0.0000 9.6852 0.0000 50.2114
#
#
#
# Elastic Compliance Matrix: (Units=1/GPa)
#
#
# Indices 1 2 3 4 5 6 
#
# 1 0.009762 -0.002969 -0.000901 0.000000 -0.002396 0.000000
# 2 -0.002969 0.008352 0.000859 0.000000 -0.005402 0.000000
# 3 -0.000901 0.000859 0.023208 0.000000 -0.016150 0.000000
# 4 0.000000 0.000000 0.000000 0.046840 0.000000 -0.009035
# 5 -0.002396 -0.005402 -0.016150 0.000000 0.053739 0.000000
# 6 0.000000 0.000000 0.000000 -0.009035 0.000000 0.021659
#
#
# Mechanical properties :
#
#
# Convention : Reuss Voigt Hill
#
# Bulk Modulus (GPa) = 28.32966 53.43595 40.88280
# Shear Modulus (GPa) = 27.57143 36.98825 32.27984
#
# Velocity S-wave (km/s) = 3.39010 3.92658 3.66816
# Velocity P-wave (km/s) = 5.20889 6.54457 5.91455
#
# Compressibility (1/GPa) = 0.03529870
#
# Stress axis : x y z
#
# Youngs Moduli (GPa) = 102.43952 119.73844 43.08908
#
# Poissons Ratio (x) = 0.35554 0.03884
# Poissons Ratio (y) = 0.30417 -0.03703
# Poissons Ratio (z) = 0.09233 -0.10290
#
# Static dielectric constant tensor:
#      x y z
#    x 1.884650 0.000000 0.023720 
#    y 0.000000 1.880170 0.000000 
#    z 0.023720 0.000000 1.936810 
# 
# From -- ./inp_files/18416.got.cif
#   From: 2010.05.17/outbox.cif.g08.bks.cpg/sg14_10_cif.got.tgz:18416.got - 2010.06.03 17:49:19.
