data_PCOD9253358
_publ_section_title
;
Structure prediction by ZEFSAII (Michael W. Deem and Ramdas Pophale) SiO2 
 PCOD9253358
Probable space group: P 21/C
;
_chemical_formula_sum "Si O2"
_cell_formula_units_Z 12
_cell_length_a 10.278442
_cell_length_b 8.080251
_cell_length_c 9.551168
_cell_angle_alpha 90.000000
_cell_angle_beta 142.489336
_cell_angle_gamma 90.000000
_cell_volume 483.015508
_symmetry_space_group_name_H-M "P 21/C"
_symmetry_group_IT_number 14
_symmetry_cell_setting 'monoclinic'
loop_
_space_group_symop_operation_xyz
x,y,z
-x,1/2+y,1/2-z
-x,-y,-z
x,1/2-y,1/2+z
loop_
_atom_site_type_symbol
_atom_site_label
_atom_site_fract_x
_atom_site_fract_y
_atom_site_fract_z
Si Si1 0.177841 0.827968 0.987754
Si Si2 0.459566 0.390109 0.827138
Si Si3 0.072341 0.327934 0.995813
O O1 0.330903 0.678010 0.070362
O O2 0.000000 0.500000 0.000000
O O3 0.981230 0.833746 0.713191
O O4 0.085225 0.801843 0.062837
O O5 0.317234 0.506198 0.605112
O O6 0.310414 0.231474 0.731079
O O7 0.500000 0.500000 0.000000
#
# Coordination Sequence:
#
# PCOD9253358 Si02
#       3
#     4   4   4
#     4  12  27  47  76 107 152 194 250 311 375 445
#     4  12  28  48  76 113 150 194 254 310 372 446
#     4  12  28  46  76 108 150 199 250 309 378 442
#
# _framework density 24.843923
#
# number of rings (size 3 to 8) (size 9 to 14) (size 15 to 20)
#    0.000    0.000    3.333    5.000   14.000    2.667 
#    0.000    0.000    0.000    0.000    0.000    0.000 
#    0.000    0.000    0.000    0.000    0.000    0.000 
#
# Total GULP energy -67300.226847 kJ/mol
# GULP energy per Si atom -5608.352237 kJ/mol
# Density = 2.478738 g / cm^3
# Si number density = 24.843923 Si / 1000 Ang^3
#
#
#
# Elastic Constant Matrix: (Units=GPa)
#
#
# Indices 1 2 3 4 5 6 
#
# 1 69.4419 -4.1543 14.7079 0.0000 -1.4502 0.0000
# 2 -4.1543 90.7896 19.9439 0.0000 -2.8880 0.0000
# 3 14.7079 19.9439 82.2109 0.0000 -5.6161 0.0000
# 4 0.0000 0.0000 0.0000 62.0520 0.0000 8.8733
# 5 -1.4502 -2.8880 -5.6161 0.0000 47.4860 0.0000
# 6 0.0000 0.0000 0.0000 8.8733 0.0000 38.3244
#
#
#
# Elastic Compliance Matrix: (Units=1/GPa)
#
#
# Indices 1 2 3 4 5 6 
#
# 1 0.015126 0.001362 -0.003024 0.000000 0.000187 0.000000
# 2 0.001362 0.011764 -0.003071 0.000000 0.000394 0.000000
# 3 -0.003024 -0.003071 0.013540 0.000000 0.001322 0.000000
# 4 0.000000 0.000000 0.000000 0.016667 0.000000 -0.003859
# 5 0.000187 0.000394 0.001322 0.000000 0.021245 0.000000
# 6 0.000000 0.000000 0.000000 -0.003859 0.000000 0.026987
#
#
# Mechanical properties :
#
#
# Convention : Reuss Voigt Hill
#
# Bulk Modulus (GPa) = 32.29355 33.71527 33.00441
# Shear Modulus (GPa) = 39.96307 43.70214 41.83260
#
# Velocity S-wave (km/s) = 4.01504 4.19867 4.10788
# Velocity P-wave (km/s) = 5.87545 6.09142 5.98441
#
# Compressibility (1/GPa) = 0.03096594
#
# Stress axis : x y z
#
# Youngs Moduli (GPa) = 66.10963 85.00599 73.85483
#
# Poissons Ratio (x) = -0.11581 0.22333
# Poissons Ratio (y) = -0.09006 0.22678
# Poissons Ratio (z) = 0.19991 0.26103
#
# Static dielectric constant tensor:
#      x y z
#    x 1.926140 0.000000 0.021470 
#    y 0.000000 1.998350 0.000000 
#    z 0.021470 0.000000 1.957100 
# 
# From -- ./inp_files/20119.got.cif
#   From: 2010.05.17/outbox.cif.g08.bks.cpg/sg14_11_cif.got.tgz:20119.got - 2010.06.03 17:49:19.
