data_PCOD9253235
_publ_section_title
;
Structure prediction by ZEFSAII (Michael W. Deem and Ramdas Pophale) SiO2 
 PCOD9253235
Probable space group: P 21/C
;
_chemical_formula_sum "Si O2"
_cell_formula_units_Z 24
_cell_length_a 14.592836
_cell_length_b 8.282507
_cell_length_c 14.461063
_cell_angle_alpha 90.000000
_cell_angle_beta 37.239966
_cell_angle_gamma 90.000000
_cell_volume 1057.713517
_symmetry_space_group_name_H-M "P 21/C"
_symmetry_group_IT_number 14
_symmetry_cell_setting 'monoclinic'
loop_
_space_group_symop_operation_xyz
x,y,z
-x,1/2+y,1/2-z
-x,-y,-z
x,1/2-y,1/2+z
loop_
_atom_site_type_symbol
_atom_site_label
_atom_site_fract_x
_atom_site_fract_y
_atom_site_fract_z
Si Si1 0.076430 0.363833 0.736368
Si Si2 0.394368 0.651542 0.282020
Si Si3 0.585649 0.777409 0.280882
Si Si4 0.586075 0.648606 0.478301
Si Si5 0.091038 0.333784 0.047471
Si Si6 0.953643 0.168255 0.990355
O O1 0.250509 0.407479 0.616375
O O2 0.057879 0.310522 0.646086
O O3 0.961702 0.501358 0.862454
O O4 0.046425 0.207220 0.823863
O O5 0.441322 0.694477 0.348852
O O6 0.420684 0.463081 0.243213
O O7 0.220346 0.678428 0.397357
O O8 0.495705 0.762867 0.132778
O O9 0.600061 0.768592 0.379497
O O10 0.732845 0.684875 0.121135
O O11 0.500000 0.500000 0.500000
O O12 0.995846 0.303681 0.031604
O O13 0.000000 0.000000 0.000000
#
# Coordination Sequence:
#
# PCOD9253235 Si02
#       6
#     4   4   4   4   4   4
#     4  12  27  45  73 107 143 188 245 297 363 434
#     4  12  27  46  75 108 144 189 245 299 365 435
#     4  12  27  47  74 103 149 190 238 304 367 431
#     4  12  26  47  74 106 143 188 244 298 367 435
#     4  12  26  47  73 106 146 190 243 299 365 436
#     4  12  25  47  75 104 145 190 241 300 362 433
#
# _framework density 22.690455
#
# number of rings (size 3 to 8) (size 9 to 14) (size 15 to 20)
#    0.000    0.000    5.000    4.000    4.667    1.333 
#    0.000    0.000    0.000    0.000    0.000    0.000 
#    0.000    0.000    0.000    0.000    0.000    0.000 
#
# Total GULP energy -134471.743556 kJ/mol
# GULP energy per Si atom -5602.989315 kJ/mol
# Density = 2.263881 g / cm^3
# Si number density = 22.690455 Si / 1000 Ang^3
#
#
#
# Elastic Constant Matrix: (Units=GPa)
#
#
# Indices 1 2 3 4 5 6 
#
# 1 110.5576 23.9435 24.2472 0.0000 2.7781 0.0000
# 2 23.9435 65.6735 13.1009 0.0000 -19.4334 0.0000
# 3 24.2472 13.1009 85.3970 0.0000 -5.3539 0.0000
# 4 0.0000 0.0000 0.0000 37.0741 0.0000 12.3520
# 5 2.7781 -19.4334 -5.3539 0.0000 39.4211 0.0000
# 6 0.0000 0.0000 0.0000 12.3520 0.0000 37.0985
#
#
#
# Elastic Compliance Matrix: (Units=1/GPa)
#
#
# Indices 1 2 3 4 5 6 
#
# 1 0.010621 -0.004316 -0.002556 0.000000 -0.003223 0.000000
# 2 -0.004316 0.020002 -0.001216 0.000000 0.009999 0.000000
# 3 -0.002556 -0.001216 0.012704 0.000000 0.001306 0.000000
# 4 0.000000 0.000000 0.000000 0.030338 0.000000 -0.010101
# 5 -0.003223 0.009999 0.001306 0.000000 0.030701 0.000000
# 6 0.000000 0.000000 0.000000 -0.010101 0.000000 0.030318
#
#
# Mechanical properties :
#
#
# Convention : Reuss Voigt Hill
#
# Bulk Modulus (GPa) = 36.83080 42.69015 39.76047
# Shear Modulus (GPa) = 31.26717 36.07452 33.67085
#
# Velocity S-wave (km/s) = 3.71615 3.99162 3.85635
# Velocity P-wave (km/s) = 5.88898 6.33238 6.11470
#
# Compressibility (1/GPa) = 0.02715119
#
# Stress axis : x y z
#
# Youngs Moduli (GPa) = 94.14988 49.99493 78.71481
#
# Poissons Ratio (x) = 0.21580 0.20117
# Poissons Ratio (y) = 0.40639 0.09572
# Poissons Ratio (z) = 0.24062 0.06080
#
# Static dielectric constant tensor:
#      x y z
#    x 1.805780 0.000000 0.009520 
#    y 0.000000 1.977340 0.000000 
#    z 0.009520 0.000000 1.844020 
# 
# From -- ./inp_files/46338.got.cif
#   From: 2010.05.17/outbox.cif.g08.bks.cpg/sg14_24_cif.got.tgz:46338.got - 2010.06.03 17:49:19.
