data_PCOD9253034
_publ_section_title
;
Structure prediction by ZEFSAII (Michael W. Deem and Ramdas Pophale) SiO2 
 PCOD9253034
Probable space group: P 21/C
;
_chemical_formula_sum "Si O2"
_cell_formula_units_Z 32
_cell_length_a 8.305744
_cell_length_b 24.322283
_cell_length_c 12.608854
_cell_angle_alpha 90.000000
_cell_angle_beta 146.796439
_cell_angle_gamma 90.000000
_cell_volume 1394.870891
_symmetry_space_group_name_H-M "P 21/C"
_symmetry_group_IT_number 14
_symmetry_cell_setting 'monoclinic'
loop_
_space_group_symop_operation_xyz
x,y,z
-x,1/2+y,1/2-z
-x,-y,-z
x,1/2-y,1/2+z
loop_
_atom_site_type_symbol
_atom_site_label
_atom_site_fract_x
_atom_site_fract_y
_atom_site_fract_z
Si Si1 0.239833 0.931888 0.587422
Si Si2 0.371136 0.943330 0.884862
Si Si3 0.009182 0.706430 0.697022
Si Si4 0.645859 0.671517 0.293419
Si Si5 0.704504 0.474396 0.287919
Si Si6 0.017253 0.586745 0.745287
Si Si7 0.787598 0.118836 0.995406
Si Si8 0.478675 0.772790 0.057445
O O1 0.170895 0.948268 0.670295
O O2 0.392774 0.872055 0.680657
O O3 0.009238 0.925295 0.365748
O O4 0.461855 0.979007 0.668200
O O5 0.211086 0.913548 0.892869
O O6 0.677106 0.912904 0.021390
O O7 0.500000 0.000000 0.000000
O O8 0.823596 0.700197 0.487444
O O9 0.782283 0.714737 0.667493
O O10 0.150618 0.646412 0.793574
O O11 0.241908 0.755430 0.836693
O O12 0.514949 0.719978 0.150936
O O13 0.890097 0.635896 0.365580
O O14 0.793974 0.456141 0.218935
O O15 0.645353 0.420379 0.327463
O O16 0.000000 0.500000 0.500000
O O17 0.619646 0.175227 0.928053
#
# Coordination Sequence:
#
# PCOD9253034 Si02
#       8
#     4   4   4   4   4   4   4   4
#     4  12  24  44  72 101 137 186 231 289 356 429
#     4  12  24  45  68  97 143 177 227 291 354 415
#     4  12  25  46  70 100 140 184 236 294 352 421
#     4  12  25  45  72 100 138 185 236 289 360 420
#     4  12  21  43  72 101 141 185 230 289 357 423
#     4  12  24  43  69  99 137 184 231 285 351 427
#     4  12  23  44  72 101 138 188 232 294 357 421
#     4  12  27  45  69 103 139 184 243 291 351 428
#
# _framework density 22.941192000000001
#
# number of rings (size 3 to 8) (size 9 to 14) (size 15 to 20)
#    0.000    0.000   10.000    0.375    1.750    0.500 
#    2.250    1.250    0.000    0.000    0.000    0.000 
#    0.000    0.000    0.000    0.000    0.000    0.000 
#
# Total GULP energy -179099.908384 kJ/mol
# GULP energy per Si atom -5596.872137 kJ/mol
# Density = 2.288898 g / cm^3
# Si number density = 22.941192 Si / 1000 Ang^3
#
#
#
# Elastic Constant Matrix: (Units=GPa)
#
#
# Indices 1 2 3 4 5 6 
#
# 1 42.7413 5.4488 2.7089 0.0000 -25.1935 0.0000
# 2 5.4488 110.5271 22.7462 0.0000 -11.4674 0.0000
# 3 2.7089 22.7462 97.6737 0.0000 -33.2197 0.0000
# 4 0.0000 0.0000 0.0000 29.1213 0.0000 -12.6761
# 5 -25.1935 -11.4674 -33.2197 0.0000 40.4842 0.0000
# 6 0.0000 0.0000 0.0000 -12.6761 0.0000 39.0190
#
#
#
# Elastic Compliance Matrix: (Units=1/GPa)
#
#
# Indices 1 2 3 4 5 6 
#
# 1 0.044539 -0.000729 0.011501 0.000000 0.036947 0.000000
# 2 -0.000729 0.009558 -0.001996 0.000000 0.000616 0.000000
# 3 0.011501 -0.001996 0.017514 0.000000 0.020962 0.000000
# 4 0.000000 0.000000 0.000000 0.039995 0.000000 0.012993
# 5 0.036947 0.000616 0.020962 0.000000 0.065068 0.000000
# 6 0.000000 0.000000 0.000000 0.012993 0.000000 0.029850
#
#
# Mechanical properties :
#
#
# Convention : Reuss Voigt Hill
#
# Bulk Modulus (GPa) = 11.21572 34.75000 22.98286
# Shear Modulus (GPa) = 22.86305 36.39412 29.62859
#
# Velocity S-wave (km/s) = 3.16031 3.98730 3.59765
# Velocity P-wave (km/s) = 4.26805 6.03145 5.22468
#
# Compressibility (1/GPa) = 0.08916061
#
# Stress axis : x y z
#
# Youngs Moduli (GPa) = 22.45239 104.62212 57.09860
#
# Poissons Ratio (x) = 0.07629 -0.65667
# Poissons Ratio (y) = 0.01637 0.11399
# Poissons Ratio (z) = -0.25821 0.20886
#
# Static dielectric constant tensor:
#      x y z
#    x 1.868220 0.000000 -0.009460 
#    y 0.000000 1.918910 0.000000 
#    z -0.009460 0.000000 1.851950 
# 
# From -- ./inp_files/27028.got.cif
#   From: 2010.05.17/outbox.cif.g08.bks.cpg/sg14_14_cif.got.tgz:27028.got - 2010.06.03 17:49:19.
