data_PCOD9253003
_publ_section_title
;
Structure prediction by ZEFSAII (Michael W. Deem and Ramdas Pophale) SiO2 
 PCOD9253003
Probable space group: P 21/C
;
_chemical_formula_sum "Si O2"
_cell_formula_units_Z 12
_cell_length_a 9.320227
_cell_length_b 5.035907
_cell_length_c 17.322437
_cell_angle_alpha 90.000000
_cell_angle_beta 148.198884
_cell_angle_gamma 90.000000
_cell_volume 428.450851
_symmetry_space_group_name_H-M "P 21/C"
_symmetry_group_IT_number 14
_symmetry_cell_setting 'monoclinic'
loop_
_space_group_symop_operation_xyz
x,y,z
-x,1/2+y,1/2-z
-x,-y,-z
x,1/2-y,1/2+z
loop_
_atom_site_type_symbol
_atom_site_label
_atom_site_fract_x
_atom_site_fract_y
_atom_site_fract_z
Si Si1 0.767885 0.766261 0.703322
Si Si2 0.551759 0.906350 0.323930
Si Si3 0.756469 0.924443 0.029707
O O1 0.554198 0.528851 0.616758
O O2 0.810097 0.750987 0.630748
O O3 0.613779 0.007209 0.675279
O O4 0.060322 0.812274 0.876105
O O5 0.418898 0.680925 0.208693
O O6 0.807365 0.748673 0.476921
#
# Coordination Sequence:
#
# PCOD9253003 Si02
#       3
#     4   4   4
#     4  11  28  50  82 118 156 209 271 327 393 466
#     4  12  27  52  77 120 164 208 258 328 399 476
#     4  11  28  49  83 119 157 209 269 329 393 468
#
# _framework density 28.007883
#
# number of rings (size 3 to 8) (size 9 to 14) (size 15 to 20)
#    0.000    0.667    3.333    1.000   14.000    2.667 
#    0.000    0.000    0.000    0.000    0.000    0.000 
#    0.000    0.000    0.000    0.000    0.000    0.000 
#
# Total GULP energy -67039.002303 kJ/mol
# GULP energy per Si atom -5586.583525 kJ/mol
# Density = 2.794414 g / cm^3
# Si number density = 28.007883 Si / 1000 Ang^3
#
#
#
# Elastic Constant Matrix: (Units=GPa)
#
#
# Indices 1 2 3 4 5 6 
#
# 1 24.7057 53.7778 86.1433 0.0000 6.5154 0.0000
# 2 53.7778 216.8111 57.0516 0.0000 -12.1101 0.0000
# 3 86.1433 57.0516 68.7608 0.0000 -12.4654 0.0000
# 4 0.0000 0.0000 0.0000 63.9478 0.0000 -41.7386
# 5 6.5154 -12.1101 -12.4654 0.0000 35.3141 0.0000
# 6 0.0000 0.0000 0.0000 -41.7386 0.0000 42.2293
#
#
#
# Elastic Compliance Matrix: (Units=1/GPa)
#
#
# Indices 1 2 3 4 5 6 
#
# 1 -0.010036 -0.000978 0.014593 0.000000 0.006667 0.000000
# 2 -0.000978 0.005808 -0.003419 0.000000 0.000966 0.000000
# 3 0.014593 -0.003419 -0.001713 0.000000 -0.004469 0.000000
# 4 0.000000 0.000000 0.000000 0.044064 0.000000 0.043552
# 5 0.006667 0.000966 -0.004469 0.000000 0.025841 0.000000
# 6 0.000000 0.000000 0.000000 0.043552 0.000000 0.066726
#
#
# Mechanical properties :
#
#
# Convention : Reuss Voigt Hill
#
# Bulk Modulus (GPa) = 69.19336 78.24701 73.72019
# Shear Modulus (GPa) = 43.43462 35.85189 39.64325
#
# Velocity S-wave (km/s) = 3.94229 3.58168 3.76630
# Velocity P-wave (km/s) = 6.74395 6.71586 6.72992
#
# Compressibility (1/GPa) = 0.01445225
#
# Stress axis : x y z
#
# Youngs Moduli (GPa) = -99.64320 172.16170 -583.73202
#
# Poissons Ratio (x) = 0.16844 8.51858
# Poissons Ratio (y) = -0.09749 -1.99554
# Poissons Ratio (z) = 1.45412 0.58855
#
# Static dielectric constant tensor:
#      x y z
#    x 2.234090 0.000000 0.066850 
#    y 0.000000 2.109270 0.000000 
#    z 0.066850 0.000000 2.295230 
# 
# From -- ./inp_files/27206.got.cif
#   From: 2010.05.17/outbox.cif.g08.bks.cpg/sg14_14_cif.got.tgz:27206.got - 2010.06.03 17:49:19.
