data_PCOD9253021
_publ_section_title
;
Structure prediction by ZEFSAII (Michael W. Deem and Ramdas Pophale) SiO2 
 PCOD9253021
Probable space group: P 21/C
;
_chemical_formula_sum "Si O2"
_cell_formula_units_Z 28
_cell_length_a 22.363665
_cell_length_b 13.525538
_cell_length_c 21.791351
_cell_angle_alpha 90.000000
_cell_angle_beta 167.008108
_cell_angle_gamma 90.000000
_cell_volume 1481.847214
_symmetry_space_group_name_H-M "P 21/C"
_symmetry_group_IT_number 14
_symmetry_cell_setting 'monoclinic'
loop_
_space_group_symop_operation_xyz
x,y,z
-x,1/2+y,1/2-z
-x,-y,-z
x,1/2-y,1/2+z
loop_
_atom_site_type_symbol
_atom_site_label
_atom_site_fract_x
_atom_site_fract_y
_atom_site_fract_z
Si Si1 0.862995 0.186270 0.488176
Si Si2 0.862886 0.186257 0.237695
Si Si3 0.658497 0.715662 0.338243
Si Si4 0.752721 0.074478 0.252721
Si Si5 0.500016 0.499984 0.787393
Si Si6 0.341590 0.284364 0.021321
Si Si7 0.999971 0.999992 0.299513
O O1 0.776023 0.145584 0.335100
O O2 0.594482 0.219397 0.253774
O O3 0.011823 0.094817 0.669501
O O4 0.087883 0.269660 0.723153
O O5 0.776007 0.145584 0.216931
O O6 0.087717 0.269663 0.452417
O O7 0.011756 0.094808 0.354071
O O8 0.594324 0.219350 0.935034
O O9 0.565514 0.601708 0.243788
O O10 0.728455 0.750011 0.478465
O O11 0.000000 0.000000 0.500000
O O12 0.500000 0.000000 0.000000
O O13 0.565521 0.601671 0.887255
O O14 0.250052 0.516370 0.493520
O O15 0.750000 0.483607 0.993469
#
# Coordination Sequence:
#
# PCOD9253021 Si02
#       7
#     4   4   4   4   4   4   4
#     4  12  24  40  62  92 132 162 207 257 321 381
#     4  12  24  40  62  92 132 162 207 257 321 381
#     4  12  23  40  61  93 126 170 204 263 319 374
#     4  12  26  42  66  95 126 171 210 258 320 379
#     4  12  24  36  62  92 130 162 210 250 322 386
#     4  12  23  40  61  93 126 170 204 263 319 374
#     4  12  20  35  62  94 124 163 198 258 310 398
#
# _framework density 18.895334999999999
#
# number of rings (size 3 to 8) (size 9 to 14) (size 15 to 20)
#    0.000    0.000    7.143    4.286    2.000    0.000 
#    0.000    0.000    0.000    5.143    0.000    0.000 
#    0.000    0.000    0.000    0.000    0.000    0.000 
#
# Total GULP energy -156399.931054 kJ/mol
# GULP energy per Si atom -5585.711823 kJ/mol
# Density = 1.885233 g / cm^3
# Si number density = 18.895335 Si / 1000 Ang^3
#
#
#
# Elastic Constant Matrix: (Units=GPa)
#
#
# Indices 1 2 3 4 5 6 
#
# 1 101.0236 59.5824 46.1622 0.0000 -2.3509 0.0000
# 2 59.5824 96.9172 25.6374 0.0000 -4.7732 0.0000
# 3 46.1622 25.6374 128.1673 0.0000 6.1423 0.0000
# 4 0.0000 0.0000 0.0000 42.3295 0.0000 0.6963
# 5 -2.3509 -4.7732 6.1423 0.0000 20.3066 0.0000
# 6 0.0000 0.0000 0.0000 0.6963 0.0000 37.3687
#
#
#
# Elastic Compliance Matrix: (Units=1/GPa)
#
#
# Indices 1 2 3 4 5 6 
#
# 1 0.017637 -0.009600 -0.004487 0.000000 0.001143 0.000000
# 2 -0.009600 0.016338 0.000060 0.000000 0.002711 0.000000
# 3 -0.004487 0.000060 0.009569 0.000000 -0.003400 0.000000
# 4 0.000000 0.000000 0.000000 0.023631 0.000000 -0.000440
# 5 0.001143 0.002711 -0.003400 0.000000 0.051043 0.000000
# 6 0.000000 0.000000 0.000000 -0.000440 0.000000 0.026769
#
#
# Mechanical properties :
#
#
# Convention : Reuss Voigt Hill
#
# Bulk Modulus (GPa) = 64.55765 65.43022 64.99394
# Shear Modulus (GPa) = 28.05756 32.98270 30.52013
#
# Velocity S-wave (km/s) = 3.85761 4.18251 4.02334
# Velocity P-wave (km/s) = 7.35402 7.61757 7.48696
#
# Compressibility (1/GPa) = 0.01549003
#
# Stress axis : x y z
#
# Youngs Moduli (GPa) = 56.69756 61.20855 104.49980
#
# Poissons Ratio (x) = 0.58759 0.46889
# Poissons Ratio (y) = 0.54429 -0.00623
# Poissons Ratio (z) = 0.25440 -0.00365
#
# Static dielectric constant tensor:
#      x y z
#    x 1.677330 0.000000 0.000510 
#    y 0.000000 1.720770 0.000000 
#    z 0.000510 0.000000 1.680930 
# 
# From -- ./inp_files/75011.got.cif
#   From: 2010.05.17/outbox.cif.g08.bks.cpg/sg14_38_cif.got.tgz:75011.got - 2010.06.03 17:49:19.
