data_PCOD9253702
_publ_section_title
;
Structure prediction by ZEFSAII (Michael W. Deem and Ramdas Pophale) SiO2 
 PCOD9253702
Probable space group: P 21/C
;
_chemical_formula_sum "Si O2"
_cell_formula_units_Z 24
_cell_length_a 30.000000
_cell_length_b 9.000000
_cell_length_c 9.000000
_cell_angle_alpha 90.000000
_cell_angle_beta 30.000000
_cell_angle_gamma 90.000000
_cell_volume 1215.000000
_symmetry_space_group_name_H-M "P 21/C"
_symmetry_group_IT_number 14
_symmetry_cell_setting 'monoclinic'
loop_
_space_group_symop_operation_xyz
x,y,z
-x,1/2+y,1/2-z
-x,-y,-z
x,1/2-y,1/2+z
loop_
_atom_site_type_symbol
_atom_site_label
_atom_site_fract_x
_atom_site_fract_y
_atom_site_fract_z
Si Si1 0.262779 0.655141 0.774046
Si Si2 0.643829 0.847032 0.448504
Si Si3 0.405402 0.056838 0.723873
Si Si4 0.179252 0.241420 0.728501
Si Si5 0.098626 0.439911 0.217384
Si Si6 0.282752 0.551149 0.043495
O O1 0.330440 0.568275 0.469254
O O2 0.249494 0.821124 0.751781
O O3 0.168633 0.571455 0.044478
O O4 0.299511 0.629420 0.836015
O O5 0.620801 0.694258 0.595504
O O6 0.588888 0.890789 0.462426
O O7 0.638987 0.973542 0.588232
O O8 0.742022 0.819968 0.092566
O O9 0.500000 0.000000 0.500000
O O10 0.107285 0.178612 0.823689
O O11 0.221487 0.094278 0.685372
O O12 0.134988 0.355347 0.968203
O O13 0.000000 0.500000 0.500000
#
# Coordination Sequence:
#
# PCOD9253702 Si02
#       6
#     4   4   4   4   4   4
#     4  11  23  42  62 102 135 174 231 288 339 398
#     4  12  20  46  70  92 133 190 226 273 348 411
#     4  12  25  42  69 101 135 179 236 282 339 413
#     4  11  20  44  70  91 132 189 223 270 347 408
#     4  11  24  41  68 100 134 176 234 279 338 411
#     4  11  22  39  73  91 131 186 222 280 346 404
#
# _framework density 19.753086
#
# number of rings (size 3 to 8) (size 9 to 14) (size 15 to 20)
#    0.000    0.667    8.333    1.000    0.000    5.333 
#    0.000    4.167    0.000    0.000    0.000    0.000 
#    0.000    0.000    0.000    0.000    0.000    0.000 
#
# Total GULP energy -133940.412200 kJ/mol
# GULP energy per Si atom -5580.850508 kJ/mol
# Density = 1.970813 g / cm^3
# Si number density = 19.753086 Si / 1000 Ang^3
#
#
#
# Elastic Constant Matrix: (Units=GPa)
#
#
# Indices 1 2 3 4 5 6 
#
# 1 57.9095 -11.5474 -11.0020 0.0000 13.0137 0.0000
# 2 -11.5474 41.3977 -9.7504 0.0000 13.2265 0.0000
# 3 -11.0020 -9.7504 10.2155 0.0000 7.1714 0.0000
# 4 0.0000 0.0000 0.0000 17.4185 0.0000 6.8655
# 5 13.0137 13.2265 7.1714 0.0000 31.7653 0.0000
# 6 0.0000 0.0000 0.0000 6.8655 0.0000 42.8207
#
#
#
# Elastic Compliance Matrix: (Units=1/GPa)
#
#
# Indices 1 2 3 4 5 6 
#
# 1 -0.018806 -0.041566 -0.092078 0.000000 0.045799 0.000000
# 2 -0.041566 -0.033118 -0.116469 0.000000 0.057112 0.000000
# 3 -0.092078 -0.116469 -0.205544 0.000000 0.132622 0.000000
# 4 0.000000 0.000000 0.000000 0.061283 0.000000 -0.009826
# 5 0.045799 0.057112 0.132622 0.000000 -0.041004 0.000000
# 6 0.000000 0.000000 0.000000 -0.009826 0.000000 0.024929
#
#
# Mechanical properties :
#
#
# Convention : Reuss Voigt Hill
#
# Bulk Modulus (GPa) = -1.31980 4.99145 1.83583
# Shear Modulus (GPa) = 141.23814 27.85575 84.54695
#
# Velocity S-wave (km/s) = 8.46505 3.75933 6.54941
# Velocity P-wave (km/s) = 9.74028 4.62340 7.62394
#
# Compressibility (1/GPa) = -0.75769321
#
# Stress axis : x y z
#
# Youngs Moduli (GPa) = -53.17507 -30.19536 -4.86513
#
# Poissons Ratio (x) = -1.25509 -0.44797
# Poissons Ratio (y) = -2.21026 -0.56664
# Poissons Ratio (z) = -4.89627 -3.51682
#
# Static dielectric constant tensor:
#      x y z
#    x 1.803210 0.000000 0.029870 
#    y 0.000000 2.111250 0.000000 
#    z 0.029870 0.000000 1.650800 
# 
# From -- ./inp_files/15088.got.cif
#   From: 2010.05.17/outbox.ucp.g08.bks.cvg/sg14_8_cif.got.tgz:15088.got - 2010.06.11 12:31:08.
