data_PCOD9253626
_publ_section_title
;
Structure prediction by ZEFSAII (Michael W. Deem and Ramdas Pophale) SiO2 
 PCOD9253626
Probable space group: P 21/C
;
_chemical_formula_sum "Si O2"
_cell_formula_units_Z 32
_cell_length_a 12.000000
_cell_length_b 9.000000
_cell_length_c 15.000000
_cell_angle_alpha 90.000000
_cell_angle_beta 90.000000
_cell_angle_gamma 90.000000
_cell_volume 1620.000000
_symmetry_space_group_name_H-M "P 21/C"
_symmetry_group_IT_number 14
_symmetry_cell_setting 'monoclinic'
loop_
_space_group_symop_operation_xyz
x,y,z
-x,1/2+y,1/2-z
-x,-y,-z
x,1/2-y,1/2+z
loop_
_atom_site_type_symbol
_atom_site_label
_atom_site_fract_x
_atom_site_fract_y
_atom_site_fract_z
Si Si1 0.142627 0.196610 0.884043
Si Si2 0.962906 0.093551 0.088384
Si Si3 0.471643 0.771570 0.682032
Si Si4 0.587091 0.924561 0.849064
Si Si5 0.632795 0.769663 0.515153
Si Si6 0.933246 0.353323 0.972052
Si Si7 0.281593 0.508998 0.115584
Si Si8 0.182969 0.298848 0.691930
O O1 0.243256 0.213490 0.954844
O O2 0.172684 0.289010 0.797263
O O3 0.025706 0.265002 0.915882
O O4 0.117946 0.023307 0.863274
O O5 0.069804 0.147367 0.144493
O O6 0.905824 0.243984 0.054086
O O7 0.000000 0.000000 0.000000
O O8 0.525759 0.818064 0.776755
O O9 0.446076 0.595125 0.670470
O O10 0.560675 0.797546 0.602956
O O11 0.365627 0.880702 0.666695
O O12 0.719099 0.910314 0.833578
O O13 0.575667 0.850764 0.947963
O O14 0.650722 0.923307 0.462165
O O15 0.821194 0.396535 0.922213
O O16 0.000000 0.500000 0.000000
O O17 0.225106 0.366510 0.164338
#
# Coordination Sequence:
#
# PCOD9253626 Si02
#       8
#     4   4   4   4   4   4   4   4
#     4  11  24  40  67  94 135 173 221 272 334 403
#     4  10  22  39  65  92 131 175 219 267 338 396
#     4  12  26  44  70  99 130 180 226 275 341 405
#     4  11  24  45  69  95 136 172 224 280 335 400
#     4  11  23  47  68  96 133 177 221 281 336 396
#     4  11  20  41  64  95 127 173 217 267 334 398
#     4  11  24  41  68  95 134 171 218 278 336 397
#     4  11  23  43  63  96 138 174 216 284 331 397
#
# _framework density 19.753086
#
# number of rings (size 3 to 8) (size 9 to 14) (size 15 to 20)
#    0.000    1.000    3.750    4.500    7.000    0.000 
#    0.000    2.500    0.000    0.000    0.000    0.000 
#    0.000    0.000    0.000    0.000    0.000    0.000 
#
# Total GULP energy -178579.100976 kJ/mol
# GULP energy per Si atom -5580.596906 kJ/mol
# Density = 1.970813 g / cm^3
# Si number density = 19.753086 Si / 1000 Ang^3
#
#
#
# Elastic Constant Matrix: (Units=GPa)
#
#
# Indices 1 2 3 4 5 6 
#
# 1 74.6579 18.6126 23.4863 0.0000 33.9149 0.0000
# 2 18.6126 92.0168 16.6112 0.0000 16.1762 0.0000
# 3 23.4863 16.6112 81.4214 0.0000 20.9487 0.0000
# 4 0.0000 0.0000 0.0000 24.7550 0.0000 14.0244
# 5 33.9149 16.1762 20.9487 0.0000 36.5508 0.0000
# 6 0.0000 0.0000 0.0000 14.0244 0.0000 33.0001
#
#
#
# Elastic Compliance Matrix: (Units=1/GPa)
#
#
# Indices 1 2 3 4 5 6 
#
# 1 0.023347 -0.000882 -0.001268 0.000000 -0.020546 0.000000
# 2 -0.000882 0.011926 -0.001210 0.000000 -0.003767 0.000000
# 3 -0.001268 -0.001210 0.014608 0.000000 -0.006660 0.000000
# 4 0.000000 0.000000 0.000000 0.053206 0.000000 -0.022612
# 5 -0.020546 -0.003767 -0.006660 0.000000 0.051908 0.000000
# 6 0.000000 0.000000 0.000000 -0.022612 0.000000 0.039912
#
#
# Mechanical properties :
#
#
# Convention : Reuss Voigt Hill
#
# Bulk Modulus (GPa) = 23.16856 40.61293 31.89074
# Shear Modulus (GPa) = 23.14666 31.48690 27.31678
#
# Velocity S-wave (km/s) = 3.42687 3.99685 3.72279
# Velocity P-wave (km/s) = 5.23569 6.47339 5.88715
#
# Compressibility (1/GPa) = 0.04316194
#
# Stress axis : x y z
#
# Youngs Moduli (GPa) = 42.83274 83.84690 68.45550
#
# Poissons Ratio (x) = 0.07392 0.08683
# Poissons Ratio (y) = 0.03776 0.08281
# Poissons Ratio (z) = 0.05433 0.10143
#
# Static dielectric constant tensor:
#      x y z
#    x 1.647490 0.000000 -0.022130 
#    y 0.000000 1.718800 0.000000 
#    z -0.022130 0.000000 1.733400 
# 
# From -- ./inp_files/43727.got.cif
#   From: 2010.05.17/outbox.ucp.g08.bks.cvg/sg14_22_cif.got.tgz:43727.got - 2010.06.11 12:31:08.
