data_PCOD9253780
_publ_section_title
;
Structure prediction by ZEFSAII (Michael W. Deem and Ramdas Pophale) SiO2 
 PCOD9253780
Probable space group: C 2/C
;
_chemical_formula_sum "Si O2"
_cell_formula_units_Z 44
_cell_length_a 7.809233
_cell_length_b 24.329991
_cell_length_c 15.324668
_cell_angle_alpha 90.000000
_cell_angle_beta 42.971035
_cell_angle_gamma 90.000000
_cell_volume 1984.673976
_symmetry_space_group_name_H-M "C 2/C"
_symmetry_group_IT_number 15
_symmetry_cell_setting 'monoclinic'
loop_
_space_group_symop_operation_xyz
x,y,z
-x,y,1/2-z
-x,-y,-z
x,-y,1/2+z
1/2+x,1/2+y,z
1/2-x,1/2+y,1/2-z
1/2-x,1/2-y,-z
1/2+x,1/2-y,1/2+z
loop_
_atom_site_type_symbol
_atom_site_label
_atom_site_fract_x
_atom_site_fract_y
_atom_site_fract_z
Si Si1 0.128508 0.085520 0.539251
Si Si2 0.712425 0.522100 0.092844
Si Si3 0.101554 0.735475 0.964660
Si Si4 0.676115 0.134580 0.389794
Si Si5 0.500000 0.348606 0.250000
Si Si6 0.303481 0.348890 0.651045
O O1 0.402107 0.111210 0.460813
O O2 0.965340 0.113862 0.676955
O O3 0.093816 0.105849 0.454302
O O4 0.118659 0.020281 0.554792
O O5 0.500000 0.516834 0.250000
O O6 0.756458 0.587029 0.066747
O O7 0.000000 0.500000 0.000000
O O8 0.271329 0.692985 0.847579
O O9 0.073055 0.791770 0.923988
O O10 0.250000 0.750000 0.000000
O O11 0.859444 0.698073 0.071948
O O12 0.828726 0.136698 0.242674
O O13 0.000000 0.341932 0.750000
#
# Coordination Sequence:
#
# PCOD9253780 Si02
#       6
#     8   8   8   8   4   8
#     4   9  17  27  48  70 105 139 179 221 266 322
#     4  10  20  37  56  78 107 150 192 229 271 331
#     4  11  15  24  44  74 109 137 167 227 282 320
#     4   9  19  29  46  77 108 142 176 227 288 322
#     4  10  14  22  38  68  96 132 166 208 264 314
#     4  10  16  27  44  77 112 138 175 230 283 322
#
# _framework density 22.169888
#
# number of rings (size 3 to 8) (size 9 to 14) (size 15 to 20)
#    0.000    2.182    7.273    0.000    0.000    0.000 
#    0.000    0.909    0.000    1.091    0.000    0.000 
#    0.000    0.000    0.000    0.000    0.000    0.000 
#
# Total GULP energy -122521.331766 kJ/mol
# GULP energy per Si atom -5569.151444 kJ/mol
# Density = 2.211943 g / cm^3
# Si number density = 22.169888 Si / 1000 Ang^3
#
#
#
# Elastic Constant Matrix: (Units=GPa)
#
#
# Indices 1 2 3 4 5 6 
#
# 1 64.9301 48.1477 28.6070 0.0000 18.8317 0.0000
# 2 48.1477 180.2865 47.9173 0.0000 29.9159 0.0000
# 3 28.6070 47.9173 106.4421 0.0000 16.6290 0.0000
# 4 0.0000 0.0000 0.0000 37.2906 0.0000 -6.8853
# 5 18.8317 29.9159 16.6290 0.0000 38.9865 0.0000
# 6 0.0000 0.0000 0.0000 -6.8853 0.0000 14.3405
#
#
#
# Elastic Compliance Matrix: (Units=1/GPa)
#
#
# Indices 1 2 3 4 5 6 
#
# 1 0.021387 -0.003899 -0.003049 0.000000 -0.006038 0.000000
# 2 -0.003899 0.007613 -0.001886 0.000000 -0.003153 0.000000
# 3 -0.003049 -0.001886 0.011365 0.000000 -0.001927 0.000000
# 4 0.000000 0.000000 0.000000 0.029425 0.000000 0.014128
# 5 -0.006038 -0.003153 -0.001927 0.000000 0.031808 0.000000
# 6 0.000000 0.000000 0.000000 0.014128 0.000000 0.076515
#
#
# Mechanical properties :
#
#
# Convention : Reuss Voigt Hill
#
# Bulk Modulus (GPa) = 44.06363 66.77807 55.42085
# Shear Modulus (GPa) = 24.58839 33.25599 28.92219
#
# Velocity S-wave (km/s) = 3.33391 3.87725 3.61580
# Velocity P-wave (km/s) = 5.89394 7.08735 6.51802
#
# Compressibility (1/GPa) = 0.02269445
#
# Stress axis : x y z
#
# Youngs Moduli (GPa) = 46.75657 131.35857 87.99299
#
# Poissons Ratio (x) = 0.51222 0.26832
# Poissons Ratio (y) = 0.18232 0.16599
# Poissons Ratio (z) = 0.14257 0.24780
#
# Static dielectric constant tensor:
#      x y z
#    x 1.563420 0.000000 0.719490 
#    y 0.000000 1.814620 0.000000 
#    z 0.719490 0.000000 -0.051280 
# 
# From -- ./inp_files/88600.got.cif
#   From: 2010.05.17/outbox.cif.g08.bks.cpg/sg15_45_cif.got.tgz:88600.got - 2010.06.03 18:47:42.
