data_PCOD9253999
_publ_section_title
;
Structure prediction by ZEFSAII (Michael W. Deem and Ramdas Pophale) SiO2 
 PCOD9253999
Probable space group: C 2/C
;
_chemical_formula_sum "Si O2"
_cell_formula_units_Z 60
_cell_length_a 21.889508
_cell_length_b 13.139971
_cell_length_c 10.858728
_cell_angle_alpha 90.000000
_cell_angle_beta 107.152725
_cell_angle_gamma 90.000000
_cell_volume 2984.352126
_symmetry_space_group_name_H-M "C 2/C"
_symmetry_group_IT_number 15
_symmetry_cell_setting 'monoclinic'
loop_
_space_group_symop_operation_xyz
x,y,z
-x,y,1/2-z
-x,-y,-z
x,-y,1/2+z
1/2+x,1/2+y,z
1/2-x,1/2+y,1/2-z
1/2-x,1/2-y,-z
1/2+x,1/2-y,1/2+z
loop_
_atom_site_type_symbol
_atom_site_label
_atom_site_fract_x
_atom_site_fract_y
_atom_site_fract_z
Si Si1 0.637959 0.177158 0.377805
Si Si2 0.565772 0.581702 0.621688
Si Si3 0.174999 0.130022 0.053977
Si Si4 0.500000 0.742262 0.750000
Si Si5 0.795490 0.187101 0.782506
Si Si6 0.288830 0.339831 0.645704
Si Si7 0.220228 0.458090 0.049498
Si Si8 0.093061 0.042585 0.379678
O O1 0.664897 0.260405 0.489580
O O2 0.563261 0.193878 0.314099
O O3 0.676445 0.215710 0.278414
O O4 0.651469 0.071730 0.456256
O O5 0.520492 0.667664 0.651681
O O6 0.640102 0.621219 0.659112
O O7 0.547292 0.570510 0.466799
O O8 0.569260 0.493980 0.730635
O O9 0.180807 0.141911 0.201200
O O10 0.238221 0.075819 0.043318
O O11 0.122471 0.059482 0.958635
O O12 0.751085 0.234156 0.864410
O O13 0.749452 0.113349 0.674858
O O14 0.236501 0.427098 0.589602
O O15 0.351138 0.371722 0.601936
#
# Coordination Sequence:
#
# PCOD9253999 Si02
#       8
#     8   8   8   4   8   8   8   8
#     4  10  17  32  56  74 106 146 198 226 268 326
#     4  11  22  37  54  80 114 147 193 230 278 334
#     4  10  15  31  52  79 106 138 174 226 277 342
#     4  10  22  36  54  80 102 154 200 240 260 320
#     4  10  17  33  54  80 111 144 176 229 284 343
#     4  11  19  28  55  85 117 140 172 225 295 342
#     4  10  17  28  52  85 107 144 181 230 282 342
#     4  11  20  33  54  80 117 144 178 230 279 348
#
# _framework density 20.104866000000001
#
# number of rings (size 3 to 8) (size 9 to 14) (size 15 to 20)
#    0.000    1.600    9.333    0.800    0.000    1.067 
#    0.000    0.000    0.000    3.200    0.000    0.000 
#    0.000    0.000    0.000    0.000    0.000    0.000 
#
# Total GULP energy -167009.293950 kJ/mol
# GULP energy per Si atom -5566.976465 kJ/mol
# Density = 2.005911 g / cm^3
# Si number density = 20.104866 Si / 1000 Ang^3
#
#
#
# Elastic Constant Matrix: (Units=GPa)
#
#
# Indices 1 2 3 4 5 6 
#
# 1 84.3603 21.8796 43.1660 0.0000 -1.7922 0.0000
# 2 21.8796 31.0412 14.8670 0.0000 0.5956 0.0000
# 3 43.1660 14.8670 104.3844 0.0000 -16.6078 0.0000
# 4 0.0000 0.0000 0.0000 44.4413 0.0000 34.9612
# 5 -1.7922 0.5956 -16.6078 0.0000 33.5321 0.0000
# 6 0.0000 0.0000 0.0000 34.9612 0.0000 78.7572
#
#
#
# Elastic Compliance Matrix: (Units=1/GPa)
#
#
# Indices 1 2 3 4 5 6 
#
# 1 0.017373 -0.009248 -0.006180 0.000000 -0.001968 0.000000
# 2 -0.009248 0.039839 -0.002216 0.000000 -0.002299 0.000000
# 3 -0.006180 -0.002216 0.013466 0.000000 0.006379 0.000000
# 4 0.000000 0.000000 0.000000 0.034576 0.000000 -0.015349
# 5 -0.001968 -0.002299 0.006379 0.000000 0.032917 0.000000
# 6 0.000000 0.000000 0.000000 -0.015349 0.000000 0.019511
#
#
# Mechanical properties :
#
#
# Convention : Reuss Voigt Hill
#
# Bulk Modulus (GPa) = 28.25608 42.17903 35.21755
# Shear Modulus (GPa) = 24.41812 40.67100 32.54456
#
# Velocity S-wave (km/s) = 3.48880 4.50259 4.02772
# Velocity P-wave (km/s) = 5.50580 6.93226 6.25979
#
# Compressibility (1/GPa) = 0.03539062
#
# Stress axis : x y z
#
# Youngs Moduli (GPa) = 57.56083 25.10110 74.26048
#
# Poissons Ratio (x) = 0.23213 0.45895
# Poissons Ratio (y) = 0.53230 0.16454
# Poissons Ratio (z) = 0.35574 0.05562
#
# Static dielectric constant tensor:
#      x y z
#    x 1.426920 0.000000 -0.454080 
#    y 0.000000 1.833170 0.000000 
#    z -0.454080 0.000000 1.239410 
# 
# From -- ./inp_files/112394.got.cif
#   From: 2010.05.17/outbox.cif.g08.bks.cpg/sg15_57_cif.got.tgz:112394.got - 2010.06.03 18:47:42.
