data_PCOD9253105
_publ_section_title
;
Structure prediction by ZEFSAII (Michael W. Deem and Ramdas Pophale) SiO2 
 PCOD9253105
Probable space group: P 21/C
;
_chemical_formula_sum "Si O2"
_cell_formula_units_Z 22
_cell_length_a 7.364639
_cell_length_b 16.768333
_cell_length_c 7.993949
_cell_angle_alpha 90.000000
_cell_angle_beta 59.063125
_cell_angle_gamma 90.000000
_cell_volume 846.750502
_symmetry_space_group_name_H-M "P 21/C"
_symmetry_group_IT_number 14
_symmetry_cell_setting 'monoclinic'
loop_
_space_group_symop_operation_xyz
x,y,z
-x,1/2+y,1/2-z
-x,-y,-z
x,1/2-y,1/2+z
loop_
_atom_site_type_symbol
_atom_site_label
_atom_site_fract_x
_atom_site_fract_y
_atom_site_fract_z
Si Si1 0.638160 0.054901 0.815869
Si Si2 0.213179 0.713111 0.620773
Si Si3 0.500000 0.500000 0.000000
Si Si4 0.536141 0.853218 0.385262
Si Si5 0.079247 0.311256 0.527879
Si Si6 0.009399 0.528261 0.302566
O O1 0.642952 0.148227 0.858048
O O2 0.526067 0.061117 0.686895
O O3 0.875041 0.025136 0.737206
O O4 0.500000 0.000000 0.000000
O O5 0.351389 0.790796 0.509933
O O6 0.008567 0.736087 0.828969
O O7 0.119680 0.673625 0.499740
O O8 0.398760 0.404676 0.986735
O O9 0.254013 0.531501 0.152711
O O10 0.716231 0.811585 0.188159
O O11 0.096322 0.384245 0.647146
O O12 0.000000 0.500000 0.500000
#
# Coordination Sequence:
#
# PCOD9253105 Si02
#       6
#     4   4   2   4   4   4
#     4  12  25  47  76 112 149 198 257 315 369 458
#     4  12  27  47  72 109 153 194 253 309 381 459
#     4  12  24  46  74 106 144 200 242 304 382 448
#     4  12  27  46  75 111 147 201 252 310 388 447
#     4  12  26  48  72 105 148 196 244 313 380 450
#     4  12  23  46  72 101 145 193 244 308 372 443
#
# _framework density 25.981680000000001
#
# number of rings (size 3 to 8) (size 9 to 14) (size 15 to 20)
#    0.000    0.000    9.091    0.000    2.545    0.727 
#    3.273    0.000    0.000    0.000    0.000    0.000 
#    0.000    0.000    0.000    0.000    0.000    0.000 
#
# Total GULP energy -122711.836433 kJ/mol
# GULP energy per Si atom -5577.810747 kJ/mol
# Density = 2.592255 g / cm^3
# Si number density = 25.981680 Si / 1000 Ang^3
#
#
#
# Elastic Constant Matrix: (Units=GPa)
#
#
# Indices 1 2 3 4 5 6 
#
# 1 107.9822 33.6710 32.0061 0.0000 -2.6697 0.0000
# 2 33.6710 147.0121 44.4257 0.0000 -12.5767 0.0000
# 3 32.0061 44.4257 141.8547 0.0000 -48.9986 0.0000
# 4 0.0000 0.0000 0.0000 37.2726 0.0000 -11.2646
# 5 -2.6697 -12.5767 -48.9986 0.0000 46.0605 0.0000
# 6 0.0000 0.0000 0.0000 -11.2646 0.0000 55.3175
#
#
#
# Elastic Compliance Matrix: (Units=1/GPa)
#
#
# Indices 1 2 3 4 5 6 
#
# 1 0.010591 -0.001822 -0.002812 0.000000 -0.002875 0.000000
# 2 -0.001822 0.007841 -0.002121 0.000000 -0.000221 0.000000
# 3 -0.002812 -0.002121 0.012792 0.000000 0.012866 0.000000
# 4 0.000000 0.000000 0.000000 0.028589 0.000000 0.005822
# 5 -0.002875 -0.000221 0.012866 0.000000 0.035171 0.000000
# 6 0.000000 0.000000 0.000000 0.005822 0.000000 0.019263
#
#
# Mechanical properties :
#
#
# Convention : Reuss Voigt Hill
#
# Bulk Modulus (GPa) = 56.44924 68.56161 62.50543
# Shear Modulus (GPa) = 37.40749 46.84654 42.12701
#
# Velocity S-wave (km/s) = 3.79854 4.25085 4.03104
# Velocity P-wave (km/s) = 6.40408 7.10906 6.76576
#
# Compressibility (1/GPa) = 0.01771503
#
# Stress axis : x y z
#
# Youngs Moduli (GPa) = 94.41644 127.52663 78.17120
#
# Poissons Ratio (x) = 0.23235 0.21984
# Poissons Ratio (y) = 0.17202 0.16580
# Poissons Ratio (z) = 0.26552 0.27048
#
# Static dielectric constant tensor:
#      x y z
#    x 2.195210 0.000000 0.141960 
#    y 0.000000 2.413610 0.000000 
#    z 0.141960 0.000000 2.129090 
# 
# From -- ./inp_files/9338.got.cif
#   From: 2010.05.17/outbox.cif.g08.bks.cpg/sg14_5_cif.got.tgz:9338.got - 2010.06.03 17:49:19.
