data_PCOD9253035
_publ_section_title
;
Structure prediction by ZEFSAII (Michael W. Deem and Ramdas Pophale) SiO2 
 PCOD9253035
Probable space group: P 21/C
;
_chemical_formula_sum "Si O2"
_cell_formula_units_Z 24
_cell_length_a 8.585827
_cell_length_b 14.175819
_cell_length_c 9.755887
_cell_angle_alpha 90.000000
_cell_angle_beta 91.442801
_cell_angle_gamma 90.000000
_cell_volume 1187.023572
_symmetry_space_group_name_H-M "P 21/C"
_symmetry_group_IT_number 14
_symmetry_cell_setting 'monoclinic'
loop_
_space_group_symop_operation_xyz
x,y,z
-x,1/2+y,1/2-z
-x,-y,-z
x,1/2-y,1/2+z
loop_
_atom_site_type_symbol
_atom_site_label
_atom_site_fract_x
_atom_site_fract_y
_atom_site_fract_z
Si Si1 0.965610 0.526102 0.655604
Si Si2 0.138881 0.271277 0.247865
Si Si3 0.318560 0.710243 0.029917
Si Si4 0.322761 0.162009 0.483749
Si Si5 0.184505 0.836246 0.812486
Si Si6 0.158539 0.524037 0.920841
O O1 0.908958 0.632631 0.675219
O O2 0.839481 0.448181 0.701210
O O3 0.000000 0.500000 0.500000
O O4 0.112870 0.515856 0.760478
O O5 0.247281 0.210823 0.349443
O O6 0.985678 0.211083 0.207160
O O7 0.228675 0.301046 0.113073
O O8 0.497198 0.688217 0.002672
O O9 0.286795 0.704760 0.190762
O O10 0.260469 0.805928 0.957518
O O11 0.212727 0.628299 0.960126
O O12 0.288384 0.051073 0.466856
O O13 0.000000 0.500000 0.000000
#
# Coordination Sequence:
#
# PCOD9253035 Si02
#       6
#     4   4   4   4   4   4
#     4  12  24  40  67  99 122 163 229 270 309 375
#     4  12  23  43  68  94 129 173 223 263 316 399
#     4  12  25  42  65  99 134 169 213 277 332 376
#     4  12  25  42  65  99 134 169 213 277 332 376
#     4  12  23  43  68  94 129 173 223 263 316 399
#     4  12  21  44  69  93 125 174 225 263 316 397
#
# _framework density 20.218636
#
# number of rings (size 3 to 8) (size 9 to 14) (size 15 to 20)
#    0.000    0.000    6.667    4.500    0.000    0.000 
#    0.000    0.833    0.000    0.000    0.000    0.000 
#    0.000    0.000    0.000    0.000    0.000    0.000 
#
# Total GULP energy -134354.135381 kJ/mol
# GULP energy per Si atom -5598.088974 kJ/mol
# Density = 2.017262 g / cm^3
# Si number density = 20.218636 Si / 1000 Ang^3
#
#
#
# Elastic Constant Matrix: (Units=GPa)
#
#
# Indices 1 2 3 4 5 6 
#
# 1 80.8735 -9.3025 -12.0066 0.0000 7.8940 0.0000
# 2 -9.3025 52.7634 -29.1961 0.0000 9.6440 0.0000
# 3 -12.0066 -29.1961 80.2366 0.0000 -7.6762 0.0000
# 4 0.0000 0.0000 0.0000 30.6428 0.0000 4.2356
# 5 7.8940 9.6440 -7.6762 0.0000 25.1060 0.0000
# 6 0.0000 0.0000 0.0000 4.2356 0.0000 25.0692
#
#
#
# Elastic Compliance Matrix: (Units=1/GPa)
#
#
# Indices 1 2 3 4 5 6 
#
# 1 0.014048 0.005438 0.003563 0.000000 -0.005417 0.000000
# 2 0.005438 0.026972 0.009759 0.000000 -0.009087 0.000000
# 3 0.003563 0.009759 0.016566 0.000000 0.000196 0.000000
# 4 0.000000 0.000000 0.000000 0.033414 0.000000 -0.005646
# 5 -0.005417 -0.009087 0.000196 0.000000 0.045085 0.000000
# 6 0.000000 0.000000 0.000000 -0.005646 0.000000 0.040843
#
#
# Mechanical properties :
#
#
# Convention : Reuss Voigt Hill
#
# Bulk Modulus (GPa) = 10.51449 12.54034 11.52742
# Shear Modulus (GPa) = 29.22070 33.78884 31.50477
#
# Velocity S-wave (km/s) = 3.80575 4.09243 3.95169
# Velocity P-wave (km/s) = 4.95210 5.34289 5.15121
#
# Compressibility (1/GPa) = 0.09510683
#
# Stress axis : x y z
#
# Youngs Moduli (GPa) = 71.18347 37.07507 60.36424
#
# Poissons Ratio (x) = -0.20163 -0.21507
# Poissons Ratio (y) = -0.38712 -0.58909
# Poissons Ratio (z) = -0.25361 -0.36182
#
# Static dielectric constant tensor:
#      x y z
#    x 1.673110 0.000000 -0.011180 
#    y 0.000000 1.727960 0.000000 
#    z -0.011180 0.000000 1.725320 
# 
# From -- ./inp_files/8402.got.cif
#   From: 2010.05.17/outbox.cif.g08.bks.cpg/sg14_5_cif.got.tgz:8402.got - 2010.06.03 17:49:19.
