data_PCOD9253083
_publ_section_title
;
Structure prediction by ZEFSAII (Michael W. Deem and Ramdas Pophale) SiO2 
 PCOD9253083
Probable space group: P 21/C
;
_chemical_formula_sum "Si O2"
_cell_formula_units_Z 24
_cell_length_a 8.975563
_cell_length_b 13.966467
_cell_length_c 8.369108
_cell_angle_alpha 90.000000
_cell_angle_beta 95.043355
_cell_angle_gamma 90.000000
_cell_volume 1045.063744
_symmetry_space_group_name_H-M "P 21/C"
_symmetry_group_IT_number 14
_symmetry_cell_setting 'monoclinic'
loop_
_space_group_symop_operation_xyz
x,y,z
-x,1/2+y,1/2-z
-x,-y,-z
x,1/2-y,1/2+z
loop_
_atom_site_type_symbol
_atom_site_label
_atom_site_fract_x
_atom_site_fract_y
_atom_site_fract_z
Si Si1 0.402933 0.389174 0.139746
Si Si2 0.616316 0.995841 0.865781
Si Si3 0.031077 0.705480 0.284781
Si Si4 0.914902 0.111432 0.876029
Si Si5 0.319779 0.303574 0.797029
Si Si6 0.892753 0.487518 0.837696
O O1 0.542651 0.453021 0.204429
O O2 0.386370 0.298343 0.255356
O O3 0.259297 0.457100 0.146353
O O4 0.394044 0.343823 0.964134
O O5 0.765498 0.056154 0.910623
O O6 0.654021 0.886053 0.831710
O O7 0.500000 0.000000 0.000000
O O8 0.026940 0.671023 0.467064
O O9 0.104047 0.808410 0.263538
O O10 0.121882 0.624424 0.198800
O O11 0.859916 0.707431 0.205713
O O12 0.026837 0.035002 0.808495
O O13 0.000000 0.500000 0.000000
#
# Coordination Sequence:
#
# PCOD9253083 Si02
#       6
#     4   4   4   4   4   4
#     4  12  26  44  74 104 145 188 240 298 365 435
#     4  12  28  48  71 106 150 193 237 296 369 437
#     4  12  24  42  74 102 143 183 247 303 357 417
#     4  12  26  44  71 106 142 188 244 299 355 433
#     4  12  25  46  73 103 141 191 241 297 366 430
#     4  12  23  43  71 108 138 185 244 298 354 425
#
# _framework density 22.965108000000001
#
# number of rings (size 3 to 8) (size 9 to 14) (size 15 to 20)
#    0.000    0.000    5.000    5.000    2.333    4.000 
#    0.000    0.000    0.000    0.000    0.000    0.000 
#    0.000    0.000    0.000    0.000    0.000    0.000 
#
# Total GULP energy -134547.891239 kJ/mol
# GULP energy per Si atom -5606.162135 kJ/mol
# Density = 2.291284 g / cm^3
# Si number density = 22.965108 Si / 1000 Ang^3
#
#
#
# Elastic Constant Matrix: (Units=GPa)
#
#
# Indices 1 2 3 4 5 6 
#
# 1 43.0059 37.9067 13.0847 0.0000 6.9893 0.0000
# 2 37.9067 128.9539 -9.7908 0.0000 -9.0108 0.0000
# 3 13.0847 -9.7908 82.7360 0.0000 5.8197 0.0000
# 4 0.0000 0.0000 0.0000 42.7961 0.0000 -8.2479
# 5 6.9893 -9.0108 5.8197 0.0000 30.4895 0.0000
# 6 0.0000 0.0000 0.0000 -8.2479 0.0000 35.9875
#
#
#
# Elastic Compliance Matrix: (Units=1/GPa)
#
#
# Indices 1 2 3 4 5 6 
#
# 1 0.038126 -0.012497 -0.006724 0.000000 -0.011150 0.000000
# 2 -0.012497 0.012065 0.002992 0.000000 0.005859 0.000000
# 3 -0.006724 0.002992 0.013515 0.000000 -0.000154 0.000000
# 4 0.000000 0.000000 0.000000 0.024446 0.000000 0.005603
# 5 -0.011150 0.005859 -0.000154 0.000000 0.037115 0.000000
# 6 0.000000 0.000000 0.000000 0.005603 0.000000 0.029072
#
#
# Mechanical properties :
#
#
# Convention : Reuss Voigt Hill
#
# Bulk Modulus (GPa) = 32.00275 37.45523 34.72899
# Shear Modulus (GPa) = 25.35337 36.08764 30.72050
#
# Velocity S-wave (km/s) = 3.32625 3.96840 3.66143
# Velocity P-wave (km/s) = 5.35887 6.11087 5.74718
#
# Compressibility (1/GPa) = 0.03124731
#
# Stress axis : x y z
#
# Youngs Moduli (GPa) = 26.22904 82.88556 73.99213
#
# Poissons Ratio (x) = 1.03581 0.49753
# Poissons Ratio (y) = 0.32778 -0.22138
# Poissons Ratio (z) = 0.17637 -0.24799
#
# Static dielectric constant tensor:
#      x y z
#    x 1.814530 0.000000 0.005330 
#    y 0.000000 1.826780 0.000000 
#    z 0.005330 0.000000 1.912830 
# 
# From -- ./inp_files/8589.got.cif
#   From: 2010.05.17/outbox.cif.g08.bks.cpg/sg14_5_cif.got.tgz:8589.got - 2010.06.03 17:49:19.
