data_PCOD9253838
_publ_section_title
;
Structure prediction by ZEFSAII (Michael W. Deem and Ramdas Pophale) SiO2 
 PCOD9253838
Probable space group: C 2/C
;
_chemical_formula_sum "Si O2"
_cell_formula_units_Z 56
_cell_length_a 7.226721
_cell_length_b 16.904298
_cell_length_c 25.438265
_cell_angle_alpha 90.000000
_cell_angle_beta 134.690966
_cell_angle_gamma 90.000000
_cell_volume 2209.229155
_symmetry_space_group_name_H-M "C 2/C"
_symmetry_group_IT_number 15
_symmetry_cell_setting 'monoclinic'
loop_
_space_group_symop_operation_xyz
x,y,z
-x,y,1/2-z
-x,-y,-z
x,-y,1/2+z
1/2+x,1/2+y,z
1/2-x,1/2+y,1/2-z
1/2-x,1/2-y,-z
1/2+x,1/2-y,1/2+z
loop_
_atom_site_type_symbol
_atom_site_label
_atom_site_fract_x
_atom_site_fract_y
_atom_site_fract_z
Si Si1 0.730342 0.165184 0.901129
Si Si2 0.686597 0.005719 0.426561
Si Si3 0.971855 0.998791 0.155158
Si Si4 0.283943 0.883009 0.663296
Si Si5 0.168214 0.717399 0.609516
Si Si6 0.500000 0.404613 0.250000
Si Si7 0.500000 0.898917 0.250000
Si Si8 0.715954 0.883221 0.020941
O O1 0.584432 0.230845 0.904402
O O2 0.600040 0.153479 0.818110
O O3 0.037223 0.162642 0.955034
O O4 0.639104 0.087406 0.915084
O O5 0.657027 0.043603 0.363277
O O6 0.573862 0.066887 0.447146
O O7 0.000000 0.000000 0.500000
O O8 0.038831 0.085486 0.148434
O O9 0.250999 0.950191 0.219159
O O10 0.847241 0.976487 0.185605
O O11 0.833146 0.953216 0.080493
O O12 0.500000 0.868715 0.750000
O O13 0.269438 0.806320 0.624088
O O14 0.378223 0.663906 0.684547
O O15 0.101692 0.676165 0.541072
#
# Coordination Sequence:
#
# PCOD9253838 Si02
#       8
#     8   8   8   8   8   4   4   8
#     4  10  19  35  64  86 118 167 205 245 305 373
#     4  10  19  39  65  90 120 165 219 252 299 373
#     4  10  17  33  59  80 111 157 203 240 294 357
#     4  12  22  36  62  95 122 160 205 266 314 362
#     4  11  23  37  58  93 127 156 200 258 323 359
#     4  10  20  35  55  84 122 154 202 256 298 375
#     4  10  14  29  57  84 100 148 208 232 282 353
#     4   9  21  39  62  87 116 167 209 252 293 377
#
# _framework density 25.348210999999999
#
# number of rings (size 3 to 8) (size 9 to 14) (size 15 to 20)
#    0.000    1.714    7.143    0.000    0.000    1.143 
#    0.000    5.000    0.000    0.000    0.000    0.000 
#    0.000    0.000    0.000    0.000    0.000    0.000 
#
# Total GULP energy -155961.786864 kJ/mol
# GULP energy per Si atom -5570.063817 kJ/mol
# Density = 2.529052 g / cm^3
# Si number density = 25.348211 Si / 1000 Ang^3
#
#
#
# Elastic Constant Matrix: (Units=GPa)
#
#
# Indices 1 2 3 4 5 6 
#
# 1 74.0893 0.7333 9.3826 0.0001 -12.5888 0.0001
# 2 0.7333 91.7385 14.8725 0.0000 -5.9965 0.0000
# 3 9.3826 14.8725 92.3732 0.0002 -17.2358 0.0001
# 4 0.0001 0.0000 0.0002 4.1940 0.0001 -4.7174
# 5 -12.5888 -5.9965 -17.2358 0.0001 26.3278 0.0001
# 6 0.0001 0.0000 0.0001 -4.7174 0.0001 22.9693
#
#
#
# Elastic Compliance Matrix: (Units=1/GPa)
#
#
# Indices 1 2 3 4 5 6 
#
# 1 0.014707 0.000379 -0.000258 -0.000001 0.006949 0.000000
# 2 0.000379 0.011259 -0.001525 0.000000 0.001747 0.000000
# 3 -0.000258 -0.001525 0.012542 -0.000001 0.007740 0.000000
# 4 -0.000001 0.000000 -0.000001 0.310060 -0.000003 0.063680
# 5 0.006949 0.001747 0.007740 -0.000003 0.046770 -0.000001
# 6 0.000000 0.000000 0.000000 0.063680 -0.000001 0.056615
#
#
# Mechanical properties :
#
#
# Convention : Reuss Voigt Hill
#
# Bulk Modulus (GPa) = 28.01283 34.24199 31.12741
# Shear Modulus (GPa) = 10.71439 26.24573 18.48006
#
# Velocity S-wave (km/s) = 2.05817 3.22127 2.70302
# Velocity P-wave (km/s) = 4.08941 5.23196 4.69556
#
# Compressibility (1/GPa) = 0.03569793
#
# Stress axis : x y z
#
# Youngs Moduli (GPa) = 67.99496 88.81799 79.73482
#
# Poissons Ratio (x) = -0.03362 0.02058
# Poissons Ratio (y) = -0.02574 0.12162
# Poissons Ratio (z) = 0.01755 0.13547
#
# Static dielectric constant tensor:
#      x y z
#    x 1.550960 0.000000 0.170740 
#    y 0.000000 1.970450 0.000000 
#    z 0.170740 0.000000 2.013090 
# 
# From -- ./inp_files/289407.got.cif
#   From: 2010.05.17/outbox.cif.g08.bks.cpg/sg15_145_cif.got.tgz:289407.got - 2010.06.03 18:47:42.
