data_PCOD9253442
_publ_section_title
;
Structure prediction by ZEFSAII (Michael W. Deem and Ramdas Pophale) SiO2 
 PCOD9253442
Probable space group: P 21/C
;
_chemical_formula_sum "Si O2"
_cell_formula_units_Z 20
_cell_length_a 19.741391
_cell_length_b 9.884000
_cell_length_c 13.642844
_cell_angle_alpha 90.000000
_cell_angle_beta 164.357741
_cell_angle_gamma 90.000000
_cell_volume 717.767569
_symmetry_space_group_name_H-M "P 21/C"
_symmetry_group_IT_number 14
_symmetry_cell_setting 'monoclinic'
loop_
_space_group_symop_operation_xyz
x,y,z
-x,1/2+y,1/2-z
-x,-y,-z
x,1/2-y,1/2+z
loop_
_atom_site_type_symbol
_atom_site_label
_atom_site_fract_x
_atom_site_fract_y
_atom_site_fract_z
Si Si1 0.586154 0.509762 0.424450
Si Si2 0.305943 0.914224 0.363790
Si Si3 0.293972 0.176386 0.229963
Si Si4 0.735526 0.335670 0.801413
Si Si5 0.014380 0.904688 0.651682
O O1 0.358920 0.579629 0.052362
O O2 0.540803 0.412964 0.453380
O O3 0.715882 0.418056 0.520352
O O4 0.820310 0.600052 0.788332
O O5 0.573205 0.886516 0.680631
O O6 0.152100 0.787556 0.106976
O O7 0.225384 0.058349 0.209369
O O8 0.536987 0.270292 0.599721
O O9 0.057044 0.274028 0.885531
O O10 0.925325 0.458798 0.083791
#
# Coordination Sequence:
#
# PCOD9253442 Si02
#       5
#     4   4   4   4   4
#     4   9  19  32  51  73 102 123 162 203 242 279
#     4   9  19  33  51  75  99 125 163 209 232 286
#     4   9  18  33  53  71  99 128 165 197 243 285
#     4   8  17  33  53  71  91 138 160 198 236 299
#     4   9  18  33  53  70 100 131 158 200 242 295
#
# _framework density 27.864176
#
# number of rings (size 3 to 8) (size 9 to 14) (size 15 to 20)
#    2.400    0.800    0.000    0.600    2.800    0.000 
#    3.600    1.000    0.000    0.000    0.000    0.000 
#    0.000    0.000    0.000    0.000    0.000    0.000 
#
# Total GULP energy -111560.863363 kJ/mol
# GULP energy per Si atom -5578.043168 kJ/mol
# Density = 2.780076 g / cm^3
# Si number density = 27.864176 Si / 1000 Ang^3
#
#
#
# Elastic Constant Matrix: (Units=GPa)
#
#
# Indices 1 2 3 4 5 6 
#
# 1 63.0385 21.4498 24.2907 0.0000 -1.2827 0.0000
# 2 21.4498 136.1080 15.2079 0.0000 1.1876 0.0000
# 3 24.2907 15.2079 77.3415 0.0000 5.3732 0.0000
# 4 0.0000 0.0000 0.0000 18.2868 0.0000 1.1817
# 5 -1.2827 1.1876 5.3732 0.0000 49.4237 0.0000
# 6 0.0000 0.0000 0.0000 1.1817 0.0000 38.6334
#
#
#
# Elastic Compliance Matrix: (Units=1/GPa)
#
#
# Indices 1 2 3 4 5 6 
#
# 1 0.018818 -0.002358 -0.005526 0.000000 0.001146 0.000000
# 2 -0.002358 0.007808 -0.000783 0.000000 -0.000164 0.000000
# 3 -0.005526 -0.000783 0.014941 0.000000 -0.001749 0.000000
# 4 0.000000 0.000000 0.000000 0.054793 0.000000 -0.001676
# 5 0.001146 -0.000164 -0.001749 0.000000 0.020457 0.000000
# 6 0.000000 0.000000 0.000000 -0.001676 0.000000 0.025936
#
#
# Mechanical properties :
#
#
# Convention : Reuss Voigt Hill
#
# Bulk Modulus (GPa) = 41.26840 44.26498 42.76669
# Shear Modulus (GPa) = 29.73275 35.63808 32.68542
#
# Velocity S-wave (km/s) = 3.27013 3.58018 3.42866
# Velocity P-wave (km/s) = 5.39454 5.74550 5.57278
#
# Compressibility (1/GPa) = 0.02423162
#
# Stress axis : x y z
#
# Youngs Moduli (GPa) = 53.13929 128.07881 66.93078
#
# Poissons Ratio (x) = 0.30204 0.36987
# Poissons Ratio (y) = 0.12531 0.05242
# Poissons Ratio (z) = 0.29366 0.10032
#
# Static dielectric constant tensor:
#      x y z
#    x 2.180860 0.000000 -0.059710 
#    y 0.000000 2.313070 0.000000 
#    z -0.059710 0.000000 2.166640 
# 
# From -- ./inp_files/33782.got.cif
#   From: 2010.05.17/outbox.cif.g08.bks.cpg/sg14_17_cif.got.tgz:33782.got - 2010.06.03 17:49:19.
