data_PCOD9253169
_publ_section_title
;
Structure prediction by ZEFSAII (Michael W. Deem and Ramdas Pophale) SiO2 
 PCOD9253169
Probable space group: P 21/C
;
_chemical_formula_sum "Si O2"
_cell_formula_units_Z 32
_cell_length_a 13.770530
_cell_length_b 12.082411
_cell_length_c 9.730362
_cell_angle_alpha 90.000000
_cell_angle_beta 114.708661
_cell_angle_gamma 90.000000
_cell_volume 1470.726432
_symmetry_space_group_name_H-M "P 21/C"
_symmetry_group_IT_number 14
_symmetry_cell_setting 'monoclinic'
loop_
_space_group_symop_operation_xyz
x,y,z
-x,1/2+y,1/2-z
-x,-y,-z
x,1/2-y,1/2+z
loop_
_atom_site_type_symbol
_atom_site_label
_atom_site_fract_x
_atom_site_fract_y
_atom_site_fract_z
Si Si1 0.776586 0.162852 0.118380
Si Si2 0.507115 0.909099 0.627558
Si Si3 0.179349 0.240269 0.026155
Si Si4 0.913426 0.967603 0.560417
Si Si5 0.945354 0.982757 0.113679
Si Si6 0.395437 0.014430 0.028323
Si Si7 0.679384 0.760545 0.129757
Si Si8 0.733927 0.367259 0.911299
O O1 0.756779 0.173848 0.269672
O O2 0.874496 0.084074 0.130943
O O3 0.782969 0.278958 0.045838
O O4 0.672665 0.096374 0.004654
O O5 0.575478 0.949565 0.799921
O O6 0.571435 0.801959 0.609279
O O7 0.389557 0.882578 0.618233
O O8 0.500000 0.000000 0.500000
O O9 0.225422 0.235010 0.207054
O O10 0.093747 0.335643 0.949446
O O11 0.129673 0.124947 0.945761
O O12 0.280635 0.277774 0.995205
O O13 0.798097 0.018148 0.459252
O O14 0.000000 0.000000 0.500000
O O15 0.956358 0.022591 0.723844
O O16 0.000000 0.000000 0.000000
O O17 0.334816 0.109272 0.905327
O O18 0.500000 0.000000 0.000000
#
# Coordination Sequence:
#
# PCOD9253169 Si02
#       8
#     4   4   4   4   4   4   4   4
#     4  12  27  50  74 109 154 198 251 316 385 454
#     4  12  28  45  76 114 153 201 250 312 376 456
#     4  12  26  48  76 108 149 192 256 314 372 459
#     4  12  27  47  76 105 148 201 250 309 385 445
#     4  12  28  47  77 112 147 198 256 317 385 448
#     4  12  25  47  75 105 152 201 253 307 378 454
#     4  12  24  47  74 109 145 196 252 308 376 448
#     4  12  29  49  74 112 154 201 249 314 381 457
#
# _framework density 21.757954000000002
#
# number of rings (size 3 to 8) (size 9 to 14) (size 15 to 20)
#    0.000    0.000    5.000    3.750    8.750    0.000 
#    0.000    0.000    0.000    0.000    0.000    0.000 
#    0.000    0.000    0.000    0.000    0.000    0.000 
#
# Total GULP energy -178955.549800 kJ/mol
# GULP energy per Si atom -5592.360931 kJ/mol
# Density = 2.170843 g / cm^3
# Si number density = 21.757954 Si / 1000 Ang^3
#
#
#
# Elastic Constant Matrix: (Units=GPa)
#
#
# Indices 1 2 3 4 5 6 
#
# 1 116.4606 22.1860 12.1101 0.0000 -23.0574 0.0000
# 2 22.1860 88.6525 26.5041 0.0000 -3.2341 0.0000
# 3 12.1101 26.5041 117.3950 0.0000 -16.3552 0.0000
# 4 0.0000 0.0000 0.0000 34.9043 0.0000 6.6195
# 5 -23.0574 -3.2341 -16.3552 0.0000 44.0343 0.0000
# 6 0.0000 0.0000 0.0000 6.6195 0.0000 46.7237
#
#
#
# Elastic Compliance Matrix: (Units=1/GPa)
#
#
# Indices 1 2 3 4 5 6 
#
# 1 0.010042 -0.002391 0.000224 0.000000 0.005165 0.000000
# 2 -0.002391 0.012667 -0.002803 0.000000 -0.001363 0.000000
# 3 0.000224 -0.002803 0.009613 0.000000 0.003482 0.000000
# 4 0.000000 0.000000 0.000000 0.029441 0.000000 -0.004171
# 5 0.005165 -0.001363 0.003482 0.000000 0.026607 0.000000
# 6 0.000000 0.000000 0.000000 -0.004171 0.000000 0.021993
#
#
# Mechanical properties :
#
#
# Convention : Reuss Voigt Hill
#
# Bulk Modulus (GPa) = 44.68271 49.34541 47.01406
# Shear Modulus (GPa) = 39.13456 42.57964 40.85710
#
# Velocity S-wave (km/s) = 4.24563 4.42856 4.33806
# Velocity P-wave (km/s) = 6.67942 6.99128 6.83713
#
# Compressibility (1/GPa) = 0.02238002
#
# Stress axis : x y z
#
# Youngs Moduli (GPa) = 99.58589 78.94690 104.02511
#
# Poissons Ratio (x) = 0.18880 -0.02327
# Poissons Ratio (y) = 0.23815 0.29158
# Poissons Ratio (z) = -0.02228 0.22128
#
# Static dielectric constant tensor:
#      x y z
#    x 1.795310 0.000000 0.070190 
#    y 0.000000 1.869530 0.000000 
#    z 0.070190 0.000000 1.683850 
# 
# From -- ./inp_files/15828.got.cif
#   From: 2010.05.17/outbox.cif.g08.bks.cpg/sg14_8_cif.got.tgz:15828.got - 2010.06.03 17:49:19.
