data_PCOD9253484
_publ_section_title
;
Structure prediction by ZEFSAII (Michael W. Deem and Ramdas Pophale) SiO2 
 PCOD9253484
Probable space group: P 21/C
;
_chemical_formula_sum "Si O2"
_cell_formula_units_Z 32
_cell_length_a 12.000000
_cell_length_b 6.000000
_cell_length_c 24.000000
_cell_angle_alpha 90.000000
_cell_angle_beta 90.000000
_cell_angle_gamma 90.000000
_cell_volume 1728.000000
_symmetry_space_group_name_H-M "P 21/C"
_symmetry_group_IT_number 14
_symmetry_cell_setting 'monoclinic'
loop_
_space_group_symop_operation_xyz
x,y,z
-x,1/2+y,1/2-z
-x,-y,-z
x,1/2-y,1/2+z
loop_
_atom_site_type_symbol
_atom_site_label
_atom_site_fract_x
_atom_site_fract_y
_atom_site_fract_z
Si Si1 0.871466 0.713038 0.214690
Si Si2 0.691532 0.058372 0.651841
Si Si3 0.426025 0.262824 0.044183
Si Si4 0.294888 0.898801 0.752435
Si Si5 0.663000 0.158660 0.525592
Si Si6 0.725789 0.380181 0.417074
Si Si7 0.113064 0.892155 0.184731
Si Si8 0.548561 0.412131 0.850919
O O1 0.807003 0.539339 0.175220
O O2 0.893257 0.612526 0.276551
O O3 0.989263 0.788414 0.188603
O O4 0.779492 0.903358 0.223345
O O5 0.660540 0.253262 0.695833
O O6 0.707952 0.138593 0.588169
O O7 0.585272 0.888623 0.654498
O O8 0.552026 0.185723 0.029786
O O9 0.440848 0.395448 0.102581
O O10 0.324850 0.102317 0.057446
O O11 0.387521 0.421836 0.993805
O O12 0.204144 0.757837 0.717060
O O13 0.392231 0.961790 0.708431
O O14 0.738923 0.229752 0.473003
O O15 0.832394 0.413090 0.376879
O O16 0.623675 0.281506 0.379274
#
# Coordination Sequence:
#
# PCOD9253484 Si02
#       8
#     4   4   4   4   4   4   4   4
#     4  11  21  38  59  78 109 149 179 238 281 332
#     4  10  23  35  52  85 117 148 181 218 288 345
#     4   9  17  33  57  79 111 156 181 224 273 321
#     4  10  21  36  56  79 112 149 179 230 280 329
#     4   9  19  35  51  82 119 144 189 223 265 339
#     4  10  19  34  61  84 108 152 188 230 269 321
#     4  10  21  38  59  85 103 138 203 230 276 331
#     4   9  20  35  51  87 119 136 186 227 268 343
#
# _framework density 18.518519000000001
#
# number of rings (size 3 to 8) (size 9 to 14) (size 15 to 20)
#    0.000    2.250    1.250    1.875    1.750    3.000 
#    2.250    0.625    0.000    1.500    0.000    0.000 
#    0.000    0.000    0.000    0.000    0.000    0.000 
#
# Total GULP energy -178173.766191 kJ/mol
# GULP energy per Si atom -5567.930193 kJ/mol
# Density = 1.847637 g / cm^3
# Si number density = 18.518519 Si / 1000 Ang^3
#
#
#
# Elastic Constant Matrix: (Units=GPa)
#
#
# Indices 1 2 3 4 5 6 
#
# 1 97.6956 18.3779 49.9878 0.0000 -23.2862 0.0000
# 2 18.3779 26.3479 23.2905 0.0000 -7.7965 0.0000
# 3 49.9878 23.2905 155.5368 0.0000 -21.0938 0.0000
# 4 0.0000 0.0000 0.0000 17.9964 0.0000 -5.9231
# 5 -23.2862 -7.7965 -21.0938 0.0000 34.9383 0.0000
# 6 0.0000 0.0000 0.0000 -5.9231 0.0000 22.1620
#
#
#
# Elastic Compliance Matrix: (Units=1/GPa)
#
#
# Indices 1 2 3 4 5 6 
#
# 1 0.014311 -0.005486 -0.002887 0.000000 0.006571 0.000000
# 2 -0.005486 0.047169 -0.004758 0.000000 0.003997 0.000000
# 3 -0.002887 -0.004758 0.008348 0.000000 0.002054 0.000000
# 4 0.000000 0.000000 0.000000 0.060926 0.000000 0.016283
# 5 0.006571 0.003997 0.002054 0.000000 0.035134 0.000000
# 6 0.000000 0.000000 0.000000 0.016283 0.000000 0.049474
#
#
# Mechanical properties :
#
#
# Convention : Reuss Voigt Hill
#
# Bulk Modulus (GPa) = 22.95329 51.43251 37.19290
# Shear Modulus (GPa) = 19.52013 27.54762 23.53388
#
# Velocity S-wave (km/s) = 3.25019 3.86109 3.56874
# Velocity P-wave (km/s) = 5.14847 6.90733 6.09171
#
# Compressibility (1/GPa) = 0.04356674
#
# Stress axis : x y z
#
# Youngs Moduli (GPa) = 69.87515 21.20048 119.78594
#
# Poissons Ratio (x) = 0.11630 0.34580
# Poissons Ratio (y) = 0.38333 0.56994
# Poissons Ratio (z) = 0.20172 0.10087
#
# Static dielectric constant tensor:
#      x y z
#    x 1.609460 0.000000 0.004080 
#    y 0.000000 1.737300 0.000000 
#    z 0.004080 0.000000 1.633430 
# 
# From -- ./inp_files/72766.got.cif
#   From: 2010.05.17/outbox.ucp.g08.bks.cvg/sg14_37_cif.got.tgz:72766.got - 2010.06.11 12:31:08.
