data_PCOD9253977
_publ_section_title
;
Structure prediction by ZEFSAII (Michael W. Deem and Ramdas Pophale) SiO2 
 PCOD9253977
Probable space group: C 2/C
;
_chemical_formula_sum "Si O2"
_cell_formula_units_Z 48
_cell_length_a 9.927566
_cell_length_b 16.727600
_cell_length_c 13.060662
_cell_angle_alpha 90.000000
_cell_angle_beta 110.564492
_cell_angle_gamma 90.000000
_cell_volume 2030.701783
_symmetry_space_group_name_H-M "C 2/C"
_symmetry_group_IT_number 15
_symmetry_cell_setting 'monoclinic'
loop_
_space_group_symop_operation_xyz
x,y,z
-x,y,1/2-z
-x,-y,-z
x,-y,1/2+z
1/2+x,1/2+y,z
1/2-x,1/2+y,1/2-z
1/2-x,1/2-y,-z
1/2+x,1/2-y,1/2+z
loop_
_atom_site_type_symbol
_atom_site_label
_atom_site_fract_x
_atom_site_fract_y
_atom_site_fract_z
Si Si1 0.066117 0.416147 0.053082
Si Si2 0.500000 0.490155 0.250000
Si Si3 0.732486 0.986936 0.295734
Si Si4 0.000000 0.606757 0.250000
Si Si5 0.115530 0.250527 0.658316
Si Si6 0.650140 0.343019 0.386683
Si Si7 0.136956 0.668041 0.864630
O O1 0.146591 0.448071 0.177474
O O2 0.191457 0.363911 0.032659
O O3 0.940853 0.354728 0.051291
O O4 0.000000 0.500000 0.000000
O O5 0.375289 0.527080 0.286929
O O6 0.580875 0.429547 0.347917
O O7 0.627984 0.049815 0.320175
O O8 0.740378 0.909130 0.369200
O O9 0.070006 0.661945 0.182397
O O10 0.156961 0.204045 0.778221
O O11 0.254466 0.240552 0.624846
O O12 0.969594 0.205891 0.583040
O O13 0.000000 0.675811 0.750000
#
# Coordination Sequence:
#
# PCOD9253977 Si02
#       7
#     8   4   8   4   8   8   8
#     4  10  18  27  48  75 100 126 164 203 239 284
#     4   8  13  24  48  63  90 118 150 196 245 264
#     4  10  16  31  49  74  96 122 159 212 245 271
#     4  10  19  28  48  81  98 116 154 220 253 268
#     4   9  16  29  49  69  95 124 160 201 242 290
#     4   8  13  27  45  68  89 122 156 196 237 279
#     4  10  15  29  52  70  91 127 169 196 232 285
#
# _framework density 23.637149999999998
#
# number of rings (size 3 to 8) (size 9 to 14) (size 15 to 20)
#    0.000    3.000    9.167    0.000    0.000    0.000 
#    1.500    0.833    0.000    5.000    0.000    0.000 
#    0.000    0.000    0.000    0.000    0.000    0.000 
#
# Total GULP energy -133681.393776 kJ/mol
# GULP energy per Si atom -5570.058074 kJ/mol
# Density = 2.358335 g / cm^3
# Si number density = 23.637150 Si / 1000 Ang^3
#
#
#
# Elastic Constant Matrix: (Units=GPa)
#
#
# Indices 1 2 3 4 5 6 
#
# 1 187.0340 40.6462 15.7238 0.0000 27.5892 0.0000
# 2 40.6462 73.1203 7.0548 0.0000 18.9170 0.0000
# 3 15.7238 7.0548 35.7017 0.0000 5.2715 0.0000
# 4 0.0000 0.0000 0.0000 18.7696 0.0000 0.5320
# 5 27.5892 18.9170 5.2715 0.0000 20.5278 0.0000
# 6 0.0000 0.0000 0.0000 0.5320 0.0000 40.4354
#
#
#
# Elastic Compliance Matrix: (Units=1/GPa)
#
#
# Indices 1 2 3 4 5 6 
#
# 1 0.006949 -0.001835 -0.001630 0.000000 -0.007229 0.000000
# 2 -0.001835 0.018487 -0.000721 0.000000 -0.014385 0.000000
# 3 -0.001630 -0.000721 0.029570 0.000000 -0.004738 0.000000
# 4 0.000000 0.000000 0.000000 0.053297 0.000000 -0.000701
# 5 -0.007229 -0.014385 -0.004738 0.000000 0.072904 0.000000
# 6 0.000000 0.000000 0.000000 -0.000701 0.000000 0.024740
#
#
# Mechanical properties :
#
#
# Convention : Reuss Voigt Hill
#
# Bulk Modulus (GPa) = 21.44387 46.96728 34.20558
# Shear Modulus (GPa) = 21.75193 31.44198 26.59696
#
# Velocity S-wave (km/s) = 3.03684 3.65114 3.35807
# Velocity P-wave (km/s) = 4.62475 6.13903 5.43489
#
# Compressibility (1/GPa) = 0.04663338
#
# Stress axis : x y z
#
# Youngs Moduli (GPa) = 143.90757 54.09106 33.81808
#
# Poissons Ratio (x) = 0.09926 0.05514
# Poissons Ratio (y) = 0.26409 0.02438
# Poissons Ratio (z) = 0.23462 0.03900
#
# Static dielectric constant tensor:
#      x y z
#    x 1.991970 0.000000 -0.041670 
#    y 0.000000 1.894240 0.000000 
#    z -0.041670 0.000000 2.011740 
# 
# From -- ./inp_files/239163.got.cif
#   From: 2010.05.17/outbox.cif.g08.bks.cpg/sg15_120_cif.got.tgz:239163.got - 2010.06.03 18:47:42.
