data_PCOD9253288
_publ_section_title
;
Structure prediction by ZEFSAII (Michael W. Deem and Ramdas Pophale) SiO2 
 PCOD9253288
Probable space group: P 21/C
;
_chemical_formula_sum "Si O2"
_cell_formula_units_Z 20
_cell_length_a 22.623673
_cell_length_b 8.191579
_cell_length_c 9.568030
_cell_angle_alpha 90.000000
_cell_angle_beta 27.198096
_cell_angle_gamma 90.000000
_cell_volume 810.465320
_symmetry_space_group_name_H-M "P 21/C"
_symmetry_group_IT_number 14
_symmetry_cell_setting 'monoclinic'
loop_
_space_group_symop_operation_xyz
x,y,z
-x,1/2+y,1/2-z
-x,-y,-z
x,1/2-y,1/2+z
loop_
_atom_site_type_symbol
_atom_site_label
_atom_site_fract_x
_atom_site_fract_y
_atom_site_fract_z
Si Si1 0.257948 0.670706 0.805170
Si Si2 0.591190 0.343942 0.790074
Si Si3 0.976308 0.395841 0.191718
Si Si4 0.806161 0.819216 0.139106
Si Si5 0.344337 0.342014 0.775191
O O1 0.346724 0.807166 0.691514
O O2 0.297660 0.644865 0.560873
O O3 0.298166 0.509368 0.803978
O O4 0.113711 0.735528 0.136165
O O5 0.500000 0.500000 0.000000
O O6 0.493765 0.201036 0.945245
O O7 0.892250 0.518946 0.462122
O O8 0.000000 0.500000 0.000000
O O9 0.104059 0.331468 0.000118
O O10 0.689285 0.835075 0.492092
O O11 0.745880 0.789294 0.114458
#
# Coordination Sequence:
#
# PCOD9253288 Si02
#       5
#     4   4   4   4   4
#     4  12  27  45  74 105 148 191 248 299 373 433
#     4  12  26  47  75 107 149 191 245 304 371 446
#     4  12  28  47  73 108 144 195 247 307 364 439
#     4  12  26  46  74 101 148 185 248 296 369 429
#     4  12  26  46  72 108 143 192 240 304 367 442
#
# _framework density 24.677181000000001
#
# number of rings (size 3 to 8) (size 9 to 14) (size 15 to 20)
#    0.000    0.000    2.000    7.800    8.400    1.600 
#    0.000    0.000    0.000    0.000    0.000    0.000 
#    0.000    0.000    0.000    0.000    0.000    0.000 
#
# Total GULP energy -112140.263023 kJ/mol
# GULP energy per Si atom -5607.013151 kJ/mol
# Density = 2.462101 g / cm^3
# Si number density = 24.677181 Si / 1000 Ang^3
#
#
#
# Elastic Constant Matrix: (Units=GPa)
#
#
# Indices 1 2 3 4 5 6 
#
# 1 74.9181 -5.3667 10.2535 0.0000 -6.3271 0.0000
# 2 -5.3667 76.8950 8.4980 0.0000 -4.3162 0.0000
# 3 10.2535 8.4980 86.1572 0.0000 4.8350 0.0000
# 4 0.0000 0.0000 0.0000 48.4460 0.0000 -12.0242
# 5 -6.3271 -4.3162 4.8350 0.0000 44.7959 0.0000
# 6 0.0000 0.0000 0.0000 -12.0242 0.0000 44.3312
#
#
#
# Elastic Compliance Matrix: (Units=1/GPa)
#
#
# Indices 1 2 3 4 5 6 
#
# 1 0.013897 0.001310 -0.001912 0.000000 0.002295 0.000000
# 2 0.001310 0.013361 -0.001566 0.000000 0.001641 0.000000
# 3 -0.001912 -0.001566 0.012086 0.000000 -0.001725 0.000000
# 4 0.000000 0.000000 0.000000 0.022131 0.000000 0.006003
# 5 0.002295 0.001641 -0.001725 0.000000 0.022992 0.000000
# 6 0.000000 0.000000 0.000000 0.006003 0.000000 0.024186
#
#
# Mechanical properties :
#
#
# Convention : Reuss Voigt Hill
#
# Bulk Modulus (GPa) = 28.56439 29.41553 28.98996
# Shear Modulus (GPa) = 40.10961 42.48700 41.29831
#
# Velocity S-wave (km/s) = 4.03596 4.15385 4.09533
# Velocity P-wave (km/s) = 5.77226 5.91202 5.84256
#
# Compressibility (1/GPa) = 0.03500862
#
# Stress axis : x y z
#
# Youngs Moduli (GPa) = 71.95650 74.84266 82.74372
#
# Poissons Ratio (x) = -0.09805 0.15820
# Poissons Ratio (y) = -0.09427 0.12957
# Poissons Ratio (z) = 0.13758 0.11720
#
# Static dielectric constant tensor:
#      x y z
#    x 1.921660 0.000000 -0.045380 
#    y 0.000000 2.046710 0.000000 
#    z -0.045380 0.000000 1.958150 
# 
# From -- ./inp_files/11845.got.cif
#   From: 2010.05.17/outbox.cif.g08.bks.cpg/sg14_6_cif.got.tgz:11845.got - 2010.06.03 17:49:19.
