data_PCOD9253725
_publ_section_title
;
Structure prediction by ZEFSAII (Michael W. Deem and Ramdas Pophale) SiO2 
 PCOD9253725
Probable space group: P 21/C
;
_chemical_formula_sum "Si O2"
_cell_formula_units_Z 28
_cell_length_a 15.000000
_cell_length_b 9.000000
_cell_length_c 15.000000
_cell_angle_alpha 90.000000
_cell_angle_beta 40.000000
_cell_angle_gamma 90.000000
_cell_volume 1301.644910
_symmetry_space_group_name_H-M "P 21/C"
_symmetry_group_IT_number 14
_symmetry_cell_setting 'monoclinic'
loop_
_space_group_symop_operation_xyz
x,y,z
-x,1/2+y,1/2-z
-x,-y,-z
x,1/2-y,1/2+z
loop_
_atom_site_type_symbol
_atom_site_label
_atom_site_fract_x
_atom_site_fract_y
_atom_site_fract_z
Si Si1 0.836756 0.717960 0.828380
Si Si2 0.812323 0.753403 0.649694
Si Si3 0.887749 0.430869 0.317221
Si Si4 0.459923 0.198484 0.358440
Si Si5 0.639305 0.002156 0.730945
Si Si6 0.880955 0.309167 0.126268
Si Si7 0.759612 0.443165 0.611493
O O1 0.850319 0.682280 0.714407
O O2 0.952991 0.620868 0.789772
O O3 0.874780 0.892015 0.812925
O O4 0.675604 0.692906 0.975603
O O5 0.686723 0.870930 0.763934
O O6 0.774803 0.620710 0.610889
O O7 0.954055 0.833992 0.509393
O O8 0.840965 0.349788 0.259876
O O9 0.803172 0.399554 0.475514
O O10 0.395756 0.110386 0.322408
O O11 0.517934 0.370985 0.320116
O O12 0.603677 0.106421 0.258485
O O13 0.778994 0.101991 0.635936
O O14 0.854879 0.141563 0.111365
#
# Coordination Sequence:
#
# PCOD9253725 Si02
#       7
#     4   4   4   4   4   4   4
#     4  12  28  43  75 108 146 193 244 302 368 442
#     4  12  24  46  73 111 149 186 247 306 365 434
#     4  12  25  47  74 109 145 192 246 305 372 423
#     4  11  26  48  69 107 146 196 239 296 370 433
#     4  11  23  45  72  98 148 188 242 295 364 430
#     4  11  24  44  75 112 143 189 245 308 360 433
#     4  11  26  49  74 107 150 198 237 308 362 440
#
# _framework density 21.511243
#
# number of rings (size 3 to 8) (size 9 to 14) (size 15 to 20)
#    0.000    0.571    2.857    5.143    4.000    1.143 
#    5.143    1.429    0.000    0.000    0.000    0.000 
#    0.000    0.000    0.000    0.000    0.000    0.000 
#
# Total GULP energy -155954.180445 kJ/mol
# GULP energy per Si atom -5569.792159 kJ/mol
# Density = 2.146228 g / cm^3
# Si number density = 21.511243 Si / 1000 Ang^3
#
#
#
# Elastic Constant Matrix: (Units=GPa)
#
#
# Indices 1 2 3 4 5 6 
#
# 1 99.7961 40.3367 50.2689 0.0000 5.4510 0.0000
# 2 40.3367 85.1295 34.6784 0.0000 -18.2684 0.0000
# 3 50.2689 34.6784 123.7444 0.0000 -14.0297 0.0000
# 4 0.0000 0.0000 0.0000 29.8359 0.0000 -9.5430
# 5 5.4510 -18.2684 -14.0297 0.0000 28.5275 0.0000
# 6 0.0000 0.0000 0.0000 -9.5430 0.0000 64.6063
#
#
#
# Elastic Compliance Matrix: (Units=1/GPa)
#
#
# Indices 1 2 3 4 5 6 
#
# 1 0.016813 -0.007983 -0.005864 0.000000 -0.011209 0.000000
# 2 -0.007983 0.018544 -0.000460 0.000000 0.013174 0.000000
# 3 -0.005864 -0.000460 0.011317 0.000000 0.006391 0.000000
# 4 0.000000 0.000000 0.000000 0.035179 0.000000 0.005196
# 5 -0.011209 0.013174 0.006391 0.000000 0.048775 0.000000
# 6 0.000000 0.000000 0.000000 0.005196 0.000000 0.016246
#
#
# Mechanical properties :
#
#
# Convention : Reuss Voigt Hill
#
# Bulk Modulus (GPa) = 55.37091 62.13757 58.75424
# Shear Modulus (GPa) = 27.54709 36.81966 32.18338
#
# Velocity S-wave (km/s) = 3.58242 4.14169 3.87217
# Velocity P-wave (km/s) = 6.55042 7.19863 6.88216
#
# Compressibility (1/GPa) = 0.01806003
#
# Stress axis : x y z
#
# Youngs Moduli (GPa) = 59.47800 53.92557 88.36510
#
# Poissons Ratio (x) = 0.43050 0.51813
# Poissons Ratio (y) = 0.47482 0.04066
# Poissons Ratio (z) = 0.34875 0.02481
#
# Static dielectric constant tensor:
#      x y z
#    x 1.843820 0.000000 -0.011190 
#    y 0.000000 1.827830 0.000000 
#    z -0.011190 0.000000 1.788420 
# 
# From -- ./inp_files/46686.got.cif
#   From: 2010.05.17/outbox.ucp.g08.bks.cvg/sg14_24_cif.got.tgz:46686.got - 2010.06.11 12:31:08.
