data_PCOD9253666
_publ_section_title
;
Structure prediction by ZEFSAII (Michael W. Deem and Ramdas Pophale) SiO2 
 PCOD9253666
Probable space group: P 21/C
;
_chemical_formula_sum "Si O2"
_cell_formula_units_Z 28
_cell_length_a 30.000000
_cell_length_b 9.000000
_cell_length_c 30.000000
_cell_angle_alpha 90.000000
_cell_angle_beta 10.000000
_cell_angle_gamma 90.000000
_cell_volume 1406.550239
_symmetry_space_group_name_H-M "P 21/C"
_symmetry_group_IT_number 14
_symmetry_cell_setting 'monoclinic'
loop_
_space_group_symop_operation_xyz
x,y,z
-x,1/2+y,1/2-z
-x,-y,-z
x,1/2-y,1/2+z
loop_
_atom_site_type_symbol
_atom_site_label
_atom_site_fract_x
_atom_site_fract_y
_atom_site_fract_z
Si Si1 0.196233 0.682830 0.576395
Si Si2 0.992452 0.975554 0.813750
Si Si3 0.756277 0.558399 0.842195
Si Si4 0.733535 0.685000 0.092298
Si Si5 0.269293 0.746464 0.188636
Si Si6 0.243328 0.722820 0.318387
Si Si7 0.748980 0.579309 0.177964
O O1 0.142420 0.860153 0.633271
O O2 0.483612 0.652256 0.309153
O O3 0.129762 0.606184 0.595177
O O4 0.990592 0.623052 0.815494
O O5 0.168742 0.034479 0.680020
O O6 0.784429 0.863549 0.041204
O O7 0.733973 0.396903 0.840537
O O8 0.987002 0.649632 0.591293
O O9 0.491472 0.647170 0.096596
O O10 0.702869 0.624175 0.171925
O O11 0.261324 0.694205 0.247655
O O12 0.018961 0.847307 0.426162
O O13 0.521410 0.844985 0.930521
O O14 0.244851 0.901371 0.323109
#
# Coordination Sequence:
#
# PCOD9253666 Si02
#       7
#     4   4   4   4   4   4   4
#     4  10  24  40  69  92 127 163 226 263 339 398
#     4  10  25  43  68  93 130 172 220 271 343 397
#     4  12  25  44  67  97 143 176 225 280 344 401
#     4  10  23  41  65  96 127 172 218 260 347 388
#     4  12  23  45  72  96 138 188 227 277 336 406
#     4  12  27  41  66 107 137 178 234 282 331 388
#     4  12  23  44  71  98 138 180 228 279 332 407
#
# _framework density 19.906860999999999
#
# number of rings (size 3 to 8) (size 9 to 14) (size 15 to 20)
#    0.857    0.000    1.429    6.000    4.000    2.286 
#    0.000    0.000    0.000    0.000    0.000    0.000 
#    0.000    0.000    0.000    0.000    0.000    0.000 
#
# Total GULP energy -156562.764080 kJ/mol
# GULP energy per Si atom -5591.527289 kJ/mol
# Density = 1.986155 g / cm^3
# Si number density = 19.906861 Si / 1000 Ang^3
#
#
#
# Elastic Constant Matrix: (Units=GPa)
#
#
# Indices 1 2 3 4 5 6 
#
# 1 81.5029 9.7825 -33.0339 0.0000 -18.1128 0.0000
# 2 9.7825 83.2320 16.0439 0.0000 -3.6695 0.0000
# 3 -33.0339 16.0439 91.6086 0.0000 -12.6039 0.0000
# 4 0.0000 0.0000 0.0000 26.3648 0.0000 -1.2856
# 5 -18.1128 -3.6695 -12.6039 0.0000 31.0851 0.0000
# 6 0.0000 0.0000 0.0000 -1.2856 0.0000 41.2092
#
#
#
# Elastic Compliance Matrix: (Units=1/GPa)
#
#
# Indices 1 2 3 4 5 6 
#
# 1 0.020200 -0.003630 0.010040 0.000000 0.015413 0.000000
# 2 -0.003630 0.013098 -0.003899 0.000000 -0.002150 0.000000
# 3 0.010040 -0.003899 0.016904 0.000000 0.012244 0.000000
# 4 0.000000 0.000000 0.000000 0.037987 0.000000 0.001185
# 5 0.015413 -0.002150 0.012244 0.000000 0.045861 0.000000
# 6 0.000000 0.000000 0.000000 0.001185 0.000000 0.024303
#
#
# Mechanical properties :
#
#
# Convention : Reuss Voigt Hill
#
# Bulk Modulus (GPa) = 18.10780 26.88097 22.49439
# Shear Modulus (GPa) = 29.11405 37.30189 33.20797
#
# Velocity S-wave (km/s) = 3.82843 4.33346 4.08875
# Velocity P-wave (km/s) = 5.35337 6.21057 5.79783
#
# Compressibility (1/GPa) = 0.05522481
#
# Stress axis : x y z
#
# Youngs Moduli (GPa) = 49.50545 76.34753 59.15807
#
# Poissons Ratio (x) = 0.27714 -0.59396
# Poissons Ratio (y) = 0.17971 0.23064
# Poissons Ratio (z) = -0.49705 0.29765
#
# Static dielectric constant tensor:
#      x y z
#    x 1.680470 0.000000 0.013270 
#    y 0.000000 1.688830 0.000000 
#    z 0.013270 0.000000 1.700570 
# 
# From -- ./inp_files/80873.got.cif
#   From: 2010.05.17/outbox.ucp.g08.bks.cvg/sg14_41_cif.got.tgz:80873.got - 2010.06.11 12:31:08.
