data_PCOD9253816
_publ_section_title
;
Structure prediction by ZEFSAII (Michael W. Deem and Ramdas Pophale) SiO2 
 PCOD9253816
Probable space group: C 2/C
;
_chemical_formula_sum "Si O2"
_cell_formula_units_Z 60
_cell_length_a 10.377567
_cell_length_b 13.391822
_cell_length_c 17.877250
_cell_angle_alpha 90.000000
_cell_angle_beta 104.268370
_cell_angle_gamma 90.000000
_cell_volume 2407.840952
_symmetry_space_group_name_H-M "C 2/C"
_symmetry_group_IT_number 15
_symmetry_cell_setting 'monoclinic'
loop_
_space_group_symop_operation_xyz
x,y,z
-x,y,1/2-z
-x,-y,-z
x,-y,1/2+z
1/2+x,1/2+y,z
1/2-x,1/2+y,1/2-z
1/2-x,1/2-y,-z
1/2+x,1/2-y,1/2+z
loop_
_atom_site_type_symbol
_atom_site_label
_atom_site_fract_x
_atom_site_fract_y
_atom_site_fract_z
Si Si1 0.083249 0.382154 0.185563
Si Si2 0.554715 0.422993 0.443711
Si Si3 0.679942 0.619098 0.406843
Si Si4 0.803802 0.621447 0.168873
Si Si5 0.500000 0.409300 0.750000
Si Si6 0.422253 0.881679 0.846718
Si Si7 0.682503 0.431486 0.195341
Si Si8 0.448783 0.278762 0.938333
O O1 0.076960 0.498806 0.164684
O O2 0.234231 0.364020 0.236764
O O3 0.048642 0.326138 0.103657
O O4 0.000000 0.361170 0.250000
O O5 0.500000 0.500000 0.500000
O O6 0.656118 0.499584 0.416828
O O7 0.434225 0.390641 0.372574
O O8 0.603844 0.322579 0.490244
O O9 0.584056 0.648359 0.323272
O O10 0.828916 0.642116 0.403706
O O11 0.601380 0.680092 0.458570
O O12 0.853442 0.650597 0.258848
O O13 0.783627 0.500447 0.161739
O O14 0.661308 0.665560 0.129316
O O15 0.924841 0.650572 0.132025
O O16 0.391914 0.483603 0.768489
#
# Coordination Sequence:
#
# PCOD9253816 Si02
#       8
#     8   8   8   8   4   8   8   8
#     4  11  22  34  55  89 116 150 190 248 297 348
#     4   9  18  34  59  89 114 155 201 244 280 349
#     4  10  17  31  60  84 109 147 205 233 282 344
#     4  10  17  32  57  80 116 147 191 241 294 336
#     4  10  14  26  58  84  94 138 202 240 254 332
#     4  10  19  35  55  84 113 155 186 236 305 348
#     4  10  17  33  58  82 115 153 199 231 297 345
#     4  11  22  35  59  90 116 145 200 253 284 334
#
# _framework density 24.918590999999999
#
# number of rings (size 3 to 8) (size 9 to 14) (size 15 to 20)
#    0.000    1.867    9.333    0.000    2.800    0.000 
#    0.000    3.333    0.000    0.000    0.000    0.000 
#    0.000    0.000    0.000    0.000    0.000    0.000 
#
# Total GULP energy -167218.060823 kJ/mol
# GULP energy per Si atom -5573.935361 kJ/mol
# Density = 2.486188 g / cm^3
# Si number density = 24.918591 Si / 1000 Ang^3
#
#
#
# Elastic Constant Matrix: (Units=GPa)
#
#
# Indices 1 2 3 4 5 6 
#
# 1 146.0290 12.0338 -1.8288 0.0000 -13.9210 0.0000
# 2 12.0338 73.2568 17.5097 0.0000 -3.9347 0.0000
# 3 -1.8288 17.5097 40.8429 0.0000 1.0087 0.0000
# 4 0.0000 0.0000 0.0000 42.2568 0.0000 9.7486
# 5 -13.9210 -3.9347 1.0087 0.0000 14.8878 0.0000
# 6 0.0000 0.0000 0.0000 9.7486 0.0000 6.5136
#
#
#
# Elastic Compliance Matrix: (Units=1/GPa)
#
#
# Indices 1 2 3 4 5 6 
#
# 1 0.007587 -0.001029 0.000613 0.000000 0.006781 0.000000
# 2 -0.001029 0.015651 -0.006846 0.000000 0.003638 0.000000
# 3 0.000613 -0.006846 0.027523 0.000000 -0.003101 0.000000
# 4 0.000000 0.000000 0.000000 0.036145 0.000000 -0.054096
# 5 0.006781 0.003638 -0.003101 0.000000 0.074681 0.000000
# 6 0.000000 0.000000 0.000000 -0.054096 0.000000 0.234490
#
#
# Mechanical properties :
#
#
# Convention : Reuss Voigt Hill
#
# Bulk Modulus (GPa) = 27.59484 35.06201 31.32843
# Shear Modulus (GPa) = 11.82930 28.22590 20.02760
#
# Velocity S-wave (km/s) = 2.18117 3.36925 2.83807
# Velocity P-wave (km/s) = 4.17628 5.40712 4.83106
#
# Compressibility (1/GPa) = 0.03623866
#
# Stress axis : x y z
#
# Youngs Moduli (GPa) = 131.80771 63.89256 36.33333
#
# Poissons Ratio (x) = 0.06572 -0.02228
# Poissons Ratio (y) = 0.13558 0.24873
# Poissons Ratio (z) = -0.08083 0.43739
#
# Static dielectric constant tensor:
#      x y z
#    x 2.037980 0.000000 -0.067050 
#    y 0.000000 2.041750 0.000000 
#    z -0.067050 0.000000 2.038220 
# 
# From -- ./inp_files/238390.got.cif
#   From: 2010.05.17/outbox.cif.g08.bks.cpg/sg15_120_cif.got.tgz:238390.got - 2010.06.03 18:47:42.
