data_PCOD9253562
_publ_section_title
;
Structure prediction by ZEFSAII (Michael W. Deem and Ramdas Pophale) SiO2 
 PCOD9253562
Probable space group: P 21/C
;
_chemical_formula_sum "Si O2"
_cell_formula_units_Z 32
_cell_length_a 12.000000
_cell_length_b 9.000000
_cell_length_c 30.000000
_cell_angle_alpha 90.000000
_cell_angle_beta 150.000000
_cell_angle_gamma 90.000000
_cell_volume 1620.000000
_symmetry_space_group_name_H-M "P 21/C"
_symmetry_group_IT_number 14
_symmetry_cell_setting 'monoclinic'
loop_
_space_group_symop_operation_xyz
x,y,z
-x,1/2+y,1/2-z
-x,-y,-z
x,1/2-y,1/2+z
loop_
_atom_site_type_symbol
_atom_site_label
_atom_site_fract_x
_atom_site_fract_y
_atom_site_fract_z
Si Si1 0.171728 0.381999 0.834523
Si Si2 0.139896 0.154648 0.743397
Si Si3 0.774988 0.435917 0.341056
Si Si4 0.048484 0.233984 0.606715
Si Si5 0.368022 0.139808 0.636760
Si Si6 0.476267 0.967151 0.818088
Si Si7 0.003365 0.179827 0.370817
Si Si8 0.345687 0.959427 0.536684
O O1 0.119222 0.289848 0.771119
O O2 0.099965 0.285183 0.854191
O O3 0.425179 0.433820 0.911118
O O4 0.029708 0.529907 0.796624
O O5 0.098332 0.200647 0.676852
O O6 0.383636 0.074086 0.824951
O O7 0.888664 0.595590 0.378412
O O8 0.590350 0.414827 0.238761
O O9 0.629720 0.438989 0.336689
O O10 0.954501 0.310788 0.389462
O O11 0.187136 0.147291 0.615017
O O12 0.793063 0.192965 0.509792
O O13 0.397166 0.310709 0.629452
O O14 0.350710 0.031856 0.588002
O O15 0.238170 0.903270 0.716405
O O16 0.186006 0.069513 0.453816
#
# Coordination Sequence:
#
# PCOD9253562 Si02
#       8
#     4   4   4   4   4   4   4   4
#     4  11  26  42  66  89 127 169 222 252 312 369
#     4  11  23  43  65  95 120 165 217 269 296 382
#     4  10  20  40  68  94 121 166 212 262 310 372
#     4  11  22  40  63  99 129 158 210 266 321 375
#     4  10  21  38  69  95 124 169 211 255 321 384
#     4   9  19  40  65  94 124 160 216 262 309 365
#     4  10  22  42  64  91 132 170 207 260 315 376
#     4  12  23  43  62  94 134 172 199 260 326 379
#
# _framework density 19.753086
#
# number of rings (size 3 to 8) (size 9 to 14) (size 15 to 20)
#    0.000    1.500    3.750    1.500    7.000    0.000 
#    6.750    1.875    0.000    0.000    0.000    0.000 
#    0.000    0.000    0.000    0.000    0.000    0.000 
#
# Total GULP energy -178205.141768 kJ/mol
# GULP energy per Si atom -5568.910680 kJ/mol
# Density = 1.970813 g / cm^3
# Si number density = 19.753086 Si / 1000 Ang^3
#
#
#
# Elastic Constant Matrix: (Units=GPa)
#
#
# Indices 1 2 3 4 5 6 
#
# 1 179.0351 50.5514 42.6661 0.0000 31.0303 0.0000
# 2 50.5514 66.7936 22.5898 0.0000 23.0547 0.0000
# 3 42.6661 22.5898 49.1451 0.0000 17.5568 0.0000
# 4 0.0000 0.0000 0.0000 30.8896 0.0000 2.6752
# 5 31.0303 23.0547 17.5568 0.0000 33.9819 0.0000
# 6 0.0000 0.0000 0.0000 2.6752 0.0000 49.7442
#
#
#
# Elastic Compliance Matrix: (Units=1/GPa)
#
#
# Indices 1 2 3 4 5 6 
#
# 1 0.008156 -0.003782 -0.004413 0.000000 -0.002602 0.000000
# 2 -0.003782 0.022455 -0.003470 0.000000 -0.009988 0.000000
# 3 -0.004413 -0.003470 0.028811 0.000000 -0.008502 0.000000
# 4 0.000000 0.000000 0.000000 0.032525 0.000000 -0.001749
# 5 -0.002602 -0.009988 -0.008502 0.000000 0.042972 0.000000
# 6 0.000000 0.000000 0.000000 -0.001749 0.000000 0.020197
#
#
# Mechanical properties :
#
#
# Convention : Reuss Voigt Hill
#
# Bulk Modulus (GPa) = 27.70671 58.50984 43.10827
# Shear Modulus (GPa) = 26.25004 34.86757 30.55880
#
# Velocity S-wave (km/s) = 3.64937 4.20595 3.93751
# Velocity P-wave (km/s) = 5.64041 7.29874 6.52249
#
# Compressibility (1/GPa) = 0.03609234
#
# Stress axis : x y z
#
# Youngs Moduli (GPa) = 122.60956 44.53358 34.70895
#
# Poissons Ratio (x) = 0.16844 0.15316
# Poissons Ratio (y) = 0.46374 0.12043
# Poissons Ratio (z) = 0.54105 0.15452
#
# Static dielectric constant tensor:
#      x y z
#    x 1.691530 0.000000 -0.002990 
#    y 0.000000 1.755150 0.000000 
#    z -0.002990 0.000000 1.736860 
# 
# From -- ./inp_files/79975.got.cif
#   From: 2010.05.17/outbox.ucp.g08.bks.cvg/sg14_40_cif.got.tgz:79975.got - 2010.06.11 12:31:08.
