data_PCOD9253074
_publ_section_title
;
Structure prediction by ZEFSAII (Michael W. Deem and Ramdas Pophale) SiO2 
 PCOD9253074
Probable space group: P 21/C
;
_chemical_formula_sum "Si O2"
_cell_formula_units_Z 16
_cell_length_a 5.014199
_cell_length_b 21.205175
_cell_length_c 7.195554
_cell_angle_alpha 90.000000
_cell_angle_beta 53.817046
_cell_angle_gamma 90.000000
_cell_volume 617.524759
_symmetry_space_group_name_H-M "P 21/C"
_symmetry_group_IT_number 14
_symmetry_cell_setting 'monoclinic'
loop_
_space_group_symop_operation_xyz
x,y,z
-x,1/2+y,1/2-z
-x,-y,-z
x,1/2-y,1/2+z
loop_
_atom_site_type_symbol
_atom_site_label
_atom_site_fract_x
_atom_site_fract_y
_atom_site_fract_z
Si Si1 0.491862 0.320964 0.720846
Si Si2 0.359774 0.890006 0.155968
Si Si3 0.782840 0.533534 0.755822
Si Si4 0.031479 0.235748 0.654778
O O1 0.502170 0.387395 0.613127
O O2 0.209349 0.280192 0.732447
O O3 0.333810 0.312502 0.986992
O O4 0.848577 0.288777 0.600985
O O5 0.606204 0.911527 0.210604
O O6 0.054128 0.936924 0.281143
O O7 0.260830 0.816373 0.212374
O O8 0.000000 0.500000 0.500000
O O9 0.500000 0.500000 0.000000
#
# Coordination Sequence:
#
# PCOD9253074 Si02
#       4
#     4   4   4   4
#     4  12  23  41  65 104 145 180 222 271 345 440
#     4  12  26  46  73 100 139 192 222 294 362 402
#     4  12  30  52  73 102 135 184 254 304 342 402
#     4  12  23  41  65 104 145 180 222 271 345 440
#
# _framework density 25.909894000000001
#
# number of rings (size 3 to 8) (size 9 to 14) (size 15 to 20)
#    0.000    0.000    5.000    4.500    7.000    0.000 
#    0.000    0.000    0.000    0.000    0.000    0.000 
#    0.000    0.000    0.000    0.000    0.000    0.000 
#
# Total GULP energy -89105.787237 kJ/mol
# GULP energy per Si atom -5569.111702 kJ/mol
# Density = 2.585092 g / cm^3
# Si number density = 25.909894 Si / 1000 Ang^3
#
#
#
# Elastic Constant Matrix: (Units=GPa)
#
#
# Indices 1 2 3 4 5 6 
#
# 1 120.8252 32.4457 10.4305 0.0000 -7.4970 0.0000
# 2 32.4457 66.9885 32.3068 0.0000 8.6729 0.0000
# 3 10.4305 32.3068 77.0528 0.0000 -24.9534 0.0000
# 4 0.0000 0.0000 0.0000 63.0133 0.0000 5.9078
# 5 -7.4970 8.6729 -24.9534 0.0000 24.0199 0.0000
# 6 0.0000 0.0000 0.0000 5.9078 0.0000 64.7446
#
#
#
# Elastic Compliance Matrix: (Units=1/GPa)
#
#
# Indices 1 2 3 4 5 6 
#
# 1 0.012111 -0.013124 0.009979 0.000000 0.018886 0.000000
# 2 -0.013124 0.047041 -0.037335 0.000000 -0.059867 0.000000
# 3 0.009979 -0.037335 0.049212 0.000000 0.067720 0.000000
# 4 0.000000 0.000000 0.000000 0.016007 0.000000 -0.001461
# 5 0.018886 -0.059867 0.067720 0.000000 0.139495 0.000000
# 6 0.000000 0.000000 0.000000 -0.001461 0.000000 0.015579
#
#
# Mechanical properties :
#
#
# Convention : Reuss Voigt Hill
#
# Bulk Modulus (GPa) = 36.48922 46.13695 41.31308
# Shear Modulus (GPa) = 13.53044 43.00111 28.26577
#
# Velocity S-wave (km/s) = 2.28767 4.07829 3.30650
# Velocity P-wave (km/s) = 4.59256 6.32629 5.52782
#
# Compressibility (1/GPa) = 0.02740536
#
# Stress axis : x y z
#
# Youngs Moduli (GPa) = 82.57012 21.25815 20.32026
#
# Poissons Ratio (x) = 0.27899 -0.20278
# Poissons Ratio (y) = 1.08362 0.75865
# Poissons Ratio (z) = -0.82398 0.79367
#
# Static dielectric constant tensor:
#      x y z
#    x 1.920450 0.000000 0.152710 
#    y 0.000000 1.988700 0.000000 
#    z 0.152710 0.000000 3.090460 
# 
# From -- ./inp_files/5802.got.cif
#   From: 2010.05.17/outbox.cif.g08.bks.cpg/sg14_3_cif.got.tgz:5802.got - 2010.06.03 17:49:19.
