data_PCOD9253810
_publ_section_title
;
Structure prediction by ZEFSAII (Michael W. Deem and Ramdas Pophale) SiO2 
 PCOD9253810
Probable space group: C 2/C
;
_chemical_formula_sum "Si O2"
_cell_formula_units_Z 44
_cell_length_a 10.647988
_cell_length_b 8.040992
_cell_length_c 21.268936
_cell_angle_alpha 90.000000
_cell_angle_beta 113.416405
_cell_angle_gamma 90.000000
_cell_volume 1671.074063
_symmetry_space_group_name_H-M "C 2/C"
_symmetry_group_IT_number 15
_symmetry_cell_setting 'monoclinic'
loop_
_space_group_symop_operation_xyz
x,y,z
-x,y,1/2-z
-x,-y,-z
x,-y,1/2+z
1/2+x,1/2+y,z
1/2-x,1/2+y,1/2-z
1/2-x,1/2-y,-z
1/2+x,1/2-y,1/2+z
loop_
_atom_site_type_symbol
_atom_site_label
_atom_site_fract_x
_atom_site_fract_y
_atom_site_fract_z
Si Si1 0.997079 0.525977 0.611258
Si Si2 0.766159 0.143355 0.296314
Si Si3 0.876282 0.838144 0.078554
Si Si4 0.083838 0.787903 0.546290
Si Si5 0.500000 0.091188 0.750000
Si Si6 0.314263 0.502265 0.183762
O O1 0.971911 0.655921 0.549236
O O2 0.978523 0.633224 0.671146
O O3 0.155250 0.467157 0.635604
O O4 0.920759 0.351283 0.602064
O O5 0.852967 0.129323 0.378085
O O6 0.641750 0.014741 0.269994
O O7 0.691682 0.320952 0.285203
O O8 0.847092 0.129656 0.245836
O O9 0.711839 0.826304 0.047147
O O10 0.903724 0.968043 0.140011
O O11 0.938891 0.883895 0.023685
#
# Coordination Sequence:
#
# PCOD9253810 Si02
#       6
#     8   8   8   8   4   8
#     4   9  15  25  44  73 102 141 180 228 273 330
#     4   9  17  30  47  75 104 140 182 232 272 326
#     4   9  15  28  43  74 109 140 183 225 278 333
#     4   9  17  26  44  74 112 138 180 234 272 328
#     4  10  14  26  46  68 100 136 182 218 272 324
#     4   9  18  29  50  77 105 145 188 226 276 336
#
# _framework density 26.330369999999998
#
# number of rings (size 3 to 8) (size 9 to 14) (size 15 to 20)
#    0.000    3.273    3.636    0.545    0.000    0.000 
#    0.000    0.000    0.000   10.909    0.000    5.091 
#    0.000    0.000    0.000    0.364    0.000    1.818 
#
# Total GULP energy -122527.229778 kJ/mol
# GULP energy per Si atom -5569.419535 kJ/mol
# Density = 2.627044 g / cm^3
# Si number density = 26.330370 Si / 1000 Ang^3
#
#
#
# Elastic Constant Matrix: (Units=GPa)
#
#
# Indices 1 2 3 4 5 6 
#
# 1 76.0773 29.7658 42.1686 0.0000 -44.8008 0.0000
# 2 29.7658 33.7339 41.7178 0.0000 -24.6227 0.0000
# 3 42.1686 41.7178 159.2594 0.0000 -68.5610 0.0000
# 4 0.0000 0.0000 0.0000 42.7208 0.0000 -11.5620
# 5 -44.8008 -24.6227 -68.5610 0.0000 59.8372 0.0000
# 6 0.0000 0.0000 0.0000 -11.5620 0.0000 37.7981
#
#
#
# Elastic Compliance Matrix: (Units=1/GPa)
#
#
# Indices 1 2 3 4 5 6 
#
# 1 0.029639 -0.017865 0.006355 0.000000 0.022121 0.000000
# 2 -0.017865 0.057625 -0.011672 0.000000 -0.003037 0.000000
# 3 0.006355 -0.011672 0.015066 0.000000 0.017218 0.000000
# 4 0.000000 0.000000 0.000000 0.025521 0.000000 0.007806
# 5 0.022121 -0.003037 0.017218 0.000000 0.051753 0.000000
# 6 0.000000 0.000000 0.000000 0.007806 0.000000 0.028844
#
#
# Mechanical properties :
#
#
# Convention : Reuss Voigt Hill
#
# Bulk Modulus (GPa) = 17.86803 55.15279 36.51041
# Shear Modulus (GPa) = 18.28380 38.43245 28.35812
#
# Velocity S-wave (km/s) = 2.63800 3.82465 3.28535
# Velocity P-wave (km/s) = 4.00994 6.36363 5.31862
#
# Compressibility (1/GPa) = 0.05596587
#
# Stress axis : x y z
#
# Youngs Moduli (GPa) = 33.73984 17.35353 66.37444
#
# Poissons Ratio (x) = 0.31002 -0.42182
# Poissons Ratio (y) = 0.60277 0.77472
# Poissons Ratio (z) = -0.21442 0.20255
#
# Static dielectric constant tensor:
#      x y z
#    x 2.080410 0.000000 -0.075130 
#    y 0.000000 2.166250 0.000000 
#    z -0.075130 0.000000 2.251740 
# 
# From -- ./inp_files/267856.got.cif
#   From: 2010.05.17/outbox.cif.g08.bks.cpg/sg15_134_cif.got.tgz:267856.got - 2010.06.03 18:47:42.
