data_PCOD9253283
_publ_section_title
;
Structure prediction by ZEFSAII (Michael W. Deem and Ramdas Pophale) SiO2 
 PCOD9253283
Probable space group: P 21/C
;
_chemical_formula_sum "Si O2"
_cell_formula_units_Z 16
_cell_length_a 8.439226
_cell_length_b 5.126305
_cell_length_c 15.113322
_cell_angle_alpha 90.000000
_cell_angle_beta 90.721907
_cell_angle_gamma 90.000000
_cell_volume 653.781340
_symmetry_space_group_name_H-M "P 21/C"
_symmetry_group_IT_number 14
_symmetry_cell_setting 'monoclinic'
loop_
_space_group_symop_operation_xyz
x,y,z
-x,1/2+y,1/2-z
-x,-y,-z
x,1/2-y,1/2+z
loop_
_atom_site_type_symbol
_atom_site_label
_atom_site_fract_x
_atom_site_fract_y
_atom_site_fract_z
Si Si1 0.173655 0.927526 0.350755
Si Si2 0.386139 0.754913 0.005010
Si Si3 0.169074 0.619839 0.163161
Si Si4 0.605508 0.723855 0.744386
O O1 0.298040 0.160951 0.336168
O O2 0.004375 0.049473 0.372460
O O3 0.255807 0.755686 0.425967
O O4 0.155579 0.774756 0.256580
O O5 0.283042 0.756532 0.093935
O O6 0.500000 0.500000 0.000000
O O7 0.500000 0.000000 0.000000
O O8 0.261099 0.350968 0.184284
O O9 0.511190 0.456127 0.728528
#
# Coordination Sequence:
#
# PCOD9253283 Si02
#       4
#     4   4   4   4
#     4  12  28  52  82 119 162 215 272 334 414 478
#     4  12  33  50  81 122 163 216 271 336 399 488
#     4  12  28  52  82 119 162 215 272 334 414 478
#     4  12  26  44  80 116 154 208 266 330 396 478
#
# _framework density 24.473016999999999
#
# number of rings (size 3 to 8) (size 9 to 14) (size 15 to 20)
#    0.000    0.000    5.000    2.250   14.000    0.000 
#    0.000    3.750    0.000    0.000    0.000    0.000 
#    0.000    0.000    0.000    0.000    0.000    0.000 
#
# Total GULP energy -89716.076947 kJ/mol
# GULP energy per Si atom -5607.254809 kJ/mol
# Density = 2.441731 g / cm^3
# Si number density = 24.473017 Si / 1000 Ang^3
#
#
#
# Elastic Constant Matrix: (Units=GPa)
#
#
# Indices 1 2 3 4 5 6 
#
# 1 142.3236 35.1264 31.3035 0.0000 4.1983 0.0000
# 2 35.1264 136.8491 18.4455 0.0000 1.2689 0.0000
# 3 31.3035 18.4455 113.2590 0.0000 -10.1551 0.0000
# 4 0.0000 0.0000 0.0000 34.2220 0.0000 10.4722
# 5 4.1983 1.2689 -10.1551 0.0000 39.0865 0.0000
# 6 0.0000 0.0000 0.0000 10.4722 0.0000 40.7800
#
#
#
# Elastic Compliance Matrix: (Units=1/GPa)
#
#
# Indices 1 2 3 4 5 6 
#
# 1 0.007944 -0.001753 -0.002029 0.000000 -0.001323 0.000000
# 2 -0.001753 0.007871 -0.000822 0.000000 -0.000281 0.000000
# 3 -0.002029 -0.000822 0.009774 0.000000 0.002784 0.000000
# 4 0.000000 0.000000 0.000000 0.031713 0.000000 -0.008144
# 5 -0.001323 -0.000281 0.002784 0.000000 0.026459 0.000000
# 6 0.000000 0.000000 0.000000 -0.008144 0.000000 0.026613
#
#
# Mechanical properties :
#
#
# Convention : Reuss Voigt Hill
#
# Bulk Modulus (GPa) = 61.05210 62.46473 61.75842
# Shear Modulus (GPa) = 39.98631 43.32146 41.65388
#
# Velocity S-wave (km/s) = 4.04653 4.21191 4.13005
# Velocity P-wave (km/s) = 6.84349 7.01661 6.93059
#
# Compressibility (1/GPa) = 0.01637945
#
# Stress axis : x y z
#
# Youngs Moduli (GPa) = 125.87702 127.05135 102.31637
#
# Poissons Ratio (x) = 0.22277 0.20758
# Poissons Ratio (y) = 0.22071 0.08415
# Poissons Ratio (z) = 0.25538 0.10449
#
# Static dielectric constant tensor:
#      x y z
#    x 1.919900 0.000000 -0.023230 
#    y 0.000000 1.988950 0.000000 
#    z -0.023230 0.000000 2.002260 
# 
# From -- ./inp_files/75907.got.cif
#   From: 2010.05.17/outbox.cif.g08.bks.cpg/sg14_38_cif.got.tgz:75907.got - 2010.06.03 17:49:19.
