data_PCOD9253022
_publ_section_title
;
Structure prediction by ZEFSAII (Michael W. Deem and Ramdas Pophale) SiO2 
 PCOD9253022
Probable space group: P 21/C
;
_chemical_formula_sum "Si O2"
_cell_formula_units_Z 32
_cell_length_a 14.250274
_cell_length_b 20.136295
_cell_length_c 8.516606
_cell_angle_alpha 90.000000
_cell_angle_beta 138.495671
_cell_angle_gamma 90.000000
_cell_volume 1619.462864
_symmetry_space_group_name_H-M "P 21/C"
_symmetry_group_IT_number 14
_symmetry_cell_setting 'monoclinic'
loop_
_space_group_symop_operation_xyz
x,y,z
-x,1/2+y,1/2-z
-x,-y,-z
x,1/2-y,1/2+z
loop_
_atom_site_type_symbol
_atom_site_label
_atom_site_fract_x
_atom_site_fract_y
_atom_site_fract_z
Si Si1 0.024142 0.054915 0.663540
Si Si2 0.040481 0.319953 0.707870
Si Si3 0.685133 0.977989 0.004502
Si Si4 0.376416 0.536354 0.080137
Si Si5 0.928859 0.188436 0.407465
Si Si6 0.092501 0.562962 0.654583
Si Si7 0.323025 0.104286 0.677518
Si Si8 0.358696 0.618132 0.381027
O O1 0.177446 0.038184 0.923440
O O2 0.016894 0.125197 0.574023
O O3 0.912217 0.059899 0.662017
O O4 0.000000 0.000000 0.500000
O O5 0.013219 0.251156 0.582659
O O6 0.941325 0.312502 0.736109
O O7 0.982265 0.374974 0.516094
O O8 0.194782 0.347273 0.962053
O O9 0.695416 0.929691 0.172109
O O10 0.683932 0.053624 0.066801
O O11 0.538788 0.965349 0.733424
O O12 0.334553 0.461866 0.083521
O O13 0.374604 0.586771 0.226864
O O14 0.255994 0.560010 0.811609
O O15 0.765922 0.172843 0.256760
O O16 0.000000 0.500000 0.500000
O O17 0.479767 0.137638 0.870698
#
# Coordination Sequence:
#
# PCOD9253022 Si02
#       8
#     4   4   4   4   4   4   4   4
#     4  12  20  37  64  94 120 153 207 250 305 360
#     4  12  26  42  60  88 125 161 207 250 312 369
#     4   9  17  32  63  95 118 152 199 252 299 364
#     4   9  17  34  60  94 123 152 196 249 308 353
#     4  12  24  41  60  89 121 162 206 251 304 370
#     4  12  23  37  60  94 127 157 199 256 302 361
#     4   9  17  37  60  94 120 156 194 253 305 361
#     4   9  18  34  65  89 121 154 204 245 305 363
#
# _framework density 19.759637000000001
#
# number of rings (size 3 to 8) (size 9 to 14) (size 15 to 20)
#    0.000    1.500    5.000    3.750    0.000    0.000 
#    0.000    4.375    0.000    0.000    0.000    0.000 
#    0.000    0.000    0.000    0.000    0.000    0.000 
#
# Total GULP energy -178336.131895 kJ/mol
# GULP energy per Si atom -5573.004122 kJ/mol
# Density = 1.971466 g / cm^3
# Si number density = 19.759637 Si / 1000 Ang^3
#
#
#
# Elastic Constant Matrix: (Units=GPa)
#
#
# Indices 1 2 3 4 5 6 
#
# 1 51.6701 16.5769 33.8413 0.0000 20.1237 0.0000
# 2 16.5769 125.5095 57.4192 0.0000 5.9530 0.0000
# 3 33.8413 57.4192 125.4914 0.0000 39.5065 0.0000
# 4 0.0000 0.0000 0.0000 -39.1882 0.0000 23.6056
# 5 20.1237 5.9530 39.5065 0.0000 46.0933 0.0000
# 6 0.0000 0.0000 0.0000 23.6056 0.0000 11.3815
#
#
#
# Elastic Compliance Matrix: (Units=1/GPa)
#
#
# Indices 1 2 3 4 5 6 
#
# 1 0.025211 -0.001197 -0.003882 0.000000 -0.007525 0.000000
# 2 -0.001197 0.010598 -0.005834 0.000000 0.004154 0.000000
# 3 -0.003882 -0.005834 0.014947 0.000000 -0.010363 0.000000
# 4 0.000000 0.000000 0.000000 -0.011345 0.000000 0.023529
# 5 -0.007525 0.004154 -0.010363 0.000000 0.033326 0.000000
# 6 0.000000 0.000000 0.000000 0.023529 0.000000 0.039062
#
#
# Mechanical properties :
#
#
# Convention : Reuss Voigt Hill
#
# Bulk Modulus (GPa) = 34.56634 57.59396 46.08015
# Shear Modulus (GPa) = 34.89973 16.64623 25.77298
#
# Velocity S-wave (km/s) = 4.20719 2.90562 3.61546
# Velocity P-wave (km/s) = 6.41343 6.36140 6.38747
#
# Compressibility (1/GPa) = 0.02892988
#
# Stress axis : x y z
#
# Youngs Moduli (GPa) = 39.66562 94.36148 66.90151
#
# Poissons Ratio (x) = 0.11294 0.25972
# Poissons Ratio (y) = 0.04747 0.39030
# Poissons Ratio (z) = 0.15398 0.55050
#
# Static dielectric constant tensor:
#      x y z
#    x 1.371630 0.000000 0.294470 
#    y 0.000000 1.673310 0.000000 
#    z 0.294470 0.000000 1.531190 
# 
# From -- ./inp_files/16878.got.cif
#   From: 2010.05.17/outbox.cif.g08.bks.cpg/sg14_9_cif.got.tgz:16878.got - 2010.06.03 17:49:19.
