data_PCOD9253309
_publ_section_title
;
Structure prediction by ZEFSAII (Michael W. Deem and Ramdas Pophale) SiO2 
 PCOD9253309
Probable space group: P 21/C
;
_chemical_formula_sum "Si O2"
_cell_formula_units_Z 16
_cell_length_a 8.723973
_cell_length_b 5.528702
_cell_length_c 20.502773
_cell_angle_alpha 90.000000
_cell_angle_beta 141.523049
_cell_angle_gamma 90.000000
_cell_volume 615.290112
_symmetry_space_group_name_H-M "P 21/C"
_symmetry_group_IT_number 14
_symmetry_cell_setting 'monoclinic'
loop_
_space_group_symop_operation_xyz
x,y,z
-x,1/2+y,1/2-z
-x,-y,-z
x,1/2-y,1/2+z
loop_
_atom_site_type_symbol
_atom_site_label
_atom_site_fract_x
_atom_site_fract_y
_atom_site_fract_z
Si Si1 0.077270 0.112956 0.238488
Si Si2 0.502801 0.141199 0.825841
Si Si3 0.916040 0.089686 0.401068
Si Si4 0.287300 0.424052 0.478124
O O1 0.992736 0.360513 0.247818
O O2 0.368567 0.139379 0.320504
O O3 0.930075 0.094725 0.121242
O O4 0.283986 0.055076 0.706832
O O5 0.743436 0.184724 0.863509
O O6 0.596407 0.963382 0.912738
O O7 0.151358 0.166240 0.436811
O O8 0.000000 0.000000 0.500000
O O9 0.500000 0.500000 0.500000
#
# Coordination Sequence:
#
# PCOD9253309 Si02
#       4
#     4   4   4   4
#     4  12  27  49  78 119 164 215 274 341 423 494
#     4  12  26  48  79 110 166 209 279 343 419 498
#     4  12  27  50  78 119 163 222 281 342 427 507
#     4  12  27  46  79 120 161 214 274 344 419 503
#
# _framework density 26.003995
#
# number of rings (size 3 to 8) (size 9 to 14) (size 15 to 20)
#    0.000    0.000    2.500    6.750    3.500    1.000 
#    0.000    0.000    0.000    0.000    0.000    0.000 
#    0.000    0.000    0.000    0.000    0.000    0.000 
#
# Total GULP energy -89428.242797 kJ/mol
# GULP energy per Si atom -5589.265175 kJ/mol
# Density = 2.594481 g / cm^3
# Si number density = 26.003995 Si / 1000 Ang^3
#
#
#
# Elastic Constant Matrix: (Units=GPa)
#
#
# Indices 1 2 3 4 5 6 
#
# 1 119.6177 44.8915 20.3550 0.0000 8.6953 0.0000
# 2 44.8915 106.2911 55.8209 0.0000 -9.7432 0.0000
# 3 20.3550 55.8209 196.4201 0.0000 -14.8578 0.0000
# 4 0.0000 0.0000 0.0000 57.7374 0.0000 -1.1241
# 5 8.6953 -9.7432 -14.8578 0.0000 46.8430 0.0000
# 6 0.0000 0.0000 0.0000 -1.1241 0.0000 20.4890
#
#
#
# Elastic Compliance Matrix: (Units=1/GPa)
#
#
# Indices 1 2 3 4 5 6 
#
# 1 0.010300 -0.004629 0.000032 0.000000 -0.002865 0.000000
# 2 -0.004629 0.013221 -0.003079 0.000000 0.002633 0.000000
# 3 0.000032 -0.003079 0.006059 0.000000 0.001276 0.000000
# 4 0.000000 0.000000 0.000000 0.017338 0.000000 0.000951
# 5 -0.002865 0.002633 0.001276 0.000000 0.022832 0.000000
# 6 0.000000 0.000000 0.000000 0.000951 0.000000 0.048859
#
#
# Mechanical properties :
#
#
# Convention : Reuss Voigt Hill
#
# Bulk Modulus (GPa) = 70.28347 73.82929 72.05638
# Shear Modulus (GPa) = 36.04756 45.09798 40.57277
#
# Velocity S-wave (km/s) = 3.72725 4.16898 3.95429
# Velocity P-wave (km/s) = 6.75351 7.18519 6.97269
#
# Compressibility (1/GPa) = 0.01422810
#
# Stress axis : x y z
#
# Youngs Moduli (GPa) = 97.08515 75.63487 165.03704
#
# Poissons Ratio (x) = 0.35015 -0.00520
# Poissons Ratio (y) = 0.44945 0.50807
# Poissons Ratio (z) = -0.00306 0.23284
#
# Static dielectric constant tensor:
#      x y z
#    x 1.684570 0.000000 0.131120 
#    y 0.000000 2.298160 0.000000 
#    z 0.131120 0.000000 1.924510 
# 
# From -- ./inp_files/38355.got.cif
#   From: 2010.05.17/outbox.cif.g08.bks.cpg/sg14_20_cif.got.tgz:38355.got - 2010.06.03 17:49:19.
