data_PCOD9253957
_publ_section_title
;
Structure prediction by ZEFSAII (Michael W. Deem and Ramdas Pophale) SiO2 
 PCOD9253957
Probable space group: C 2/C
;
_chemical_formula_sum "Si O2"
_cell_formula_units_Z 64
_cell_length_a 11.724696
_cell_length_b 13.982658
_cell_length_c 15.422695
_cell_angle_alpha 90.000000
_cell_angle_beta 88.687952
_cell_angle_gamma 90.000000
_cell_volume 2527.770940
_symmetry_space_group_name_H-M "C 2/C"
_symmetry_group_IT_number 15
_symmetry_cell_setting 'monoclinic'
loop_
_space_group_symop_operation_xyz
x,y,z
-x,y,1/2-z
-x,-y,-z
x,-y,1/2+z
1/2+x,1/2+y,z
1/2-x,1/2+y,1/2-z
1/2-x,1/2-y,-z
1/2+x,1/2-y,1/2+z
loop_
_atom_site_type_symbol
_atom_site_label
_atom_site_fract_x
_atom_site_fract_y
_atom_site_fract_z
Si Si1 0.370316 0.780099 0.780065
Si Si2 0.281412 0.995934 0.740190
Si Si3 0.950852 0.533659 0.605163
Si Si4 0.067278 0.067272 0.159512
Si Si5 0.846826 0.994334 0.576267
Si Si6 0.195975 0.628105 0.491283
Si Si7 0.866390 0.380484 0.946881
Si Si8 0.702329 0.240468 0.646955
O O1 0.500000 0.759360 0.750000
O O2 0.372929 0.789671 0.883877
O O3 0.273765 0.717832 0.732524
O O4 0.328595 0.886430 0.750009
O O5 0.213023 0.017661 0.829462
O O6 0.389602 0.050872 0.697961
O O7 0.182229 0.994121 0.668731
O O8 0.874891 0.452711 0.555583
O O9 0.926425 0.620897 0.539146
O O10 0.066339 0.469368 0.604237
O O11 0.109103 0.177138 0.160175
O O12 0.000000 0.053954 0.250000
O O13 0.975384 0.035029 0.090797
O O14 0.818661 0.082759 0.514006
O O15 0.766005 0.908811 0.543978
O O16 0.206376 0.713260 0.422710
O O17 0.149905 0.659525 0.586402
#
# Coordination Sequence:
#
# PCOD9253957 Si02
#       8
#     8   8   8   8   8   8   8   8
#     4  10  15  28  48  74  95 132 176 215 260 319
#     4   9  16  29  50  77 101 137 170 222 278 329
#     4  10  16  31  51  78 108 129 169 229 281 320
#     4   9  17  33  53  75 104 142 179 222 273 341
#     4   9  19  30  51  79 108 131 179 227 274 324
#     4  10  19  34  49  79 104 137 180 231 274 318
#     4   9  18  27  50  80  99 130 168 228 272 321
#     4  10  20  32  54  72 106 145 183 219 270 339
#
# _framework density 25.318750000000001
#
# number of rings (size 3 to 8) (size 9 to 14) (size 15 to 20)
#    0.000    2.500    3.750    0.750    0.000    0.500 
#    0.000    1.875    8.250    0.750    0.000    0.000 
#    0.000    0.000    0.000    0.000    0.000    0.000 
#
# Total GULP energy -178373.809438 kJ/mol
# GULP energy per Si atom -5574.181545 kJ/mol
# Density = 2.526112 g / cm^3
# Si number density = 25.318750 Si / 1000 Ang^3
#
#
#
# Elastic Constant Matrix: (Units=GPa)
#
#
# Indices 1 2 3 4 5 6 
#
# 1 143.1318 15.4633 33.5179 0.0000 44.0318 0.0000
# 2 15.4633 25.4719 5.8200 0.0000 18.2833 0.0000
# 3 33.5179 5.8200 90.3906 0.0000 10.0939 0.0000
# 4 0.0000 0.0000 0.0000 36.5064 0.0000 2.0365
# 5 44.0318 18.2833 10.0939 0.0000 51.4531 0.0000
# 6 0.0000 0.0000 0.0000 2.0365 0.0000 16.2491
#
#
#
# Elastic Compliance Matrix: (Units=1/GPa)
#
#
# Indices 1 2 3 4 5 6 
#
# 1 0.010161 0.000436 -0.002870 0.000000 -0.008287 0.000000
# 2 0.000436 0.052876 -0.001458 0.000000 -0.018876 0.000000
# 3 -0.002870 -0.001458 0.012156 0.000000 0.000590 0.000000
# 4 0.000000 0.000000 0.000000 0.027585 0.000000 -0.003457
# 5 -0.008287 -0.018876 0.000590 0.000000 0.033119 0.000000
# 6 0.000000 0.000000 0.000000 -0.003457 0.000000 0.061975
#
#
# Mechanical properties :
#
#
# Convention : Reuss Voigt Hill
#
# Bulk Modulus (GPa) = 14.83525 40.95517 27.89521
# Shear Modulus (GPa) = 21.91761 34.45459 28.18610
#
# Velocity S-wave (km/s) = 2.94541 3.69295 3.34016
# Velocity P-wave (km/s) = 4.17605 5.86471 5.09088
#
# Compressibility (1/GPa) = 0.06740701
#
# Stress axis : x y z
#
# Youngs Moduli (GPa) = 98.41460 18.91205 82.26719
#
# Poissons Ratio (x) = -0.00824 0.23615
# Poissons Ratio (y) = -0.04288 0.11997
# Poissons Ratio (z) = 0.28250 0.02758
#
# Static dielectric constant tensor:
#      x y z
#    x 2.038760 0.000000 -0.039020 
#    y 0.000000 2.091750 0.000000 
#    z -0.039020 0.000000 2.116330 
# 
# From -- ./inp_files/199199.got.cif
#   From: 2010.05.17/outbox.cif.g08.bks.cpg/sg15_100_cif.got.tgz:199199.got - 2010.06.03 18:47:42.
