data_PCOD9253454
_publ_section_title
;
Structure prediction by ZEFSAII (Michael W. Deem and Ramdas Pophale) SiO2 
 PCOD9253454
Probable space group: P 21/C
;
_chemical_formula_sum "Si O2"
_cell_formula_units_Z 24
_cell_length_a 10.716207
_cell_length_b 8.726113
_cell_length_c 9.399723
_cell_angle_alpha 90.000000
_cell_angle_beta 98.408562
_cell_angle_gamma 90.000000
_cell_volume 869.527371
_symmetry_space_group_name_H-M "P 21/C"
_symmetry_group_IT_number 14
_symmetry_cell_setting 'monoclinic'
loop_
_space_group_symop_operation_xyz
x,y,z
-x,1/2+y,1/2-z
-x,-y,-z
x,1/2-y,1/2+z
loop_
_atom_site_type_symbol
_atom_site_label
_atom_site_fract_x
_atom_site_fract_y
_atom_site_fract_z
Si Si1 0.619614 0.872610 0.576024
Si Si2 0.194087 0.877521 0.290661
Si Si3 0.695759 0.416276 0.472288
Si Si4 0.498480 0.831265 0.833575
Si Si5 0.155905 0.153026 0.844391
Si Si6 0.968841 0.390651 0.766984
O O1 0.503186 0.844966 0.664802
O O2 0.570665 0.815168 0.415262
O O3 0.720012 0.751338 0.655951
O O4 0.698287 0.030445 0.603114
O O5 0.253763 0.821124 0.151924
O O6 0.114356 0.732991 0.336997
O O7 0.088900 0.008578 0.236502
O O8 0.631779 0.348614 0.602864
O O9 0.584356 0.522691 0.389917
O O10 0.805735 0.535125 0.528901
O O11 0.044859 0.267300 0.873958
O O12 0.119955 0.035724 0.709932
#
# Coordination Sequence:
#
# PCOD9253454 Si02
#       6
#     4   4   4   4   4   4
#     4   9  18  35  58  86 116 147 186 233 284 338
#     4   9  18  34  54  79 109 145 190 234 280 335
#     4   9  18  33  56  77 106 157 197 218 272 361
#     4   9  18  34  58  84 114 151 189 231 280 336
#     4   9  18  34  54  79 109 145 190 234 280 335
#     4   9  18  31  52  78 110 145 186 237 284 328
#
# _framework density 27.601199000000001
#
# number of rings (size 3 to 8) (size 9 to 14) (size 15 to 20)
#    0.000    3.000    0.000    0.000    0.000    4.000 
#    0.000    5.000    0.000   34.000    0.000    0.000 
#    0.000    0.000    0.000    0.000    0.000    0.000 
#
# Total GULP energy -133739.184482 kJ/mol
# GULP energy per Si atom -5572.466020 kJ/mol
# Density = 2.753838 g / cm^3
# Si number density = 27.601199 Si / 1000 Ang^3
#
#
#
# Elastic Constant Matrix: (Units=GPa)
#
#
# Indices 1 2 3 4 5 6 
#
# 1 116.0129 62.7979 19.3752 0.0000 16.9160 0.0000
# 2 62.7979 162.5954 28.1242 0.0000 6.8340 0.0000
# 3 19.3752 28.1242 58.1202 0.0000 -7.1012 0.0000
# 4 0.0000 0.0000 0.0000 31.2336 0.0000 23.0918
# 5 16.9160 6.8340 -7.1012 0.0000 19.6746 0.0000
# 6 0.0000 0.0000 0.0000 23.0918 0.0000 60.4358
#
#
#
# Elastic Compliance Matrix: (Units=1/GPa)
#
#
# Indices 1 2 3 4 5 6 
#
# 1 0.012995 -0.003888 -0.003820 0.000000 -0.011201 0.000000
# 2 -0.003888 0.008138 -0.002698 0.000000 -0.000458 0.000000
# 3 -0.003820 -0.002698 0.021237 0.000000 0.011886 0.000000
# 4 0.000000 0.000000 0.000000 0.044622 0.000000 -0.017049
# 5 -0.011201 -0.000458 0.011886 0.000000 0.064907 0.000000
# 6 0.000000 0.000000 0.000000 -0.017049 0.000000 0.023061
#
#
# Mechanical properties :
#
#
# Convention : Reuss Voigt Hill
#
# Bulk Modulus (GPa) = 46.38254 61.92478 54.15366
# Shear Modulus (GPa) = 24.63592 37.36421 31.00006
#
# Velocity S-wave (km/s) = 2.99083 3.68328 3.35497
# Velocity P-wave (km/s) = 5.36356 6.36969 5.88815
#
# Compressibility (1/GPa) = 0.02155984
#
# Stress axis : x y z
#
# Youngs Moduli (GPa) = 76.95100 122.88680 47.08829
#
# Poissons Ratio (x) = 0.47773 0.17986
# Poissons Ratio (y) = 0.29915 0.12703
# Poissons Ratio (z) = 0.29392 0.33151
#
# Static dielectric constant tensor:
#      x y z
#    x 2.223000 0.000000 0.114290 
#    y 0.000000 2.201070 0.000000 
#    z 0.114290 0.000000 2.139920 
# 
# From -- ./inp_files/28118.got.cif
#   From: 2010.05.17/outbox.cif.g08.bks.cpg/sg14_15_cif.got.tgz:28118.got - 2010.06.03 17:49:19.
