data_PCOD9253248
_publ_section_title
;
Structure prediction by ZEFSAII (Michael W. Deem and Ramdas Pophale) SiO2 
 PCOD9253248
Probable space group: P 21/C
;
_chemical_formula_sum "Si O2"
_cell_formula_units_Z 20
_cell_length_a 7.554054
_cell_length_b 22.403659
_cell_length_c 7.964243
_cell_angle_alpha 90.000000
_cell_angle_beta 142.883144
_cell_angle_gamma 90.000000
_cell_volume 813.353820
_symmetry_space_group_name_H-M "P 21/C"
_symmetry_group_IT_number 14
_symmetry_cell_setting 'monoclinic'
loop_
_space_group_symop_operation_xyz
x,y,z
-x,1/2+y,1/2-z
-x,-y,-z
x,1/2-y,1/2+z
loop_
_atom_site_type_symbol
_atom_site_label
_atom_site_fract_x
_atom_site_fract_y
_atom_site_fract_z
Si Si1 0.286242 0.044046 0.234728
Si Si2 0.036339 0.201191 0.667042
Si Si3 0.354124 0.839858 0.927638
Si Si4 0.278830 0.959568 0.735762
Si Si5 0.987589 0.824407 0.959949
O O1 0.524915 0.060921 0.271292
O O2 0.162050 0.110799 0.179678
O O3 0.500000 0.000000 0.500000
O O4 0.000000 0.000000 0.000000
O O5 0.298151 0.155626 0.824051
O O6 0.955382 0.187516 0.798924
O O7 0.182347 0.266246 0.741567
O O8 0.780205 0.195028 0.334750
O O9 0.203828 0.903488 0.790559
O O10 0.267328 0.819761 0.047583
O O11 0.000000 0.000000 0.500000
O O12 0.500000 0.000000 0.000000
#
# Coordination Sequence:
#
# PCOD9253248 Si02
#       5
#     4   4   4   4   4
#     4  12  28  49  78 116 154 205 259 322 393 468
#     4  12  29  48  78 114 154 207 256 323 395 465
#     4  12  28  49  77 113 156 204 260 324 389 465
#     4  12  25  48  75 111 157 203 260 320 388 463
#     4  12  28  52  82 113 162 202 266 323 394 470
#
# _framework density 24.589545000000001
#
# number of rings (size 3 to 8) (size 9 to 14) (size 15 to 20)
#    0.000    0.000    4.000    4.800    5.600    4.800 
#    0.000    0.000    0.000    0.000    0.000    0.000 
#    0.000    0.000    0.000    0.000    0.000    0.000 
#
# Total GULP energy -111560.512795 kJ/mol
# GULP energy per Si atom -5578.025640 kJ/mol
# Density = 2.453358 g / cm^3
# Si number density = 24.589545 Si / 1000 Ang^3
#
#
#
# Elastic Constant Matrix: (Units=GPa)
#
#
# Indices 1 2 3 4 5 6 
#
# 1 184.5482 -7.1569 31.1897 0.0000 -27.0957 0.0000
# 2 -7.1569 145.8676 21.6952 0.0000 -19.0443 0.0000
# 3 31.1897 21.6952 133.2604 0.0000 9.4314 0.0000
# 4 0.0000 0.0000 0.0000 33.7319 0.0000 -2.9519
# 5 -27.0957 -19.0443 9.4314 0.0000 32.2808 0.0000
# 6 0.0000 0.0000 0.0000 -2.9519 0.0000 45.3670
#
#
#
# Elastic Compliance Matrix: (Units=1/GPa)
#
#
# Indices 1 2 3 4 5 6 
#
# 1 0.007018 0.001704 -0.002459 0.000000 0.007615 0.000000
# 2 0.001704 0.008169 -0.002217 0.000000 0.006898 0.000000
# 3 -0.002459 -0.002217 0.008863 0.000000 -0.005961 0.000000
# 4 0.000000 0.000000 0.000000 0.029815 0.000000 0.001940
# 5 0.007615 0.006898 -0.005961 0.000000 0.043181 0.000000
# 6 0.000000 0.000000 0.000000 0.001940 0.000000 0.022169
#
#
# Mechanical properties :
#
#
# Convention : Reuss Voigt Hill
#
# Bulk Modulus (GPa) = 55.22837 61.68134 58.45486
# Shear Modulus (GPa) = 38.11127 50.13916 44.12521
#
# Velocity S-wave (km/s) = 3.94114 4.52048 4.24071
# Velocity P-wave (km/s) = 6.57412 7.23776 6.91390
#
# Compressibility (1/GPa) = 0.01810664
#
# Stress axis : x y z
#
# Youngs Moduli (GPa) = 142.48328 122.40651 112.83478
#
# Poissons Ratio (x) = -0.20862 0.27747
# Poissons Ratio (y) = -0.24283 0.25017
# Poissons Ratio (z) = 0.35037 0.27139
#
# Static dielectric constant tensor:
#      x y z
#    x 1.744180 0.000000 -0.276510 
#    y 0.000000 2.122010 0.000000 
#    z -0.276510 0.000000 1.786000 
# 
# From -- ./inp_files/10842.got.cif
#   From: 2010.05.17/outbox.cif.g08.bks.cpg/sg14_6_cif.got.tgz:10842.got - 2010.06.03 17:49:19.
