data_PCOD9253070
_publ_section_title
;
Structure prediction by ZEFSAII (Michael W. Deem and Ramdas Pophale) SiO2 
 PCOD9253070
Probable space group: P 21/C
;
_chemical_formula_sum "Si O2"
_cell_formula_units_Z 20
_cell_length_a 9.678057
_cell_length_b 5.000256
_cell_length_c 18.462905
_cell_angle_alpha 90.000000
_cell_angle_beta 80.797368
_cell_angle_gamma 90.000000
_cell_volume 881.971041
_symmetry_space_group_name_H-M "P 21/C"
_symmetry_group_IT_number 14
_symmetry_cell_setting 'monoclinic'
loop_
_space_group_symop_operation_xyz
x,y,z
-x,1/2+y,1/2-z
-x,-y,-z
x,1/2-y,1/2+z
loop_
_atom_site_type_symbol
_atom_site_label
_atom_site_fract_x
_atom_site_fract_y
_atom_site_fract_z
Si Si1 0.708690 0.102475 0.403701
Si Si2 0.756421 0.922629 0.135054
Si Si3 0.469760 0.084198 0.085913
Si Si4 0.146929 0.595716 0.956292
Si Si5 0.906280 0.608731 0.768465
O O1 0.584460 0.886247 0.407699
O O2 0.752751 0.134854 0.483231
O O3 0.839974 0.987069 0.348986
O O4 0.654976 0.386084 0.379419
O O5 0.862161 0.131439 0.087821
O O6 0.604327 0.025222 0.123583
O O7 0.787543 0.632729 0.099603
O O8 0.787099 0.916638 0.217253
O O9 0.500000 0.000000 0.000000
O O10 0.000000 0.500000 0.000000
O O11 0.030125 0.403890 0.737294
#
# Coordination Sequence:
#
# PCOD9253070 Si02
#       5
#     4   4   4   4   4
#     4  12  24  42  70  96 134 177 215 272 330 384
#     4  12  25  42  68  94 134 173 214 275 326 381
#     4  12  23  43  68 102 134 166 224 276 321 387
#     4  12  23  40  66  98 126 173 226 266 321 388
#     4  12  27  48  66  97 138 174 218 274 329 392
#
# _framework density 22.676480000000002
#
# number of rings (size 3 to 8) (size 9 to 14) (size 15 to 20)
#    0.000    0.000    4.000    7.200    0.000    1.600 
#    0.000    0.000    0.000    0.000    0.000    0.000 
#    0.000    0.000    0.000    0.000    0.000    0.000 
#
# Total GULP energy -112128.874272 kJ/mol
# GULP energy per Si atom -5606.443714 kJ/mol
# Density = 2.262487 g / cm^3
# Si number density = 22.676480 Si / 1000 Ang^3
#
#
#
# Elastic Constant Matrix: (Units=GPa)
#
#
# Indices 1 2 3 4 5 6 
#
# 1 62.7417 -3.1394 -11.6119 0.0000 16.7305 0.0000
# 2 -3.1394 62.1006 3.8872 0.0000 12.6743 0.0000
# 3 -11.6119 3.8872 68.6554 0.0000 15.6246 0.0000
# 4 0.0000 0.0000 0.0000 19.9302 0.0000 -9.2272
# 5 16.7305 12.6743 15.6246 0.0000 46.5188 0.0000
# 6 0.0000 0.0000 0.0000 -9.2272 0.0000 40.7465
#
#
#
# Elastic Compliance Matrix: (Units=1/GPa)
#
#
# Indices 1 2 3 4 5 6 
#
# 1 0.019606 0.002607 0.005343 0.000000 -0.009556 0.000000
# 2 0.002607 0.017398 0.000810 0.000000 -0.005950 0.000000
# 3 0.005343 0.000810 0.017228 0.000000 -0.007929 0.000000
# 4 0.000000 0.000000 0.000000 0.056052 0.000000 0.012693
# 5 -0.009556 -0.005950 -0.007929 0.000000 0.029218 0.000000
# 6 0.000000 0.000000 0.000000 0.012693 0.000000 0.027416
#
#
# Mechanical properties :
#
#
# Convention : Reuss Voigt Hill
#
# Bulk Modulus (GPa) = 13.93680 19.08549 16.51115
# Shear Modulus (GPa) = 28.84921 35.06323 31.95622
#
# Velocity S-wave (km/s) = 3.57067 3.93649 3.75803
# Velocity P-wave (km/s) = 4.81237 5.39407 5.11150
#
# Compressibility (1/GPa) = 0.07175246
#
# Stress axis : x y z
#
# Youngs Moduli (GPa) = 51.00497 57.47679 58.04577
#
# Poissons Ratio (x) = -0.14985 -0.31015
# Poissons Ratio (y) = -0.13297 -0.04701
# Poissons Ratio (z) = -0.27253 -0.04655
#
# Static dielectric constant tensor:
#      x y z
#    x 1.857740 0.000000 -0.017500 
#    y 0.000000 1.794740 0.000000 
#    z -0.017500 0.000000 1.798170 
# 
# From -- ./inp_files/53996.got.cif
#   From: 2010.05.17/outbox.cif.g08.bks.cpg/sg14_27_cif.got.tgz:53996.got - 2010.06.03 17:49:19.
