data_PCOD9253320
_publ_section_title
;
Structure prediction by ZEFSAII (Michael W. Deem and Ramdas Pophale) SiO2 
 PCOD9253320
Probable space group: P 21/C
;
_chemical_formula_sum "Si O2"
_cell_formula_units_Z 20
_cell_length_a 11.435130
_cell_length_b 5.255822
_cell_length_c 31.530560
_cell_angle_alpha 90.000000
_cell_angle_beta 22.878608
_cell_angle_gamma 90.000000
_cell_volume 736.745245
_symmetry_space_group_name_H-M "P 21/C"
_symmetry_group_IT_number 14
_symmetry_cell_setting 'monoclinic'
loop_
_space_group_symop_operation_xyz
x,y,z
-x,1/2+y,1/2-z
-x,-y,-z
x,1/2-y,1/2+z
loop_
_atom_site_type_symbol
_atom_site_label
_atom_site_fract_x
_atom_site_fract_y
_atom_site_fract_z
Si Si1 0.634210 0.585685 0.882383
Si Si2 0.290835 0.147394 0.885169
Si Si3 0.309688 0.465089 0.279992
Si Si4 0.159140 0.089382 0.261471
Si Si5 0.330980 0.425306 0.512447
O O1 0.484796 0.312894 0.938107
O O2 0.879286 0.571092 0.838368
O O3 0.811862 0.671783 0.780966
O O4 0.393781 0.811731 0.966644
O O5 0.341593 0.052202 0.819727
O O6 0.542924 0.075746 0.835012
O O7 0.979004 0.144929 0.131616
O O8 0.000000 0.000000 0.000000
O O9 0.620667 0.554152 0.153392
O O10 0.172702 0.219541 0.302649
O O11 0.500000 0.500000 0.500000
#
# Coordination Sequence:
#
# PCOD9253320 Si02
#       5
#     4   4   4   4   4
#     4  12  28  48  81 121 164 222 271 365 430 517
#     4  12  29  53  80 118 170 229 291 356 433 522
#     4  12  28  50  82 119 167 225 290 359 423 527
#     4  12  28  49  79 118 167 215 291 346 439 511
#     4  12  26  49  79 120 165 214 285 348 440 503
#
# _framework density 27.146422999999999
#
# number of rings (size 3 to 8) (size 9 to 14) (size 15 to 20)
#    0.000    0.000    4.000    4.200   11.200    2.400 
#    0.000    0.000    0.000    0.000    0.000    0.000 
#    0.000    0.000    0.000    0.000    0.000    0.000 
#
# Total GULP energy -111735.460021 kJ/mol
# GULP energy per Si atom -5586.773001 kJ/mol
# Density = 2.708464 g / cm^3
# Si number density = 27.146423 Si / 1000 Ang^3
#
#
#
# Elastic Constant Matrix: (Units=GPa)
#
#
# Indices 1 2 3 4 5 6 
#
# 1 127.0774 31.8628 19.8688 -0.0075 14.4071 -0.0030
# 2 31.8628 146.6252 48.1347 0.0055 11.9921 -0.0016
# 3 19.8688 48.1347 100.6795 0.0570 -5.2483 0.0049
# 4 -0.0075 0.0055 0.0570 45.6729 0.0105 5.8777
# 5 14.4071 11.9921 -5.2483 0.0105 51.1407 0.0011
# 6 -0.0030 -0.0016 0.0049 5.8777 0.0011 55.8149
#
#
#
# Elastic Compliance Matrix: (Units=1/GPa)
#
#
# Indices 1 2 3 4 5 6 
#
# 1 0.008638 -0.001299 -0.001201 0.000004 -0.002252 0.000000
# 2 -0.001299 0.008565 -0.003945 0.000004 -0.002047 0.000000
# 3 -0.001201 -0.003945 0.012187 -0.000016 0.002514 0.000000
# 4 0.000004 0.000004 -0.000016 0.022196 -0.000008 -0.002337
# 5 -0.002252 -0.002047 0.002514 -0.000008 0.020927 0.000000
# 6 0.000000 0.000000 0.000000 -0.002337 0.000000 0.018162
#
#
# Mechanical properties :
#
#
# Convention : Reuss Voigt Hill
#
# Bulk Modulus (GPa) = 60.60780 63.79051 62.19916
# Shear Modulus (GPa) = 45.84436 48.82676 47.33556
#
# Velocity S-wave (km/s) = 4.11394 4.24564 4.18031
# Velocity P-wave (km/s) = 6.70378 6.89809 6.80163
#
# Compressibility (1/GPa) = 0.01649953
#
# Stress axis : x y z
#
# Youngs Moduli (GPa) = 115.76790 116.75491 82.05522
#
# Poissons Ratio (x) = 0.15161 0.09857
# Poissons Ratio (y) = 0.15033 0.32374
# Poissons Ratio (z) = 0.13907 0.46064
#
# Static dielectric constant tensor:
#      x y z
#    x 2.049550 0.000020 0.013560 
#    y 0.000020 2.314820 0.000110 
#    z 0.013560 0.000110 2.291660 
# 
# From -- ./inp_files/79812.got.cif
#   From: 2010.05.17/outbox.cif.g08.bks.cpg/sg14_40_cif.got.tgz:79812.got - 2010.06.03 17:49:19.
