data_PCOD9253719
_publ_section_title
;
Structure prediction by ZEFSAII (Michael W. Deem and Ramdas Pophale) SiO2 
 PCOD9253719
Probable space group: P 21/C
;
_chemical_formula_sum "Si O2"
_cell_formula_units_Z 28
_cell_length_a 21.000000
_cell_length_b 9.000000
_cell_length_c 9.000000
_cell_angle_alpha 90.000000
_cell_angle_beta 130.000000
_cell_angle_gamma 90.000000
_cell_volume 1303.041598
_symmetry_space_group_name_H-M "P 21/C"
_symmetry_group_IT_number 14
_symmetry_cell_setting 'monoclinic'
loop_
_space_group_symop_operation_xyz
x,y,z
-x,1/2+y,1/2-z
-x,-y,-z
x,1/2-y,1/2+z
loop_
_atom_site_type_symbol
_atom_site_label
_atom_site_fract_x
_atom_site_fract_y
_atom_site_fract_z
Si Si1 0.895661 0.346605 0.529726
Si Si2 0.614224 0.343984 0.002590
Si Si3 0.495614 0.832270 0.937494
Si Si4 0.218459 0.129037 0.835478
Si Si5 0.671404 0.836714 0.707245
Si Si6 0.960531 0.609160 0.814505
Si Si7 0.783871 0.290976 0.642292
O O1 0.932564 0.503049 0.636943
O O2 0.820094 0.312814 0.531721
O O3 0.847980 0.329293 0.304369
O O4 0.971334 0.228581 0.635237
O O5 0.534099 0.344145 0.776094
O O6 0.577982 0.256533 0.089374
O O7 0.646004 0.508384 0.091410
O O8 0.691170 0.263173 0.036301
O O9 0.584963 0.754162 0.091903
O O10 0.500000 0.000000 0.000000
O O11 0.261660 0.237766 0.782752
O O12 0.125561 0.175759 0.748098
O O13 0.208325 0.955733 0.772267
O O14 0.283258 0.127536 0.069891
O O15 0.000000 0.500000 0.000000
#
# Coordination Sequence:
#
# PCOD9253719 Si02
#       7
#     4   4   4   4   4   4   4
#     4  11  23  43  69  94 139 171 227 275 346 401
#     4  12  24  43  69  98 135 176 230 278 339 397
#     4  12  25  44  68  97 136 181 226 279 340 408
#     4  11  25  44  66  95 139 170 227 279 341 406
#     4  12  26  44  68 102 133 180 227 283 342 402
#     4  11  24  45  67 102 136 178 223 288 340 409
#     4  11  24  44  65  98 131 178 218 282 330 412
#
# _framework density 21.488185999999999
#
# number of rings (size 3 to 8) (size 9 to 14) (size 15 to 20)
#    0.000    0.571    2.857    7.286    2.000    2.857 
#    0.000    0.000    0.000    0.000    0.000    0.000 
#    0.000    0.000    0.000    0.000    0.000    0.000 
#
# Total GULP energy -156596.983375 kJ/mol
# GULP energy per Si atom -5592.749406 kJ/mol
# Density = 2.143928 g / cm^3
# Si number density = 21.488186 Si / 1000 Ang^3
#
#
#
# Elastic Constant Matrix: (Units=GPa)
#
#
# Indices 1 2 3 4 5 6 
#
# 1 118.4563 49.5197 -12.6758 0.0000 38.2173 0.0000
# 2 49.5197 86.4193 -14.2220 0.0000 14.2160 0.0000
# 3 -12.6758 -14.2220 73.9061 0.0000 16.0422 0.0000
# 4 0.0000 0.0000 0.0000 34.7108 0.0000 12.5121
# 5 38.2173 14.2160 16.0422 0.0000 39.1749 0.0000
# 6 0.0000 0.0000 0.0000 12.5121 0.0000 46.0328
#
#
#
# Elastic Compliance Matrix: (Units=1/GPa)
#
#
# Indices 1 2 3 4 5 6 
#
# 1 0.016830 -0.006084 0.005269 0.000000 -0.016368 0.000000
# 2 -0.006084 0.015481 0.002049 0.000000 -0.000521 0.000000
# 3 0.005269 0.002049 0.017677 0.000000 -0.013122 0.000000
# 4 0.000000 0.000000 0.000000 0.031939 0.000000 -0.008681
# 5 -0.016368 -0.000521 -0.013122 0.000000 0.047057 0.000000
# 6 0.000000 0.000000 0.000000 -0.008681 0.000000 0.024083
#
#
# Mechanical properties :
#
#
# Convention : Reuss Voigt Hill
#
# Bulk Modulus (GPa) = 19.06445 36.00283 27.53364
# Shear Modulus (GPa) = 29.74676 41.06102 35.40389
#
# Velocity S-wave (km/s) = 3.72470 4.37609 4.06346
# Velocity P-wave (km/s) = 5.23346 6.50573 5.90397
#
# Compressibility (1/GPa) = 0.05245366
#
# Stress axis : x y z
#
# Youngs Moduli (GPa) = 59.41746 64.59643 56.57127
#
# Poissons Ratio (x) = 0.39302 -0.29806
# Poissons Ratio (y) = 0.36151 -0.11589
# Poissons Ratio (z) = -0.31305 -0.13233
#
# Static dielectric constant tensor:
#      x y z
#    x 1.750820 0.000000 -0.042320 
#    y 0.000000 1.801820 0.000000 
#    z -0.042320 0.000000 1.832530 
# 
# From -- ./inp_files/18701.got.cif
#   From: 2010.05.17/outbox.ucp.g08.bks.cvg/sg14_10_cif.got.tgz:18701.got - 2010.06.11 12:31:08.
