data_PCOD9253140
_publ_section_title
;
Structure prediction by ZEFSAII (Michael W. Deem and Ramdas Pophale) SiO2 
 PCOD9253140
Probable space group: P 21/C
;
_chemical_formula_sum "Si O2"
_cell_formula_units_Z 20
_cell_length_a 20.361748
_cell_length_b 5.006010
_cell_length_c 8.374562
_cell_angle_alpha 90.000000
_cell_angle_beta 81.430314
_cell_angle_gamma 90.000000
_cell_volume 844.097980
_symmetry_space_group_name_H-M "P 21/C"
_symmetry_group_IT_number 14
_symmetry_cell_setting 'monoclinic'
loop_
_space_group_symop_operation_xyz
x,y,z
-x,1/2+y,1/2-z
-x,-y,-z
x,1/2-y,1/2+z
loop_
_atom_site_type_symbol
_atom_site_label
_atom_site_fract_x
_atom_site_fract_y
_atom_site_fract_z
Si Si1 0.876787 0.948714 0.777795
Si Si2 0.681678 0.590755 0.534501
Si Si3 0.927569 0.441082 0.595260
Si Si4 0.473148 0.383496 0.344447
Si Si5 0.732996 0.424356 0.185405
O O1 0.926463 0.147754 0.668573
O O2 0.805775 0.015538 0.727419
O O3 0.901771 0.649923 0.736743
O O4 0.878680 0.020854 0.962686
O O5 0.606231 0.617598 0.618617
O O6 0.684912 0.496966 0.350480
O O7 0.719232 0.371527 0.628589
O O8 0.717555 0.873373 0.546759
O O9 0.000000 0.500000 0.500000
O O10 0.501349 0.091024 0.298056
O O11 0.500000 0.500000 0.500000
#
# Coordination Sequence:
#
# PCOD9253140 Si02
#       5
#     4   4   4   4   4
#     4  12  24  43  67  96 129 169 214 264 318 379
#     4  12  25  44  67  96 130 169 213 264 319 379
#     4  12  25  44  67  96 130 170 214 264 318 378
#     4  12  25  44  67  96 129 169 214 264 318 379
#     4  12  25  43  66  96 130 169 213 264 319 379
#
# _framework density 23.693932
#
# number of rings (size 3 to 8) (size 9 to 14) (size 15 to 20)
#    0.000    0.000    0.000   12.000    0.000    0.000 
#    0.000    0.000    0.000    0.000    0.000    0.000 
#    0.000    0.000    0.000    0.000    0.000    0.000 
#
# Total GULP energy -112241.989215 kJ/mol
# GULP energy per Si atom -5612.099461 kJ/mol
# Density = 2.364000 g / cm^3
# Si number density = 23.693932 Si / 1000 Ang^3
#
#
#
# Elastic Constant Matrix: (Units=GPa)
#
#
# Indices 1 2 3 4 5 6 
#
# 1 83.6595 9.3277 -22.3024 0.0000 -3.4129 0.0000
# 2 9.3277 55.1579 -13.4595 0.0000 0.8772 0.0000
# 3 -22.3024 -13.4595 71.4636 0.0000 9.2213 0.0000
# 4 0.0000 0.0000 0.0000 38.0473 0.0000 -0.6147
# 5 -3.4129 0.8772 9.2213 0.0000 41.5631 0.0000
# 6 0.0000 0.0000 0.0000 -0.6147 0.0000 25.6259
#
#
#
# Elastic Compliance Matrix: (Units=1/GPa)
#
#
# Indices 1 2 3 4 5 6 
#
# 1 0.013126 -0.001292 0.003820 0.000000 0.000258 0.000000
# 2 -0.001292 0.019192 0.003374 0.000000 -0.001260 0.000000
# 3 0.003820 0.003374 0.016255 0.000000 -0.003364 0.000000
# 4 0.000000 0.000000 0.000000 0.026293 0.000000 0.000631
# 5 0.000258 -0.001260 -0.003364 0.000000 0.024854 0.000000
# 6 0.000000 0.000000 0.000000 0.000631 0.000000 0.039038
#
#
# Mechanical properties :
#
#
# Convention : Reuss Voigt Hill
#
# Bulk Modulus (GPa) = 16.56271 17.49029 17.02650
# Shear Modulus (GPa) = 33.99536 36.82827 35.41182
#
# Velocity S-wave (km/s) = 3.79195 3.94678 3.87014
# Velocity P-wave (km/s) = 5.11637 5.30728 5.21270
#
# Compressibility (1/GPa) = 0.06037659
#
# Stress axis : x y z
#
# Youngs Moduli (GPa) = 76.18428 52.10628 61.52052
#
# Poissons Ratio (x) = 0.06731 -0.23500
# Poissons Ratio (y) = 0.09841 -0.20757
# Poissons Ratio (z) = -0.29101 -0.17581
#
# Static dielectric constant tensor:
#      x y z
#    x 1.879390 0.000000 0.002600 
#    y 0.000000 1.802930 0.000000 
#    z 0.002600 0.000000 1.879490 
# 
# From -- ./inp_files/18335.got.cif
#   From: 2010.05.17/outbox.cif.g08.bks.cpg/sg14_10_cif.got.tgz:18335.got - 2010.06.03 17:49:19.
