data_PCOD9253197
_publ_section_title
;
Structure prediction by ZEFSAII (Michael W. Deem and Ramdas Pophale) SiO2 
 PCOD9253197
Probable space group: P 21/C
;
_chemical_formula_sum "Si O2"
_cell_formula_units_Z 20
_cell_length_a 8.549031
_cell_length_b 5.383378
_cell_length_c 16.651620
_cell_angle_alpha 90.000000
_cell_angle_beta 116.244216
_cell_angle_gamma 90.000000
_cell_volume 687.354375
_symmetry_space_group_name_H-M "P 21/C"
_symmetry_group_IT_number 14
_symmetry_cell_setting 'monoclinic'
loop_
_space_group_symop_operation_xyz
x,y,z
-x,1/2+y,1/2-z
-x,-y,-z
x,1/2-y,1/2+z
loop_
_atom_site_type_symbol
_atom_site_label
_atom_site_fract_x
_atom_site_fract_y
_atom_site_fract_z
Si Si1 0.973696 0.327570 0.192523
Si Si2 0.720992 0.976396 0.747369
Si Si3 0.832651 0.477898 0.518436
Si Si4 0.712245 0.976865 0.544099
Si Si5 0.665467 0.166549 0.365490
O O1 0.168402 0.257616 0.198746
O O2 0.034695 0.565852 0.260496
O O3 0.752508 0.454812 0.159994
O O4 0.519605 0.915813 0.707790
O O5 0.766868 0.205558 0.815655
O O6 0.793108 0.698896 0.569139
O O7 0.663365 0.402814 0.428280
O O8 0.000000 0.500000 0.500000
O O9 0.861634 0.220864 0.578938
O O10 0.500000 0.000000 0.500000
O O11 0.734969 0.971556 0.445887
#
# Coordination Sequence:
#
# PCOD9253197 Si02
#       5
#     4   4   4   4   4
#     4   9  26  42  78  99 160 178 268 281 406 408
#     4  12  24  50  68 124 138 212 226 348 346 476
#     4   8  20  46  70 106 140 208 238 312 352 476
#     4   8  20  46  70 106 140 208 238 312 352 476
#     4   9  26  42  78  99 160 178 268 281 406 408
#
# _framework density 29.097069999999999
#
# number of rings (size 3 to 8) (size 9 to 14) (size 15 to 20)
#    2.400    0.000    0.000    0.000    5.600    8.000 
#    0.000    4.000    0.000    0.000    0.000    0.000 
#    0.000    0.000    0.000    0.000    0.000    0.000 
#
# Total GULP energy -111496.945822 kJ/mol
# GULP energy per Si atom -5574.847291 kJ/mol
# Density = 2.903084 g / cm^3
# Si number density = 29.097070 Si / 1000 Ang^3
#
#
#
# Elastic Constant Matrix: (Units=GPa)
#
#
# Indices 1 2 3 4 5 6 
#
# 1 83.2115 32.5094 42.0844 0.0000 15.1508 0.0000
# 2 32.5094 144.9940 42.0825 0.0000 -8.1178 0.0000
# 3 42.0844 42.0825 203.8100 0.0000 23.9932 0.0000
# 4 0.0000 0.0000 0.0000 64.1364 0.0000 -17.1697
# 5 15.1508 -8.1178 23.9932 0.0000 74.0910 0.0000
# 6 0.0000 0.0000 0.0000 -17.1697 0.0000 56.8121
#
#
#
# Elastic Compliance Matrix: (Units=1/GPa)
#
#
# Indices 1 2 3 4 5 6 
#
# 1 0.014677 -0.002816 -0.002141 0.000000 -0.002616 0.000000
# 2 -0.002816 0.008008 -0.001292 0.000000 0.001872 0.000000
# 3 -0.002141 -0.001292 0.005802 0.000000 -0.001583 0.000000
# 4 0.000000 0.000000 0.000000 0.016964 0.000000 0.005127
# 5 -0.002616 0.001872 -0.001583 0.000000 0.014750 0.000000
# 6 0.000000 0.000000 0.000000 0.005127 0.000000 0.019151
#
#
# Mechanical properties :
#
#
# Convention : Reuss Voigt Hill
#
# Bulk Modulus (GPa) = 62.54675 73.92978 68.23827
# Shear Modulus (GPa) = 51.45084 60.03052 55.74068
#
# Velocity S-wave (km/s) = 4.20962 4.54708 4.38160
# Velocity P-wave (km/s) = 6.72089 7.28224 7.00719
#
# Compressibility (1/GPa) = 0.01598804
#
# Stress axis : x y z
#
# Youngs Moduli (GPa) = 68.13400 124.87404 172.35943
#
# Poissons Ratio (x) = 0.35162 0.36906
# Poissons Ratio (y) = 0.19185 0.22276
# Poissons Ratio (z) = 0.14589 0.16139
#
# Static dielectric constant tensor:
#      x y z
#    x 2.538630 0.000000 -0.063530 
#    y 0.000000 2.282400 0.000000 
#    z -0.063530 0.000000 2.319690 
# 
# From -- ./inp_files/71474.got.cif
#   From: 2010.05.17/outbox.cif.g08.bks.cpg/sg14_36_cif.got.tgz:71474.got - 2010.06.03 17:49:19.
