data_PCOD9253483
_publ_section_title
;
Structure prediction by ZEFSAII (Michael W. Deem and Ramdas Pophale) SiO2 
 PCOD9253483
Probable space group: P 21/C
;
_chemical_formula_sum "Si O2"
_cell_formula_units_Z 32
_cell_length_a 9.000000
_cell_length_b 24.000000
_cell_length_c 12.000000
_cell_angle_alpha 90.000000
_cell_angle_beta 40.000000
_cell_angle_gamma 90.000000
_cell_volume 1666.105484
_symmetry_space_group_name_H-M "P 21/C"
_symmetry_group_IT_number 14
_symmetry_cell_setting 'monoclinic'
loop_
_space_group_symop_operation_xyz
x,y,z
-x,1/2+y,1/2-z
-x,-y,-z
x,1/2-y,1/2+z
loop_
_atom_site_type_symbol
_atom_site_label
_atom_site_fract_x
_atom_site_fract_y
_atom_site_fract_z
Si Si1 0.634716 0.811071 0.016787
Si Si2 0.946803 0.883501 0.358867
Si Si3 0.155958 0.686457 0.144717
Si Si4 0.130734 0.919133 0.498553
Si Si5 0.492241 0.689482 0.160758
Si Si6 0.860564 0.007491 0.802872
Si Si7 0.473443 0.438743 0.371814
Si Si8 0.292818 0.692255 0.512483
O O1 0.556892 0.755790 0.128558
O O2 0.569085 0.872225 0.100592
O O3 0.517711 0.806635 0.962267
O O4 0.906196 0.810192 0.844046
O O5 0.714396 0.848866 0.511404
O O6 0.034295 0.897073 0.434935
O O7 0.112859 0.844924 0.186865
O O8 0.947239 0.943945 0.297304
O O9 0.334720 0.682426 0.142934
O O10 0.198777 0.744827 0.057807
O O11 0.167886 0.633751 0.056506
O O12 0.373403 0.948887 0.326432
O O13 0.957518 0.961925 0.659349
O O14 0.363441 0.672718 0.348952
O O15 0.645473 0.042136 0.873234
O O16 0.757777 0.973996 0.967916
#
# Coordination Sequence:
#
# PCOD9253483 Si02
#       8
#     4   4   4   4   4   4   4   4
#     4  11  20  41  63  89 122 161 206 256 305 364
#     4  11  22  41  62  95 124 159 211 256 309 366
#     4  11  24  40  62  93 128 163 208 251 317 379
#     4  11  21  39  67  93 123 163 209 263 306 362
#     4  11  26  40  61  92 129 168 198 254 321 380
#     4  10  21  35  64  98 120 156 214 268 302 351
#     4  10  19  34  60  95 120 146 211 265 302 344
#     4  11  23  40  62  90 124 164 205 256 308 365
#
# _framework density 19.206467
#
# number of rings (size 3 to 8) (size 9 to 14) (size 15 to 20)
#    0.000    1.250    5.000    3.000    1.750    2.000 
#    2.250    0.625    0.000    1.500    0.000    0.000 
#    0.000    0.000    0.000    0.000    0.000    0.000 
#
# Total GULP energy -178470.462669 kJ/mol
# GULP energy per Si atom -5577.201958 kJ/mol
# Density = 1.916275 g / cm^3
# Si number density = 19.206467 Si / 1000 Ang^3
#
#
#
# Elastic Constant Matrix: (Units=GPa)
#
#
# Indices 1 2 3 4 5 6 
#
# 1 24.5427 22.3625 38.0154 0.0000 -8.4339 0.0000
# 2 22.3625 113.9374 44.9557 0.0000 -14.7790 0.0000
# 3 38.0154 44.9557 134.8795 0.0000 -8.2710 0.0000
# 4 0.0000 0.0000 0.0000 34.4148 0.0000 -7.3485
# 5 -8.4339 -14.7790 -8.2710 0.0000 18.9413 0.0000
# 6 0.0000 0.0000 0.0000 -7.3485 0.0000 21.2063
#
#
#
# Elastic Compliance Matrix: (Units=1/GPa)
#
#
# Indices 1 2 3 4 5 6 
#
# 1 0.087338 -0.005475 -0.021237 0.000000 0.025343 0.000000
# 2 -0.005475 0.011319 -0.001888 0.000000 0.005569 0.000000
# 3 -0.021237 -0.001888 0.013726 0.000000 -0.004935 0.000000
# 4 0.000000 0.000000 0.000000 0.031379 0.000000 0.010874
# 5 0.025343 0.005569 -0.004935 0.000000 0.066270 0.000000
# 6 0.000000 0.000000 0.000000 0.010874 0.000000 0.050924
#
#
# Mechanical properties :
#
#
# Convention : Reuss Voigt Hill
#
# Bulk Modulus (GPa) = 18.12151 53.78076 35.95113
# Shear Modulus (GPa) = 14.85662 26.11423 20.48543
#
# Velocity S-wave (km/s) = 2.78424 3.69135 3.26941
# Velocity P-wave (km/s) = 4.44878 6.79929 5.74552
#
# Compressibility (1/GPa) = 0.05518303
#
# Stress axis : x y z
#
# Youngs Moduli (GPa) = 11.44971 88.34994 72.85320
#
# Poissons Ratio (x) = 0.48373 1.54719
# Poissons Ratio (y) = 0.06269 0.13754
# Poissons Ratio (z) = 0.24316 0.16679
#
# Static dielectric constant tensor:
#      x y z
#    x 1.658240 0.000000 -0.042030 
#    y 0.000000 1.699080 0.000000 
#    z -0.042030 0.000000 1.706230 
# 
# From -- ./inp_files/27003.got.cif
#   From: 2010.05.17/outbox.ucp.g08.bks.cvg/sg14_14_cif.got.tgz:27003.got - 2010.06.11 12:31:08.
