data_PCOD9253060
_publ_section_title
;
Structure prediction by ZEFSAII (Michael W. Deem and Ramdas Pophale) SiO2 
 PCOD9253060
Probable space group: P 21/C
;
_chemical_formula_sum "Si O2"
_cell_formula_units_Z 24
_cell_length_a 11.584921
_cell_length_b 8.924135
_cell_length_c 11.379443
_cell_angle_alpha 90.000000
_cell_angle_beta 116.618549
_cell_angle_gamma 90.000000
_cell_volume 1051.773481
_symmetry_space_group_name_H-M "P 21/C"
_symmetry_group_IT_number 14
_symmetry_cell_setting 'monoclinic'
loop_
_space_group_symop_operation_xyz
x,y,z
-x,1/2+y,1/2-z
-x,-y,-z
x,1/2-y,1/2+z
loop_
_atom_site_type_symbol
_atom_site_label
_atom_site_fract_x
_atom_site_fract_y
_atom_site_fract_z
Si Si1 0.624925 0.409143 0.015250
Si Si2 0.771031 0.540763 0.455641
Si Si3 0.865272 0.374102 0.279677
Si Si4 0.514645 0.093605 0.886672
Si Si5 0.913949 0.033089 0.259116
Si Si6 0.250277 0.118214 0.622367
O O1 0.719922 0.370823 0.165035
O O2 0.500000 0.500000 0.000000
O O3 0.576917 0.254884 0.937868
O O4 0.708659 0.506346 0.962451
O O5 0.857480 0.447149 0.404143
O O6 0.621547 0.499558 0.364242
O O7 0.812323 0.493440 0.605692
O O8 0.782746 0.717718 0.441090
O O9 0.918403 0.206193 0.297270
O O10 0.953136 0.474685 0.234675
O O11 0.378541 0.118501 0.762199
O O12 0.500000 0.000000 0.000000
O O13 0.865111 0.941263 0.349146
#
# Coordination Sequence:
#
# PCOD9253060 Si02
#       6
#     4   4   4   4   4   4
#     4  12  26  45  74 109 146 190 243 299 367 431
#     4  12  26  48  73 107 150 188 245 301 365 430
#     4  12  27  49  75 105 145 194 243 302 363 432
#     4  12  22  45  72 105 146 186 241 305 356 429
#     4  12  28  50  74 107 147 190 249 296 363 442
#     4  12  26  44  76 107 148 192 239 301 368 434
#
# _framework density 22.818601999999998
#
# number of rings (size 3 to 8) (size 9 to 14) (size 15 to 20)
#    0.000    0.000    3.333    6.500    4.667    0.667 
#    0.000    0.000    0.000    0.000    0.000    0.000 
#    0.000    0.000    0.000    0.000    0.000    0.000 
#
# Total GULP energy -134559.680948 kJ/mol
# GULP energy per Si atom -5606.653373 kJ/mol
# Density = 2.276667 g / cm^3
# Si number density = 22.818602 Si / 1000 Ang^3
#
#
#
# Elastic Constant Matrix: (Units=GPa)
#
#
# Indices 1 2 3 4 5 6 
#
# 1 112.3451 30.0277 4.4491 0.0000 -24.2593 0.0000
# 2 30.0277 177.8243 22.7977 0.0000 -33.6872 0.0000
# 3 4.4491 22.7977 59.5964 0.0000 -6.4349 0.0000
# 4 0.0000 0.0000 0.0000 30.0624 0.0000 -7.7281
# 5 -24.2593 -33.6872 -6.4349 0.0000 57.1809 0.0000
# 6 0.0000 0.0000 0.0000 -7.7281 0.0000 47.3931
#
#
#
# Elastic Compliance Matrix: (Units=1/GPa)
#
#
# Indices 1 2 3 4 5 6 
#
# 1 0.009952 -0.000995 0.000031 0.000000 0.003639 0.000000
# 2 -0.000995 0.006685 -0.002129 0.000000 0.003277 0.000000
# 3 0.000031 -0.002129 0.017672 0.000000 0.000747 0.000000
# 4 0.000000 0.000000 0.000000 0.034720 0.000000 0.005661
# 5 0.003639 0.003277 0.000747 0.000000 0.021047 0.000000
# 6 0.000000 0.000000 0.000000 0.005661 0.000000 0.022023
#
#
# Mechanical properties :
#
#
# Convention : Reuss Voigt Hill
#
# Bulk Modulus (GPa) = 35.55897 51.59053 43.57475
# Shear Modulus (GPa) = 39.16639 46.42670 42.79654
#
# Velocity S-wave (km/s) = 4.14747 4.51555 4.33542
# Velocity P-wave (km/s) = 6.20906 7.06009 6.64821
#
# Compressibility (1/GPa) = 0.02812230
#
# Stress axis : x y z
#
# Youngs Moduli (GPa) = 100.48502 149.58247 56.58526
#
# Poissons Ratio (x) = 0.14883 -0.00173
# Poissons Ratio (y) = 0.09998 0.12048
# Poissons Ratio (z) = -0.00308 0.31850
#
# Static dielectric constant tensor:
#      x y z
#    x 1.848170 0.000000 0.036300 
#    y 0.000000 1.800730 0.000000 
#    z 0.036300 0.000000 1.909250 
# 
# From -- ./inp_files/28199.got.cif
#   From: 2010.05.17/outbox.cif.g08.bks.cpg/sg14_15_cif.got.tgz:28199.got - 2010.06.03 17:49:19.
