data_PCOD9253582
_publ_section_title
;
Structure prediction by ZEFSAII (Michael W. Deem and Ramdas Pophale) SiO2 
 PCOD9253582
Probable space group: P 21/C
;
_chemical_formula_sum "Si O2"
_cell_formula_units_Z 20
_cell_length_a 9.000000
_cell_length_b 6.000000
_cell_length_c 24.000000
_cell_angle_alpha 90.000000
_cell_angle_beta 130.000000
_cell_angle_gamma 90.000000
_cell_volume 992.793598
_symmetry_space_group_name_H-M "P 21/C"
_symmetry_group_IT_number 14
_symmetry_cell_setting 'monoclinic'
loop_
_space_group_symop_operation_xyz
x,y,z
-x,1/2+y,1/2-z
-x,-y,-z
x,1/2-y,1/2+z
loop_
_atom_site_type_symbol
_atom_site_label
_atom_site_fract_x
_atom_site_fract_y
_atom_site_fract_z
Si Si1 0.797400 0.059225 0.091449
Si Si2 0.326715 0.868222 0.344364
Si Si3 0.528817 0.241514 0.931529
Si Si4 0.534863 0.523508 0.699699
Si Si5 0.785149 0.602971 0.288746
O O1 0.799370 0.246179 0.140187
O O2 0.021342 0.014483 0.136117
O O3 0.664709 0.867430 0.087179
O O4 0.696764 0.151747 0.011621
O O5 0.419684 0.697858 0.323390
O O6 0.491760 0.996221 0.419088
O O7 0.211629 0.028031 0.275082
O O8 0.548320 0.174001 0.871225
O O9 0.390417 0.490409 0.715936
O O10 0.730428 0.636256 0.770645
#
# Coordination Sequence:
#
# PCOD9253582 Si02
#       5
#     4   4   4   4   4
#     4  10  22  37  62  89 116 151 194 239 296 352
#     4  10  21  37  60  82 120 151 190 245 289 343
#     4   9  21  41  59  87 119 151 191 242 295 349
#     4  10  21  39  57  82 119 156 196 239 289 343
#     4  11  22  36  59  86 116 156 197 240 290 343
#
# _framework density 20.145174000000001
#
# number of rings (size 3 to 8) (size 9 to 14) (size 15 to 20)
#    0.000    2.000    2.000    0.600    8.400    0.800 
#    0.000    1.000    0.000    0.000    0.000    0.000 
#    0.000    0.000    0.000    0.000    0.000    0.000 
#
# Total GULP energy -111339.808007 kJ/mol
# GULP energy per Si atom -5566.990400 kJ/mol
# Density = 2.009932 g / cm^3
# Si number density = 20.145174 Si / 1000 Ang^3
#
#
#
# Elastic Constant Matrix: (Units=GPa)
#
#
# Indices 1 2 3 4 5 6 
#
# 1 3.9591 8.5170 13.4024 0.0000 -9.4535 0.0000
# 2 8.5170 37.9939 3.5640 0.0000 5.0003 0.0000
# 3 13.4024 3.5640 72.7942 0.0000 6.4359 0.0000
# 4 0.0000 0.0000 0.0000 19.9267 0.0000 -8.9317
# 5 -9.4535 5.0003 6.4359 0.0000 27.4085 0.0000
# 6 0.0000 0.0000 0.0000 -8.9317 0.0000 17.9423
#
#
#
# Elastic Compliance Matrix: (Units=1/GPa)
#
#
# Indices 1 2 3 4 5 6 
#
# 1 -0.189485 0.049765 0.039859 0.000000 -0.083794 0.000000
# 2 0.049765 0.013956 -0.011374 0.000000 0.017289 0.000000
# 3 0.039859 -0.011374 0.005675 0.000000 0.014490 0.000000
# 4 0.000000 0.000000 0.000000 0.064597 0.000000 0.032157
# 5 -0.083794 0.017289 0.014490 0.000000 0.001027 0.000000
# 6 0.000000 0.000000 0.000000 0.032157 0.000000 0.071742
#
#
# Mechanical properties :
#
#
# Convention : Reuss Voigt Hill
#
# Bulk Modulus (GPa) = -74.87658 18.41268 -28.23195
# Shear Modulus (GPa) = -25.84783 19.00642 -3.42070
#
# Velocity S-wave (km/s) = -3.58589 3.07493 -1.30450
# Velocity P-wave (km/s) = 7.37523 4.66549 4.03901
#
# Compressibility (1/GPa) = -0.01335531
#
# Stress axis : x y z
#
# Youngs Moduli (GPa) = -5.27746 71.65484 176.22400
#
# Poissons Ratio (x) = -3.56593 -7.02405
# Poissons Ratio (y) = 0.26263 2.00444
# Poissons Ratio (z) = 0.21035 0.81503
#
# Static dielectric constant tensor:
#      x y z
#    x 1.686700 0.000000 0.030080 
#    y 0.000000 1.880110 0.000000 
#    z 0.030080 0.000000 1.711900 
# 
# From -- ./inp_files/53956.got.cif
#   From: 2010.05.17/outbox.ucp.g08.bks.cvg/sg14_27_cif.got.tgz:53956.got - 2010.06.11 12:31:08.
