data_PCOD9253513
_publ_section_title
;
Structure prediction by ZEFSAII (Michael W. Deem and Ramdas Pophale) SiO2 
 PCOD9253513
Probable space group: P 21/C
;
_chemical_formula_sum "Si O2"
_cell_formula_units_Z 32
_cell_length_a 30.000000
_cell_length_b 12.000000
_cell_length_c 30.000000
_cell_angle_alpha 90.000000
_cell_angle_beta 10.000000
_cell_angle_gamma 90.000000
_cell_volume 1875.400319
_symmetry_space_group_name_H-M "P 21/C"
_symmetry_group_IT_number 14
_symmetry_cell_setting 'monoclinic'
loop_
_space_group_symop_operation_xyz
x,y,z
-x,1/2+y,1/2-z
-x,-y,-z
x,1/2-y,1/2+z
loop_
_atom_site_type_symbol
_atom_site_label
_atom_site_fract_x
_atom_site_fract_y
_atom_site_fract_z
Si Si1 0.074991 0.100420 0.652892
Si Si2 0.368935 0.902105 0.332025
Si Si3 0.862704 0.345846 0.218073
Si Si4 0.623155 0.992662 0.773480
Si Si5 0.891871 0.208317 0.270987
Si Si6 0.255261 0.573290 0.755755
Si Si7 0.397110 0.851353 0.818634
Si Si8 0.593311 0.586868 0.707945
O O1 0.353046 0.148250 0.394741
O O2 0.967642 0.172859 0.718098
O O3 0.124235 0.972005 0.591468
O O4 0.865571 0.118854 0.897128
O O5 0.414249 0.959985 0.239607
O O6 0.353389 0.769788 0.341022
O O7 0.560114 0.912945 0.186480
O O8 0.637919 0.428224 0.456989
O O9 0.856321 0.234655 0.253992
O O10 0.794666 0.332094 0.232413
O O11 0.137749 0.406368 0.956135
O O12 0.692145 0.086913 0.743128
O O13 0.635053 0.161503 0.546878
O O14 0.131888 0.130201 0.046887
O O15 0.500000 0.500000 0.500000
O O16 0.000000 0.500000 0.000000
O O17 0.447416 0.958035 0.738041
#
# Coordination Sequence:
#
# PCOD9253513 Si02
#       8
#     4   4   4   4   4   4   4   4
#     4  11  22  35  52  75 102 137 183 213 257 309
#     4  11  22  36  54  74 105 142 177 213 259 319
#     4  10  20  32  54  77 105 136 170 216 264 319
#     4  10  20  31  52  81 105 136 171 210 269 325
#     4  12  20  37  51  76 101 139 178 214 254 308
#     4   8  16  32  47  74 109 130 159 213 269 317
#     4  11  24  38  50  71 105 146 173 221 263 297
#     4  11  24  35  50  73 106 139 178 217 251 304
#
# _framework density 17.063023999999999
#
# number of rings (size 3 to 8) (size 9 to 14) (size 15 to 20)
#    0.000    1.500    3.750    2.250    3.500    2.000 
#    0.000    0.000    0.000    0.000    0.000    1.750 
#    0.000    0.000    0.000    0.375    0.000    0.000 
#
# Total GULP energy -178258.337977 kJ/mol
# GULP energy per Si atom -5570.573062 kJ/mol
# Density = 1.702419 g / cm^3
# Si number density = 17.063024 Si / 1000 Ang^3
#
#
#
# Elastic Constant Matrix: (Units=GPa)
#
#
# Indices 1 2 3 4 5 6 
#
# 1 48.6564 2.8367 5.5356 0.0000 3.9323 0.0000
# 2 2.8367 59.8999 5.3355 0.0000 -3.5667 0.0000
# 3 5.5356 5.3355 94.7731 0.0000 -6.0835 0.0000
# 4 0.0000 0.0000 0.0000 22.0339 0.0000 -2.2772
# 5 3.9323 -3.5667 -6.0835 0.0000 17.9813 0.0000
# 6 0.0000 0.0000 0.0000 -2.2772 0.0000 21.8178
#
#
#
# Elastic Compliance Matrix: (Units=1/GPa)
#
#
# Indices 1 2 3 4 5 6 
#
# 1 0.021230 -0.001191 -0.001519 0.000000 -0.005393 0.000000
# 2 -0.001191 0.017014 -0.000669 0.000000 0.003409 0.000000
# 3 -0.001519 -0.000669 0.010928 0.000000 0.003897 0.000000
# 4 0.000000 0.000000 0.000000 0.045880 0.000000 0.004789
# 5 -0.005393 0.003409 0.003897 0.000000 0.058787 0.000000
# 6 0.000000 0.000000 0.000000 0.004789 0.000000 0.046334
#
#
# Mechanical properties :
#
#
# Convention : Reuss Voigt Hill
#
# Bulk Modulus (GPa) = 23.57804 25.63834 24.60819
# Shear Modulus (GPa) = 22.61728 25.00803 23.81265
#
# Velocity S-wave (km/s) = 3.64471 3.83250 3.73979
# Velocity P-wave (km/s) = 5.61784 5.88578 5.75337
#
# Compressibility (1/GPa) = 0.04241235
#
# Stress axis : x y z
#
# Youngs Moduli (GPa) = 47.10216 58.77674 91.50747
#
# Poissons Ratio (x) = 0.07002 0.13902
# Poissons Ratio (y) = 0.05611 0.06126
# Poissons Ratio (z) = 0.07156 0.03935
#
# Static dielectric constant tensor:
#      x y z
#    x 1.624850 0.000000 0.026920 
#    y 0.000000 1.620110 0.000000 
#    z 0.026920 0.000000 1.605660 
# 
# From -- ./inp_files/81017.got.cif
#   From: 2010.05.17/outbox.ucp.g08.bks.cvg/sg14_41_cif.got.tgz:81017.got - 2010.06.11 12:31:08.
