data_PCOD9253750
_publ_section_title
;
Structure prediction by ZEFSAII (Michael W. Deem and Ramdas Pophale) SiO2 
 PCOD9253750
Probable space group: P 21/C
;
_chemical_formula_sum "Si O2"
_cell_formula_units_Z 24
_cell_length_a 9.000000
_cell_length_b 9.000000
_cell_length_c 15.000000
_cell_angle_alpha 90.000000
_cell_angle_beta 80.000000
_cell_angle_gamma 90.000000
_cell_volume 1196.541420
_symmetry_space_group_name_H-M "P 21/C"
_symmetry_group_IT_number 14
_symmetry_cell_setting 'monoclinic'
loop_
_space_group_symop_operation_xyz
x,y,z
-x,1/2+y,1/2-z
-x,-y,-z
x,1/2-y,1/2+z
loop_
_atom_site_type_symbol
_atom_site_label
_atom_site_fract_x
_atom_site_fract_y
_atom_site_fract_z
Si Si1 0.151663 0.958927 0.227419
Si Si2 0.671443 0.193413 0.402374
Si Si3 0.544915 0.964859 0.718810
Si Si4 0.921792 0.561297 0.918236
Si Si5 0.991345 0.378880 0.580673
Si Si6 0.363321 0.716053 0.384683
O O1 0.235087 0.818702 0.166460
O O2 0.033952 0.930569 0.320724
O O3 0.285651 0.056858 0.259057
O O4 0.053306 0.042239 0.162929
O O5 0.533629 0.132530 0.353134
O O6 0.621950 0.257806 0.507118
O O7 0.783134 0.051220 0.410056
O O8 0.443711 0.918605 0.818227
O O9 0.571186 0.132543 0.671600
O O10 0.898852 0.735773 0.943805
O O11 0.000000 0.500000 0.000000
O O12 0.817574 0.318243 0.605795
O O13 0.000000 0.500000 0.500000
#
# Coordination Sequence:
#
# PCOD9253750 Si02
#       6
#     4   4   4   4   4   4
#     4  12  25  48  74 108 151 200 254 315 377 450
#     4  12  26  50  77 108 156 205 259 314 379 467
#     4  12  26  50  75 109 161 199 251 319 382 471
#     4  12  23  44  77 110 149 196 254 315 378 443
#     4  12  25  49  77 111 147 196 260 317 377 450
#     4  12  26  53  71 112 151 203 256 310 386 454
#
# _framework density 20.05781
#
# number of rings (size 3 to 8) (size 9 to 14) (size 15 to 20)
#    0.000    0.000    6.667    2.500    2.333    0.667 
#    9.000    0.000    0.000    0.000    0.000    0.000 
#    0.000    0.000    0.000    0.000    0.000    0.000 
#
# Total GULP energy -133771.700576 kJ/mol
# GULP energy per Si atom -5573.820857 kJ/mol
# Density = 2.001216 g / cm^3
# Si number density = 20.057810 Si / 1000 Ang^3
#
#
#
# Elastic Constant Matrix: (Units=GPa)
#
#
# Indices 1 2 3 4 5 6 
#
# 1 106.8058 31.0857 40.0739 0.0000 27.0902 0.0000
# 2 31.0857 118.1866 56.1155 0.0000 5.4190 0.0000
# 3 40.0739 56.1155 182.5040 0.0000 18.0698 0.0000
# 4 0.0000 0.0000 0.0000 51.4120 0.0000 0.4778
# 5 27.0902 5.4190 18.0698 0.0000 53.3576 0.0000
# 6 0.0000 0.0000 0.0000 0.4778 0.0000 50.7621
#
#
#
# Elastic Compliance Matrix: (Units=1/GPa)
#
#
# Indices 1 2 3 4 5 6 
#
# 1 0.011887 -0.002217 -0.001400 0.000000 -0.005336 0.000000
# 2 -0.002217 0.010321 -0.002788 0.000000 0.001021 0.000000
# 3 -0.001400 -0.002788 0.006773 0.000000 -0.001300 0.000000
# 4 0.000000 0.000000 0.000000 0.019452 0.000000 -0.000183
# 5 -0.005336 0.001021 -0.001300 0.000000 0.021787 0.000000
# 6 0.000000 0.000000 0.000000 -0.000183 0.000000 0.019701
#
#
# Mechanical properties :
#
#
# Convention : Reuss Voigt Hill
#
# Bulk Modulus (GPa) = 61.84073 73.56072 67.70073
# Shear Modulus (GPa) = 46.24436 49.78777 48.01606
#
# Velocity S-wave (km/s) = 4.80683 4.98759 4.89804
# Velocity P-wave (km/s) = 7.85529 8.36194 8.11257
#
# Compressibility (1/GPa) = 0.01617057
#
# Stress axis : x y z
#
# Youngs Moduli (GPa) = 84.12754 96.88831 147.65330
#
# Poissons Ratio (x) = 0.21481 0.20673
# Poissons Ratio (y) = 0.18652 0.41163
# Poissons Ratio (z) = 0.11779 0.27011
#
# Static dielectric constant tensor:
#      x y z
#    x 1.724720 0.000000 0.002670 
#    y 0.000000 1.780890 0.000000 
#    z 0.002670 0.000000 1.740540 
# 
# From -- ./inp_files/38910.got.cif
#   From: 2010.05.17/outbox.ucp.g08.bks.cvg/sg14_20_cif.got.tgz:38910.got - 2010.06.11 12:31:08.
