data_PCOD9253530
_publ_section_title
;
Structure prediction by ZEFSAII (Michael W. Deem and Ramdas Pophale) SiO2 
 PCOD9253530
Probable space group: P 21/C
;
_chemical_formula_sum "Si O2"
_cell_formula_units_Z 32
_cell_length_a 18.000000
_cell_length_b 9.000000
_cell_length_c 21.000000
_cell_angle_alpha 90.000000
_cell_angle_beta 150.000000
_cell_angle_gamma 90.000000
_cell_volume 1701.000000
_symmetry_space_group_name_H-M "P 21/C"
_symmetry_group_IT_number 14
_symmetry_cell_setting 'monoclinic'
loop_
_space_group_symop_operation_xyz
x,y,z
-x,1/2+y,1/2-z
-x,-y,-z
x,1/2-y,1/2+z
loop_
_atom_site_type_symbol
_atom_site_label
_atom_site_fract_x
_atom_site_fract_y
_atom_site_fract_z
Si Si1 0.920296 0.029639 0.786094
Si Si2 0.760612 0.779874 0.312097
Si Si3 0.194705 0.883897 0.660126
Si Si4 0.461076 0.615277 0.069018
Si Si5 0.367112 0.644048 0.864662
Si Si6 0.827984 0.462670 0.075432
Si Si7 0.935754 0.810298 0.559823
Si Si8 0.977598 0.244540 0.588018
O O1 0.773256 0.039137 0.721274
O O2 0.885292 0.987438 0.687524
O O3 0.980865 0.196048 0.833083
O O4 0.034192 0.915860 0.901605
O O5 0.608830 0.693649 0.200928
O O6 0.856299 0.725241 0.443281
O O7 0.857152 0.768954 0.319223
O O8 0.741668 0.955853 0.308471
O O9 0.311222 0.774930 0.778902
O O10 0.060233 0.901969 0.612077
O O11 0.128826 0.808176 0.548038
O O12 0.506889 0.452255 0.076354
O O13 0.412485 0.699538 0.968316
O O14 0.332033 0.605127 0.025256
O O15 0.827619 0.593939 0.023369
O O16 0.937878 0.347703 0.121686
#
# Coordination Sequence:
#
# PCOD9253530 Si02
#       8
#     4   4   4   4   4   4   4   4
#     4  10  21  34  63  86 113 147 197 240 283 342
#     4  11  20  38  62  84 115 156 192 239 282 344
#     4  10  20  36  63  84 113 148 197 242 281 340
#     4  10  22  38  59  81 117 155 189 235 288 344
#     4   9  20  39  57  85 108 151 196 231 282 349
#     4  11  21  40  55  84 125 153 184 241 299 342
#     4  10  20  37  58  89 114 145 192 245 290 337
#     4  11  20  37  61  89 113 150 194 241 288 336
#
# _framework density 18.812463000000001
#
# number of rings (size 3 to 8) (size 9 to 14) (size 15 to 20)
#    0.000    1.750    3.750    1.500    1.750    2.000 
#    2.250    1.250    0.000    0.000    0.000    0.000 
#    0.000    0.000    0.000    0.000    0.000    0.000 
#
# Total GULP energy -178203.582601 kJ/mol
# GULP energy per Si atom -5568.861956 kJ/mol
# Density = 1.876965 g / cm^3
# Si number density = 18.812463 Si / 1000 Ang^3
#
#
#
# Elastic Constant Matrix: (Units=GPa)
#
#
# Indices 1 2 3 4 5 6 
#
# 1 102.6920 23.1932 16.0378 0.0000 7.8261 0.0000
# 2 23.1932 16.1568 15.3086 0.0000 3.2604 0.0000
# 3 16.0378 15.3086 45.4163 0.0000 12.8109 0.0000
# 4 0.0000 0.0000 0.0000 19.7537 0.0000 -3.5884
# 5 7.8261 3.2604 12.8109 0.0000 11.0216 0.0000
# 6 0.0000 0.0000 0.0000 -3.5884 0.0000 11.0374
#
#
#
# Elastic Compliance Matrix: (Units=1/GPa)
#
#
# Indices 1 2 3 4 5 6 
#
# 1 0.015428 -0.025973 0.006293 0.000000 -0.010586 0.000000
# 2 -0.025973 0.135929 -0.045387 0.000000 0.030989 0.000000
# 3 0.006293 -0.045387 0.048456 0.000000 -0.047364 0.000000
# 4 0.000000 0.000000 0.000000 0.053801 0.000000 0.017491
# 5 -0.010586 0.030989 -0.047364 0.000000 0.144135 0.000000
# 6 0.000000 0.000000 0.000000 0.017491 0.000000 0.096287
#
#
# Mechanical properties :
#
#
# Convention : Reuss Voigt Hill
#
# Bulk Modulus (GPa) = 14.35184 30.37158 22.36171
# Shear Modulus (GPa) = 7.72325 15.67758 11.70041
#
# Velocity S-wave (km/s) = 2.02837 2.88993 2.49660
# Velocity P-wave (km/s) = 3.62370 5.22638 4.49701
#
# Compressibility (1/GPa) = 0.06967747
#
# Stress axis : x y z
#
# Youngs Moduli (GPa) = 64.81754 7.35679 20.63749
#
# Poissons Ratio (x) = 0.19108 -0.12987
# Poissons Ratio (y) = 1.68352 0.93668
# Poissons Ratio (z) = -0.40789 0.33390
#
# Static dielectric constant tensor:
#      x y z
#    x 1.615040 0.000000 -0.002970 
#    y 0.000000 1.695130 0.000000 
#    z -0.002970 0.000000 1.704780 
# 
# From -- ./inp_files/69168.got.cif
#   From: 2010.05.17/outbox.ucp.g08.bks.cvg/sg14_35_cif.got.tgz:69168.got - 2010.06.11 12:31:08.
