data_PCOD9253913
_publ_section_title
;
Structure prediction by ZEFSAII (Michael W. Deem and Ramdas Pophale) SiO2 
 PCOD9253913
Probable space group: C 2/C
;
_chemical_formula_sum "Si O2"
_cell_formula_units_Z 56
_cell_length_a 8.007112
_cell_length_b 23.399460
_cell_length_c 14.147100
_cell_angle_alpha 90.000000
_cell_angle_beta 98.330260
_cell_angle_gamma 90.000000
_cell_volume 2622.664611
_symmetry_space_group_name_H-M "C 2/C"
_symmetry_group_IT_number 15
_symmetry_cell_setting 'monoclinic'
loop_
_space_group_symop_operation_xyz
x,y,z
-x,y,1/2-z
-x,-y,-z
x,-y,1/2+z
1/2+x,1/2+y,z
1/2-x,1/2+y,1/2-z
1/2-x,1/2-y,-z
1/2+x,1/2-y,1/2+z
loop_
_atom_site_type_symbol
_atom_site_label
_atom_site_fract_x
_atom_site_fract_y
_atom_site_fract_z
Si Si1 0.148777 0.987977 0.087528
Si Si2 0.209846 0.399060 0.913050
Si Si3 0.635963 0.159150 0.678753
Si Si4 0.097126 0.594859 0.993854
Si Si5 0.045497 0.117425 0.880735
Si Si6 0.852333 0.808838 0.503481
Si Si7 0.205110 0.777055 0.599985
O O1 0.308880 0.957622 0.049237
O O2 0.065476 0.938658 0.142710
O O3 0.205389 0.048395 0.135731
O O4 0.000000 0.000000 0.000000
O O5 0.191164 0.334752 0.871949
O O6 0.333870 0.391510 0.015401
O O7 0.027194 0.420494 0.931951
O O8 0.500000 0.154399 0.750000
O O9 0.524047 0.132659 0.584316
O O10 0.817324 0.128191 0.689087
O O11 0.697288 0.224057 0.669103
O O12 0.243275 0.638946 0.032991
O O13 0.923645 0.169446 0.906586
O O14 0.750000 0.750000 0.500000
O O15 0.014808 0.798775 0.579354
O O16 0.250000 0.750000 0.500000
#
# Coordination Sequence:
#
# PCOD9253913 Si02
#       7
#     8   8   8   8   8   8   8
#     4   9  17  30  48  77 107 129 163 215 270 314
#     4   9  16  28  50  77 102 130 164 220 270 303
#     4  11  21  34  51  75 108 147 180 214 264 329
#     4  10  18  29  49  79 107 134 173 219 267 314
#     4   8  17  29  46  70 104 134 166 216 261 306
#     4  10  15  25  48  73 101 131 167 214 266 306
#     4  11  17  32  53  74 106 141 173 223 272 309
#
# _framework density 21.352331
#
# number of rings (size 3 to 8) (size 9 to 14) (size 15 to 20)
#    0.000    2.286    5.714    1.286    0.000    0.000 
#    0.000    2.857    0.000    1.714    0.000    0.000 
#    0.000    0.000    0.000    0.000    0.000    0.000 
#
# Total GULP energy -155883.398014 kJ/mol
# GULP energy per Si atom -5567.264215 kJ/mol
# Density = 2.130373 g / cm^3
# Si number density = 21.352331 Si / 1000 Ang^3
#
#
#
# Elastic Constant Matrix: (Units=GPa)
#
#
# Indices 1 2 3 4 5 6 
#
# 1 131.6516 59.2923 15.3779 0.0000 -35.1692 0.0000
# 2 59.2923 146.8189 15.6720 0.0000 -15.4712 0.0000
# 3 15.3779 15.6720 22.1897 0.0000 -14.9555 0.0000
# 4 0.0000 0.0000 0.0000 12.7387 0.0000 1.9772
# 5 -35.1692 -15.4712 -14.9555 0.0000 24.9872 0.0000
# 6 0.0000 0.0000 0.0000 1.9772 0.0000 24.1186
#
#
#
# Elastic Compliance Matrix: (Units=1/GPa)
#
#
# Indices 1 2 3 4 5 6 
#
# 1 0.014785 -0.004438 0.008484 0.000000 0.023140 0.000000
# 2 -0.004438 0.008787 -0.006158 0.000000 -0.004491 0.000000
# 3 0.008484 -0.006158 0.082154 0.000000 0.057300 0.000000
# 4 0.000000 0.000000 0.000000 0.079513 0.000000 -0.006518
# 5 0.023140 -0.004491 0.057300 0.000000 0.104104 0.000000
# 6 0.000000 0.000000 0.000000 -0.006518 0.000000 0.041996
#
#
# Mechanical properties :
#
#
# Convention : Reuss Voigt Hill
#
# Bulk Modulus (GPa) = 9.85190 53.48276 31.66733
# Shear Modulus (GPa) = 13.53554 26.39011 19.96283
#
# Velocity S-wave (km/s) = 2.52050 3.51940 3.06097
# Velocity P-wave (km/s) = 3.61864 6.45113 5.23028
#
# Compressibility (1/GPa) = 0.10150323
#
# Stress axis : x y z
#
# Youngs Moduli (GPa) = 67.63510 113.79834 12.17223
#
# Poissons Ratio (x) = 0.50506 -0.10327
# Poissons Ratio (y) = 0.30018 0.07495
# Poissons Ratio (z) = -0.57382 0.70074
#
# Static dielectric constant tensor:
#      x y z
#    x 1.454870 0.000000 -0.078840 
#    y 0.000000 1.880920 0.000000 
#    z -0.078840 0.000000 1.828970 
# 
# From -- ./inp_files/192747.got.cif
#   From: 2010.05.17/outbox.cif.g08.bks.cpg/sg15_97_cif.got.tgz:192747.got - 2010.06.03 18:47:42.
