data_PCOD9253107
_publ_section_title
;
Structure prediction by ZEFSAII (Michael W. Deem and Ramdas Pophale) SiO2 
 PCOD9253107
Probable space group: P 21/C
;
_chemical_formula_sum "Si O2"
_cell_formula_units_Z 20
_cell_length_a 6.943138
_cell_length_b 17.902147
_cell_length_c 8.659494
_cell_angle_alpha 90.000000
_cell_angle_beta 120.681991
_cell_angle_gamma 90.000000
_cell_volume 925.674493
_symmetry_space_group_name_H-M "P 21/C"
_symmetry_group_IT_number 14
_symmetry_cell_setting 'monoclinic'
loop_
_space_group_symop_operation_xyz
x,y,z
-x,1/2+y,1/2-z
-x,-y,-z
x,1/2-y,1/2+z
loop_
_atom_site_type_symbol
_atom_site_label
_atom_site_fract_x
_atom_site_fract_y
_atom_site_fract_z
Si Si1 0.830507 0.888651 0.283333
Si Si2 0.402235 0.845880 0.946648
Si Si3 0.041010 0.532211 0.347536
Si Si4 0.276794 0.694123 0.045644
Si Si5 0.392404 0.081453 0.482866
O O1 0.679970 0.907535 0.370324
O O2 0.023204 0.831366 0.410628
O O3 0.943732 0.963934 0.266402
O O4 0.664525 0.857525 0.084845
O O5 0.269092 0.921345 0.931358
O O6 0.345567 0.824100 0.748565
O O7 0.315282 0.780010 0.021016
O O8 0.000000 0.500000 0.500000
O O9 0.834058 0.583568 0.210945
O O10 0.435641 0.644347 0.000919
O O11 0.500000 0.000000 0.500000
#
# Coordination Sequence:
#
# PCOD9253107 Si02
#       5
#     4   4   4   4   4
#     4  12  26  49  75 107 148 192 248 307 364 442
#     4  12  28  47  74 106 149 194 245 302 374 437
#     4  12  25  46  77 109 148 193 250 304 367 438
#     4  12  28  48  72 110 149 194 246 306 374 440
#     4  12  23  46  76 106 146 191 241 304 367 437
#
# _framework density 21.605867
#
# number of rings (size 3 to 8) (size 9 to 14) (size 15 to 20)
#    0.000    0.000    4.000    6.000    5.600    1.600 
#    0.000    0.000    0.000    0.000    0.000    0.000 
#    0.000    0.000    0.000    0.000    0.000    0.000 
#
# Total GULP energy -112124.011420 kJ/mol
# GULP energy per Si atom -5606.200571 kJ/mol
# Density = 2.155669 g / cm^3
# Si number density = 21.605867 Si / 1000 Ang^3
#
#
#
# Elastic Constant Matrix: (Units=GPa)
#
#
# Indices 1 2 3 4 5 6 
#
# 1 71.7388 -4.9075 26.0060 0.0000 -3.5416 0.0000
# 2 -4.9075 50.7976 -7.4486 0.0000 3.0535 0.0000
# 3 26.0060 -7.4486 105.1367 0.0000 17.4186 0.0000
# 4 0.0000 0.0000 0.0000 28.9787 0.0000 -3.3584
# 5 -3.5416 3.0535 17.4186 0.0000 57.1601 0.0000
# 6 0.0000 0.0000 0.0000 -3.3584 0.0000 16.9906
#
#
#
# Elastic Compliance Matrix: (Units=1/GPa)
#
#
# Indices 1 2 3 4 5 6 
#
# 1 0.015613 0.000764 -0.004172 0.000000 0.002198 0.000000
# 2 0.000764 0.020065 0.001477 0.000000 -0.001475 0.000000
# 3 -0.004172 0.001477 0.011273 0.000000 -0.003773 0.000000
# 4 0.000000 0.000000 0.000000 0.035317 0.000000 0.006981
# 5 0.002198 -0.001475 -0.003773 0.000000 0.018859 0.000000
# 6 0.000000 0.000000 0.000000 0.006981 0.000000 0.060236
#
#
# Mechanical properties :
#
#
# Convention : Reuss Voigt Hill
#
# Bulk Modulus (GPa) = 23.20759 28.33035 25.76897
# Shear Modulus (GPa) = 27.84163 34.89410 31.36787
#
# Velocity S-wave (km/s) = 3.59362 4.02310 3.81441
# Velocity P-wave (km/s) = 5.28994 5.89248 5.59932
#
# Compressibility (1/GPa) = 0.04308935
#
# Stress axis : x y z
#
# Youngs Moduli (GPa) = 64.05094 49.83806 88.70759
#
# Poissons Ratio (x) = -0.03810 0.37007
# Poissons Ratio (y) = -0.04897 -0.13100
# Poissons Ratio (z) = 0.26721 -0.07360
#
# Static dielectric constant tensor:
#      x y z
#    x 1.762860 0.000000 0.016090 
#    y 0.000000 1.757700 0.000000 
#    z 0.016090 0.000000 1.785970 
# 
# From -- ./inp_files/6052.got.cif
#   From: 2010.05.17/outbox.cif.g08.bks.cpg/sg14_4_cif.got.tgz:6052.got - 2010.06.03 17:49:19.
