data_PCOD9253009
_publ_section_title
;
Structure prediction by ZEFSAII (Michael W. Deem and Ramdas Pophale) SiO2 
 PCOD9253009
Probable space group: P 21/C
;
_chemical_formula_sum "Si O2"
_cell_formula_units_Z 16
_cell_length_a 4.959292
_cell_length_b 5.649873
_cell_length_c 24.588191
_cell_angle_alpha 90.000000
_cell_angle_beta 117.295238
_cell_angle_gamma 90.000000
_cell_volume 612.235211
_symmetry_space_group_name_H-M "P 21/C"
_symmetry_group_IT_number 14
_symmetry_cell_setting 'monoclinic'
loop_
_space_group_symop_operation_xyz
x,y,z
-x,1/2+y,1/2-z
-x,-y,-z
x,1/2-y,1/2+z
loop_
_atom_site_type_symbol
_atom_site_label
_atom_site_fract_x
_atom_site_fract_y
_atom_site_fract_z
Si Si1 0.760984 0.675935 0.004070
Si Si2 0.201360 0.468462 0.598020
Si Si3 0.036584 0.126207 0.676753
Si Si4 0.407239 0.322308 0.805868
O O1 0.691702 0.865036 0.949927
O O2 0.500000 0.500000 0.000000
O O3 0.000000 0.500000 0.000000
O O4 0.946047 0.829627 0.065269
O O5 0.056427 0.270345 0.623067
O O6 0.485307 0.584837 0.654947
O O7 0.146146 0.286093 0.737309
O O8 0.298213 0.927441 0.696262
O O9 0.719913 0.005184 0.661531
#
# Coordination Sequence:
#
# PCOD9253009 Si02
#       4
#     4   4   4   4
#     4  11  28  55  81 116 153 209 272 323 391 462
#     4  11  28  52  84 114 162 209 258 334 392 461
#     4  12  27  49  77 119 164 208 259 318 395 475
#     4  12  27  49  77 119 164 208 259 318 395 475
#
# _framework density 26.133748000000001
#
# number of rings (size 3 to 8) (size 9 to 14) (size 15 to 20)
#    0.000    0.500    2.500    3.000    0.000   16.000 
#    0.000    3.750    0.000    0.000    0.000    0.000 
#    0.000    0.000    0.000    0.000    0.000    0.000 
#
# Total GULP energy -89908.877790 kJ/mol
# GULP energy per Si atom -5619.304862 kJ/mol
# Density = 2.607427 g / cm^3
# Si number density = 26.133748 Si / 1000 Ang^3
#
#
#
# Elastic Constant Matrix: (Units=GPa)
#
#
# Indices 1 2 3 4 5 6 
#
# 1 149.1018 32.1078 26.6750 0.0000 -1.5118 0.0000
# 2 32.1078 80.0571 25.4398 0.0000 -1.0659 0.0000
# 3 26.6750 25.4398 109.3139 0.0000 -5.1680 0.0000
# 4 0.0000 0.0000 0.0000 60.8565 0.0000 2.1756
# 5 -1.5118 -1.0659 -5.1680 0.0000 24.8936 0.0000
# 6 0.0000 0.0000 0.0000 2.1756 0.0000 65.6979
#
#
#
# Elastic Compliance Matrix: (Units=1/GPa)
#
#
# Indices 1 2 3 4 5 6 
#
# 1 0.007488 -0.002616 -0.001214 0.000000 0.000091 0.000000
# 2 -0.002616 0.014403 -0.002718 0.000000 -0.000107 0.000000
# 3 -0.001214 -0.002718 0.010168 0.000000 0.001921 0.000000
# 4 0.000000 0.000000 0.000000 0.016452 0.000000 -0.000545
# 5 0.000091 -0.000107 0.001921 0.000000 0.040571 0.000000
# 6 0.000000 0.000000 0.000000 -0.000545 0.000000 0.015239
#
#
# Mechanical properties :
#
#
# Convention : Reuss Voigt Hill
#
# Bulk Modulus (GPa) = 52.73968 56.32424 54.53196
# Shear Modulus (GPa) = 40.40780 47.23961 43.82370
#
# Velocity S-wave (km/s) = 3.93643 4.25621 4.09944
# Velocity P-wave (km/s) = 6.39415 6.76409 6.58172
#
# Compressibility (1/GPa) = 0.01896106
#
# Stress axis : x y z
#
# Youngs Moduli (GPa) = 133.54059 69.43102 98.35064
#
# Poissons Ratio (x) = 0.18165 0.11942
# Poissons Ratio (y) = 0.34938 0.26736
# Poissons Ratio (z) = 0.16214 0.18875
#
# Static dielectric constant tensor:
#      x y z
#    x 1.961390 0.000000 -0.005140 
#    y 0.000000 2.006070 0.000000 
#    z -0.005140 0.000000 2.078820 
# 
# From -- ./inp_files/70872.got.cif
#   From: 2010.05.17/outbox.cif.g08.bks.cpg/sg14_36_cif.got.tgz:70872.got - 2010.06.03 17:49:19.
