data_PCOD9253863
_publ_section_title
;
Structure prediction by ZEFSAII (Michael W. Deem and Ramdas Pophale) SiO2 
 PCOD9253863
Probable space group: C 2/C
;
_chemical_formula_sum "Si O2"
_cell_formula_units_Z 48
_cell_length_a 12.115115
_cell_length_b 14.216178
_cell_length_c 13.372581
_cell_angle_alpha 90.000000
_cell_angle_beta 76.416378
_cell_angle_gamma 90.000000
_cell_volume 2238.744257
_symmetry_space_group_name_H-M "C 2/C"
_symmetry_group_IT_number 15
_symmetry_cell_setting 'monoclinic'
loop_
_space_group_symop_operation_xyz
x,y,z
-x,y,1/2-z
-x,-y,-z
x,-y,1/2+z
1/2+x,1/2+y,z
1/2-x,1/2+y,1/2-z
1/2-x,1/2-y,-z
1/2+x,1/2-y,1/2+z
loop_
_atom_site_type_symbol
_atom_site_label
_atom_site_fract_x
_atom_site_fract_y
_atom_site_fract_z
Si Si1 0.500000 0.260623 0.250000
Si Si2 0.082765 0.753630 0.602669
Si Si3 0.389203 0.420357 0.408735
Si Si4 0.240590 0.456104 0.265733
Si Si5 0.419319 0.582138 0.133815
Si Si6 0.000000 0.414736 0.250000
Si Si7 0.180379 0.760905 0.358713
O O1 0.443669 0.329081 0.345010
O O2 0.601891 0.213098 0.290542
O O3 0.046509 0.651761 0.650423
O O4 0.113482 0.763009 0.478663
O O5 0.197693 0.780907 0.637152
O O6 0.976874 0.820100 0.646940
O O7 0.273010 0.438127 0.374017
O O8 0.479451 0.505321 0.376469
O O9 0.377672 0.411308 0.528741
O O10 0.315296 0.544227 0.218276
O O11 0.289996 0.365626 0.191777
O O12 0.109449 0.467319 0.268701
#
# Coordination Sequence:
#
# PCOD9253863 Si02
#       7
#     4   8   8   8   8   4   8
#     4  10  14  31  54  81 116 158 180 220 300 359
#     4  10  20  32  54  90 115 146 195 246 278 342
#     4  10  18  30  57  88 111 143 192 235 282 341
#     4  10  20  38  56  81 117 161 188 229 300 351
#     4  11  18  31  58  91 111 141 200 247 272 333
#     4  10  24  39  56  79 122 158 192 230 300 351
#     4   9  17  33  56  82 122 152 183 231 303 349
#
# _framework density 21.440591000000001
#
# number of rings (size 3 to 8) (size 9 to 14) (size 15 to 20)
#    0.000    2.000    5.000    1.000    2.333    0.000 
#    0.000    1.667    0.000    1.000    4.333    0.000 
#    0.000    0.000    0.000    0.000    0.000    0.000 
#
# Total GULP energy -134006.692632 kJ/mol
# GULP energy per Si atom -5583.612193 kJ/mol
# Density = 2.139179 g / cm^3
# Si number density = 21.440591 Si / 1000 Ang^3
#
#
#
# Elastic Constant Matrix: (Units=GPa)
#
#
# Indices 1 2 3 4 5 6 
#
# 1 189.9217 28.7505 48.7700 0.0000 39.5482 0.0000
# 2 28.7505 37.4561 17.0180 0.0000 10.7068 0.0000
# 3 48.7700 17.0180 111.4710 0.0000 34.9058 0.0000
# 4 0.0000 0.0000 0.0000 -0.6258 0.0000 5.1271
# 5 39.5482 10.7068 34.9058 0.0000 40.5704 0.0000
# 6 0.0000 0.0000 0.0000 5.1271 0.0000 20.6163
#
#
#
# Elastic Compliance Matrix: (Units=1/GPa)
#
#
# Indices 1 2 3 4 5 6 
#
# 1 0.007129 -0.003556 -0.000950 0.000000 -0.005194 0.000000
# 2 -0.003556 0.031288 -0.002355 0.000000 -0.002764 0.000000
# 3 -0.000950 -0.002355 0.012677 0.000000 -0.009359 0.000000
# 4 0.000000 0.000000 0.000000 -0.526074 0.000000 0.130829
# 5 -0.005194 -0.002764 -0.009359 0.000000 0.038494 0.000000
# 6 0.000000 0.000000 0.000000 0.130829 0.000000 0.015969
#
#
# Mechanical properties :
#
#
# Convention : Reuss Voigt Hill
#
# Bulk Modulus (GPa) = 26.75820 58.65841 42.70831
# Shear Modulus (GPa) = -12.67947 28.39953 7.86003
#
# Velocity S-wave (km/s) = -2.43446 3.64341 1.91675
# Velocity P-wave (km/s) = 2.14595 6.71694 4.98610
#
# Compressibility (1/GPa) = 0.03737172
#
# Stress axis : x y z
#
# Youngs Moduli (GPa) = 140.27104 31.96146 78.88394
#
# Poissons Ratio (x) = 0.11365 0.07492
# Poissons Ratio (y) = 0.49879 0.18579
# Poissons Ratio (z) = 0.13323 0.07528
#
# Static dielectric constant tensor:
#      x y z
#    x 1.790690 0.000000 0.012790 
#    y 0.000000 1.789100 0.000000 
#    z 0.012790 0.000000 1.770980 
# 
# From -- ./inp_files/143586.got.cif
#   From: 2010.05.17/outbox.cif.g08.bks.cpg/sg15_72_cif.got.tgz:143586.got - 2010.06.03 18:47:42.
