data_PCOD9253535
_publ_section_title
;
Structure prediction by ZEFSAII (Michael W. Deem and Ramdas Pophale) SiO2 
 PCOD9253535
Probable space group: P 21/C
;
_chemical_formula_sum "Si O2"
_cell_formula_units_Z 32
_cell_length_a 15.000000
_cell_length_b 21.000000
_cell_length_c 15.000000
_cell_angle_alpha 90.000000
_cell_angle_beta 20.000000
_cell_angle_gamma 90.000000
_cell_volume 1616.045177
_symmetry_space_group_name_H-M "P 21/C"
_symmetry_group_IT_number 14
_symmetry_cell_setting 'monoclinic'
loop_
_space_group_symop_operation_xyz
x,y,z
-x,1/2+y,1/2-z
-x,-y,-z
x,1/2-y,1/2+z
loop_
_atom_site_type_symbol
_atom_site_label
_atom_site_fract_x
_atom_site_fract_y
_atom_site_fract_z
Si Si1 0.910363 0.208598 0.880453
Si Si2 0.807344 0.559925 0.308174
Si Si3 0.287062 0.761308 0.243253
Si Si4 0.233696 0.335482 0.787571
Si Si5 0.205296 0.678945 0.148840
Si Si6 0.617277 0.857024 0.651495
Si Si7 0.621963 0.497273 0.183002
Si Si8 0.314144 0.111253 0.896354
O O1 0.893305 0.263578 0.821520
O O2 0.196759 0.177824 0.596017
O O3 0.807854 0.237882 0.070245
O O4 0.688983 0.155499 0.072364
O O5 0.769411 0.593277 0.249448
O O6 0.412178 0.492384 0.461392
O O7 0.739184 0.614719 0.446619
O O8 0.102639 0.536087 0.049444
O O9 0.259594 0.705441 0.196133
O O10 0.064868 0.813295 0.431925
O O11 0.570031 0.792608 0.957427
O O12 0.322832 0.331025 0.805714
O O13 0.972276 0.626656 0.372413
O O14 0.471098 0.655733 0.851285
O O15 0.674103 0.931904 0.601999
O O16 0.460817 0.457418 0.258888
#
# Coordination Sequence:
#
# PCOD9253535 Si02
#       8
#     4   4   4   4   4   4   4   4
#     4  12  25  42  63  93 125 176 201 265 324 375
#     4  10  20  37  60  93 117 169 207 254 311 350
#     4  12  25  40  63  95 129 165 211 259 321 381
#     4  12  22  41  60  95 132 163 208 260 309 393
#     4  12  20  39  65  90 124 159 215 262 315 368
#     4  12  24  43  64  89 136 167 209 252 330 382
#     4  10  22  39  61  95 122 177 209 255 309 375
#     4  10  20  37  61  92 119 160 211 263 299 358
#
# _framework density 19.801427
#
# number of rings (size 3 to 8) (size 9 to 14) (size 15 to 20)
#    0.750    0.000    3.750    5.250    0.000    1.000 
#    0.000    0.000    0.000    4.500    0.000    0.000 
#    0.000    0.000    0.000    0.000    0.000    0.000 
#
# Total GULP energy -178426.212675 kJ/mol
# GULP energy per Si atom -5575.819146 kJ/mol
# Density = 1.975636 g / cm^3
# Si number density = 19.801427 Si / 1000 Ang^3
#
#
#
# Elastic Constant Matrix: (Units=GPa)
#
#
# Indices 1 2 3 4 5 6 
#
# 1 20.9915 8.3067 -8.4889 0.0000 1.1729 0.0000
# 2 8.3067 46.4752 12.7755 0.0000 3.6709 0.0000
# 3 -8.4889 12.7755 127.2462 0.0000 -7.7542 0.0000
# 4 0.0000 0.0000 0.0000 29.1136 0.0000 -1.3540
# 5 1.1729 3.6709 -7.7542 0.0000 16.6473 0.0000
# 6 0.0000 0.0000 0.0000 -1.3540 0.0000 20.0310
#
#
#
# Elastic Compliance Matrix: (Units=1/GPa)
#
#
# Indices 1 2 3 4 5 6 
#
# 1 0.053864 -0.010999 0.004749 0.000000 0.000842 0.000000
# 2 -0.010999 0.024990 -0.003634 0.000000 -0.006428 0.000000
# 3 0.004749 -0.003634 0.008819 0.000000 0.004575 0.000000
# 4 0.000000 0.000000 0.000000 0.034456 0.000000 0.002329
# 5 0.000842 -0.006428 0.004575 0.000000 0.063559 0.000000
# 6 0.000000 0.000000 0.000000 0.002329 0.000000 0.050080
#
#
# Mechanical properties :
#
#
# Convention : Reuss Voigt Hill
#
# Bulk Modulus (GPa) = 14.72674 24.43327 19.58000
# Shear Modulus (GPa) = 17.97443 25.29969 21.63706
#
# Velocity S-wave (km/s) = 3.01613 3.57833 3.30919
# Velocity P-wave (km/s) = 4.42524 5.42573 4.95082
#
# Compressibility (1/GPa) = 0.06790371
#
# Stress axis : x y z
#
# Youngs Moduli (GPa) = 18.56517 40.01657 113.38778
#
# Poissons Ratio (x) = 0.44016 -0.53849
# Poissons Ratio (y) = 0.20421 0.41211
# Poissons Ratio (z) = -0.08817 0.14544
#
# Static dielectric constant tensor:
#      x y z
#    x 1.737210 0.000000 -0.013120 
#    y 0.000000 1.724080 0.000000 
#    z -0.013120 0.000000 1.676600 
# 
# From -- ./inp_files/47615.got.cif
#   From: 2010.05.17/outbox.ucp.g08.bks.cvg/sg14_24_cif.got.tgz:47615.got - 2010.06.11 12:31:08.
