data_PCOD9253818
_publ_section_title
;
Structure prediction by ZEFSAII (Michael W. Deem and Ramdas Pophale) SiO2 
 PCOD9253818
Probable space group: C 2/C
;
_chemical_formula_sum "Si O2"
_cell_formula_units_Z 64
_cell_length_a 17.856396
_cell_length_b 6.591945
_cell_length_c 20.548157
_cell_angle_alpha 90.000000
_cell_angle_beta 103.441011
_cell_angle_gamma 90.000000
_cell_volume 2352.441746
_symmetry_space_group_name_H-M "C 2/C"
_symmetry_group_IT_number 15
_symmetry_cell_setting 'monoclinic'
loop_
_space_group_symop_operation_xyz
x,y,z
-x,y,1/2-z
-x,-y,-z
x,-y,1/2+z
1/2+x,1/2+y,z
1/2-x,1/2+y,1/2-z
1/2-x,1/2-y,-z
1/2+x,1/2-y,1/2+z
loop_
_atom_site_type_symbol
_atom_site_label
_atom_site_fract_x
_atom_site_fract_y
_atom_site_fract_z
Si Si1 0.055411 0.086626 0.066521
Si Si2 0.125055 0.362887 0.979026
Si Si3 0.238748 0.113763 0.917807
Si Si4 0.991848 0.446757 0.650981
Si Si5 0.969582 0.030596 0.173020
Si Si6 0.792424 0.992061 0.847521
Si Si7 0.867993 0.479820 0.737206
Si Si8 0.179452 0.002353 0.787250
O O1 0.126897 0.940922 0.102927
O O2 0.005388 0.141896 0.119405
O O3 0.091808 0.280012 0.039588
O O4 0.000000 0.000000 0.000000
O O5 0.161375 0.175418 0.943402
O O6 0.055813 0.462372 0.925644
O O7 0.201631 0.478334 0.018364
O O8 0.259452 0.339738 0.894907
O O9 0.251542 0.000342 0.850350
O O10 0.929346 0.517046 0.692198
O O11 0.078509 0.511181 0.688501
O O12 0.992241 0.202247 0.664262
O O13 0.000000 0.084478 0.250000
O O14 0.880484 0.056647 0.168795
O O15 0.712719 0.086937 0.801087
O O16 0.823922 0.906977 0.784185
O O17 0.842737 0.240587 0.731805
#
# Coordination Sequence:
#
# PCOD9253818 Si02
#       8
#     8   8   8   8   8   8   8   8
#     4  11  19  24  40  69 102 124 151 176 233 299
#     4  10  17  27  43  65 103 123 143 188 240 290
#     4   9  18  29  41  68 100 124 149 190 236 277
#     4  10  14  27  46  61  93 124 147 197 236 268
#     4  11  16  27  41  66  95 127 150 189 237 286
#     4  10  18  27  42  67  93 126 158 186 225 283
#     4   9  17  27  43  68  89 123 160 188 233 270
#     4  10  16  28  45  60  97 127 152 191 230 271
#
# _framework density 27.205773000000001
#
# number of rings (size 3 to 8) (size 9 to 14) (size 15 to 20)
#    0.000    2.000    8.750    0.000    0.000    0.000 
#    0.000    0.000    0.000    0.750    0.000   21.875 
#    0.000    0.000    0.000    0.000    0.000    0.000 
#
# Total GULP energy -178195.147756 kJ/mol
# GULP energy per Si atom -5568.598367 kJ/mol
# Density = 2.714385 g / cm^3
# Si number density = 27.205773 Si / 1000 Ang^3
#
#
#
# Elastic Constant Matrix: (Units=GPa)
#
#
# Indices 1 2 3 4 5 6 
#
# 1 138.1790 -3.0979 51.5426 0.0000 18.0738 0.0000
# 2 -3.0979 59.5475 5.7491 0.0000 4.7684 0.0000
# 3 51.5426 5.7491 193.4486 0.0000 29.1280 0.0000
# 4 0.0000 0.0000 0.0000 26.4568 0.0000 11.7608
# 5 18.0738 4.7684 29.1280 0.0000 80.0661 0.0000
# 6 0.0000 0.0000 0.0000 11.7608 0.0000 36.3532
#
#
#
# Elastic Compliance Matrix: (Units=1/GPa)
#
#
# Indices 1 2 3 4 5 6 
#
# 1 0.008157 0.000712 -0.002022 0.000000 -0.001148 0.000000
# 2 0.000712 0.016961 -0.000547 0.000000 -0.000972 0.000000
# 3 -0.002022 -0.000547 0.005978 0.000000 -0.001686 0.000000
# 4 0.000000 0.000000 0.000000 0.044146 0.000000 -0.014282
# 5 -0.001148 -0.000972 -0.001686 0.000000 0.013420 0.000000
# 6 0.000000 0.000000 0.000000 -0.014282 0.000000 0.032128
#
#
# Mechanical properties :
#
#
# Convention : Reuss Voigt Hill
#
# Bulk Modulus (GPa) = 36.52126 55.50696 46.01411
# Shear Modulus (GPa) = 37.41587 51.04064 44.22825
#
# Velocity S-wave (km/s) = 3.71252 4.33609 4.03636
# Velocity P-wave (km/s) = 5.64183 6.74654 6.21877
#
# Compressibility (1/GPa) = 0.02738131
#
# Stress axis : x y z
#
# Youngs Moduli (GPa) = 122.59038 58.95888 167.27728
#
# Poissons Ratio (x) = -0.04195 0.33818
# Poissons Ratio (y) = -0.08722 0.09156
# Poissons Ratio (z) = 0.24784 0.03227
#
# Static dielectric constant tensor:
#      x y z
#    x 5.441410 0.000000 3.144100 
#    y 0.000000 2.486590 0.000000 
#    z 3.144100 0.000000 5.100100 
# 
# From -- ./inp_files/248169.got.cif
#   From: 2010.05.17/outbox.cif.g08.bks.cpg/sg15_125_cif.got.tgz:248169.got - 2010.06.03 18:47:42.
