data_PCOD9253063
_publ_section_title
;
Structure prediction by ZEFSAII (Michael W. Deem and Ramdas Pophale) SiO2 
 PCOD9253063
Probable space group: P 21/C
;
_chemical_formula_sum "Si O2"
_cell_formula_units_Z 32
_cell_length_a 14.928422
_cell_length_b 20.925665
_cell_length_c 9.383546
_cell_angle_alpha 90.000000
_cell_angle_beta 29.626170
_cell_angle_gamma 90.000000
_cell_volume 1449.055427
_symmetry_space_group_name_H-M "P 21/C"
_symmetry_group_IT_number 14
_symmetry_cell_setting 'monoclinic'
loop_
_space_group_symop_operation_xyz
x,y,z
-x,1/2+y,1/2-z
-x,-y,-z
x,1/2-y,1/2+z
loop_
_atom_site_type_symbol
_atom_site_label
_atom_site_fract_x
_atom_site_fract_y
_atom_site_fract_z
Si Si1 0.526406 0.248198 0.881870
Si Si2 0.612989 0.074230 0.122507
Si Si3 0.291597 0.432931 0.585707
Si Si4 0.142359 0.265293 0.263728
Si Si5 0.341290 0.143239 0.307570
Si Si6 0.068582 0.631851 0.984613
Si Si7 0.159613 0.665925 0.163032
Si Si8 0.587343 0.118336 0.457744
O O1 0.697864 0.223797 0.556345
O O2 0.555533 0.314909 0.919665
O O3 0.343444 0.249699 0.041518
O O4 0.490013 0.194224 0.049943
O O5 0.777214 0.120064 0.845607
O O6 0.426840 0.103917 0.319324
O O7 0.606635 0.069036 0.301538
O O8 0.651383 0.006348 0.997514
O O9 0.306692 0.402009 0.721172
O O10 0.087346 0.420560 0.818894
O O11 0.424733 0.397065 0.290676
O O12 0.029456 0.201160 0.390061
O O13 0.033954 0.305048 0.531461
O O14 0.172088 0.313078 0.089431
O O15 0.151355 0.627576 0.027816
O O16 0.236164 0.625134 0.188044
#
# Coordination Sequence:
#
# PCOD9253063 Si02
#       8
#     4   4   4   4   4   4   4   4
#     4  12  22  46  71 106 144 184 226 311 371 426
#     4  12  27  47  73 100 145 196 242 292 349 435
#     4  12  26  48  72 101 143 196 246 289 350 432
#     4  12  25  41  74 110 141 181 233 303 368 432
#     4  12  24  46  71 104 141 185 241 295 366 426
#     4  12  25  46  68 105 143 183 240 297 362 424
#     4  12  25  43  69 106 146 179 228 298 372 426
#     4  12  25  45  72 105 141 186 240 294 361 426
#
# _framework density 22.083352000000001
#
# number of rings (size 3 to 8) (size 9 to 14) (size 15 to 20)
#    0.000    0.000    5.000    5.625    1.750    0.000 
#    0.000    0.625    0.000    0.000    0.000    0.000 
#    0.000    0.000    0.000    0.000    0.000    0.000 
#
# Total GULP energy -179205.025939 kJ/mol
# GULP energy per Si atom -5600.157061 kJ/mol
# Density = 2.203309 g / cm^3
# Si number density = 22.083352 Si / 1000 Ang^3
#
#
#
# Elastic Constant Matrix: (Units=GPa)
#
#
# Indices 1 2 3 4 5 6 
#
# 1 109.5327 16.0260 22.1391 0.0000 10.3912 0.0000
# 2 16.0260 69.4741 14.8158 0.0000 2.1572 0.0000
# 3 22.1391 14.8158 93.6064 0.0000 5.8021 0.0000
# 4 0.0000 0.0000 0.0000 25.2046 0.0000 8.4321
# 5 10.3912 2.1572 5.8021 0.0000 29.0139 0.0000
# 6 0.0000 0.0000 0.0000 8.4321 0.0000 23.1864
#
#
#
# Elastic Compliance Matrix: (Units=1/GPa)
#
#
# Indices 1 2 3 4 5 6 
#
# 1 0.010074 -0.001822 -0.001903 0.000000 -0.003092 0.000000
# 2 -0.001822 0.015238 -0.001976 0.000000 -0.000085 0.000000
# 3 -0.001903 -0.001976 0.011537 0.000000 -0.001479 0.000000
# 4 0.000000 0.000000 0.000000 0.045171 0.000000 -0.016427
# 5 -0.003092 -0.000085 -0.001479 0.000000 0.035876 0.000000
# 6 0.000000 0.000000 0.000000 -0.016427 0.000000 0.049103
#
#
# Mechanical properties :
#
#
# Convention : Reuss Voigt Hill
#
# Bulk Modulus (GPa) = 39.29425 42.06390 40.67908
# Shear Modulus (GPa) = 26.75472 30.12312 28.43892
#
# Velocity S-wave (km/s) = 3.48448 3.69733 3.59248
# Velocity P-wave (km/s) = 5.83276 6.10869 5.97232
#
# Compressibility (1/GPa) = 0.02544901
#
# Stress axis : x y z
#
# Youngs Moduli (GPa) = 99.26342 65.62479 86.67471
#
# Poissons Ratio (x) = 0.11958 0.16491
# Poissons Ratio (y) = 0.18087 0.17124
# Poissons Ratio (z) = 0.18886 0.12965
#
# Static dielectric constant tensor:
#      x y z
#    x 1.825190 0.000000 0.012650 
#    y 0.000000 1.813250 0.000000 
#    z 0.012650 0.000000 1.805810 
# 
# From -- ./inp_files/16992.got.cif
#   From: 2010.05.17/outbox.cif.g08.bks.cpg/sg14_9_cif.got.tgz:16992.got - 2010.06.03 17:49:19.
