data_PCOD9253824
_publ_section_title
;
Structure prediction by ZEFSAII (Michael W. Deem and Ramdas Pophale) SiO2 
 PCOD9253824
Probable space group: C 2/C
;
_chemical_formula_sum "Si O2"
_cell_formula_units_Z 56
_cell_length_a 15.808654
_cell_length_b 8.783419
_cell_length_c 26.934152
_cell_angle_alpha 90.000000
_cell_angle_beta 36.237889
_cell_angle_gamma 90.000000
_cell_volume 2210.810610
_symmetry_space_group_name_H-M "C 2/C"
_symmetry_group_IT_number 15
_symmetry_cell_setting 'monoclinic'
loop_
_space_group_symop_operation_xyz
x,y,z
-x,y,1/2-z
-x,-y,-z
x,-y,1/2+z
1/2+x,1/2+y,z
1/2-x,1/2+y,1/2-z
1/2-x,1/2-y,-z
1/2+x,1/2-y,1/2+z
loop_
_atom_site_type_symbol
_atom_site_label
_atom_site_fract_x
_atom_site_fract_y
_atom_site_fract_z
Si Si1 0.433873 0.258812 0.215450
Si Si2 0.304268 0.079609 0.128008
Si Si3 0.867232 0.490743 0.410625
Si Si4 0.586098 0.236976 0.972514
Si Si5 0.500000 0.466661 0.750000
Si Si6 0.672306 0.900160 0.285897
Si Si7 0.750000 0.750000 0.500000
Si Si8 0.236635 0.517385 0.147890
O O1 0.560128 0.165876 0.128160
O O2 0.493223 0.417335 0.206823
O O3 0.289961 0.288608 0.252670
O O4 0.374067 0.156374 0.288435
O O5 0.146682 0.121971 0.184925
O O6 0.311446 0.039490 0.182797
O O7 0.348245 0.915965 0.083205
O O8 0.420288 0.202581 0.058043
O O9 0.749570 0.550023 0.504007
O O10 0.811556 0.450429 0.382289
O O11 0.998492 0.383994 0.365552
O O12 0.617272 0.388128 0.926238
O O13 0.661954 0.261188 0.988978
O O14 0.718944 0.926669 0.207123
#
# Coordination Sequence:
#
# PCOD9253824 Si02
#       8
#     8   8   8   8   4   8   4   8
#     4  10  16  29  47  73 100 129 173 213 258 309
#     4  10  19  29  49  76 109 135 180 214 273 310
#     4  10  18  31  49  78 104 133 168 224 268 313
#     4  10  18  32  47  77 113 138 162 232 268 320
#     4  10  14  28  46  72  96 136 164 220 254 318
#     4  10  18  28  47  79  99 136 174 217 254 329
#     4  10  18  28  50  80 108 128 170 218 282 308
#     4  10  18  31  52  74 105 132 170 220 276 298
#
# _framework density 25.330075000000001
#
# number of rings (size 3 to 8) (size 9 to 14) (size 15 to 20)
#    0.000    2.000    5.714    2.143    0.000    0.000 
#    0.000    0.000    0.000    6.857   59.429    0.000 
#    0.000    0.000    0.000    0.000    0.000    0.000 
#
# Total GULP energy -155958.326047 kJ/mol
# GULP energy per Si atom -5569.940216 kJ/mol
# Density = 2.527242 g / cm^3
# Si number density = 25.330075 Si / 1000 Ang^3
#
#
#
# Elastic Constant Matrix: (Units=GPa)
#
#
# Indices 1 2 3 4 5 6 
#
# 1 113.6494 11.0100 41.7021 0.0000 -24.6437 -0.0001
# 2 11.0100 33.1121 24.5784 0.0002 -10.1455 -0.0003
# 3 41.7021 24.5784 85.1058 0.0000 -17.7583 0.0000
# 4 0.0000 0.0002 0.0000 12.1255 0.0000 2.5936
# 5 -24.6437 -10.1455 -17.7583 0.0000 48.8626 0.0001
# 6 -0.0001 -0.0003 0.0000 2.5936 0.0001 23.6134
#
#
#
# Elastic Compliance Matrix: (Units=1/GPa)
#
#
# Indices 1 2 3 4 5 6 
#
# 1 0.011458 0.001262 -0.005106 0.000000 0.004185 0.000000
# 2 0.001262 0.039422 -0.010997 -0.000001 0.004825 0.000001
# 3 -0.005106 -0.010997 0.017761 0.000000 0.001597 0.000000
# 4 0.000000 -0.000001 0.000000 0.084455 0.000000 -0.009276
# 5 0.004185 0.004825 0.001597 0.000000 0.024159 0.000000
# 6 0.000000 0.000001 0.000000 -0.009276 0.000000 0.043368
#
#
# Mechanical properties :
#
#
# Convention : Reuss Voigt Hill
#
# Bulk Modulus (GPa) = 25.66705 42.93872 34.30289
# Shear Modulus (GPa) = 18.99061 27.22541 23.10801
#
# Velocity S-wave (km/s) = 2.74108 3.28201 3.02367
# Velocity P-wave (km/s) = 4.49144 5.59916 5.07561
#
# Compressibility (1/GPa) = 0.03896046
#
# Stress axis : x y z
#
# Youngs Moduli (GPa) = 87.27818 25.36672 56.30383
#
# Poissons Ratio (x) = -0.03202 0.28746
# Poissons Ratio (y) = -0.11017 0.61915
# Poissons Ratio (z) = 0.44560 0.27895
#
# Static dielectric constant tensor:
#      x y z
#    x 1.995780 0.000000 -0.073680 
#    y 0.000000 2.108760 0.000000 
#    z -0.073680 0.000000 1.334480 
# 
# From -- ./inp_files/313442.got.cif
#   From: 2010.05.17/outbox.cif.g08.bks.cpg/sg15_157_cif.got.tgz:313442.got - 2010.06.03 18:47:42.
