data_PCOD9253641
_publ_section_title
;
Structure prediction by ZEFSAII (Michael W. Deem and Ramdas Pophale) SiO2 
 PCOD9253641
Probable space group: P 21/C
;
_chemical_formula_sum "Si O2"
_cell_formula_units_Z 32
_cell_length_a 6.000000
_cell_length_b 12.000000
_cell_length_c 21.000000
_cell_angle_alpha 90.000000
_cell_angle_beta 90.000000
_cell_angle_gamma 90.000000
_cell_volume 1512.000000
_symmetry_space_group_name_H-M "P 21/C"
_symmetry_group_IT_number 14
_symmetry_cell_setting 'monoclinic'
loop_
_space_group_symop_operation_xyz
x,y,z
-x,1/2+y,1/2-z
-x,-y,-z
x,1/2-y,1/2+z
loop_
_atom_site_type_symbol
_atom_site_label
_atom_site_fract_x
_atom_site_fract_y
_atom_site_fract_z
Si Si1 0.612639 0.661730 0.209616
Si Si2 0.393024 0.779244 0.392340
Si Si3 0.143750 0.824418 0.516403
Si Si4 0.891045 0.033698 0.660470
Si Si5 0.524702 0.463699 0.663824
Si Si6 0.135180 0.379393 0.278038
Si Si7 0.733988 0.186395 0.862960
Si Si8 0.233090 0.435711 0.047049
O O1 0.770873 0.584350 0.166846
O O2 0.542676 0.576004 0.264989
O O3 0.717073 0.772910 0.241571
O O4 0.431085 0.719382 0.164725
O O5 0.220714 0.769854 0.450579
O O6 0.275003 0.859405 0.340154
O O7 0.456149 0.654432 0.371788
O O8 0.592442 0.855815 0.418853
O O9 0.179235 0.735781 0.571315
O O10 0.890874 0.867484 0.508528
O O11 0.291913 0.937983 0.526383
O O12 0.056541 0.049580 0.718798
O O13 0.037166 0.041136 0.597742
O O14 0.748988 0.534961 0.673569
O O15 0.366383 0.560516 0.634953
O O16 0.929400 0.323705 0.312623
#
# Coordination Sequence:
#
# PCOD9253641 Si02
#       8
#     4   4   4   4   4   4   4   4
#     4  11  24  40  64  96 131 167 211 267 323 386
#     4  11  24  42  65  93 134 169 218 266 323 379
#     4  10  23  41  66  94 125 171 222 268 318 379
#     4  11  23  37  67  98 123 172 206 271 325 383
#     4  11  26  41  62  96 132 170 214 263 324 393
#     4  11  25  41  64  95 131 171 212 258 328 389
#     4  11  24  43  64  92 130 172 217 267 319 388
#     4  10  22  41  67  97 126 165 219 272 325 380
#
# _framework density 21.164021000000002
#
# number of rings (size 3 to 8) (size 9 to 14) (size 15 to 20)
#    0.000    1.250    1.250    3.375    8.750    6.500 
#    0.000    1.250    0.000    0.000    0.000    0.000 
#    0.000    0.000    0.000    0.000    0.000    0.000 
#
# Total GULP energy -178596.959937 kJ/mol
# GULP energy per Si atom -5581.154998 kJ/mol
# Density = 2.111585 g / cm^3
# Si number density = 21.164021 Si / 1000 Ang^3
#
#
#
# Elastic Constant Matrix: (Units=GPa)
#
#
# Indices 1 2 3 4 5 6 
#
# 1 32.2767 11.4901 16.9532 0.0000 12.2414 0.0000
# 2 11.4901 113.8262 27.5944 0.0000 7.1479 0.0000
# 3 16.9532 27.5944 61.8034 0.0000 -1.4961 0.0000
# 4 0.0000 0.0000 0.0000 -212.7648 0.0000 259.2231
# 5 12.2414 7.1479 -1.4961 0.0000 18.2097 0.0000
# 6 0.0000 0.0000 0.0000 259.2231 0.0000 -239.3519
#
#
#
# Elastic Compliance Matrix: (Units=1/GPa)
#
#
# Indices 1 2 3 4 5 6 
#
# 1 0.053206 0.000824 -0.015868 0.000000 -0.037394 0.000000
# 2 0.000824 0.010202 -0.004901 0.000000 -0.004961 0.000000
# 3 -0.015868 -0.004901 0.023072 0.000000 0.014487 0.000000
# 4 0.000000 0.000000 0.000000 0.014710 0.000000 0.015932
# 5 -0.037394 -0.004961 0.014487 0.000000 0.083191 0.000000
# 6 0.000000 0.000000 0.000000 0.015932 0.000000 0.013076
#
#
# Mechanical properties :
#
#
# Convention : Reuss Voigt Hill
#
# Bulk Modulus (GPa) = 21.46402 35.55353 28.50878
# Shear Modulus (GPa) = 19.77242 -76.65684 -28.44221
#
# Velocity S-wave (km/s) = 3.05986 -6.02486 -3.66989
# Velocity P-wave (km/s) = 4.75893 5.61811 2.11136
#
# Compressibility (1/GPa) = 0.04658960
#
# Stress axis : x y z
#
# Youngs Moduli (GPa) = 18.79502 98.02145 43.34246
#
# Poissons Ratio (x) = -0.08079 0.68776
# Poissons Ratio (y) = -0.01549 0.21243
# Poissons Ratio (z) = 0.29824 0.48042
#
# Static dielectric constant tensor:
#      x y z
#    x 1.873630 0.000000 0.007670 
#    y 0.000000 1.727940 0.000000 
#    z 0.007670 0.000000 1.790710 
# 
# From -- ./inp_files/63538.got.cif
#   From: 2010.05.17/outbox.ucp.g08.bks.cvg/sg14_32_cif.got.tgz:63538.got - 2010.06.11 12:31:08.
