data_PCOD9253532
_publ_section_title
;
Structure prediction by ZEFSAII (Michael W. Deem and Ramdas Pophale) SiO2 
 PCOD9253532
Probable space group: P 21/C
;
_chemical_formula_sum "Si O2"
_cell_formula_units_Z 32
_cell_length_a 15.000000
_cell_length_b 21.000000
_cell_length_c 15.000000
_cell_angle_alpha 90.000000
_cell_angle_beta 20.000000
_cell_angle_gamma 90.000000
_cell_volume 1616.045177
_symmetry_space_group_name_H-M "P 21/C"
_symmetry_group_IT_number 14
_symmetry_cell_setting 'monoclinic'
loop_
_space_group_symop_operation_xyz
x,y,z
-x,1/2+y,1/2-z
-x,-y,-z
x,1/2-y,1/2+z
loop_
_atom_site_type_symbol
_atom_site_label
_atom_site_fract_x
_atom_site_fract_y
_atom_site_fract_z
Si Si1 0.959796 0.045737 0.673431
Si Si2 0.421445 0.391775 0.631150
Si Si3 0.173418 0.102577 0.172993
Si Si4 0.362513 0.858675 0.395935
Si Si5 0.517514 0.714020 0.276385
Si Si6 0.762106 0.582067 0.774283
Si Si7 0.019726 0.152781 0.765193
Si Si8 0.203567 0.933294 0.722557
O O1 0.214337 0.061554 0.375269
O O2 0.995756 0.088500 0.728239
O O3 0.913314 0.971766 0.738552
O O4 0.702024 0.073747 0.867409
O O5 0.311419 0.379675 0.636455
O O6 0.449152 0.326953 0.663591
O O7 0.907032 0.142542 0.407872
O O8 0.393189 0.113198 0.889955
O O9 0.453341 0.788806 0.344205
O O10 0.271946 0.903092 0.563329
O O11 0.266867 0.682929 0.463150
O O12 0.778513 0.699539 0.974819
O O13 0.865849 0.632442 0.747739
O O14 0.808148 0.510158 0.767573
O O15 0.934368 0.588239 0.522181
O O16 0.453579 0.586002 0.047561
#
# Coordination Sequence:
#
# PCOD9253532 Si02
#       8
#     4   4   4   4   4   4   4   4
#     4  10  20  36  64  95 127 154 195 258 325 360
#     4  10  21  40  62  91 124 165 200 254 308 371
#     4  12  23  38  65  95 123 160 208 255 310 382
#     4  12  25  42  58  88 130 167 205 255 312 358
#     4  10  23  42  59  82 127 163 209 248 301 359
#     4  10  20  38  62  93 117 153 211 246 308 370
#     4  10  20  38  64  88 117 163 206 256 295 366
#     4  10  22  38  60  89 128 156 190 264 313 359
#
# _framework density 19.801427
#
# number of rings (size 3 to 8) (size 9 to 14) (size 15 to 20)
#    0.000    1.500    0.000    5.250    0.000    4.000 
#    6.750    0.000    0.000    0.000    0.000    0.000 
#    0.000    0.000    0.000    0.000    0.000    0.000 
#
# Total GULP energy -178919.648979 kJ/mol
# GULP energy per Si atom -5591.239031 kJ/mol
# Density = 1.975636 g / cm^3
# Si number density = 19.801427 Si / 1000 Ang^3
#
#
#
# Elastic Constant Matrix: (Units=GPa)
#
#
# Indices 1 2 3 4 5 6 
#
# 1 70.5855 34.4330 12.1674 0.0000 -1.8917 0.0000
# 2 34.4330 93.8731 28.5344 0.0000 6.8912 0.0000
# 3 12.1674 28.5344 104.5537 0.0000 -11.4296 0.0000
# 4 0.0000 0.0000 0.0000 28.2112 0.0000 -6.0704
# 5 -1.8917 6.8912 -11.4296 0.0000 31.9212 0.0000
# 6 0.0000 0.0000 0.0000 -6.0704 0.0000 18.3648
#
#
#
# Elastic Compliance Matrix: (Units=1/GPa)
#
#
# Indices 1 2 3 4 5 6 
#
# 1 0.017442 -0.006591 0.000039 0.000000 0.002471 0.000000
# 2 -0.006591 0.014565 -0.003741 0.000000 -0.004874 0.000000
# 3 0.000039 -0.003741 0.011104 0.000000 0.004786 0.000000
# 4 0.000000 0.000000 0.000000 0.038161 0.000000 0.012614
# 5 0.002471 -0.004874 0.004786 0.000000 0.034239 0.000000
# 6 0.000000 0.000000 0.000000 0.012614 0.000000 0.058622
#
#
# Mechanical properties :
#
#
# Convention : Reuss Voigt Hill
#
# Bulk Modulus (GPa) = 44.39419 46.58690 45.49055
# Shear Modulus (GPa) = 24.72460 28.62460 26.67460
#
# Velocity S-wave (km/s) = 3.53743 3.80621 3.67427
# Velocity P-wave (km/s) = 6.25723 6.54938 6.40497
#
# Compressibility (1/GPa) = 0.02252547
#
# Stress axis : x y z
#
# Youngs Moduli (GPa) = 57.33319 68.65664 90.05725
#
# Poissons Ratio (x) = 0.45252 -0.00352
# Poissons Ratio (y) = 0.37788 0.33690
# Poissons Ratio (z) = -0.00224 0.25684
#
# Static dielectric constant tensor:
#      x y z
#    x 1.719810 0.000000 -0.004230 
#    y 0.000000 1.674300 0.000000 
#    z -0.004230 0.000000 1.667290 
# 
# From -- ./inp_files/47616.got.cif
#   From: 2010.05.17/outbox.ucp.g08.bks.cvg/sg14_24_cif.got.tgz:47616.got - 2010.06.11 12:31:08.
