data_PCOD9253681
_publ_section_title
;
Structure prediction by ZEFSAII (Michael W. Deem and Ramdas Pophale) SiO2 
 PCOD9253681
Probable space group: P 21/C
;
_chemical_formula_sum "Si O2"
_cell_formula_units_Z 28
_cell_length_a 9.000000
_cell_length_b 12.000000
_cell_length_c 15.000000
_cell_angle_alpha 90.000000
_cell_angle_beta 110.000000
_cell_angle_gamma 90.000000
_cell_volume 1522.302046
_symmetry_space_group_name_H-M "P 21/C"
_symmetry_group_IT_number 14
_symmetry_cell_setting 'monoclinic'
loop_
_space_group_symop_operation_xyz
x,y,z
-x,1/2+y,1/2-z
-x,-y,-z
x,1/2-y,1/2+z
loop_
_atom_site_type_symbol
_atom_site_label
_atom_site_fract_x
_atom_site_fract_y
_atom_site_fract_z
Si Si1 0.281873 0.776562 0.445629
Si Si2 0.100516 0.328344 0.848835
Si Si3 0.614247 0.497296 0.108713
Si Si4 0.259557 0.151143 0.751161
Si Si5 0.038179 0.129135 0.535157
Si Si6 0.759684 0.104391 0.212723
Si Si7 0.548749 0.316131 0.830164
O O1 0.278734 0.662183 0.389825
O O2 0.386615 0.780789 0.557989
O O3 0.112210 0.816523 0.447223
O O4 0.333526 0.869423 0.382714
O O5 0.236535 0.422254 0.875164
O O6 0.153924 0.222454 0.800521
O O7 0.944951 0.379884 0.771997
O O8 0.071983 0.308602 0.948459
O O9 0.523525 0.559154 0.169744
O O10 0.500000 0.500000 0.000000
O O11 0.176907 0.137090 0.637096
O O12 0.417068 0.225968 0.776185
O O13 0.283002 0.026126 0.792327
O O14 0.000000 0.000000 0.500000
O O15 0.674528 0.168004 0.277587
#
# Coordination Sequence:
#
# PCOD9253681 Si02
#       7
#     4   4   4   4   4   4   4
#     4  11  21  39  65  94 127 166 220 267 318 386
#     4  11  22  40  66  96 127 167 213 272 319 374
#     4   9  20  37  62  94 124 158 217 269 314 367
#     4  11  25  42  63  99 131 161 220 267 325 391
#     4  12  20  39  72  94 120 168 224 271 312 374
#     4  12  24  40  67  92 130 174 211 265 325 385
#     4  10  24  41  62  96 130 170 214 268 330 375
#
# _framework density 18.393196
#
# number of rings (size 3 to 8) (size 9 to 14) (size 15 to 20)
#    0.000    1.143    5.714    0.000    4.000    2.857 
#    0.000    0.714    0.000    0.000    0.000    0.000 
#    0.000    0.000    0.000    0.000    0.000    0.000 
#
# Total GULP energy -156239.544812 kJ/mol
# GULP energy per Si atom -5579.983743 kJ/mol
# Density = 1.835133 g / cm^3
# Si number density = 18.393196 Si / 1000 Ang^3
#
#
#
# Elastic Constant Matrix: (Units=GPa)
#
#
# Indices 1 2 3 4 5 6 
#
# 1 79.2960 26.0591 28.4126 0.0000 7.4972 0.0000
# 2 26.0591 107.9037 43.4177 0.0000 6.0206 0.0000
# 3 28.4126 43.4177 107.7197 0.0000 2.0321 0.0000
# 4 0.0000 0.0000 0.0000 37.2330 0.0000 0.7491
# 5 7.4972 6.0206 2.0321 0.0000 29.1624 0.0000
# 6 0.0000 0.0000 0.0000 0.7491 0.0000 20.8232
#
#
#
# Elastic Compliance Matrix: (Units=1/GPa)
#
#
# Indices 1 2 3 4 5 6 
#
# 1 0.014675 -0.002192 -0.002929 0.000000 -0.003116 0.000000
# 2 -0.002192 0.011504 -0.004030 0.000000 -0.001531 0.000000
# 3 -0.002929 -0.004030 0.011665 0.000000 0.000772 0.000000
# 4 0.000000 0.000000 0.000000 0.026877 0.000000 -0.000967
# 5 -0.003116 -0.001531 0.000772 0.000000 0.035354 0.000000
# 6 0.000000 0.000000 0.000000 -0.000967 0.000000 0.048058
#
#
# Mechanical properties :
#
#
# Convention : Reuss Voigt Hill
#
# Bulk Modulus (GPa) = 51.16613 54.52201 52.84407
# Shear Modulus (GPa) = 28.91024 30.57904 29.74464
#
# Velocity S-wave (km/s) = 3.96888 4.08182 4.02575
# Velocity P-wave (km/s) = 6.99150 7.20568 7.09940
#
# Compressibility (1/GPa) = 0.01954418
#
# Stress axis : x y z
#
# Youngs Moduli (GPa) = 68.14192 86.92843 85.72317
#
# Poissons Ratio (x) = 0.19054 0.25105
# Poissons Ratio (y) = 0.14936 0.34544
# Poissons Ratio (z) = 0.19956 0.35029
#
# Static dielectric constant tensor:
#      x y z
#    x 1.692030 0.000000 0.001990 
#    y 0.000000 1.618760 0.000000 
#    z 0.001990 0.000000 1.624080 
# 
# From -- ./inp_files/39761.got.cif
#   From: 2010.05.17/outbox.ucp.g08.bks.cvg/sg14_20_cif.got.tgz:39761.got - 2010.06.11 12:31:08.
