data_PCOD9253878
_publ_section_title
;
Structure prediction by ZEFSAII (Michael W. Deem and Ramdas Pophale) SiO2 
 PCOD9253878
Probable space group: C 2/C
;
_chemical_formula_sum "Si O2"
_cell_formula_units_Z 56
_cell_length_a 22.963250
_cell_length_b 9.649547
_cell_length_c 28.218382
_cell_angle_alpha 90.000000
_cell_angle_beta 161.654469
_cell_angle_gamma 90.000000
_cell_volume 1968.039255
_symmetry_space_group_name_H-M "C 2/C"
_symmetry_group_IT_number 15
_symmetry_cell_setting 'monoclinic'
loop_
_space_group_symop_operation_xyz
x,y,z
-x,y,1/2-z
-x,-y,-z
x,-y,1/2+z
1/2+x,1/2+y,z
1/2-x,1/2+y,1/2-z
1/2-x,1/2-y,-z
1/2+x,1/2-y,1/2+z
loop_
_atom_site_type_symbol
_atom_site_label
_atom_site_fract_x
_atom_site_fract_y
_atom_site_fract_z
Si Si1 0.373848 0.431004 0.253673
Si Si2 0.767292 0.028749 0.533887
Si Si3 0.000000 0.814252 0.750000
Si Si4 0.500000 0.934425 0.750000
Si Si5 0.328780 0.258516 0.967748
Si Si6 0.965985 0.765599 0.832886
Si Si7 0.958689 0.205112 0.430793
Si Si8 0.756445 0.572742 0.725473
O O1 0.533745 0.431479 0.335467
O O2 0.494821 0.357822 0.388965
O O3 0.205490 0.340875 0.103320
O O4 0.335199 0.593743 0.232228
O O5 0.644510 0.988225 0.394436
O O6 0.681114 0.157284 0.494514
O O7 0.811747 0.905544 0.603719
O O8 0.983674 0.762201 0.683327
O O9 0.640906 0.847307 0.826626
O O10 0.061541 0.804643 0.958178
O O11 0.896277 0.610330 0.790770
O O12 0.859323 0.353116 0.348491
O O13 0.087347 0.164623 0.573807
O O14 0.803554 0.083485 0.313914
#
# Coordination Sequence:
#
# PCOD9253878 Si02
#       8
#     8   8   4   4   8   8   8   8
#     4  10  17  26  44  72 118 171 225 272 341 390
#     4  10  15  23  41  66 108 175 232 278 326 398
#     4  10  17  34  58  84 139 194 229 261 354 424
#     4  10  15  20  34  64  97 160 245 293 318 358
#     4  11  14  23  40  67 106 172 230 274 328 393
#     4   9  20  36  63  98 140 181 228 286 337 435
#     4   9  20  42  76 110 134 183 224 306 356 418
#     4   9  20  42  76 106 142 172 241 291 364 406
#
# _framework density 28.454718
#
# number of rings (size 3 to 8) (size 9 to 14) (size 15 to 20)
#    0.857    1.429    5.714    0.857    0.000    0.571 
#    0.000    3.571   12.571    0.000    0.000    1.000 
#    0.000    1.286    0.000    0.000    0.000    0.000 
#
# Total GULP energy -156180.082911 kJ/mol
# GULP energy per Si atom -5577.860104 kJ/mol
# Density = 2.838995 g / cm^3
# Si number density = 28.454718 Si / 1000 Ang^3
#
#
#
# Elastic Constant Matrix: (Units=GPa)
#
#
# Indices 1 2 3 4 5 6 
#
# 1 134.4009 15.8954 34.6303 -0.0026 -41.1921 -0.0017
# 2 15.8954 96.7585 -1.6709 0.0340 7.5145 0.0069
# 3 34.6303 -1.6709 104.4996 0.0319 -24.8519 0.0135
# 4 -0.0026 0.0340 0.0319 18.9318 -0.0070 13.5814
# 5 -41.1921 7.5145 -24.8519 -0.0070 53.2527 -0.0027
# 6 -0.0017 0.0069 0.0135 13.5814 -0.0027 29.0174
#
#
#
# Elastic Compliance Matrix: (Units=1/GPa)
#
#
# Indices 1 2 3 4 5 6 
#
# 1 0.010505 -0.002350 -0.001696 0.000014 0.007666 -0.000004
# 2 -0.002350 0.010979 0.000173 -0.000029 -0.003287 0.000010
# 3 -0.001696 0.000173 0.011042 -0.000021 0.003817 0.000005
# 4 0.000014 -0.000029 -0.000021 0.079522 0.000014 -0.037220
# 5 0.007666 -0.003287 0.003817 0.000014 0.026953 -0.000004
# 6 -0.000004 0.000010 0.000005 -0.037220 -0.000004 0.051883
#
#
# Mechanical properties :
#
#
# Convention : Reuss Voigt Hill
#
# Bulk Modulus (GPa) = 40.35575 48.15206 44.25390
# Shear Modulus (GPa) = 24.16734 39.36067 31.76400
#
# Velocity S-wave (km/s) = 2.91748 3.72327 3.34473
# Velocity P-wave (km/s) = 5.05590 5.95338 5.52290
#
# Compressibility (1/GPa) = 0.02477962
#
# Stress axis : x y z
#
# Youngs Moduli (GPa) = 95.19396 91.07987 90.56448
#
# Poissons Ratio (x) = 0.21407 0.15357
# Poissons Ratio (y) = 0.22374 -0.01565
# Poissons Ratio (z) = 0.16142 -0.01574
#
# Static dielectric constant tensor:
#      x y z
#    x 2.375380 -0.000030 0.087680 
#    y -0.000030 2.300040 -0.000080 
#    z 0.087680 -0.000080 2.308920 
# 
# From -- ./inp_files/319553.got.cif
#   From: 2010.05.17/outbox.cif.g08.bks.cpg/sg15_160_cif.got.tgz:319553.got - 2010.06.03 18:47:42.
