data_PCOD9253263
_publ_section_title
;
Structure prediction by ZEFSAII (Michael W. Deem and Ramdas Pophale) SiO2 
 PCOD9253263
Probable space group: P 21/C
;
_chemical_formula_sum "Si O2"
_cell_formula_units_Z 24
_cell_length_a 10.009106
_cell_length_b 8.477649
_cell_length_c 9.894914
_cell_angle_alpha 90.000000
_cell_angle_beta 92.256251
_cell_angle_gamma 90.000000
_cell_volume 838.969022
_symmetry_space_group_name_H-M "P 21/C"
_symmetry_group_IT_number 14
_symmetry_cell_setting 'monoclinic'
loop_
_space_group_symop_operation_xyz
x,y,z
-x,1/2+y,1/2-z
-x,-y,-z
x,1/2-y,1/2+z
loop_
_atom_site_type_symbol
_atom_site_label
_atom_site_fract_x
_atom_site_fract_y
_atom_site_fract_z
Si Si1 0.265717 0.862441 0.275683
Si Si2 0.599474 0.858736 0.607975
Si Si3 0.620792 0.361852 0.495736
Si Si4 0.740257 0.838120 0.341735
Si Si5 0.995800 0.439496 0.830844
Si Si6 0.036036 0.328746 0.551048
O O1 0.261093 0.861855 0.112762
O O2 0.312069 0.704952 0.361636
O O3 0.136366 0.964317 0.324110
O O4 0.389088 0.983562 0.305777
O O5 0.500000 0.500000 0.500000
O O6 0.678075 0.727475 0.702158
O O7 0.460616 0.780888 0.573362
O O8 0.652558 0.899689 0.460568
O O9 0.863811 0.954557 0.322061
O O10 0.805743 0.688034 0.420822
O O11 0.999973 0.681161 0.044294
O O12 0.982537 0.327222 0.701001
O O13 0.000000 0.500000 0.500000
#
# Coordination Sequence:
#
# PCOD9253263 Si02
#       6
#     4   4   4   4   4   4
#     4  12  27  54  81 116 164 216 283 354 421 505
#     4  12  26  52  82 113 163 218 273 351 419 497
#     4  12  29  54  82 119 155 219 294 351 423 496
#     4  12  25  50  78 120 169 214 271 338 424 515
#     4  12  28  51  80 124 169 228 270 344 435 504
#     4  12  25  49  77 118 170 223 278 330 410 515
#
# _framework density 28.606539999999999
#
# number of rings (size 3 to 8) (size 9 to 14) (size 15 to 20)
#    0.000    0.000    3.333    6.000    0.000    5.333 
#    9.000    0.000    0.000    0.000    0.000    0.000 
#    0.000    0.000    0.000    0.000    0.000    0.000 
#
# Total GULP energy -134292.222175 kJ/mol
# GULP energy per Si atom -5595.509257 kJ/mol
# Density = 2.854143 g / cm^3
# Si number density = 28.606540 Si / 1000 Ang^3
#
#
#
# Elastic Constant Matrix: (Units=GPa)
#
#
# Indices 1 2 3 4 5 6 
#
# 1 116.5125 60.5319 47.8688 0.0000 18.6736 0.0000
# 2 60.5319 155.7637 62.7744 0.0000 11.3771 0.0000
# 3 47.8688 62.7744 210.0677 0.0000 -16.6666 0.0000
# 4 0.0000 0.0000 0.0000 62.9061 0.0000 12.8642
# 5 18.6736 11.3771 -16.6666 0.0000 56.8452 0.0000
# 6 0.0000 0.0000 0.0000 12.8642 0.0000 63.6154
#
#
#
# Elastic Compliance Matrix: (Units=1/GPa)
#
#
# Indices 1 2 3 4 5 6 
#
# 1 0.011814 -0.003540 -0.001931 0.000000 -0.003739 0.000000
# 2 -0.003540 0.008626 -0.001859 0.000000 -0.001109 0.000000
# 3 -0.001931 -0.001859 0.005975 0.000000 0.002758 0.000000
# 4 0.000000 0.000000 0.000000 0.016582 0.000000 -0.003353
# 5 -0.003739 -0.001109 0.002758 0.000000 0.019850 0.000000
# 6 0.000000 0.000000 0.000000 -0.003353 0.000000 0.016398
#
#
# Mechanical properties :
#
#
# Convention : Reuss Voigt Hill
#
# Bulk Modulus (GPa) = 85.06866 91.63267 88.35066
# Shear Modulus (GPa) = 51.11252 57.41792 54.26522
#
# Velocity S-wave (km/s) = 4.23157 4.48500 4.36013
# Velocity P-wave (km/s) = 7.32646 7.67606 7.50329
#
# Compressibility (1/GPa) = 0.01175521
#
# Stress axis : x y z
#
# Youngs Moduli (GPa) = 84.64228 115.93131 167.37204
#
# Poissons Ratio (x) = 0.41039 0.32319
# Poissons Ratio (y) = 0.29963 0.31113
# Poissons Ratio (z) = 0.16344 0.21551
#
# Static dielectric constant tensor:
#      x y z
#    x 2.599240 0.000000 -0.251490 
#    y 0.000000 2.354810 0.000000 
#    z -0.251490 0.000000 2.459700 
# 
# From -- ./inp_files/28357.got.cif
#   From: 2010.05.17/outbox.cif.g08.bks.cpg/sg14_15_cif.got.tgz:28357.got - 2010.06.03 17:49:19.
