data_PCOD9253605
_publ_section_title
;
Structure prediction by ZEFSAII (Michael W. Deem and Ramdas Pophale) SiO2 
 PCOD9253605
Probable space group: P 21/C
;
_chemical_formula_sum "Si O2"
_cell_formula_units_Z 32
_cell_length_a 30.000000
_cell_length_b 9.000000
_cell_length_c 18.000000
_cell_angle_alpha 90.000000
_cell_angle_beta 20.000000
_cell_angle_gamma 90.000000
_cell_volume 1662.217897
_symmetry_space_group_name_H-M "P 21/C"
_symmetry_group_IT_number 14
_symmetry_cell_setting 'monoclinic'
loop_
_space_group_symop_operation_xyz
x,y,z
-x,1/2+y,1/2-z
-x,-y,-z
x,1/2-y,1/2+z
loop_
_atom_site_type_symbol
_atom_site_label
_atom_site_fract_x
_atom_site_fract_y
_atom_site_fract_z
Si Si1 0.819970 0.378166 0.904371
Si Si2 0.632567 0.760624 0.040956
Si Si3 0.639287 0.649578 0.705351
Si Si4 0.896763 0.812815 0.361340
Si Si5 0.184114 0.878718 0.864760
Si Si6 0.625318 0.331800 0.796580
Si Si7 0.359394 0.586726 0.956151
Si Si8 0.891650 0.776384 0.040543
O O1 0.859663 0.524178 0.888825
O O2 0.953954 0.284884 0.677865
O O3 0.709506 0.291817 0.123254
O O4 0.744546 0.421972 0.947765
O O5 0.773614 0.788262 0.778039
O O6 0.635460 0.806767 0.124117
O O7 0.612041 0.583497 0.066323
O O8 0.499514 0.838190 0.219075
O O9 0.781326 0.703862 0.512512
O O10 0.616852 0.473741 0.754850
O O11 0.516098 0.712971 0.947232
O O12 0.893018 0.798819 0.456713
O O13 0.047770 0.791563 0.096076
O O14 0.280748 0.878655 0.782999
O O15 0.277093 0.831470 0.650453
O O16 0.143979 0.049286 0.912251
#
# Coordination Sequence:
#
# PCOD9253605 Si02
#       8
#     4   4   4   4   4   4   4   4
#     4  11  25  41  66  96 127 167 214 265 315 380
#     4  11  25  43  64  94 131 167 212 264 321 374
#     4  11  24  41  65  91 125 170 208 256 319 382
#     4  11  22  41  65  94 123 163 213 264 311 374
#     4  10  21  41  66  89 127 170 210 255 321 381
#     4  11  23  41  65  92 127 168 215 255 318 382
#     4  11  25  43  65  93 130 172 211 261 321 381
#     4  10  23  41  66  93 129 164 209 267 319 371
#
# _framework density 19.251387000000001
#
# number of rings (size 3 to 8) (size 9 to 14) (size 15 to 20)
#    0.000    1.250    5.000    0.000    5.250    3.000 
#    0.000    0.625    0.000    0.000    0.000    0.000 
#    0.000    0.000    0.000    0.000    0.000    0.000 
#
# Total GULP energy -178444.393919 kJ/mol
# GULP energy per Si atom -5576.387310 kJ/mol
# Density = 1.920757 g / cm^3
# Si number density = 19.251387 Si / 1000 Ang^3
#
#
#
# Elastic Constant Matrix: (Units=GPa)
#
#
# Indices 1 2 3 4 5 6 
#
# 1 43.1255 14.0497 36.4996 0.0000 -5.9784 0.0000
# 2 14.0497 30.9454 28.1955 0.0000 0.5505 0.0000
# 3 36.4996 28.1955 176.2138 0.0000 3.4741 0.0000
# 4 0.0000 0.0000 0.0000 38.5393 0.0000 -3.2995
# 5 -5.9784 0.5505 3.4741 0.0000 39.7693 0.0000
# 6 0.0000 0.0000 0.0000 -3.2995 0.0000 23.9038
#
#
#
# Elastic Compliance Matrix: (Units=1/GPa)
#
#
# Indices 1 2 3 4 5 6 
#
# 1 0.031362 -0.009739 -0.005042 0.000000 0.005290 0.000000
# 2 -0.009739 0.040854 -0.004487 0.000000 -0.001638 0.000000
# 3 -0.005042 -0.004487 0.007464 0.000000 -0.001348 0.000000
# 4 0.000000 0.000000 0.000000 0.026258 0.000000 0.003624
# 5 0.005290 -0.001638 -0.001348 0.000000 0.026081 0.000000
# 6 0.000000 0.000000 0.000000 0.003624 0.000000 0.042335
#
#
# Mechanical properties :
#
#
# Convention : Reuss Voigt Hill
#
# Bulk Modulus (GPa) = 24.30536 45.30829 34.80682
# Shear Modulus (GPa) = 22.06493 31.87847 26.97170
#
# Velocity S-wave (km/s) = 3.38915 4.07370 3.74709
# Velocity P-wave (km/s) = 5.28846 6.76113 6.06962
#
# Compressibility (1/GPa) = 0.04114319
#
# Stress axis : x y z
#
# Youngs Moduli (GPa) = 31.88617 24.47720 133.97835
#
# Poissons Ratio (x) = 0.23838 0.67552
# Poissons Ratio (y) = 0.31053 0.60123
# Poissons Ratio (z) = 0.16077 0.10984
#
# Static dielectric constant tensor:
#      x y z
#    x 1.723330 0.000000 0.003680 
#    y 0.000000 1.680300 0.000000 
#    z 0.003680 0.000000 1.685770 
# 
# From -- ./inp_files/62646.got.cif
#   From: 2010.05.17/outbox.ucp.g08.bks.cvg/sg14_32_cif.got.tgz:62646.got - 2010.06.11 12:31:08.
