data_PCOD9253732
_publ_section_title
;
Structure prediction by ZEFSAII (Michael W. Deem and Ramdas Pophale) SiO2 
 PCOD9253732
Probable space group: P 21/C
;
_chemical_formula_sum "Si O2"
_cell_formula_units_Z 30
_cell_length_a 12.000000
_cell_length_b 15.000000
_cell_length_c 9.000000
_cell_angle_alpha 90.000000
_cell_angle_beta 70.000000
_cell_angle_gamma 90.000000
_cell_volume 1522.302046
_symmetry_space_group_name_H-M "P 21/C"
_symmetry_group_IT_number 14
_symmetry_cell_setting 'monoclinic'
loop_
_space_group_symop_operation_xyz
x,y,z
-x,1/2+y,1/2-z
-x,-y,-z
x,1/2-y,1/2+z
loop_
_atom_site_type_symbol
_atom_site_label
_atom_site_fract_x
_atom_site_fract_y
_atom_site_fract_z
Si Si1 0.579425 0.153301 0.062412
Si Si2 0.092052 0.643618 0.867862
Si Si3 0.227670 0.989225 0.079709
Si Si4 0.705497 0.823607 0.809183
Si Si5 0.816087 0.844460 0.431844
Si Si6 0.864902 0.450895 0.844269
Si Si7 0.000000 0.000000 0.000000
Si Si8 0.283709 0.710936 0.215631
O O1 0.437808 0.165669 0.115863
O O2 0.623161 0.179168 0.205577
O O3 0.642998 0.057695 0.001799
O O4 0.646337 0.223541 0.925594
O O5 0.158190 0.577092 0.724001
O O6 0.175070 0.731650 0.837312
O O7 0.084938 0.588920 0.024064
O O8 0.959386 0.669857 0.876488
O O9 0.244432 0.089631 0.128395
O O10 0.143625 0.990313 0.973666
O O11 0.753793 0.831223 0.619188
O O12 0.755707 0.729988 0.852987
O O13 0.809566 0.949603 0.389943
O O14 0.771752 0.375461 0.837292
O O15 0.972084 0.460650 0.678771
#
# Coordination Sequence:
#
# PCOD9253732 Si02
#       8
#     4   4   4   4   4   4   2   4
#     4  11  24  47  69 100 135 188 242 287 341 418
#     4  11  24  44  71 103 137 180 226 290 369 421
#     4  11  24  45  72 100 138 182 230 291 357 419
#     4  12  28  46  67  98 142 191 237 288 343 426
#     4  12  28  43  69 102 145 185 229 295 361 423
#     4  12  24  46  68 107 143 179 226 293 368 426
#     4  12  24  38  74 106 140 166 230 292 346 430
#     4  11  24  43  75 101 133 180 239 293 345 426
#
# _framework density 19.706996
#
# number of rings (size 3 to 8) (size 9 to 14) (size 15 to 20)
#    0.000    0.533    5.333    2.400    5.600    0.000 
#    0.000    4.000    0.000    0.000    0.000    0.000 
#    0.000    0.000    0.000    0.000    0.000    0.000 
#
# Total GULP energy -167135.060959 kJ/mol
# GULP energy per Si atom -5571.168699 kJ/mol
# Density = 1.966214 g / cm^3
# Si number density = 19.706996 Si / 1000 Ang^3
#
#
#
# Elastic Constant Matrix: (Units=GPa)
#
#
# Indices 1 2 3 4 5 6 
#
# 1 152.5022 53.0035 41.1044 0.0000 -15.0006 0.0000
# 2 53.0035 138.1403 30.2332 0.0000 1.0296 0.0000
# 3 41.1044 30.2332 64.2966 0.0000 -5.0482 0.0000
# 4 0.0000 0.0000 0.0000 27.3273 0.0000 1.9293
# 5 -15.0006 1.0296 -5.0482 0.0000 35.6975 0.0000
# 6 0.0000 0.0000 0.0000 1.9293 0.0000 39.1580
#
#
#
# Elastic Compliance Matrix: (Units=1/GPa)
#
#
# Indices 1 2 3 4 5 6 
#
# 1 0.008889 -0.002504 -0.004254 0.000000 0.003206 0.000000
# 2 -0.002504 0.008796 -0.002668 0.000000 -0.001683 0.000000
# 3 -0.004254 -0.002668 0.019610 0.000000 0.001063 0.000000
# 4 0.000000 0.000000 0.000000 0.036721 0.000000 -0.001809
# 5 0.003206 -0.001683 0.001063 0.000000 0.029559 0.000000
# 6 0.000000 0.000000 0.000000 -0.001809 0.000000 0.025627
#
#
# Mechanical properties :
#
#
# Convention : Reuss Voigt Hill
#
# Bulk Modulus (GPa) = 54.21458 67.06903 60.64181
# Shear Modulus (GPa) = 32.42510 35.80976 34.11743
#
# Velocity S-wave (km/s) = 4.06070 4.26738 4.16532
# Velocity P-wave (km/s) = 7.03959 7.64118 7.34655
#
# Compressibility (1/GPa) = 0.01844522
#
# Stress axis : x y z
#
# Youngs Moduli (GPa) = 112.49350 113.68765 50.99392
#
# Poissons Ratio (x) = 0.28464 0.21693
# Poissons Ratio (y) = 0.28165 0.13603
# Poissons Ratio (z) = 0.47854 0.30327
#
# Static dielectric constant tensor:
#      x y z
#    x 1.685560 0.000000 0.023830 
#    y 0.000000 1.683830 0.000000 
#    z 0.023830 0.000000 1.724240 
# 
# From -- ./inp_files/13088.got.cif
#   From: 2010.05.17/outbox.ucp.g08.bks.cvg/sg14_7_cif.got.tgz:13088.got - 2010.06.11 12:31:08.
