data_PCOD9253061
_publ_section_title
;
Structure prediction by ZEFSAII (Michael W. Deem and Ramdas Pophale) SiO2 
 PCOD9253061
Probable space group: P 21/C
;
_chemical_formula_sum "Si O2"
_cell_formula_units_Z 28
_cell_length_a 14.648445
_cell_length_b 9.186025
_cell_length_c 19.327994
_cell_angle_alpha 90.000000
_cell_angle_beta 152.309856
_cell_angle_gamma 90.000000
_cell_volume 1208.562203
_symmetry_space_group_name_H-M "P 21/C"
_symmetry_group_IT_number 14
_symmetry_cell_setting 'monoclinic'
loop_
_space_group_symop_operation_xyz
x,y,z
-x,1/2+y,1/2-z
-x,-y,-z
x,1/2-y,1/2+z
loop_
_atom_site_type_symbol
_atom_site_label
_atom_site_fract_x
_atom_site_fract_y
_atom_site_fract_z
Si Si1 0.458652 0.074205 0.544839
Si Si2 0.704823 0.421159 0.649345
Si Si3 0.178585 0.737206 0.649783
Si Si4 0.140225 0.323247 0.331000
Si Si5 0.284650 0.718525 0.965616
Si Si6 0.777739 0.832845 0.954600
Si Si7 0.409680 0.854048 0.183589
O O1 0.663987 0.117380 0.717657
O O2 0.324759 0.216850 0.445908
O O3 0.500000 0.000000 0.500000
O O4 0.341686 0.949829 0.508333
O O5 0.500000 0.500000 0.500000
O O6 0.766043 0.380564 0.768091
O O7 0.848020 0.529557 0.705115
O O8 0.690687 0.274071 0.595865
O O9 0.242474 0.739849 0.612549
O O10 0.956835 0.695106 0.521572
O O11 0.132201 0.352724 0.408025
O O12 0.942323 0.249785 0.172331
O O13 0.409670 0.811323 0.102989
O O14 0.621674 0.700103 0.852606
O O15 0.653967 0.977972 0.854042
#
# Coordination Sequence:
#
# PCOD9253061 Si02
#       7
#     4   4   4   4   4   4   4
#     4  12  23  44  75 108 148 191 251 305 361 443
#     4  12  22  45  72 106 143 188 242 302 356 429
#     4  12  26  48  77 106 152 196 245 304 377 446
#     4  12  24  46  76 107 149 194 249 306 366 439
#     4  12  26  43  75 109 145 195 246 302 371 435
#     4  12  26  51  77 102 154 199 245 307 375 443
#     4  12  28  49  73 111 153 193 246 311 372 446
#
# _framework density 23.168025
#
# number of rings (size 3 to 8) (size 9 to 14) (size 15 to 20)
#    0.000    0.000    7.143    2.143    2.000    0.000 
#    2.571    1.429    0.000    0.000    0.000    0.000 
#    0.000    0.000    0.000    0.000    0.000    0.000 
#
# Total GULP energy -156576.353275 kJ/mol
# GULP energy per Si atom -5592.012617 kJ/mol
# Density = 2.311529 g / cm^3
# Si number density = 23.168025 Si / 1000 Ang^3
#
#
#
# Elastic Constant Matrix: (Units=GPa)
#
#
# Indices 1 2 3 4 5 6 
#
# 1 65.4325 2.1502 6.7692 0.0000 14.9401 0.0000
# 2 2.1502 102.6372 28.1447 0.0000 16.1529 0.0000
# 3 6.7692 28.1447 83.0940 0.0000 19.9681 0.0000
# 4 0.0000 0.0000 0.0000 27.5003 0.0000 5.0509
# 5 14.9401 16.1529 19.9681 0.0000 47.4383 0.0000
# 6 0.0000 0.0000 0.0000 5.0509 0.0000 39.4976
#
#
#
# Elastic Compliance Matrix: (Units=1/GPa)
#
#
# Indices 1 2 3 4 5 6 
#
# 1 0.016496 0.000557 -0.000265 0.000000 -0.005273 0.000000
# 2 0.000557 0.011003 -0.003148 0.000000 -0.002597 0.000000
# 3 -0.000265 -0.003148 0.014290 0.000000 -0.004860 0.000000
# 4 0.000000 0.000000 0.000000 0.037238 0.000000 -0.004762
# 5 -0.005273 -0.002597 -0.004860 0.000000 0.025671 0.000000
# 6 0.000000 0.000000 0.000000 -0.004762 0.000000 0.025927
#
#
# Mechanical properties :
#
#
# Convention : Reuss Voigt Hill
#
# Bulk Modulus (GPa) = 27.71868 36.14355 31.93111
# Shear Modulus (GPa) = 33.70094 37.16054 35.43074
#
# Velocity S-wave (km/s) = 3.81810 4.00929 3.91486
# Velocity P-wave (km/s) = 5.60601 6.08827 5.85211
#
# Compressibility (1/GPa) = 0.03607675
#
# Stress axis : x y z
#
# Youngs Moduli (GPa) = 60.62040 90.88101 69.97741
#
# Poissons Ratio (x) = -0.05063 0.01857
# Poissons Ratio (y) = -0.03377 0.22031
# Poissons Ratio (z) = 0.01608 0.28612
#
# Static dielectric constant tensor:
#      x y z
#    x 1.942540 0.000000 0.026740 
#    y 0.000000 1.873880 0.000000 
#    z 0.026740 0.000000 1.831470 
# 
# From -- ./inp_files/64956.got.cif
#   From: 2010.05.17/outbox.cif.g08.bks.cpg/sg14_33_cif.got.tgz:64956.got - 2010.06.03 17:49:19.
