data_PCOD9253897
_publ_section_title
;
Structure prediction by ZEFSAII (Michael W. Deem and Ramdas Pophale) SiO2 
 PCOD9253897
Probable space group: C 2/C
;
_chemical_formula_sum "Si O2"
_cell_formula_units_Z 64
_cell_length_a 17.199242
_cell_length_b 23.665216
_cell_length_c 8.324667
_cell_angle_alpha 90.000000
_cell_angle_beta 130.842731
_cell_angle_gamma 90.000000
_cell_volume 2563.302748
_symmetry_space_group_name_H-M "C 2/C"
_symmetry_group_IT_number 15
_symmetry_cell_setting 'monoclinic'
loop_
_space_group_symop_operation_xyz
x,y,z
-x,y,1/2-z
-x,-y,-z
x,-y,1/2+z
1/2+x,1/2+y,z
1/2-x,1/2+y,1/2-z
1/2-x,1/2-y,-z
1/2+x,1/2-y,1/2+z
loop_
_atom_site_type_symbol
_atom_site_label
_atom_site_fract_x
_atom_site_fract_y
_atom_site_fract_z
Si Si1 0.134992 0.570994 0.124652
Si Si2 0.702712 0.385566 0.919789
Si Si3 0.203005 0.671995 0.347523
Si Si4 0.625499 0.039168 0.486361
Si Si5 0.857551 0.028512 0.927536
Si Si6 0.104017 0.912367 0.347761
Si Si7 0.323669 0.730622 0.243379
Si Si8 0.625500 0.158205 0.596257
O O1 0.223828 0.582721 0.108388
O O2 0.115756 0.637774 0.128969
O O3 0.145405 0.549113 0.324590
O O4 0.073370 0.519792 0.962191
O O5 0.644177 0.333067 0.759599
O O6 0.630037 0.431522 0.901684
O O7 0.777298 0.359786 0.159780
O O8 0.299085 0.628907 0.508665
O O9 0.250834 0.720742 0.302504
O O10 0.156027 0.678322 0.458613
O O11 0.736269 0.030740 0.719626
O O12 0.576542 0.095977 0.496765
O O13 0.905276 0.058608 0.838501
O O14 0.886046 0.965659 0.018066
O O15 0.000000 0.880387 0.250000
O O16 0.406703 0.780846 0.374776
O O17 0.250000 0.750000 0.000000
#
# Coordination Sequence:
#
# PCOD9253897 Si02
#       8
#     8   8   8   8   8   8   8   8
#     4  10  16  23  38  57  73 105 136 168 213 259
#     4   9  17  26  44  56  81 102 135 179 223 265
#     4  10  18  30  45  58  82 110 136 184 229 262
#     4  10  15  24  40  55  76 103 139 171 222 256
#     4  11  19  32  42  57  80 111 146 185 228 258
#     4  12  23  33  44  62  84 115 155 193 231 268
#     4   9  18  29  43  66  77  99 134 177 233 270
#     4   9  16  27  41  59  79 100 132 178 222 274
#
# _framework density 24.967787000000001
#
# number of rings (size 3 to 8) (size 9 to 14) (size 15 to 20)
#    0.000    2.000    5.000    3.000    1.750    0.000 
#    0.000    0.000    0.000    0.000    0.000    0.000 
#    0.000    0.000    0.000    0.000    0.000    0.000 
#
# Total GULP energy -178197.089455 kJ/mol
# GULP energy per Si atom -5568.659045 kJ/mol
# Density = 2.491096 g / cm^3
# Si number density = 24.967787 Si / 1000 Ang^3
#
#
#
# Elastic Constant Matrix: (Units=GPa)
#
#
# Indices 1 2 3 4 5 6 
#
# 1 48.6178 3.9688 19.1650 0.0000 0.4811 0.0000
# 2 3.9688 153.6130 35.0626 0.0000 -0.7878 0.0000
# 3 19.1650 35.0626 85.0462 0.0000 -23.5958 0.0000
# 4 0.0000 0.0000 0.0000 30.6247 0.0000 -22.8414
# 5 0.4811 -0.7878 -23.5958 0.0000 30.5283 0.0000
# 6 0.0000 0.0000 0.0000 -22.8414 0.0000 25.0455
#
#
#
# Elastic Compliance Matrix: (Units=1/GPa)
#
#
# Indices 1 2 3 4 5 6 
#
# 1 0.023461 0.001053 -0.007404 0.000000 -0.006065 0.000000
# 2 0.001053 0.007410 -0.004129 0.000000 -0.003017 0.000000
# 3 -0.007404 -0.004129 0.019263 0.000000 0.014898 0.000000
# 4 0.000000 0.000000 0.000000 0.102110 0.000000 0.093123
# 5 -0.006065 -0.003017 0.014898 0.000000 0.044290 0.000000
# 6 0.000000 0.000000 0.000000 0.093123 0.000000 0.124855
#
#
# Mechanical properties :
#
#
# Convention : Reuss Voigt Hill
#
# Bulk Modulus (GPa) = 34.27785 44.85220 39.56502
# Shear Modulus (GPa) = 14.20163 32.51173 23.35668
#
# Velocity S-wave (km/s) = 2.38754 3.61244 3.06187
# Velocity P-wave (km/s) = 4.62159 5.95001 5.32737
#
# Compressibility (1/GPa) = 0.02917336
#
# Stress axis : x y z
#
# Youngs Moduli (GPa) = 42.62360 134.95889 51.91425
#
# Poissons Ratio (x) = -0.14206 0.38435
# Poissons Ratio (y) = -0.04487 0.21436
# Poissons Ratio (z) = 0.31557 0.55725
#
# Static dielectric constant tensor:
#      x y z
#    x 2.056910 0.000000 0.049740 
#    y 0.000000 2.068340 0.000000 
#    z 0.049740 0.000000 2.014190 
# 
# From -- ./inp_files/63716.got.cif
#   From: 2010.05.17/outbox.cif.g08.bks.cpg/sg15_32_cif.got.tgz:63716.got - 2010.06.03 18:47:42.
