data_PCOD9253742
_publ_section_title
;
Structure prediction by ZEFSAII (Michael W. Deem and Ramdas Pophale) SiO2 
 PCOD9253742
Probable space group: P 21/C
;
_chemical_formula_sum "Si O2"
_cell_formula_units_Z 24
_cell_length_a 9.000000
_cell_length_b 9.000000
_cell_length_c 15.000000
_cell_angle_alpha 90.000000
_cell_angle_beta 100.000000
_cell_angle_gamma 90.000000
_cell_volume 1196.541420
_symmetry_space_group_name_H-M "P 21/C"
_symmetry_group_IT_number 14
_symmetry_cell_setting 'monoclinic'
loop_
_space_group_symop_operation_xyz
x,y,z
-x,1/2+y,1/2-z
-x,-y,-z
x,1/2-y,1/2+z
loop_
_atom_site_type_symbol
_atom_site_label
_atom_site_fract_x
_atom_site_fract_y
_atom_site_fract_z
Si Si1 0.318037 0.339692 0.474966
Si Si2 0.826785 0.969509 0.854667
Si Si3 0.638969 0.180791 0.546413
Si Si4 0.293123 0.690718 0.149841
Si Si5 0.631744 0.608674 0.160887
Si Si6 0.821337 0.086139 0.167768
O O1 0.228692 0.386189 0.557844
O O2 0.493078 0.291842 0.516372
O O3 0.278286 0.198671 0.407195
O O4 0.283709 0.469118 0.398454
O O5 0.780773 0.144187 0.859507
O O6 0.731744 0.914298 0.759070
O O7 0.004324 0.948436 0.844476
O O8 0.709250 0.139952 0.455934
O O9 0.768212 0.259843 0.617945
O O10 0.588230 0.042497 0.603010
O O11 0.476569 0.687518 0.179119
O O12 0.218738 0.602968 0.228748
#
# Coordination Sequence:
#
# PCOD9253742 Si02
#       6
#     4   4   4   4   4   4
#     4  11  25  45  75 101 136 192 240 283 349 423
#     4  12  27  45  70 105 144 188 231 288 364 419
#     4  11  24  48  72 106 136 184 238 297 347 416
#     4  11  25  45  72 100 144 180 238 290 344 422
#     4  11  27  45  73 107 138 179 244 296 346 415
#     4  12  26  43  72 103 143 186 234 288 354 424
#
# _framework density 20.05781
#
# number of rings (size 3 to 8) (size 9 to 14) (size 15 to 20)
#    0.000    0.667    3.333    4.000    9.333    1.333 
#    0.000    1.667    0.000    0.000    0.000    0.000 
#    0.000    0.000    0.000    0.000    0.000    0.000 
#
# Total GULP energy -133683.571239 kJ/mol
# GULP energy per Si atom -5570.148802 kJ/mol
# Density = 2.001216 g / cm^3
# Si number density = 20.057810 Si / 1000 Ang^3
#
#
#
# Elastic Constant Matrix: (Units=GPa)
#
#
# Indices 1 2 3 4 5 6 
#
# 1 112.7866 50.0606 55.2386 0.0000 -31.2802 0.0000
# 2 50.0606 89.0713 34.2480 0.0000 -11.1621 0.0000
# 3 55.2386 34.2480 163.5404 0.0000 -32.2010 0.0000
# 4 0.0000 0.0000 0.0000 47.3130 0.0000 -7.1376
# 5 -31.2802 -11.1621 -32.2010 0.0000 42.1316 0.0000
# 6 0.0000 0.0000 0.0000 -7.1376 0.0000 34.1598
#
#
#
# Elastic Compliance Matrix: (Units=1/GPa)
#
#
# Indices 1 2 3 4 5 6 
#
# 1 0.015017 -0.006641 -0.002157 0.000000 0.007741 0.000000
# 2 -0.006641 0.015228 -0.001321 0.000000 -0.001906 0.000000
# 3 -0.002157 -0.001321 0.007929 0.000000 0.004108 0.000000
# 4 0.000000 0.000000 0.000000 0.021824 0.000000 0.004560
# 5 0.007741 -0.001906 0.004108 0.000000 0.032118 0.000000
# 6 0.000000 0.000000 0.000000 0.004560 0.000000 0.030227
#
#
# Mechanical properties :
#
#
# Convention : Reuss Voigt Hill
#
# Bulk Modulus (GPa) = 55.75348 71.61032 63.68190
# Shear Modulus (GPa) = 33.65634 39.77762 36.71698
#
# Velocity S-wave (km/s) = 4.10074 4.45809 4.28314
# Velocity P-wave (km/s) = 7.09071 7.89170 7.50190
#
# Compressibility (1/GPa) = 0.01793610
#
# Stress axis : x y z
#
# Youngs Moduli (GPa) = 66.58975 65.66687 126.11857
#
# Poissons Ratio (x) = 0.43606 0.27210
# Poissons Ratio (y) = 0.44219 0.16664
# Poissons Ratio (z) = 0.14367 0.08677
#
# Static dielectric constant tensor:
#      x y z
#    x 1.702950 0.000000 0.019600 
#    y 0.000000 1.810480 0.000000 
#    z 0.019600 0.000000 1.732080 
# 
# From -- ./inp_files/39060.got.cif
#   From: 2010.05.17/outbox.ucp.g08.bks.cvg/sg14_20_cif.got.tgz:39060.got - 2010.06.11 12:31:08.
