data_PCOD9253583
_publ_section_title
;
Structure prediction by ZEFSAII (Michael W. Deem and Ramdas Pophale) SiO2 
 PCOD9253583
Probable space group: P 21/C
;
_chemical_formula_sum "Si O2"
_cell_formula_units_Z 32
_cell_length_a 12.000000
_cell_length_b 9.000000
_cell_length_c 21.000000
_cell_angle_alpha 90.000000
_cell_angle_beta 50.000000
_cell_angle_gamma 90.000000
_cell_volume 1737.388797
_symmetry_space_group_name_H-M "P 21/C"
_symmetry_group_IT_number 14
_symmetry_cell_setting 'monoclinic'
loop_
_space_group_symop_operation_xyz
x,y,z
-x,1/2+y,1/2-z
-x,-y,-z
x,1/2-y,1/2+z
loop_
_atom_site_type_symbol
_atom_site_label
_atom_site_fract_x
_atom_site_fract_y
_atom_site_fract_z
Si Si1 0.062369 0.170063 0.044420
Si Si2 0.330648 0.363439 0.951978
Si Si3 0.650057 0.614625 0.741737
Si Si4 0.016415 0.167251 0.918679
Si Si5 0.124344 0.928006 0.610092
Si Si6 0.393419 0.064847 0.280390
Si Si7 0.336094 0.871344 0.651583
Si Si8 0.845986 0.368075 0.204226
O O1 0.939657 0.242404 0.133707
O O2 0.057211 0.993511 0.051172
O O3 0.225201 0.223001 0.999382
O O4 0.020202 0.226712 0.989331
O O5 0.355875 0.390835 0.867337
O O6 0.490729 0.347887 0.924588
O O7 0.228917 0.491656 0.019826
O O8 0.588991 0.783504 0.766741
O O9 0.543395 0.527675 0.732061
O O10 0.659665 0.511950 0.801098
O O11 0.815293 0.637916 0.659514
O O12 0.938922 0.278141 0.898384
O O13 0.230560 0.906267 0.631174
O O14 0.978639 0.025481 0.680138
O O15 0.261403 0.967431 0.300187
O O16 0.262225 0.725106 0.710407
#
# Coordination Sequence:
#
# PCOD9253583 Si02
#       8
#     4   4   4   4   4   4   4   4
#     4  10  21  37  63  89 122 148 206 255 321 358
#     4  10  21  42  62  88 118 167 202 263 306 371
#     4  11  22  38  61  93 127 159 202 257 321 362
#     4  11  21  39  62  90 122 158 197 264 306 374
#     4  11  24  41  63  87 126 169 214 244 307 376
#     4  11  21  38  64  93 126 154 205 261 322 370
#     4  11  25  41  61  87 130 168 212 252 303 373
#     4  11  22  36  62  90 117 163 203 255 314 363
#
# _framework density 18.418444999999998
#
# number of rings (size 3 to 8) (size 9 to 14) (size 15 to 20)
#    0.000    1.250    3.750    2.625    1.750    2.000 
#    2.250    1.875    0.000    0.000    0.000    0.000 
#    0.000    0.000    0.000    0.000    0.000    0.000 
#
# Total GULP energy -178461.990470 kJ/mol
# GULP energy per Si atom -5576.937202 kJ/mol
# Density = 1.837652 g / cm^3
# Si number density = 18.418445 Si / 1000 Ang^3
#
#
#
# Elastic Constant Matrix: (Units=GPa)
#
#
# Indices 1 2 3 4 5 6 
#
# 1 162.9041 55.6664 38.4139 0.0000 -27.5017 0.0000
# 2 55.6664 81.9607 30.7951 0.0000 -10.6524 0.0000
# 3 38.4139 30.7951 47.1588 0.0000 -24.1752 0.0000
# 4 0.0000 0.0000 0.0000 19.7378 0.0000 -5.2201
# 5 -27.5017 -10.6524 -24.1752 0.0000 33.9854 0.0000
# 6 0.0000 0.0000 0.0000 -5.2201 0.0000 26.3877
#
#
#
# Elastic Compliance Matrix: (Units=1/GPa)
#
#
# Indices 1 2 3 4 5 6 
#
# 1 0.008974 -0.004801 -0.001926 0.000000 0.004387 0.000000
# 2 -0.004801 0.019062 -0.011751 0.000000 -0.006269 0.000000
# 3 -0.001926 -0.011751 0.043693 0.000000 0.025839 0.000000
# 4 0.000000 0.000000 0.000000 0.053461 0.000000 0.010576
# 5 0.004387 -0.006269 0.025839 0.000000 0.049390 0.000000
# 6 0.000000 0.000000 0.000000 0.010576 0.000000 0.039989
#
#
# Mechanical properties :
#
#
# Convention : Reuss Voigt Hill
#
# Bulk Modulus (GPa) = 28.75710 60.19716 44.47713
# Shear Modulus (GPa) = 19.00311 27.16538 23.08424
#
# Velocity S-wave (km/s) = 3.21556 3.84461 3.54407
# Velocity P-wave (km/s) = 5.42527 7.24307 6.39905
#
# Compressibility (1/GPa) = 0.03477403
#
# Stress axis : x y z
#
# Youngs Moduli (GPa) = 111.43355 52.45995 22.88715
#
# Poissons Ratio (x) = 0.25187 0.04407
# Poissons Ratio (y) = 0.53502 0.26894
# Poissons Ratio (z) = 0.21457 0.61643
#
# Static dielectric constant tensor:
#      x y z
#    x 1.624330 0.000000 0.011050 
#    y 0.000000 1.660490 0.000000 
#    z 0.011050 0.000000 1.645860 
# 
# From -- ./inp_files/57106.got.cif
#   From: 2010.05.17/outbox.ucp.g08.bks.cvg/sg14_29_cif.got.tgz:57106.got - 2010.06.11 12:31:08.
