data_PCOD9253867
_publ_section_title
;
Structure prediction by ZEFSAII (Michael W. Deem and Ramdas Pophale) SiO2 
 PCOD9253867
Probable space group: C 2/C
;
_chemical_formula_sum "Si O2"
_cell_formula_units_Z 52
_cell_length_a 14.871016
_cell_length_b 7.811905
_cell_length_c 19.036751
_cell_angle_alpha 90.000000
_cell_angle_beta 67.343143
_cell_angle_gamma 90.000000
_cell_volume 2040.851382
_symmetry_space_group_name_H-M "C 2/C"
_symmetry_group_IT_number 15
_symmetry_cell_setting 'monoclinic'
loop_
_space_group_symop_operation_xyz
x,y,z
-x,y,1/2-z
-x,-y,-z
x,-y,1/2+z
1/2+x,1/2+y,z
1/2-x,1/2+y,1/2-z
1/2-x,1/2-y,-z
1/2+x,1/2-y,1/2+z
loop_
_atom_site_type_symbol
_atom_site_label
_atom_site_fract_x
_atom_site_fract_y
_atom_site_fract_z
Si Si1 0.500000 0.968311 0.250000
Si Si2 0.436167 0.412725 0.414461
Si Si3 0.709757 0.459520 0.443623
Si Si4 0.374102 0.045061 0.498667
Si Si5 0.143351 0.193751 0.830514
Si Si6 0.826943 0.255962 0.831099
Si Si7 0.062385 0.433482 0.375387
O O1 0.587164 0.096225 0.199336
O O2 0.538582 0.858994 0.305505
O O3 0.393982 0.537312 0.486272
O O4 0.404384 0.227056 0.456067
O O5 0.550834 0.434018 0.366154
O O6 0.375454 0.398442 0.360489
O O7 0.784500 0.459182 0.485655
O O8 0.707781 0.326052 0.380556
O O9 0.743412 0.632953 0.393566
O O10 0.464011 0.923096 0.450759
O O11 0.360137 0.081565 0.584944
O O12 0.197195 0.188585 0.739861
O O13 0.088391 0.373298 0.845853
#
# Coordination Sequence:
#
# PCOD9253867 Si02
#       7
#     4   8   8   8   8   8   8
#     4  10  14  32  56  74  96 136 196 212 258 324
#     4  10  18  36  56  81 108 145 187 225 270 331
#     4  11  21  33  53  87 109 137 188 235 267 327
#     4   9  17  32  51  80 107 136 178 221 265 319
#     4  10  20  35  56  78 113 144 176 226 287 325
#     4  10  17  36  56  79 105 147 191 222 268 331
#     4   9  17  31  55  75 102 145 175 216 268 326
#
# _framework density 25.479564
#
# number of rings (size 3 to 8) (size 9 to 14) (size 15 to 20)
#    0.000    2.154    6.154    2.308    0.000    0.615 
#   11.077    0.000    0.000    0.000    8.000    0.000 
#    0.000    0.000    0.000    0.000    0.000    0.000 
#
# Total GULP energy -144918.005779 kJ/mol
# GULP energy per Si atom -5573.769453 kJ/mol
# Density = 2.542157 g / cm^3
# Si number density = 25.479564 Si / 1000 Ang^3
#
#
#
# Elastic Constant Matrix: (Units=GPa)
#
#
# Indices 1 2 3 4 5 6 
#
# 1 63.0234 15.5425 41.3885 0.0000 22.5102 0.0000
# 2 15.5425 25.2621 12.1483 0.0000 4.6615 0.0000
# 3 41.3885 12.1483 176.9407 0.0000 37.2901 0.0000
# 4 0.0000 0.0000 0.0000 22.9251 0.0000 2.5962
# 5 22.5102 4.6615 37.2901 0.0000 61.9129 0.0000
# 6 0.0000 0.0000 0.0000 2.5962 0.0000 -3.3681
#
#
#
# Elastic Compliance Matrix: (Units=1/GPa)
#
#
# Indices 1 2 3 4 5 6 
#
# 1 0.022859 -0.011422 -0.003428 0.000000 -0.005387 0.000000
# 2 -0.011422 0.046781 -0.000771 0.000000 0.001095 0.000000
# 3 -0.003428 -0.000771 0.007137 0.000000 -0.002995 0.000000
# 4 0.000000 0.000000 0.000000 0.040118 0.000000 0.030923
# 5 -0.005387 0.001095 -0.002995 0.000000 0.019831 0.000000
# 6 0.000000 0.000000 0.000000 0.030923 0.000000 -0.273063
#
#
# Mechanical properties :
#
#
# Convention : Reuss Voigt Hill
#
# Bulk Modulus (GPa) = 21.96028 44.82055 33.39041
# Shear Modulus (GPa) = -55.60629 29.37043 -13.11793
#
# Velocity S-wave (km/s) = -4.67667 3.39883 -2.27147
# Velocity P-wave (km/s) = 4.53036 5.74732 2.50076
#
# Compressibility (1/GPa) = 0.04553677
#
# Stress axis : x y z
#
# Youngs Moduli (GPa) = 43.74709 21.37632 140.10713
#
# Poissons Ratio (x) = 0.24415 0.48022
# Poissons Ratio (y) = 0.49966 0.10802
# Poissons Ratio (z) = 0.14994 0.01648
#
# Static dielectric constant tensor:
#      x y z
#    x 2.151340 0.000000 0.035720 
#    y 0.000000 2.052870 0.000000 
#    z 0.035720 0.000000 2.074890 
# 
# From -- ./inp_files/203537.got.cif
#   From: 2010.05.17/outbox.cif.g08.bks.cpg/sg15_102_cif.got.tgz:203537.got - 2010.06.03 18:47:42.
