data_PCOD9253067
_publ_section_title
;
Structure prediction by ZEFSAII (Michael W. Deem and Ramdas Pophale) SiO2 
 PCOD9253067
Probable space group: P 21/C
;
_chemical_formula_sum "Si O2"
_cell_formula_units_Z 32
_cell_length_a 23.990350
_cell_length_b 8.514376
_cell_length_c 15.153215
_cell_angle_alpha 90.000000
_cell_angle_beta 28.600072
_cell_angle_gamma 90.000000
_cell_volume 1481.669141
_symmetry_space_group_name_H-M "P 21/C"
_symmetry_group_IT_number 14
_symmetry_cell_setting 'monoclinic'
loop_
_space_group_symop_operation_xyz
x,y,z
-x,1/2+y,1/2-z
-x,-y,-z
x,1/2-y,1/2+z
loop_
_atom_site_type_symbol
_atom_site_label
_atom_site_fract_x
_atom_site_fract_y
_atom_site_fract_z
Si Si1 0.459016 0.456870 0.458019
Si Si2 0.702551 0.215830 0.864535
Si Si3 0.076225 0.974037 0.978828
Si Si4 0.694337 0.309147 0.075317
Si Si5 0.072476 0.602551 0.969864
Si Si6 0.367186 0.948409 0.700563
Si Si7 0.754390 0.762738 0.189517
Si Si8 0.098099 0.000517 0.617237
O O1 0.500000 0.500000 0.500000
O O2 0.416229 0.615678 0.471891
O O3 0.574786 0.403584 0.247997
O O4 0.358031 0.323165 0.609882
O O5 0.790924 0.066259 0.726423
O O6 0.680833 0.342766 0.815574
O O7 0.722725 0.284940 0.933712
O O8 0.997730 0.973202 0.175429
O O9 0.102067 0.789246 0.926584
O O10 0.166394 0.120910 0.859036
O O11 0.000000 0.000000 0.000000
O O12 0.661464 0.151541 0.173458
O O13 0.800923 0.391498 0.980131
O O14 0.031395 0.572057 0.125628
O O15 0.000000 0.500000 0.000000
O O16 0.500000 0.000000 0.500000
O O17 0.298270 0.109430 0.803144
O O18 0.836806 0.648253 0.017984
#
# Coordination Sequence:
#
# PCOD9253067 Si02
#       8
#     4   4   4   4   4   4   4   4
#     4  12  22  48  73 103 152 194 244 307 378 450
#     4  12  26  47  71 109 147 191 251 304 376 452
#     4  12  27  45  70 109 146 187 250 303 356 446
#     4  12  26  45  75 106 146 194 236 306 374 448
#     4  12  25  49  74 102 147 194 239 303 370 442
#     4  12  24  45  69 105 148 188 239 306 365 441
#     4  12  23  44  77 101 141 198 242 303 375 438
#     4  12  25  48  73 104 146 193 238 301 379 438
#
# _framework density 21.597263000000002
#
# number of rings (size 3 to 8) (size 9 to 14) (size 15 to 20)
#    0.000    0.000    7.500    2.250    1.750    3.000 
#    0.000    0.000    0.000    0.000    0.000    0.000 
#    0.000    0.000    0.000    0.000    0.000    0.000 
#
# Total GULP energy -178253.384217 kJ/mol
# GULP energy per Si atom -5570.418257 kJ/mol
# Density = 2.154811 g / cm^3
# Si number density = 21.597263 Si / 1000 Ang^3
#
#
#
# Elastic Constant Matrix: (Units=GPa)
#
#
# Indices 1 2 3 4 5 6 
#
# 1 130.1428 35.0352 35.9781 0.0000 14.5027 0.0000
# 2 35.0352 75.4418 19.4691 0.0000 -0.8518 0.0000
# 3 35.9781 19.4691 95.1184 0.0000 19.7683 0.0000
# 4 0.0000 0.0000 0.0000 24.1463 0.0000 -3.5590
# 5 14.5027 -0.8518 19.7683 0.0000 43.8675 0.0000
# 6 0.0000 0.0000 0.0000 -3.5590 0.0000 40.1984
#
#
#
# Elastic Compliance Matrix: (Units=1/GPa)
#
#
# Indices 1 2 3 4 5 6 
#
# 1 0.009634 -0.003880 -0.002397 0.000000 -0.002180 0.000000
# 2 -0.003880 0.015676 -0.002285 0.000000 0.002617 0.000000
# 3 -0.002397 -0.002285 0.012944 0.000000 -0.005085 0.000000
# 4 0.000000 0.000000 0.000000 0.041962 0.000000 0.003715
# 5 -0.002180 0.002617 -0.005085 0.000000 0.025859 0.000000
# 6 0.000000 0.000000 0.000000 0.003715 0.000000 0.025206
#
#
# Mechanical properties :
#
#
# Convention : Reuss Voigt Hill
#
# Bulk Modulus (GPa) = 47.32335 53.51865 50.42100
# Shear Modulus (GPa) = 32.16506 35.65715 33.91111
#
# Velocity S-wave (km/s) = 3.86335 4.06766 3.96682
# Velocity P-wave (km/s) = 6.46992 6.84801 6.66165
#
# Compressibility (1/GPa) = 0.02113122
#
# Stress axis : x y z
#
# Youngs Moduli (GPa) = 103.79961 63.79017 77.25434
#
# Poissons Ratio (x) = 0.24751 0.18515
# Poissons Ratio (y) = 0.40276 0.17652
# Poissons Ratio (z) = 0.24877 0.14575
#
# Static dielectric constant tensor:
#      x y z
#    x 1.627170 0.000000 0.229200 
#    y 0.000000 1.618540 0.000000 
#    z 0.229200 0.000000 1.222270 
# 
# From -- ./inp_files/51367.got.cif
#   From: 2010.05.17/outbox.cif.g08.bks.cpg/sg14_26_cif.got.tgz:51367.got - 2010.06.03 17:49:19.
