data_PCOD9253456
_publ_section_title
;
Structure prediction by ZEFSAII (Michael W. Deem and Ramdas Pophale) SiO2 
 PCOD9253456
Probable space group: P 21/C
;
_chemical_formula_sum "Si O2"
_cell_formula_units_Z 24
_cell_length_a 7.781640
_cell_length_b 13.998984
_cell_length_c 11.087995
_cell_angle_alpha 90.000000
_cell_angle_beta 120.538411
_cell_angle_gamma 90.000000
_cell_volume 1040.325947
_symmetry_space_group_name_H-M "P 21/C"
_symmetry_group_IT_number 14
_symmetry_cell_setting 'monoclinic'
loop_
_space_group_symop_operation_xyz
x,y,z
-x,1/2+y,1/2-z
-x,-y,-z
x,1/2-y,1/2+z
loop_
_atom_site_type_symbol
_atom_site_label
_atom_site_fract_x
_atom_site_fract_y
_atom_site_fract_z
Si Si1 0.176319 0.799908 0.700212
Si Si2 0.615102 0.010862 0.229378
Si Si3 0.795219 0.519183 0.528226
Si Si4 0.306030 0.296997 0.201918
Si Si5 0.746739 0.731944 0.555877
Si Si6 0.116634 0.689872 0.451087
O O1 0.221716 0.720108 0.614268
O O2 0.222365 0.789846 0.859957
O O3 0.931611 0.805670 0.621632
O O4 0.273966 0.896243 0.682809
O O5 0.675349 0.910116 0.307200
O O6 0.376562 0.019730 0.134986
O O7 0.690422 0.005641 0.118381
O O8 0.852312 0.628465 0.575367
O O9 0.928978 0.424587 0.557584
O O10 0.387281 0.249006 0.109642
O O11 0.370312 0.271254 0.360522
O O12 0.080203 0.255572 0.123896
#
# Coordination Sequence:
#
# PCOD9253456 Si02
#       6
#     4   4   4   4   4   4
#     4   9  18  32  51  74  99 129 165 202 241 289
#     4   9  18  33  51  71 100 136 164 191 243 306
#     4   9  18  33  51  71 100 136 164 191 243 306
#     4   9  18  32  51  74  99 129 165 202 241 289
#     4   9  18  32  51  74  99 129 165 202 241 289
#     4   9  18  32  51  74  99 129 165 202 241 289
#
# _framework density 23.069692
#
# number of rings (size 3 to 8) (size 9 to 14) (size 15 to 20)
#    0.000    3.000    0.000    0.000    0.000    6.667 
#    0.000    5.000    0.000    2.000    0.000    0.000 
#    0.000    0.000    0.000    0.000    0.000    0.000 
#
# Total GULP energy -133630.132299 kJ/mol
# GULP energy per Si atom -5567.922179 kJ/mol
# Density = 2.301718 g / cm^3
# Si number density = 23.069692 Si / 1000 Ang^3
#
#
#
# Elastic Constant Matrix: (Units=GPa)
#
#
# Indices 1 2 3 4 5 6 
#
# 1 71.2251 20.5718 26.3989 0.0000 -6.3900 0.0000
# 2 20.5718 123.5180 44.4066 0.0000 7.7379 0.0000
# 3 26.3989 44.4066 127.0363 0.0000 -34.2612 0.0000
# 4 0.0000 0.0000 0.0000 39.7095 0.0000 -0.9451
# 5 -6.3900 7.7379 -34.2612 0.0000 47.9797 0.0000
# 6 0.0000 0.0000 0.0000 -0.9451 0.0000 12.6772
#
#
#
# Elastic Compliance Matrix: (Units=1/GPa)
#
#
# Indices 1 2 3 4 5 6 
#
# 1 0.015505 -0.001737 -0.002455 0.000000 0.000592 0.000000
# 2 -0.001737 0.010402 -0.004694 0.000000 -0.005261 0.000000
# 3 -0.002455 -0.004694 0.012557 0.000000 0.009397 0.000000
# 4 0.000000 0.000000 0.000000 0.025228 0.000000 0.001881
# 5 0.000592 -0.005261 0.009397 0.000000 0.028479 0.000000
# 6 0.000000 0.000000 0.000000 0.001881 0.000000 0.079022
#
#
# Mechanical properties :
#
#
# Convention : Reuss Voigt Hill
#
# Bulk Modulus (GPa) = 48.32796 56.05932 52.19364
# Shear Modulus (GPa) = 25.52801 35.43342 30.48071
#
# Velocity S-wave (km/s) = 3.33011 3.92335 3.63884
# Velocity P-wave (km/s) = 5.98167 6.69897 6.35046
#
# Compressibility (1/GPa) = 0.02069195
#
# Stress axis : x y z
#
# Youngs Moduli (GPa) = 64.49653 96.13113 79.63554
#
# Poissons Ratio (x) = 0.16694 0.19553
# Poissons Ratio (y) = 0.11201 0.37383
# Poissons Ratio (z) = 0.15836 0.45126
#
# Static dielectric constant tensor:
#      x y z
#    x 1.987900 0.000000 0.002350 
#    y 0.000000 1.856500 0.000000 
#    z 0.002350 0.000000 1.974030 
# 
# From -- ./inp_files/24257.got.cif
#   From: 2010.05.17/outbox.cif.g08.bks.cpg/sg14_13_cif.got.tgz:24257.got - 2010.06.03 17:49:19.
