data_PCOD9253261
_publ_section_title
;
Structure prediction by ZEFSAII (Michael W. Deem and Ramdas Pophale) SiO2 
 PCOD9253261
Probable space group: P 21/C
;
_chemical_formula_sum "Si O2"
_cell_formula_units_Z 20
_cell_length_a 16.984684
_cell_length_b 4.996054
_cell_length_c 17.890465
_cell_angle_alpha 90.000000
_cell_angle_beta 30.633410
_cell_angle_gamma 90.000000
_cell_volume 773.548001
_symmetry_space_group_name_H-M "P 21/C"
_symmetry_group_IT_number 14
_symmetry_cell_setting 'monoclinic'
loop_
_space_group_symop_operation_xyz
x,y,z
-x,1/2+y,1/2-z
-x,-y,-z
x,1/2-y,1/2+z
loop_
_atom_site_type_symbol
_atom_site_label
_atom_site_fract_x
_atom_site_fract_y
_atom_site_fract_z
Si Si1 0.146187 0.973333 0.938647
Si Si2 0.318799 0.993727 0.655333
Si Si3 0.322477 0.478360 0.556309
Si Si4 0.071394 0.343075 0.657746
Si Si5 0.568340 0.147954 0.740911
O O1 0.276285 0.063357 0.774210
O O2 0.250209 0.725673 0.890485
O O3 0.000000 0.000000 0.000000
O O4 0.083040 0.138048 0.059798
O O5 0.282750 0.714398 0.645319
O O6 0.500000 0.000000 0.500000
O O7 0.257828 0.224114 0.652439
O O8 0.493895 0.433536 0.382974
O O9 0.226604 0.485458 0.559425
O O10 0.948372 0.542581 0.796896
O O11 0.473909 0.404386 0.782295
#
# Coordination Sequence:
#
# PCOD9253261 Si02
#       5
#     4   4   4   4   4
#     4  12  28  50  81 119 162 203 265 338 406 457
#     4  12  27  48  77 118 158 205 259 331 405 474
#     4  12  25  49  77 108 157 208 265 318 394 484
#     4  12  28  50  76 110 158 212 269 324 397 478
#     4  12  27  48  82 116 156 211 275 322 393 486
#
# _framework density 25.854894000000002
#
# number of rings (size 3 to 8) (size 9 to 14) (size 15 to 20)
#    0.000    0.000    4.000    5.400    2.800    1.600 
#    0.000    7.000    0.000    0.000    0.000    0.000 
#    0.000    0.000    0.000    0.000    0.000    0.000 
#
# Total GULP energy -111531.652491 kJ/mol
# GULP energy per Si atom -5576.582625 kJ/mol
# Density = 2.579605 g / cm^3
# Si number density = 25.854894 Si / 1000 Ang^3
#
#
#
# Elastic Constant Matrix: (Units=GPa)
#
#
# Indices 1 2 3 4 5 6 
#
# 1 145.9886 42.0250 26.2824 0.0000 17.9190 0.0000
# 2 42.0250 132.3434 32.5750 0.0000 -2.3840 0.0000
# 3 26.2824 32.5750 129.6723 0.0000 32.9578 0.0000
# 4 0.0000 0.0000 0.0000 28.9766 0.0000 -7.3873
# 5 17.9190 -2.3840 32.9578 0.0000 70.7013 0.0000
# 6 0.0000 0.0000 0.0000 -7.3873 0.0000 21.1933
#
#
#
# Elastic Compliance Matrix: (Units=1/GPa)
#
#
# Indices 1 2 3 4 5 6 
#
# 1 0.007860 -0.002399 -0.000526 0.000000 -0.001828 0.000000
# 2 -0.002399 0.008907 -0.002248 0.000000 0.001957 0.000000
# 3 -0.000526 -0.002248 0.009493 0.000000 -0.004368 0.000000
# 4 0.000000 0.000000 0.000000 0.037876 0.000000 0.013203
# 5 -0.001828 0.001957 -0.004368 0.000000 0.016709 0.000000
# 6 0.000000 0.000000 0.000000 0.013203 0.000000 0.051787
#
#
# Mechanical properties :
#
#
# Convention : Reuss Voigt Hill
#
# Bulk Modulus (GPa) = 62.84317 67.75211 65.29764
# Shear Modulus (GPa) = 33.71929 44.64902 39.18416
#
# Velocity S-wave (km/s) = 3.61525 4.16012 3.89722
# Velocity P-wave (km/s) = 6.46418 7.02404 6.74991
#
# Compressibility (1/GPa) = 0.01591263
#
# Stress axis : x y z
#
# Youngs Moduli (GPa) = 127.23439 112.27572 105.33760
#
# Poissons Ratio (x) = 0.26938 0.05538
# Poissons Ratio (y) = 0.30527 0.23684
# Poissons Ratio (z) = 0.06689 0.25244
#
# Static dielectric constant tensor:
#      x y z
#    x 2.133880 0.000000 -0.136810 
#    y 0.000000 2.044500 0.000000 
#    z -0.136810 0.000000 2.198650 
# 
# From -- ./inp_files/59942.got.cif
#   From: 2010.05.17/outbox.cif.g08.bks.cpg/sg14_30_cif.got.tgz:59942.got - 2010.06.03 17:49:19.
