data_PCOD9253907
_publ_section_title
;
Structure prediction by ZEFSAII (Michael W. Deem and Ramdas Pophale) SiO2 
 PCOD9253907
Probable space group: C 2/C
;
_chemical_formula_sum "Si O2"
_cell_formula_units_Z 48
_cell_length_a 14.483624
_cell_length_b 8.113482
_cell_length_c 23.243717
_cell_angle_alpha 90.000000
_cell_angle_beta 139.509804
_cell_angle_gamma 90.000000
_cell_volume 1773.566551
_symmetry_space_group_name_H-M "C 2/C"
_symmetry_group_IT_number 15
_symmetry_cell_setting 'monoclinic'
loop_
_space_group_symop_operation_xyz
x,y,z
-x,y,1/2-z
-x,-y,-z
x,-y,1/2+z
1/2+x,1/2+y,z
1/2-x,1/2+y,1/2-z
1/2-x,1/2-y,-z
1/2+x,1/2-y,1/2+z
loop_
_atom_site_type_symbol
_atom_site_label
_atom_site_fract_x
_atom_site_fract_y
_atom_site_fract_z
Si Si1 0.403597 0.543236 0.526087
Si Si2 0.380140 0.898416 0.654496
Si Si3 0.361563 0.818451 0.963891
Si Si4 0.947217 0.614044 0.850872
Si Si5 0.559440 0.447972 0.841715
Si Si6 0.210876 0.889969 0.163198
O O1 0.279189 0.657618 0.440979
O O2 0.340340 0.359543 0.486289
O O3 0.443917 0.588726 0.611021
O O4 0.565965 0.514412 0.582205
O O5 0.500000 0.804944 0.750000
O O6 0.457351 0.977060 0.635851
O O7 0.334290 0.039196 0.680285
O O8 0.506121 0.879429 0.060830
O O9 0.227604 0.923126 0.917338
O O10 0.341665 0.784148 0.886806
O O11 0.780213 0.596654 0.758234
O O12 0.986806 0.786297 0.836603
O O13 0.500000 0.462105 0.750000
#
# Coordination Sequence:
#
# PCOD9253907 Si02
#       6
#     8   8   8   8   8   8
#     4  10  18  26  38  67 100 120 149 194 241 267
#     4   9  14  23  39  60  89 123 148 181 225 274
#     4  10  16  26  44  65  90 127 158 186 225 287
#     4  10  15  25  42  66  91 123 155 184 223 283
#     4  11  16  27  46  67  90 126 159 184 224 292
#     4  10  18  25  39  65 102 122 145 194 240 269
#
# _framework density 27.064109999999999
#
# number of rings (size 3 to 8) (size 9 to 14) (size 15 to 20)
#    0.000    2.000    6.667    3.500    0.000    0.000 
#    0.000    0.000    0.000    1.000    0.000    0.000 
#    0.000   62.667    0.000    0.000    0.000    0.000 
#
# Total GULP energy -133688.329623 kJ/mol
# GULP energy per Si atom -5570.347068 kJ/mol
# Density = 2.700251 g / cm^3
# Si number density = 27.064110 Si / 1000 Ang^3
#
#
#
# Elastic Constant Matrix: (Units=GPa)
#
#
# Indices 1 2 3 4 5 6 
#
# 1 33.5526 0.5410 37.5789 0.0000 -2.0042 0.0000
# 2 0.5410 66.1440 0.9324 0.0000 9.0478 0.0000
# 3 37.5789 0.9324 283.9748 0.0000 -9.4801 0.0000
# 4 0.0000 0.0000 0.0000 11.7771 0.0000 1.8073
# 5 -2.0042 9.0478 -9.4801 0.0000 42.1956 0.0000
# 6 0.0000 0.0000 0.0000 1.8073 0.0000 4.9062
#
#
#
# Elastic Compliance Matrix: (Units=1/GPa)
#
#
# Indices 1 2 3 4 5 6 
#
# 1 0.035013 -0.000317 -0.004609 0.000000 0.000695 0.000000
# 2 -0.000317 0.015586 -0.000122 0.000000 -0.003384 0.000000
# 3 -0.004609 -0.000122 0.004157 0.000000 0.000741 0.000000
# 4 0.000000 0.000000 0.000000 0.089998 0.000000 -0.033152
# 5 0.000695 -0.003384 0.000741 0.000000 0.024624 0.000000
# 6 0.000000 0.000000 0.000000 -0.033152 0.000000 0.216037
#
#
# Mechanical properties :
#
#
# Convention : Reuss Voigt Hill
#
# Bulk Modulus (GPa) = 22.39172 51.30843 36.85008
# Shear Modulus (GPa) = 12.18333 34.75037 23.46685
#
# Velocity S-wave (km/s) = 2.12401 3.58718 2.94782
# Velocity P-wave (km/s) = 3.78243 6.01302 5.02311
#
# Compressibility (1/GPa) = 0.04465937
#
# Stress axis : x y z
#
# Youngs Moduli (GPa) = 28.56101 64.16094 240.58667
#
# Poissons Ratio (x) = 0.02031 1.10888
# Poissons Ratio (y) = 0.00904 0.02942
# Poissons Ratio (z) = 0.13164 0.00785
#
# Static dielectric constant tensor:
#      x y z
#    x 2.380970 0.000000 -0.063960 
#    y 0.000000 2.231070 0.000000 
#    z -0.063960 0.000000 2.178720 
# 
# From -- ./inp_files/152990.got.cif
#   From: 2010.05.17/outbox.cif.g08.bks.cpg/sg15_77_cif.got.tgz:152990.got - 2010.06.03 18:47:42.
