data_PCOD9253988
_publ_section_title
;
Structure prediction by ZEFSAII (Michael W. Deem and Ramdas Pophale) SiO2 
 PCOD9253988
Probable space group: C 2/C
;
_chemical_formula_sum "Si O2"
_cell_formula_units_Z 56
_cell_length_a 13.870748
_cell_length_b 19.078265
_cell_length_c 19.355117
_cell_angle_alpha 90.000000
_cell_angle_beta 36.890183
_cell_angle_gamma 90.000000
_cell_volume 3074.615046
_symmetry_space_group_name_H-M "C 2/C"
_symmetry_group_IT_number 15
_symmetry_cell_setting 'monoclinic'
loop_
_space_group_symop_operation_xyz
x,y,z
-x,y,1/2-z
-x,-y,-z
x,-y,1/2+z
1/2+x,1/2+y,z
1/2-x,1/2+y,1/2-z
1/2-x,1/2-y,-z
1/2+x,1/2-y,1/2+z
loop_
_atom_site_type_symbol
_atom_site_label
_atom_site_fract_x
_atom_site_fract_y
_atom_site_fract_z
Si Si1 0.265531 0.506187 0.081109
Si Si2 0.101593 0.705873 0.999885
Si Si3 0.860052 0.597146 0.121329
Si Si4 0.134542 0.996258 0.826964
Si Si5 0.664758 0.597088 0.682158
Si Si6 0.824404 0.668775 0.383979
Si Si7 0.863491 0.490176 0.485710
O O1 0.261823 0.487396 0.163888
O O2 0.221189 0.588527 0.102965
O O3 0.156235 0.473129 0.083342
O O4 0.449107 0.491766 0.953982
O O5 0.200098 0.655265 0.892695
O O6 0.174441 0.782631 0.946647
O O7 0.153850 0.683457 0.047214
O O8 0.920778 0.676436 0.096886
O O9 0.698034 0.574253 0.252882
O O10 0.987238 0.541876 0.083359
O O11 0.863040 0.574128 0.039425
O O12 0.151681 0.057618 0.761432
O O13 0.500000 0.629947 0.750000
O O14 0.714169 0.538427 0.597207
O O15 0.000000 0.683855 0.250000
#
# Coordination Sequence:
#
# PCOD9253988 Si02
#       7
#     8   8   8   8   8   8   8
#     4  11  20  33  46  81 113 142 175 234 284 341
#     4  10  20  33  49  75 105 144 190 208 257 346
#     4   9  17  32  48  73  99 144 185 219 264 324
#     4  10  21  30  51  73 108 143 181 231 290 323
#     4  10  15  30  49  70 100 138 173 218 260 330
#     4  11  21  33  52  77 114 152 175 219 280 338
#     4   9  17  28  49  70 103 136 174 225 267 322
#
# _framework density 18.213661999999999
#
# number of rings (size 3 to 8) (size 9 to 14) (size 15 to 20)
#    0.000    2.000    4.286    2.143    0.000    1.143 
#    0.000    0.000    0.000    0.000    0.000    4.000 
#    4.286    4.571    0.000    0.286    0.000    0.000 
#
# Total GULP energy -155962.085048 kJ/mol
# GULP energy per Si atom -5570.074466 kJ/mol
# Density = 1.817221 g / cm^3
# Si number density = 18.213662 Si / 1000 Ang^3
#
#
#
# Elastic Constant Matrix: (Units=GPa)
#
#
# Indices 1 2 3 4 5 6 
#
# 1 80.1341 20.7865 16.2629 0.0022 19.9856 -0.0013
# 2 20.7865 43.1236 22.3513 0.0015 1.3774 -0.0016
# 3 16.2629 22.3513 72.4802 0.0019 1.3227 -0.0022
# 4 0.0022 0.0015 0.0019 9.5183 -0.0019 -7.5731
# 5 19.9856 1.3774 1.3227 -0.0019 27.5813 0.0016
# 6 -0.0013 -0.0016 -0.0022 -7.5731 0.0016 27.5459
#
#
#
# Elastic Compliance Matrix: (Units=1/GPa)
#
#
# Indices 1 2 3 4 5 6 
#
# 1 0.017814 -0.007421 -0.001481 -0.000005 -0.012466 0.000000
# 2 -0.007421 0.030718 -0.007885 0.000000 0.004221 0.000000
# 3 -0.001481 -0.007885 0.016548 -0.000001 0.000673 0.000000
# 4 -0.000005 0.000000 -0.000001 0.134477 0.000011 0.036971
# 5 -0.012466 0.004221 0.000673 0.000011 0.045047 0.000000
# 6 0.000000 0.000000 0.000000 0.036971 0.000000 0.046467
#
#
# Mechanical properties :
#
#
# Convention : Reuss Voigt Hill
#
# Bulk Modulus (GPa) = 31.73904 34.94881 33.34393
# Shear Modulus (GPa) = 14.91885 22.01825 18.46855
#
# Velocity S-wave (km/s) = 2.86510 3.48068 3.18778
# Velocity P-wave (km/s) = 5.33000 5.94839 5.64766
#
# Compressibility (1/GPa) = 0.03150694
#
# Stress axis : x y z
#
# Youngs Moduli (GPa) = 56.13667 32.55419 60.42879
#
# Poissons Ratio (x) = 0.24157 0.08950
# Poissons Ratio (y) = 0.41657 0.47647
# Poissons Ratio (z) = 0.08314 0.25668
#
# Static dielectric constant tensor:
#      x y z
#    x 1.667520 0.000000 -0.020800 
#    y 0.000000 1.622950 0.000000 
#    z -0.020800 0.000000 1.700810 
# 
# From -- ./inp_files/206251.got.cif
#   From: 2010.05.17/outbox.cif.g08.bks.cpg/sg15_104_cif.got.tgz:206251.got - 2010.06.03 18:47:42.
