data_PCOD9253276
_publ_section_title
;
Structure prediction by ZEFSAII (Michael W. Deem and Ramdas Pophale) SiO2 
 PCOD9253276
Probable space group: P 21/C
;
_chemical_formula_sum "Si O2"
_cell_formula_units_Z 16
_cell_length_a 9.612385
_cell_length_b 9.333783
_cell_length_c 10.302417
_cell_angle_alpha 90.000000
_cell_angle_beta 42.903346
_cell_angle_gamma 90.000000
_cell_volume 629.251613
_symmetry_space_group_name_H-M "P 21/C"
_symmetry_group_IT_number 14
_symmetry_cell_setting 'monoclinic'
loop_
_space_group_symop_operation_xyz
x,y,z
-x,1/2+y,1/2-z
-x,-y,-z
x,1/2-y,1/2+z
loop_
_atom_site_type_symbol
_atom_site_label
_atom_site_fract_x
_atom_site_fract_y
_atom_site_fract_z
Si Si1 0.325737 0.881941 0.102276
Si Si2 0.973345 0.392494 0.855736
Si Si3 0.431297 0.812988 0.296673
Si Si4 0.091030 0.150684 0.986216
O O1 0.117691 0.969882 0.259945
O O2 0.381827 0.775670 0.181769
O O3 0.361800 0.812574 0.939257
O O4 0.500000 0.000000 0.000000
O O5 0.336003 0.353415 0.338430
O O6 0.044336 0.274279 0.912570
O O7 0.738841 0.432474 0.048832
O O8 0.002753 0.828572 0.805388
O O9 0.000000 0.000000 0.000000
#
# Coordination Sequence:
#
# PCOD9253276 Si02
#       4
#     4   4   4   4
#     4  12  25  52  79 115 160 214 267 326 407 473
#     4  12  27  49  80 114 160 211 267 327 403 479
#     4  12  26  50  79 112 162 206 268 337 393 469
#     4  12  27  49  79 117 157 206 271 327 405 475
#
# _framework density 25.427029000000001
#
# number of rings (size 3 to 8) (size 9 to 14) (size 15 to 20)
#    0.000    0.000    5.000    3.750    0.000    3.000 
#    4.500    0.000    0.000    0.000    0.000    0.000 
#    0.000    0.000    0.000    0.000    0.000    0.000 
#
# Total GULP energy -89756.217356 kJ/mol
# GULP energy per Si atom -5609.763585 kJ/mol
# Density = 2.536916 g / cm^3
# Si number density = 25.427029 Si / 1000 Ang^3
#
#
#
# Elastic Constant Matrix: (Units=GPa)
#
#
# Indices 1 2 3 4 5 6 
#
# 1 192.1163 61.2976 86.3013 0.0000 12.8552 0.0000
# 2 61.2976 109.5059 35.7832 0.0000 34.2029 0.0000
# 3 86.3013 35.7832 152.3187 0.0000 16.6020 0.0000
# 4 0.0000 0.0000 0.0000 44.6147 0.0000 5.3953
# 5 12.8552 34.2029 16.6020 0.0000 87.8313 0.0000
# 6 0.0000 0.0000 0.0000 5.3953 0.0000 49.4763
#
#
#
# Elastic Compliance Matrix: (Units=1/GPa)
#
#
# Indices 1 2 3 4 5 6 
#
# 1 0.007965 -0.003506 -0.003789 0.000000 0.000916 0.000000
# 2 -0.003506 0.012603 -0.000505 0.000000 -0.004299 0.000000
# 3 -0.003789 -0.000505 0.008933 0.000000 -0.000937 0.000000
# 4 0.000000 0.000000 0.000000 0.022714 0.000000 -0.002477
# 5 0.000916 -0.004299 -0.000937 0.000000 0.013103 0.000000
# 6 0.000000 0.000000 0.000000 -0.002477 0.000000 0.020482
#
#
# Mechanical properties :
#
#
# Convention : Reuss Voigt Hill
#
# Bulk Modulus (GPa) = 71.94844 91.18945 81.56895
# Shear Modulus (GPa) = 47.15569 54.42171 50.78870
#
# Velocity S-wave (km/s) = 4.31112 4.63137 4.47411
# Velocity P-wave (km/s) = 7.28961 8.03371 7.67069
#
# Compressibility (1/GPa) = 0.01389884
#
# Stress axis : x y z
#
# Youngs Moduli (GPa) = 125.55594 79.34930 111.94847
#
# Poissons Ratio (x) = 0.27822 0.42414
# Poissons Ratio (y) = 0.44024 0.05658
# Poissons Ratio (z) = 0.47569 0.04011
#
# Static dielectric constant tensor:
#      x y z
#    x 2.083970 0.000000 0.002450 
#    y 0.000000 2.070010 0.000000 
#    z 0.002450 0.000000 2.033690 
# 
# From -- ./inp_files/8123.got.cif
#   From: 2010.05.17/outbox.cif.g08.bks.cpg/sg14_5_cif.got.tgz:8123.got - 2010.06.03 17:49:19.
