data_PCOD9253608
_publ_section_title
;
Structure prediction by ZEFSAII (Michael W. Deem and Ramdas Pophale) SiO2 
 PCOD9253608
Probable space group: P 21/C
;
_chemical_formula_sum "Si O2"
_cell_formula_units_Z 20
_cell_length_a 12.000000
_cell_length_b 15.000000
_cell_length_c 18.000000
_cell_angle_alpha 90.000000
_cell_angle_beta 160.000000
_cell_angle_gamma 90.000000
_cell_volume 1108.145264
_symmetry_space_group_name_H-M "P 21/C"
_symmetry_group_IT_number 14
_symmetry_cell_setting 'monoclinic'
loop_
_space_group_symop_operation_xyz
x,y,z
-x,1/2+y,1/2-z
-x,-y,-z
x,1/2-y,1/2+z
loop_
_atom_site_type_symbol
_atom_site_label
_atom_site_fract_x
_atom_site_fract_y
_atom_site_fract_z
Si Si1 0.078551 0.889653 0.953599
Si Si2 0.510650 0.475631 0.819931
Si Si3 0.897388 0.247669 0.820203
Si Si4 0.770207 0.628976 0.094522
Si Si5 0.356619 0.696037 0.183109
O O1 0.770295 0.922523 0.810001
O O2 0.950988 0.891332 0.787158
O O3 0.212611 0.789037 0.057119
O O4 0.353779 0.959832 0.157158
O O5 0.709497 0.394469 0.905119
O O6 0.686428 0.542097 0.990070
O O7 0.583615 0.180271 0.613692
O O8 0.793711 0.305180 0.827841
O O9 0.995695 0.307118 0.809663
O O10 0.247320 0.202594 0.060088
#
# Coordination Sequence:
#
# PCOD9253608 Si02
#       5
#     4   4   4   4   4
#     4  11  23  42  68  96 130 175 216 260 333 384
#     4  11  22  43  68  96 130 171 219 267 317 396
#     4  10  21  42  64  93 132 172 212 268 317 381
#     4  11  24  42  67  98 130 170 222 265 320 387
#     4  11  21  42  70  92 133 175 212 267 333 376
#
# _framework density 18.048175000000001
#
# number of rings (size 3 to 8) (size 9 to 14) (size 15 to 20)
#    0.000    1.200    6.000    1.800    2.800    0.800 
#    3.600    1.000    0.000    0.000    0.000    0.000 
#    0.000    0.000    0.000    0.000    0.000    0.000 
#
# Total GULP energy -111492.016195 kJ/mol
# GULP energy per Si atom -5574.600810 kJ/mol
# Density = 1.800710 g / cm^3
# Si number density = 18.048175 Si / 1000 Ang^3
#
#
#
# Elastic Constant Matrix: (Units=GPa)
#
#
# Indices 1 2 3 4 5 6 
#
# 1 137.1324 54.7775 53.8970 0.0000 -17.9741 0.0000
# 2 54.7775 143.3527 42.6823 0.0000 -18.8718 0.0000
# 3 53.8970 42.6823 94.1016 0.0000 -21.8997 0.0000
# 4 0.0000 0.0000 0.0000 29.5458 0.0000 -1.3941
# 5 -17.9741 -18.8718 -21.8997 0.0000 49.0741 0.0000
# 6 0.0000 0.0000 0.0000 -1.3941 0.0000 40.3004
#
#
#
# Elastic Compliance Matrix: (Units=1/GPa)
#
#
# Indices 1 2 3 4 5 6 
#
# 1 0.010142 -0.002426 -0.004532 0.000000 0.000759 0.000000
# 2 -0.002426 0.008765 -0.002241 0.000000 0.001482 0.000000
# 3 -0.004532 -0.002241 0.015234 0.000000 0.004277 0.000000
# 4 0.000000 0.000000 0.000000 0.033901 0.000000 0.001173
# 5 0.000759 0.001482 0.004277 0.000000 0.023134 0.000000
# 6 0.000000 0.000000 0.000000 0.001173 0.000000 0.024854
#
#
# Mechanical properties :
#
#
# Convention : Reuss Voigt Hill
#
# Bulk Modulus (GPa) = 63.51914 75.25559 69.38737
# Shear Modulus (GPa) = 35.79697 38.66605 37.23151
#
# Velocity S-wave (km/s) = 4.45838 4.63361 4.54684
# Velocity P-wave (km/s) = 7.85961 8.39134 8.12983
#
# Compressibility (1/GPa) = 0.01574329
#
# Stress axis : x y z
#
# Youngs Moduli (GPa) = 98.60023 114.08631 65.64178
#
# Poissons Ratio (x) = 0.27679 0.29747
# Poissons Ratio (y) = 0.23922 0.14712
# Poissons Ratio (z) = 0.44682 0.25570
#
# Static dielectric constant tensor:
#      x y z
#    x 1.635040 0.000000 0.000180 
#    y 0.000000 1.645330 0.000000 
#    z 0.000180 0.000000 1.637140 
# 
# From -- ./inp_files/57899.got.cif
#   From: 2010.05.17/outbox.ucp.g08.bks.cvg/sg14_29_cif.got.tgz:57899.got - 2010.06.11 12:31:08.
