data_PCOD9253258
_publ_section_title
;
Structure prediction by ZEFSAII (Michael W. Deem and Ramdas Pophale) SiO2 
 PCOD9253258
Probable space group: P 21/C
;
_chemical_formula_sum "Si O2"
_cell_formula_units_Z 16
_cell_length_a 9.686448
_cell_length_b 7.823647
_cell_length_c 11.555239
_cell_angle_alpha 90.000000
_cell_angle_beta 124.726200
_cell_angle_gamma 90.000000
_cell_volume 719.719161
_symmetry_space_group_name_H-M "P 21/C"
_symmetry_group_IT_number 14
_symmetry_cell_setting 'monoclinic'
loop_
_space_group_symop_operation_xyz
x,y,z
-x,1/2+y,1/2-z
-x,-y,-z
x,1/2-y,1/2+z
loop_
_atom_site_type_symbol
_atom_site_label
_atom_site_fract_x
_atom_site_fract_y
_atom_site_fract_z
Si Si1 0.680796 0.460948 0.037937
Si Si2 0.314891 0.916063 0.908612
Si Si3 0.041839 0.064647 0.147535
Si Si4 0.823245 0.927607 0.375404
O O1 0.672249 0.259068 0.012597
O O2 0.820826 0.477659 0.204427
O O3 0.500000 0.500000 0.000000
O O4 0.720708 0.579820 0.946888
O O5 0.135444 0.975490 0.874291
O O6 0.270148 0.935836 0.751176
O O7 0.500000 0.000000 0.000000
O O8 0.126369 0.252834 0.166582
O O9 0.000000 0.000000 0.000000
O O10 0.000000 0.000000 0.500000
#
# Coordination Sequence:
#
# PCOD9253258 Si02
#       4
#     4   4   4   4
#     4  12  29  47  75 111 149 198 249 305 375 444
#     4  12  27  47  75 110 149 194 248 306 370 445
#     4  12  27  47  76 107 149 197 247 305 372 440
#     4  12  25  49  76 103 152 196 247 306 370 442
#
# _framework density 22.230892999999998
#
# number of rings (size 3 to 8) (size 9 to 14) (size 15 to 20)
#    0.000    0.000    5.000    3.000   10.500    0.000 
#    0.000    0.000    0.000    0.000    0.000    0.000 
#    0.000    0.000    0.000    0.000    0.000    0.000 
#
# Total GULP energy -89088.291771 kJ/mol
# GULP energy per Si atom -5568.018236 kJ/mol
# Density = 2.218029 g / cm^3
# Si number density = 22.230893 Si / 1000 Ang^3
#
#
#
# Elastic Constant Matrix: (Units=GPa)
#
#
# Indices 1 2 3 4 5 6 
#
# 1 191.8524 11.8854 69.6339 0.0000 23.8813 0.0000
# 2 11.8854 58.0797 -8.8027 0.0000 0.7129 0.0000
# 3 69.6339 -8.8027 104.6569 0.0000 15.0799 0.0000
# 4 0.0000 0.0000 0.0000 32.0632 0.0000 9.5106
# 5 23.8813 0.7129 15.0799 0.0000 49.9489 0.0000
# 6 0.0000 0.0000 0.0000 9.5106 0.0000 32.0716
#
#
#
# Elastic Compliance Matrix: (Units=1/GPa)
#
#
# Indices 1 2 3 4 5 6 
#
# 1 0.007334 -0.002199 -0.004771 0.000000 -0.002034 0.000000
# 2 -0.002199 0.018124 0.003004 0.000000 -0.000114 0.000000
# 3 -0.004771 0.003004 0.013235 0.000000 -0.001758 0.000000
# 4 0.000000 0.000000 0.000000 0.034196 0.000000 -0.010141
# 5 -0.002034 -0.000114 -0.001758 0.000000 0.021525 0.000000
# 6 0.000000 0.000000 0.000000 -0.010141 0.000000 0.034187
#
#
# Mechanical properties :
#
#
# Convention : Reuss Voigt Hill
#
# Bulk Modulus (GPa) = 32.50857 55.55802 44.03330
# Shear Modulus (GPa) = 34.06262 41.60823 37.83542
#
# Velocity S-wave (km/s) = 3.91860 4.33094 4.12992
# Velocity P-wave (km/s) = 5.92696 7.07496 6.52625
#
# Compressibility (1/GPa) = 0.03076112
#
# Stress axis : x y z
#
# Youngs Moduli (GPa) = 136.35964 55.17423 75.55441
#
# Poissons Ratio (x) = 0.12132 0.36049
# Poissons Ratio (y) = 0.29984 -0.22696
# Poissons Ratio (z) = 0.65060 -0.16574
#
# Static dielectric constant tensor:
#      x y z
#    x 2.114440 0.000000 -0.212470 
#    y 0.000000 2.082600 0.000000 
#    z -0.212470 0.000000 1.785680 
# 
# From -- ./inp_files/22861.got.cif
#   From: 2010.05.17/outbox.cif.g08.bks.cpg/sg14_12_cif.got.tgz:22861.got - 2010.06.03 17:49:19.
