data_PCOD9253728
_publ_section_title
;
Structure prediction by ZEFSAII (Michael W. Deem and Ramdas Pophale) SiO2 
 PCOD9253728
Probable space group: P 21/C
;
_chemical_formula_sum "Si O2"
_cell_formula_units_Z 28
_cell_length_a 9.000000
_cell_length_b 15.000000
_cell_length_c 15.000000
_cell_angle_alpha 90.000000
_cell_angle_beta 140.000000
_cell_angle_gamma 90.000000
_cell_volume 1301.644910
_symmetry_space_group_name_H-M "P 21/C"
_symmetry_group_IT_number 14
_symmetry_cell_setting 'monoclinic'
loop_
_space_group_symop_operation_xyz
x,y,z
-x,1/2+y,1/2-z
-x,-y,-z
x,1/2-y,1/2+z
loop_
_atom_site_type_symbol
_atom_site_label
_atom_site_fract_x
_atom_site_fract_y
_atom_site_fract_z
Si Si1 0.444975 0.374828 0.268313
Si Si2 0.440849 0.750709 0.349518
Si Si3 0.660267 0.418214 0.100056
Si Si4 0.236895 0.829950 0.930718
Si Si5 0.910990 0.153324 0.543518
Si Si6 0.085364 0.473643 0.639614
Si Si7 0.495388 0.088920 0.233283
O O1 0.564020 0.310385 0.246653
O O2 0.524782 0.343888 0.403901
O O3 0.492214 0.482268 0.281807
O O4 0.170958 0.364272 0.133646
O O5 0.496202 0.833153 0.442468
O O6 0.259815 0.702212 0.338064
O O7 0.568154 0.660298 0.373477
O O8 0.823726 0.399135 0.091128
O O9 0.817576 0.445058 0.257218
O O10 0.500000 0.500000 0.000000
O O11 0.112704 0.754379 0.933151
O O12 0.100403 0.921407 0.886373
O O13 0.736241 0.124521 0.384445
O O14 0.300441 0.407804 0.719615
O O15 0.000000 0.500000 0.500000
#
# Coordination Sequence:
#
# PCOD9253728 Si02
#       7
#     4   4   4   4   4   4   4
#     4  12  24  49  70 107 151 192 246 310 378 453
#     4  11  25  46  71 111 147 191 253 311 369 452
#     4  11  23  47  73 106 148 196 255 305 374 450
#     4  11  26  45  72 107 144 196 249 304 381 450
#     4  11  25  44  73 102 147 194 248 311 371 449
#     4  12  24  46  76 103 150 202 241 312 381 443
#     4  12  24  45  75 104 148 193 250 310 378 444
#
# _framework density 21.511243
#
# number of rings (size 3 to 8) (size 9 to 14) (size 15 to 20)
#    0.000    0.571    5.714    1.286    2.000    1.714 
#    5.143    0.000    0.000    0.000    0.000    0.000 
#    0.000    0.000    0.000    0.000    0.000    0.000 
#
# Total GULP energy -155901.701846 kJ/mol
# GULP energy per Si atom -5567.917923 kJ/mol
# Density = 2.146228 g / cm^3
# Si number density = 21.511243 Si / 1000 Ang^3
#
#
#
# Elastic Constant Matrix: (Units=GPa)
#
#
# Indices 1 2 3 4 5 6 
#
# 1 91.1432 29.8182 18.6453 0.0000 -7.0784 0.0000
# 2 29.8182 130.4800 9.4700 0.0000 -7.5146 0.0000
# 3 18.6453 9.4700 70.3617 0.0000 8.6658 0.0000
# 4 0.0000 0.0000 0.0000 30.1026 0.0000 -8.1412
# 5 -7.0784 -7.5146 8.6658 0.0000 36.0064 0.0000
# 6 0.0000 0.0000 0.0000 -8.1412 0.0000 50.2342
#
#
#
# Elastic Compliance Matrix: (Units=1/GPa)
#
#
# Indices 1 2 3 4 5 6 
#
# 1 0.012694 -0.002496 -0.003371 0.000000 0.002786 0.000000
# 2 -0.002496 0.008362 -0.000637 0.000000 0.001408 0.000000
# 3 -0.003371 -0.000637 0.015756 0.000000 -0.004588 0.000000
# 4 0.000000 0.000000 0.000000 0.034742 0.000000 0.005631
# 5 0.002786 0.001408 -0.004588 0.000000 0.029719 0.000000
# 6 0.000000 0.000000 0.000000 0.005631 0.000000 0.020819
#
#
# Mechanical properties :
#
#
# Convention : Reuss Voigt Hill
#
# Bulk Modulus (GPa) = 42.01030 45.31690 43.66360
# Shear Modulus (GPa) = 34.95623 38.87207 36.91415
#
# Velocity S-wave (km/s) = 4.03553 4.25556 4.14701
# Velocity P-wave (km/s) = 6.42541 6.72746 6.57817
#
# Compressibility (1/GPa) = 0.02380368
#
# Stress axis : x y z
#
# Youngs Moduli (GPa) = 78.77564 119.59254 63.46618
#
# Poissons Ratio (x) = 0.29849 0.21395
# Poissons Ratio (y) = 0.19661 0.04045
# Poissons Ratio (z) = 0.26556 0.07623
#
# Static dielectric constant tensor:
#      x y z
#    x 1.776420 0.000000 0.014780 
#    y 0.000000 1.814100 0.000000 
#    z 0.014780 0.000000 1.840580 
# 
# From -- ./inp_files/41448.got.cif
#   From: 2010.05.17/outbox.ucp.g08.bks.cvg/sg14_21_cif.got.tgz:41448.got - 2010.06.11 12:31:08.
