data_PCOD9253776
_publ_section_title
;
Structure prediction by ZEFSAII (Michael W. Deem and Ramdas Pophale) SiO2 
 PCOD9253776
Probable space group: C 2/C
;
_chemical_formula_sum "Si O2"
_cell_formula_units_Z 44
_cell_length_a 31.237114
_cell_length_b 6.734548
_cell_length_c 24.784814
_cell_angle_alpha 90.000000
_cell_angle_beta 17.112900
_cell_angle_gamma 90.000000
_cell_volume 1534.227017
_symmetry_space_group_name_H-M "C 2/C"
_symmetry_group_IT_number 15
_symmetry_cell_setting 'monoclinic'
loop_
_space_group_symop_operation_xyz
x,y,z
-x,y,1/2-z
-x,-y,-z
x,-y,1/2+z
1/2+x,1/2+y,z
1/2-x,1/2+y,1/2-z
1/2-x,1/2-y,-z
1/2+x,1/2-y,1/2+z
loop_
_atom_site_type_symbol
_atom_site_label
_atom_site_fract_x
_atom_site_fract_y
_atom_site_fract_z
Si Si1 0.706452 0.980403 0.551485
Si Si2 0.218394 0.546445 0.919063
Si Si3 0.500000 0.358672 0.750000
Si Si4 0.990724 0.492371 0.412481
Si Si5 0.283920 0.477156 0.106583
Si Si6 0.465366 0.569777 0.982119
O O1 0.750000 0.750000 0.500000
O O2 0.648166 0.013852 0.560908
O O3 0.849149 0.101688 0.395790
O O4 0.582151 0.989698 0.746379
O O5 0.206560 0.784701 0.921610
O O6 0.387451 0.514996 0.727086
O O7 0.162918 0.440638 0.931109
O O8 0.600917 0.382217 0.572835
O O9 0.118794 0.403226 0.295488
O O10 0.956313 0.695276 0.485206
O O11 0.333967 0.472256 0.108133
O O12 0.500000 0.500000 0.000000
#
# Coordination Sequence:
#
# PCOD9253776 Si02
#       6
#     8   8   4   8   8   8
#     4  11  14  19  36  59  83  97 127 163 187 231
#     4  10  16  24  37  57  78 105 139 159 190 238
#     4  10  14  20  34  58  82  98 128 162 184 228
#     4   9  18  25  40  58  77 103 143 168 190 231
#     4   9  16  24  37  55  77 104 136 162 189 229
#     4  10  18  27  36  51  79 113 139 162 196 235
#
# _framework density 28.678940000000001
#
# number of rings (size 3 to 8) (size 9 to 14) (size 15 to 20)
#    0.000    2.182    7.273    1.636    0.000    0.000 
#    0.000    0.909    0.000    0.000    0.000    0.000 
#    0.000    0.000    0.000   14.727    9.818   22.909 
#
# Total GULP energy -122654.647289 kJ/mol
# GULP energy per Si atom -5575.211240 kJ/mol
# Density = 2.861367 g / cm^3
# Si number density = 28.678940 Si / 1000 Ang^3
#
#
#
# Elastic Constant Matrix: (Units=GPa)
#
#
# Indices 1 2 3 4 5 6 
#
# 1 289.9442 36.5841 49.0500 0.0049 -29.7674 0.0025
# 2 36.5841 127.2505 5.9483 0.0066 -4.3019 -0.0035
# 3 49.0500 5.9483 90.2271 0.0070 -25.2818 -0.0007
# 4 0.0049 0.0066 0.0070 -45.2301 -0.0087 43.3643
# 5 -29.7674 -4.3019 -25.2818 -0.0087 66.9964 -0.0018
# 6 0.0025 -0.0035 -0.0007 43.3643 -0.0018 10.8021
#
#
#
# Elastic Compliance Matrix: (Units=1/GPa)
#
#
# Indices 1 2 3 4 5 6 
#
# 1 0.003991 -0.001028 -0.001815 0.000000 0.001022 0.000000
# 2 -0.001028 0.008155 0.000045 0.000001 0.000084 0.000000
# 3 -0.001815 0.000045 0.013242 0.000001 0.004193 0.000000
# 4 0.000000 0.000001 0.000001 -0.004560 0.000000 0.018305
# 5 0.001022 0.000084 0.004193 0.000000 0.016968 0.000003
# 6 0.000000 0.000000 0.000000 0.018305 0.000003 0.019092
#
#
# Mechanical properties :
#
#
# Convention : Reuss Voigt Hill
#
# Bulk Modulus (GPa) = 50.52952 76.73183 63.63067
# Shear Modulus (GPa) = 72.37793 34.23629 53.30711
#
# Velocity S-wave (km/s) = 5.02912 3.45886 4.31600
# Velocity P-wave (km/s) = 7.16799 6.53951 6.86095
#
# Compressibility (1/GPa) = 0.01979041
#
# Stress axis : x y z
#
# Youngs Moduli (GPa) = 250.58506 122.62749 75.51719
#
# Poissons Ratio (x) = 0.12605 0.13708
# Poissons Ratio (y) = 0.25757 -0.00337
# Poissons Ratio (z) = 0.45488 -0.00548
#
# Static dielectric constant tensor:
#      x y z
#    x 2.301070 -0.000010 -0.048360 
#    y -0.000010 2.457820 0.000010 
#    z -0.048360 0.000010 2.217380 
# 
# From -- ./inp_files/110307.got.cif
#   From: 2010.05.17/outbox.cif.g08.bks.cpg/sg15_56_cif.got.tgz:110307.got - 2010.06.03 18:47:42.
