data_PCOD9253915
_publ_section_title
;
Structure prediction by ZEFSAII (Michael W. Deem and Ramdas Pophale) SiO2 
 PCOD9253915
Probable space group: C 2/C
;
_chemical_formula_sum "Si O2"
_cell_formula_units_Z 56
_cell_length_a 27.081847
_cell_length_b 7.088288
_cell_length_c 14.965882
_cell_angle_alpha 90.000000
_cell_angle_beta 50.742844
_cell_angle_gamma 90.000000
_cell_volume 2224.532975
_symmetry_space_group_name_H-M "C 2/C"
_symmetry_group_IT_number 15
_symmetry_cell_setting 'monoclinic'
loop_
_space_group_symop_operation_xyz
x,y,z
-x,y,1/2-z
-x,-y,-z
x,-y,1/2+z
1/2+x,1/2+y,z
1/2-x,1/2+y,1/2-z
1/2-x,1/2-y,-z
1/2+x,1/2-y,1/2+z
loop_
_atom_site_type_symbol
_atom_site_label
_atom_site_fract_x
_atom_site_fract_y
_atom_site_fract_z
Si Si1 0.300696 0.342335 0.849965
Si Si2 0.310420 0.985317 0.957819
Si Si3 0.988469 0.292570 0.865852
Si Si4 0.528484 0.750559 0.121250
Si Si5 0.418326 0.713374 0.112140
Si Si6 0.330186 0.790325 0.585773
Si Si7 0.120607 0.357832 0.786223
O O1 0.323838 0.192865 0.897345
O O2 0.357141 0.396327 0.719864
O O3 0.241648 0.239627 0.864407
O O4 0.265399 0.511310 0.942456
O O5 0.345649 0.857395 0.848276
O O6 0.334839 0.004003 0.030644
O O7 0.053452 0.259934 0.846753
O O8 0.000000 0.235858 0.750000
O O9 0.976858 0.519734 0.877837
O O10 0.934577 0.201366 0.989491
O O11 0.500000 0.698034 0.250000
O O12 0.480610 0.675139 0.100772
O O13 0.602557 0.699299 0.021457
O O14 0.399041 0.930555 0.158604
O O15 0.333573 0.793377 0.687615
#
# Coordination Sequence:
#
# PCOD9253915 Si02
#       7
#     8   8   8   8   8   8   8
#     4   8  17  27  40  53  87 125 140 173 209 258
#     4   8  16  27  39  57  85 119 144 167 213 253
#     4  10  17  24  37  61  88 115 136 167 206 256
#     4  10  16  22  38  60  87 109 139 173 207 245
#     4  10  16  27  36  60  86 117 142 167 214 260
#     4  10  15  26  39  61  82 115 138 175 210 249
#     4  10  16  24  40  62  83 111 145 174 206 254
#
# _framework density 25.173822999999999
#
# number of rings (size 3 to 8) (size 9 to 14) (size 15 to 20)
#    0.857    1.714    2.857    4.286    0.000    0.000 
#    0.000    0.000    0.000    0.857    0.000    0.000 
#    0.000    4.571    2.286    0.143    0.000    0.000 
#
# Total GULP energy -156126.117739 kJ/mol
# GULP energy per Si atom -5575.932776 kJ/mol
# Density = 2.511653 g / cm^3
# Si number density = 25.173823 Si / 1000 Ang^3
#
#
#
# Elastic Constant Matrix: (Units=GPa)
#
#
# Indices 1 2 3 4 5 6 
#
# 1 115.7271 6.7662 34.5014 0.0000 3.3893 0.0001
# 2 6.7662 64.2237 5.9265 0.0001 -5.6861 0.0005
# 3 34.5014 5.9265 215.6034 0.0001 -1.7089 -0.0001
# 4 0.0000 0.0001 0.0001 -1.6430 0.0000 -9.7901
# 5 3.3893 -5.6861 -1.7089 0.0000 45.9131 0.0000
# 6 0.0001 0.0005 -0.0001 -9.7901 0.0000 8.6067
#
#
#
# Elastic Compliance Matrix: (Units=1/GPa)
#
#
# Indices 1 2 3 4 5 6 
#
# 1 0.009150 -0.000905 -0.001446 0.000000 -0.000841 0.000000
# 2 -0.000905 0.015870 -0.000275 0.000001 0.002022 0.000000
# 3 -0.001446 -0.000275 0.004879 0.000000 0.000254 0.000000
# 4 0.000000 0.000001 0.000000 -0.078253 0.000000 -0.089012
# 5 -0.000841 0.002022 0.000254 0.000000 0.022102 0.000000
# 6 0.000000 0.000000 0.000000 -0.089012 0.000000 0.014938
#
#
# Mechanical properties :
#
#
# Convention : Reuss Voigt Hill
#
# Bulk Modulus (GPa) = 40.57380 54.43804 47.50592
# Shear Modulus (GPa) = 2320.62417 33.79938 1177.21178
#
# Velocity S-wave (km/s) = 30.39476 3.66818 21.64829
# Velocity P-wave (km/s) = 35.32621 6.29385 25.37276
#
# Compressibility (1/GPa) = 0.02464644
#
# Stress axis : x y z
#
# Youngs Moduli (GPa) = 109.29382 63.01053 204.95523
#
# Poissons Ratio (x) = 0.05702 0.29635
# Poissons Ratio (y) = 0.09891 0.05644
# Poissons Ratio (z) = 0.15803 0.01735
#
# Static dielectric constant tensor:
#      x y z
#    x 1.982840 0.000000 -0.002380 
#    y 0.000000 2.075160 0.000000 
#    z -0.002380 0.000000 2.035940 
# 
# From -- ./inp_files/177938.got.cif
#   From: 2010.05.17/outbox.cif.g08.bks.cpg/sg15_89_cif.got.tgz:177938.got - 2010.06.03 18:47:42.
