data_PCOD9253631
_publ_section_title
;
Structure prediction by ZEFSAII (Michael W. Deem and Ramdas Pophale) SiO2 
 PCOD9253631
Probable space group: P 21/C
;
_chemical_formula_sum "Si O2"
_cell_formula_units_Z 12
_cell_length_a 6.000000
_cell_length_b 9.000000
_cell_length_c 15.000000
_cell_angle_alpha 90.000000
_cell_angle_beta 40.000000
_cell_angle_gamma 90.000000
_cell_volume 520.657964
_symmetry_space_group_name_H-M "P 21/C"
_symmetry_group_IT_number 14
_symmetry_cell_setting 'monoclinic'
loop_
_space_group_symop_operation_xyz
x,y,z
-x,1/2+y,1/2-z
-x,-y,-z
x,1/2-y,1/2+z
loop_
_atom_site_type_symbol
_atom_site_label
_atom_site_fract_x
_atom_site_fract_y
_atom_site_fract_z
Si Si1 0.439656 0.850584 0.460953
Si Si2 0.751859 0.885052 0.972659
Si Si3 0.249349 0.352400 0.326313
O O1 0.748489 0.750344 0.406542
O O2 0.495804 0.852355 0.336615
O O3 0.067940 0.766791 0.590527
O O4 0.500000 0.000000 0.500000
O O5 0.627150 0.833609 0.109078
O O6 0.101997 0.978337 0.873967
O O7 0.500000 0.000000 0.000000
#
# Coordination Sequence:
#
# PCOD9253631 Si02
#       3
#     4   4   4
#     4  11  23  38  62  92 122 158 203 251 304 363
#     4   9  21  40  61  85 121 160 202 250 301 358
#     4  10  22  40  62  88 121 162 202 249 303 362
#
# _framework density 23.04776
#
# number of rings (size 3 to 8) (size 9 to 14) (size 15 to 20)
#    0.000    2.000    0.000    2.000    0.000   14.667 
#    0.000    0.000    0.000    0.000    0.000    0.000 
#    0.000    0.000    0.000    0.000    0.000    0.000 
#
# Total GULP energy -66968.173305 kJ/mol
# GULP energy per Si atom -5580.681109 kJ/mol
# Density = 2.299530 g / cm^3
# Si number density = 23.047760 Si / 1000 Ang^3
#
#
#
# Elastic Constant Matrix: (Units=GPa)
#
#
# Indices 1 2 3 4 5 6 
#
# 1 101.7254 11.7835 16.1571 0.0000 38.8159 0.0000
# 2 11.7835 107.4802 21.5989 0.0000 7.4730 0.0000
# 3 16.1571 21.5989 119.5346 0.0000 34.0275 0.0000
# 4 0.0000 0.0000 0.0000 22.8586 0.0000 14.0286
# 5 38.8159 7.4730 34.0275 0.0000 45.0715 0.0000
# 6 0.0000 0.0000 0.0000 14.0286 0.0000 35.4786
#
#
#
# Elastic Compliance Matrix: (Units=1/GPa)
#
#
# Indices 1 2 3 4 5 6 
#
# 1 0.015175 -0.001112 0.002315 0.000000 -0.014632 0.000000
# 2 -0.001112 0.009741 -0.001812 0.000000 0.000710 0.000000
# 3 0.002315 -0.001812 0.011288 0.000000 -0.010215 0.000000
# 4 0.000000 0.000000 0.000000 0.057765 0.000000 -0.022841
# 5 -0.014632 0.000710 -0.010215 0.000000 0.042383 0.000000
# 6 0.000000 0.000000 0.000000 -0.022841 0.000000 0.037218
#
#
# Mechanical properties :
#
#
# Convention : Reuss Voigt Hill
#
# Bulk Modulus (GPa) = 28.58247 47.53546 38.05896
# Shear Modulus (GPa) = 26.81714 39.29514 33.05614
#
# Velocity S-wave (km/s) = 3.41478 4.13358 3.79125
# Velocity P-wave (km/s) = 5.28923 6.59177 5.97610
#
# Compressibility (1/GPa) = 0.03498648
#
# Stress axis : x y z
#
# Youngs Moduli (GPa) = 65.89950 102.66259 88.58736
#
# Poissons Ratio (x) = 0.11411 -0.20507
# Poissons Ratio (y) = 0.07325 0.16052
# Poissons Ratio (z) = -0.15255 0.18602
#
# Static dielectric constant tensor:
#      x y z
#    x 1.879780 0.000000 -0.028540 
#    y 0.000000 1.968570 0.000000 
#    z -0.028540 0.000000 1.888960 
# 
# From -- ./inp_files/4673.got.cif
#   From: 2010.05.17/outbox.ucp.g08.bks.cvg/sg14_3_cif.got.tgz:4673.got - 2010.06.11 12:31:08.
