data_PCOD9253436
_publ_section_title
;
Structure prediction by ZEFSAII (Michael W. Deem and Ramdas Pophale) SiO2 
 PCOD9253436
Probable space group: P 21/C
;
_chemical_formula_sum "Si O2"
_cell_formula_units_Z 24
_cell_length_a 10.992313
_cell_length_b 5.564907
_cell_length_c 21.962613
_cell_angle_alpha 90.000000
_cell_angle_beta 142.626354
_cell_angle_gamma 90.000000
_cell_volume 815.505922
_symmetry_space_group_name_H-M "P 21/C"
_symmetry_group_IT_number 14
_symmetry_cell_setting 'monoclinic'
loop_
_space_group_symop_operation_xyz
x,y,z
-x,1/2+y,1/2-z
-x,-y,-z
x,1/2-y,1/2+z
loop_
_atom_site_type_symbol
_atom_site_label
_atom_site_fract_x
_atom_site_fract_y
_atom_site_fract_z
Si Si1 0.505200 0.480812 0.836420
Si Si2 0.447336 0.235621 0.528376
Si Si3 0.821996 0.547906 0.667918
Si Si4 0.157203 0.003155 0.994419
Si Si5 0.783696 0.765652 0.362855
Si Si6 0.117657 0.732189 0.198182
O O1 0.567325 0.511729 0.931457
O O2 0.370168 0.274224 0.753485
O O3 0.342128 0.699112 0.769464
O O4 0.693888 0.521754 0.867679
O O5 0.669584 0.322772 0.600836
O O6 0.309374 0.235803 0.413468
O O7 0.349068 0.457406 0.528356
O O8 0.886581 0.507810 0.763185
O O9 0.019055 0.567637 0.704664
O O10 0.012076 0.773878 0.932311
O O11 0.018162 0.225787 0.914879
O O12 0.224461 0.051329 0.089816
#
# Coordination Sequence:
#
# PCOD9253436 Si02
#       6
#     4   4   4   4   4   4
#     4   9  17  30  49  74 101 130 166 207 249 298
#     4   8  15  29  49  69  96 130 163 201 247 292
#     4   9  16  29  52  72  97 135 165 202 255 296
#     4   8  15  29  49  69  96 130 163 201 247 292
#     4   9  16  29  52  72  97 135 165 202 255 296
#     4   9  17  30  49  74 101 130 166 207 249 298
#
# _framework density 29.429583000000001
#
# number of rings (size 3 to 8) (size 9 to 14) (size 15 to 20)
#    0.000    3.333    0.000    0.000    0.000    0.000 
#    0.000   15.000    0.000   90.000    0.000    0.000 
#    0.000    0.000    0.000    0.000    0.000    0.000 
#
# Total GULP energy -133952.885645 kJ/mol
# GULP energy per Si atom -5581.370235 kJ/mol
# Density = 2.936260 g / cm^3
# Si number density = 29.429583 Si / 1000 Ang^3
#
#
#
# Elastic Constant Matrix: (Units=GPa)
#
#
# Indices 1 2 3 4 5 6 
#
# 1 166.4951 76.9334 39.3531 0.0000 -2.9590 0.0000
# 2 76.9334 93.6353 70.5183 0.0000 -15.0847 0.0000
# 3 39.3531 70.5183 158.1723 0.0000 2.0347 0.0000
# 4 0.0000 0.0000 0.0000 32.4213 0.0000 -0.4274
# 5 -2.9590 -15.0847 2.0347 0.0000 54.3001 0.0000
# 6 0.0000 0.0000 0.0000 -0.4274 0.0000 42.5588
#
#
#
# Elastic Compliance Matrix: (Units=1/GPa)
#
#
# Indices 1 2 3 4 5 6 
#
# 1 0.010286 -0.010444 0.002128 0.000000 -0.002421 0.000000
# 2 -0.010444 0.028001 -0.009983 0.000000 0.007584 0.000000
# 3 0.002128 -0.009983 0.010282 0.000000 -0.003043 0.000000
# 4 0.000000 0.000000 0.000000 0.030848 0.000000 0.000310
# 5 -0.002421 0.007584 -0.003043 0.000000 0.020505 0.000000
# 6 0.000000 0.000000 0.000000 0.000310 0.000000 0.023500
#
#
# Mechanical properties :
#
#
# Convention : Reuss Voigt Hill
#
# Bulk Modulus (GPa) = 83.52674 87.99027 85.75851
# Shear Modulus (GPa) = 30.48583 41.28923 35.88753
#
# Velocity S-wave (km/s) = 3.22202 3.74971 3.49583
# Velocity P-wave (km/s) = 6.50272 6.97929 6.74522
#
# Compressibility (1/GPa) = 0.01197221
#
# Stress axis : x y z
#
# Youngs Moduli (GPa) = 97.21824 35.71311 97.25295
#
# Poissons Ratio (x) = 0.37300 -0.20699
# Poissons Ratio (y) = 1.01537 0.97085
# Poissons Ratio (z) = -0.20691 0.35652
#
# Static dielectric constant tensor:
#      x y z
#    x 2.274860 0.000000 -0.026640 
#    y 0.000000 2.177690 0.000000 
#    z -0.026640 0.000000 2.304510 
# 
# From -- ./inp_files/46187.got.cif
#   From: 2010.05.17/outbox.cif.g08.bks.cpg/sg14_24_cif.got.tgz:46187.got - 2010.06.03 17:49:19.
