data_PCOD9254261
_publ_section_title
;
Structure prediction by ZEFSAII (Michael W. Deem and Ramdas Pophale) SiO2 
 PCOD9254261
Probable space group: C 2/C
;
_chemical_formula_sum "Si O2"
_cell_formula_units_Z 52
_cell_length_a 15.291027
_cell_length_b 8.972808
_cell_length_c 16.547058
_cell_angle_alpha 90.000000
_cell_angle_beta 75.627727
_cell_angle_gamma 90.000000
_cell_volume 2199.260333
_symmetry_space_group_name_H-M "C 2/C"
_symmetry_group_IT_number 15
_symmetry_cell_setting 'monoclinic'
loop_
_space_group_symop_operation_xyz
x,y,z
-x,y,1/2-z
-x,-y,-z
x,-y,1/2+z
1/2+x,1/2+y,z
1/2-x,1/2+y,1/2-z
1/2-x,1/2-y,-z
1/2+x,1/2-y,1/2+z
loop_
_atom_site_type_symbol
_atom_site_label
_atom_site_fract_x
_atom_site_fract_y
_atom_site_fract_z
Si Si1 0.430767 0.749403 0.133660
Si Si2 0.801293 0.608789 0.453101
Si Si3 0.824986 0.526791 0.104454
Si Si4 0.181529 0.349990 0.728296
Si Si5 0.499891 0.775026 0.554507
Si Si6 0.417565 0.436105 0.207927
Si Si7 0.500000 0.044773 0.750000
O O1 0.396496 0.603743 0.186854
O O2 0.499779 0.843714 0.173632
O O3 0.349416 0.861315 0.130152
O O4 0.476882 0.711452 0.038465
O O5 0.750000 0.750000 0.500000
O O6 0.781236 0.483402 0.525568
O O7 0.775574 0.591051 0.365250
O O8 0.908077 0.651388 0.432164
O O9 0.781579 0.611256 0.190566
O O10 0.922388 0.601459 0.066201
O O11 0.156963 0.174259 0.736058
O O12 0.085276 0.438785 0.746168
O O13 0.457963 0.651502 0.621950
O O14 0.500000 0.446865 0.250000
#
# Coordination Sequence:
#
# PCOD9254261 Si02
#       7
#     8   8   8   8   8   8   4
#     4  10  18  27  48  84 110 134 176 239 286 335
#     4  11  20  34  56  83 109 146 189 233 286 344
#     4   9  20  36  59  85 107 145 199 240 279 338
#     4  10  18  34  54  75 110 149 182 234 282 345
#     4  10  19  35  55  79 112 143 188 238 289 343
#     4  11  18  30  49  80 111 139 179 229 296 332
#     4  10  16  28  52  78 106 140 184 234 280 324
#
# _framework density 23.644314000000001
#
# number of rings (size 3 to 8) (size 9 to 14) (size 15 to 20)
#    0.000    1.846    3.077    5.077    0.000    0.000 
#    0.000    3.077    0.000    0.000    0.000   56.000 
#    0.000    0.000    0.000    0.000    0.000    0.000 
#
# Total GULP energy -145294.622400 kJ/mol
# GULP energy per Si atom -5588.254708 kJ/mol
# Density = 2.359050 g / cm^3
# Si number density = 23.644314 Si / 1000 Ang^3
#
#
#
# Elastic Constant Matrix: (Units=GPa)
#
#
# Indices 1 2 3 4 5 6 
#
# 1 49.5840 16.7989 20.7725 0.0000 -12.3924 0.0000
# 2 16.7989 109.8498 26.3461 0.0000 4.3930 0.0000
# 3 20.7725 26.3461 160.6668 0.0000 -4.4397 0.0000
# 4 0.0000 0.0000 0.0000 40.2506 0.0000 8.2812
# 5 -12.3924 4.3930 -4.4397 0.0000 15.2699 0.0000
# 6 0.0000 0.0000 0.0000 8.2812 0.0000 20.9726
#
#
#
# Elastic Compliance Matrix: (Units=1/GPa)
#
#
# Indices 1 2 3 4 5 6 
#
# 1 0.028765 -0.004819 -0.002264 0.000000 0.024073 0.000000
# 2 -0.004819 0.010441 -0.001291 0.000000 -0.007290 0.000000
# 3 -0.002264 -0.001291 0.006742 0.000000 0.000494 0.000000
# 4 0.000000 0.000000 0.000000 0.027041 0.000000 -0.010677
# 5 0.024073 -0.007290 0.000494 0.000000 0.087265 0.000000
# 6 0.000000 0.000000 0.000000 -0.010677 0.000000 0.051897
#
#
# Mechanical properties :
#
#
# Convention : Reuss Voigt Hill
#
# Bulk Modulus (GPa) = 34.24363 49.77061 42.00712
# Shear Modulus (GPa) = 20.95272 32.37748 26.66510
#
# Velocity S-wave (km/s) = 2.98008 3.70450 3.36186
# Velocity P-wave (km/s) = 5.13375 6.27639 5.73361
#
# Compressibility (1/GPa) = 0.02920251
#
# Stress axis : x y z
#
# Youngs Moduli (GPa) = 34.76435 95.77353 148.32344
#
# Poissons Ratio (x) = 0.46150 0.33575
# Poissons Ratio (y) = 0.16752 0.19142
# Poissons Ratio (z) = 0.07869 0.12360
#
# Static dielectric constant tensor:
#      x y z
#    x 1.922020 0.000000 -0.005610 
#    y 0.000000 1.899960 0.000000 
#    z -0.005610 0.000000 1.985920 
# 
# From -- ./inp_files/209106.got.cif
#   From: 2010.05.17/outbox.cif.g08.bks.cpg/sg15_105_cif.got.tgz:209106.got - 2010.06.03 18:47:42.
