data_PCOD9254573
_publ_section_title
;
Structure prediction by ZEFSAII (Michael W. Deem and Ramdas Pophale) SiO2 
 PCOD9254573
Probable space group: C 2/C
;
_chemical_formula_sum "Si O2"
_cell_formula_units_Z 60
_cell_length_a 28.788632
_cell_length_b 17.576904
_cell_length_c 9.236238
_cell_angle_alpha 90.000000
_cell_angle_beta 141.830343
_cell_angle_gamma 90.000000
_cell_volume 2888.294472
_symmetry_space_group_name_H-M "C 2/C"
_symmetry_group_IT_number 15
_symmetry_cell_setting 'monoclinic'
loop_
_space_group_symop_operation_xyz
x,y,z
-x,y,1/2-z
-x,-y,-z
x,-y,1/2+z
1/2+x,1/2+y,z
1/2-x,1/2+y,1/2-z
1/2-x,1/2-y,-z
1/2+x,1/2-y,1/2+z
loop_
_atom_site_type_symbol
_atom_site_label
_atom_site_fract_x
_atom_site_fract_y
_atom_site_fract_z
Si Si1 0.631047 0.431845 0.441220
Si Si2 0.074841 0.842134 0.072142
Si Si3 0.500000 0.483956 0.750000
Si Si4 0.565849 0.938741 0.627778
Si Si5 0.804030 0.927871 0.577594
Si Si6 0.035641 0.676498 0.478793
Si Si7 0.634886 0.956932 0.088982
Si Si8 0.902172 0.795350 0.676101
O O1 0.625961 0.354606 0.336507
O O2 0.545799 0.462040 0.255823
O O3 0.668638 0.425330 0.689715
O O4 0.670763 0.495869 0.443373
O O5 0.060864 0.926239 0.967446
O O6 0.106264 0.790916 0.018550
O O7 0.990439 0.818890 0.908014
O O8 0.527715 0.857338 0.566893
O O9 0.500000 0.000000 0.500000
O O10 0.603291 0.961894 0.568148
O O11 0.629976 0.953102 0.904593
O O12 0.714701 0.931476 0.344572
O O13 0.845542 0.858227 0.598285
O O14 0.075889 0.604944 0.502684
O O15 0.097202 0.721427 0.722436
O O16 0.000000 0.718704 0.250000
#
# Coordination Sequence:
#
# PCOD9254573 Si02
#       8
#     8   8   4   8   8   8   8   8
#     4  12  20  33  52  81 113 155 193 228 282 322
#     4  10  20  35  51  79 109 147 200 240 266 326
#     4  10  16  32  52  74 108 146 198 238 268 306
#     4   9  18  39  64  87 112 137 194 251 288 331
#     4  12  22  32  56  82 122 157 179 231 289 361
#     4   9  20  38  62  83 107 146 193 244 284 333
#     4  10  21  38  58  91 116 143 186 233 301 350
#     4  10  21  37  53  82 112 152 190 230 289 334
#
# _framework density 20.773503999999999
#
# number of rings (size 3 to 8) (size 9 to 14) (size 15 to 20)
#    0.000    1.867    4.000    3.200    1.867    0.533 
#    9.600    0.000    0.000    0.800    0.000    0.000 
#    0.000    0.000    0.000    0.000    0.000    0.000 
#
# Total GULP energy -167268.667066 kJ/mol
# GULP energy per Si atom -5575.622236 kJ/mol
# Density = 2.072622 g / cm^3
# Si number density = 20.773504 Si / 1000 Ang^3
#
#
#
# Elastic Constant Matrix: (Units=GPa)
#
#
# Indices 1 2 3 4 5 6 
#
# 1 52.3011 4.4566 31.0024 0.0000 -2.7007 0.0000
# 2 4.4566 21.0466 -0.2348 0.0000 2.4330 0.0000
# 3 31.0024 -0.2348 77.4952 0.0000 -3.6560 0.0000
# 4 0.0000 0.0000 0.0000 10.3322 0.0000 -2.8052
# 5 -2.7007 2.4330 -3.6560 0.0000 22.8694 0.0000
# 6 0.0000 0.0000 0.0000 -2.8052 0.0000 0.8237
#
#
#
# Elastic Compliance Matrix: (Units=1/GPa)
#
#
# Indices 1 2 3 4 5 6 
#
# 1 0.025789 -0.005809 -0.010239 0.000000 0.002027 0.000000
# 2 -0.005809 0.049415 0.002210 0.000000 -0.005590 0.000000
# 3 -0.010239 0.002210 0.017067 0.000000 0.001284 0.000000
# 4 0.000000 0.000000 0.000000 1.285411 0.000000 4.377920
# 5 0.002027 -0.005590 0.001284 0.000000 0.044766 0.000000
# 6 0.000000 0.000000 0.000000 4.377920 0.000000 16.124652
#
#
# Mechanical properties :
#
#
# Convention : Reuss Voigt Hill
#
# Bulk Modulus (GPa) = 15.48118 24.58792 20.03455
# Shear Modulus (GPa) = 0.28415 14.51297 7.39856
#
# Velocity S-wave (km/s) = 0.37025 2.64603 1.88925
# Velocity P-wave (km/s) = 2.76610 4.60404 3.79793
#
# Compressibility (1/GPa) = 0.06459457
#
# Stress axis : x y z
#
# Youngs Moduli (GPa) = 38.77602 20.23690 58.59091
#
# Poissons Ratio (x) = 0.11756 0.59992
# Poissons Ratio (y) = 0.22526 -0.12949
# Poissons Ratio (z) = 0.39703 -0.04472
#
# Static dielectric constant tensor:
#      x y z
#    x 1.804060 0.000000 -0.040540 
#    y 0.000000 1.789330 0.000000 
#    z -0.040540 0.000000 1.801270 
# 
# From -- ./inp_files/67543.got.cif
#   From: 2010.05.17/outbox.cif.g08.bks.cpg/sg15_34_cif.got.tgz:67543.got - 2010.06.03 18:47:42.
