data_PCOD9254593
_publ_section_title
;
Structure prediction by ZEFSAII (Michael W. Deem and Ramdas Pophale) SiO2 
 PCOD9254593
Probable space group: C 2/C
;
_chemical_formula_sum "Si O2"
_cell_formula_units_Z 52
_cell_length_a 15.732624
_cell_length_b 9.727660
_cell_length_c 22.096137
_cell_angle_alpha 90.000000
_cell_angle_beta 42.972221
_cell_angle_gamma 90.000000
_cell_volume 2305.065770
_symmetry_space_group_name_H-M "C 2/C"
_symmetry_group_IT_number 15
_symmetry_cell_setting 'monoclinic'
loop_
_space_group_symop_operation_xyz
x,y,z
-x,y,1/2-z
-x,-y,-z
x,-y,1/2+z
1/2+x,1/2+y,z
1/2-x,1/2+y,1/2-z
1/2-x,1/2-y,-z
1/2+x,1/2-y,1/2+z
loop_
_atom_site_type_symbol
_atom_site_label
_atom_site_fract_x
_atom_site_fract_y
_atom_site_fract_z
Si Si1 0.500000 0.618211 0.750000
Si Si2 0.835404 0.038923 0.613609
Si Si3 0.600267 0.743664 0.821477
Si Si4 0.205685 0.553173 0.075711
Si Si5 0.381066 0.764035 0.123013
Si Si6 0.055000 0.462128 0.316229
Si Si7 0.243571 0.372389 0.418334
O O1 0.520432 0.694511 0.804536
O O2 0.634886 0.549709 0.671340
O O3 0.810276 0.036996 0.555000
O O4 0.899844 0.894134 0.596620
O O5 0.690263 0.042095 0.713148
O O6 0.907354 0.153884 0.614127
O O7 0.741504 0.733702 0.724258
O O8 0.567826 0.900564 0.850008
O O9 0.220517 0.708464 0.094479
O O10 0.068948 0.490806 0.157327
O O11 0.219404 0.570085 0.996926
O O12 0.367853 0.862224 0.071466
O O13 0.464272 0.830310 0.131485
#
# Coordination Sequence:
#
# PCOD9254593 Si02
#       7
#     4   8   8   8   8   8   8
#     4  10  16  32  54  70  96 132 172 202 244 298
#     4   9  18  32  50  75 107 131 160 211 249 292
#     4   9  17  29  53  75  95 130 173 203 244 292
#     4  10  18  29  51  75 101 127 175 201 244 293
#     4   8  17  30  49  72 103 128 166 208 248 286
#     4  10  17  29  54  77  96 134 171 204 243 296
#     4   9  18  30  49  77  97 131 167 212 238 295
#
# _framework density 22.559010000000001
#
# number of rings (size 3 to 8) (size 9 to 14) (size 15 to 20)
#    0.000    2.769    1.538    1.385    0.000    0.615 
#    0.000    0.769   16.923    0.923    0.000    0.000 
#    0.000    0.000    0.000    0.000    0.000    0.000 
#
# Total GULP energy -144866.255242 kJ/mol
# GULP energy per Si atom -5571.779048 kJ/mol
# Density = 2.250766 g / cm^3
# Si number density = 22.559010 Si / 1000 Ang^3
#
#
#
# Elastic Constant Matrix: (Units=GPa)
#
#
# Indices 1 2 3 4 5 6 
#
# 1 76.1148 21.4434 6.2756 0.0000 2.2232 0.0000
# 2 21.4434 31.4393 -4.9176 0.0000 9.6018 0.0000
# 3 6.2756 -4.9176 62.5237 0.0000 -1.5545 0.0000
# 4 0.0000 0.0000 0.0000 7.5153 0.0000 0.0659
# 5 2.2232 9.6018 -1.5545 0.0000 26.5186 0.0000
# 6 0.0000 0.0000 0.0000 0.0659 0.0000 13.9519
#
#
#
# Elastic Compliance Matrix: (Units=1/GPa)
#
#
# Indices 1 2 3 4 5 6 
#
# 1 0.016893 -0.012878 -0.002632 0.000000 0.003092 0.000000
# 2 -0.012878 0.045972 0.004528 0.000000 -0.015300 0.000000
# 3 -0.002632 0.004528 0.016603 0.000000 -0.000446 0.000000
# 4 0.000000 0.000000 0.000000 0.133067 0.000000 -0.000628
# 5 0.003092 -0.015300 -0.000446 0.000000 0.042964 0.000000
# 6 0.000000 0.000000 0.000000 -0.000628 0.000000 0.071678
#
#
# Mechanical properties :
#
#
# Convention : Reuss Voigt Hill
#
# Bulk Modulus (GPa) = 17.38984 23.96451 20.67718
# Shear Modulus (GPa) = 13.57560 19.41559 16.49560
#
# Velocity S-wave (km/s) = 2.45579 2.93688 2.70704
# Velocity P-wave (km/s) = 3.97071 4.70600 4.35390
#
# Compressibility (1/GPa) = 0.05750483
#
# Stress axis : x y z
#
# Youngs Moduli (GPa) = 59.19722 21.75246 60.22965
#
# Poissons Ratio (x) = 0.28012 0.15850
# Poissons Ratio (y) = 0.76233 -0.27272
# Poissons Ratio (z) = 0.15578 -0.09849
#
# Static dielectric constant tensor:
#      x y z
#    x 1.865550 0.000000 -0.028750 
#    y 0.000000 1.823140 0.000000 
#    z -0.028750 0.000000 1.927670 
# 
# From -- ./inp_files/243302.got.cif
#   From: 2010.05.17/outbox.cif.g08.bks.cpg/sg15_122_cif.got.tgz:243302.got - 2010.06.03 18:47:42.
