data_PCOD9254524
_publ_section_title
;
Structure prediction by ZEFSAII (Michael W. Deem and Ramdas Pophale) SiO2 
 PCOD9254524
Probable space group: C 2/C
;
_chemical_formula_sum "Si O2"
_cell_formula_units_Z 44
_cell_length_a 6.800802
_cell_length_b 13.218992
_cell_length_c 19.498165
_cell_angle_alpha 90.000000
_cell_angle_beta 93.282823
_cell_angle_gamma 90.000000
_cell_volume 1750.003680
_symmetry_space_group_name_H-M "C 2/C"
_symmetry_group_IT_number 15
_symmetry_cell_setting 'monoclinic'
loop_
_space_group_symop_operation_xyz
x,y,z
-x,y,1/2-z
-x,-y,-z
x,-y,1/2+z
1/2+x,1/2+y,z
1/2-x,1/2+y,1/2-z
1/2-x,1/2-y,-z
1/2+x,1/2-y,1/2+z
loop_
_atom_site_type_symbol
_atom_site_label
_atom_site_fract_x
_atom_site_fract_y
_atom_site_fract_z
Si Si1 0.223799 0.586786 0.987471
Si Si2 0.432664 0.021047 0.884238
Si Si3 0.500270 0.284216 0.560355
Si Si4 0.803020 0.771373 0.156485
Si Si5 0.259577 0.776910 0.191699
Si Si6 0.000000 0.468508 0.250000
O O1 0.176709 0.526532 0.054583
O O2 0.438973 0.629469 0.005968
O O3 0.073882 0.682831 0.979272
O O4 0.155118 0.530791 0.918201
O O5 0.314171 0.123458 0.861248
O O6 0.429661 0.964130 0.811899
O O7 0.721609 0.292726 0.591203
O O8 0.376139 0.275882 0.630764
O O9 0.737548 0.731902 0.230726
O O10 0.034508 0.786624 0.163886
O O11 0.346610 0.889446 0.211685
#
# Coordination Sequence:
#
# PCOD9254524 Si02
#       6
#     8   8   8   8   8   4
#     4   9  18  31  56  75 113 141 181 220 284 318
#     4   9  17  34  53  80 104 148 180 231 266 333
#     4  10  17  33  53  78 106 149 173 226 276 331
#     4   9  18  30  56  78 105 137 194 221 270 321
#     4  10  16  31  55  79 100 143 185 228 258 336
#     4  10  16  32  60  74 104 146 190 222 282 322
#
# _framework density 25.142804999999999
#
# number of rings (size 3 to 8) (size 9 to 14) (size 15 to 20)
#    0.000    2.545    5.455    0.000    0.000    0.000 
#    0.000   10.909   20.000    0.000    0.000    0.000 
#    0.000    0.000    0.000    0.000    0.000    0.000 
#
# Total GULP energy -122625.927946 kJ/mol
# GULP energy per Si atom -5573.905816 kJ/mol
# Density = 2.508558 g / cm^3
# Si number density = 25.142805 Si / 1000 Ang^3
#
#
#
# Elastic Constant Matrix: (Units=GPa)
#
#
# Indices 1 2 3 4 5 6 
#
# 1 100.5523 5.8543 48.4784 0.0000 37.2411 0.0000
# 2 5.8543 39.9904 38.4192 0.0000 10.4682 0.0000
# 3 48.4784 38.4192 152.7451 0.0000 22.3303 0.0000
# 4 0.0000 0.0000 0.0000 21.0147 0.0000 -5.1927
# 5 37.2411 10.4682 22.3303 0.0000 52.2431 0.0000
# 6 0.0000 0.0000 0.0000 -5.1927 0.0000 5.6545
#
#
#
# Elastic Compliance Matrix: (Units=1/GPa)
#
#
# Indices 1 2 3 4 5 6 
#
# 1 0.015702 0.004906 -0.004733 0.000000 -0.010153 0.000000
# 2 0.004906 0.035038 -0.009421 0.000000 -0.006491 0.000000
# 3 -0.004733 -0.009421 0.010293 0.000000 0.000862 0.000000
# 4 0.000000 0.000000 0.000000 0.061553 0.000000 0.056526
# 5 -0.010153 -0.006491 0.000862 0.000000 0.027311 0.000000
# 6 0.000000 0.000000 0.000000 0.056526 0.000000 0.228758
#
#
# Mechanical properties :
#
#
# Convention : Reuss Voigt Hill
#
# Bulk Modulus (GPa) = 23.50940 53.19909 38.35425
# Shear Modulus (GPa) = 12.15573 29.15153 20.65363
#
# Velocity S-wave (km/s) = 2.20117 3.40875 2.86921
# Velocity P-wave (km/s) = 3.97880 6.05784 5.12486
#
# Compressibility (1/GPa) = 0.04253617
#
# Stress axis : x y z
#
# Youngs Moduli (GPa) = 63.68764 28.54054 97.15672
#
# Poissons Ratio (x) = -0.14003 0.45986
# Poissons Ratio (y) = -0.31247 0.91532
# Poissons Ratio (z) = 0.30145 0.26888
#
# Static dielectric constant tensor:
#      x y z
#    x 2.055320 0.000000 -0.041590 
#    y 0.000000 2.154170 0.000000 
#    z -0.041590 0.000000 1.996250 
# 
# From -- ./inp_files/190032.got.cif
#   From: 2010.05.17/outbox.cif.g08.bks.cpg/sg15_96_cif.got.tgz:190032.got - 2010.06.03 18:47:42.
