data_PCOD9254950
_publ_section_title
;
Structure prediction by ZEFSAII (Michael W. Deem and Ramdas Pophale) SiO2 
 PCOD9254950
Probable space group: C 2/C
;
_chemical_formula_sum "Si O2"
_cell_formula_units_Z 48
_cell_length_a 7.864218
_cell_length_b 28.241230
_cell_length_c 10.165545
_cell_angle_alpha 90.000000
_cell_angle_beta 117.395829
_cell_angle_gamma 90.000000
_cell_volume 2004.512977
_symmetry_space_group_name_H-M "C 2/C"
_symmetry_group_IT_number 15
_symmetry_cell_setting 'monoclinic'
loop_
_space_group_symop_operation_xyz
x,y,z
-x,y,1/2-z
-x,-y,-z
x,-y,1/2+z
1/2+x,1/2+y,z
1/2-x,1/2+y,1/2-z
1/2-x,1/2-y,-z
1/2+x,1/2-y,1/2+z
loop_
_atom_site_type_symbol
_atom_site_label
_atom_site_fract_x
_atom_site_fract_y
_atom_site_fract_z
Si Si1 0.761618 0.925772 0.889289
Si Si2 0.663858 0.723499 0.696044
Si Si3 0.500000 0.151530 0.250000
Si Si4 0.466481 0.089327 0.916629
Si Si5 0.977859 0.692639 0.505402
Si Si6 0.000000 0.507742 0.750000
Si Si7 0.901375 0.880072 0.359981
O O1 0.675987 0.882459 0.774375
O O2 0.685237 0.973744 0.797543
O O3 0.644464 0.920873 0.985920
O O4 0.978366 0.914129 0.002584
O O5 0.500000 0.729379 0.750000
O O6 0.865911 0.713866 0.839879
O O7 0.667754 0.767845 0.598926
O O8 0.608652 0.674792 0.602300
O O9 0.578498 0.180413 0.400958
O O10 0.577270 0.139581 0.967618
O O11 0.547531 0.040088 0.893268
O O12 0.305457 0.100655 0.749692
O O13 0.000000 0.878794 0.250000
#
# Coordination Sequence:
#
# PCOD9254950 Si02
#       7
#     8   8   4   8   8   4   8
#     4   9  18  31  49  73  97 127 161 208 254 303
#     4  10  17  25  44  72 105 135 153 196 256 311
#     4   9  16  26  42  72 106 126 148 198 253 308
#     4   9  19  34  47  72 100 131 167 209 245 295
#     4  10  19  27  44  71 104 131 164 195 248 303
#     4  11  20  32  54  68  96 136 174 206 247 290
#     4   8  16  30  47  69 104 125 154 204 252 296
#
# _framework density 23.945968000000001
#
# number of rings (size 3 to 8) (size 9 to 14) (size 15 to 20)
#    0.000    2.667    0.833    4.000    2.333    0.667 
#    0.000    0.000    0.000    4.000    0.000    0.000 
#    0.000    0.000    0.000    0.000    0.000    0.000 
#
# Total GULP energy -133781.791428 kJ/mol
# GULP energy per Si atom -5574.241309 kJ/mol
# Density = 2.389147 g / cm^3
# Si number density = 23.945968 Si / 1000 Ang^3
#
#
#
# Elastic Constant Matrix: (Units=GPa)
#
#
# Indices 1 2 3 4 5 6 
#
# 1 23.5059 18.4705 24.2611 0.0000 -10.1241 0.0000
# 2 18.4705 142.0131 58.0351 0.0000 6.8810 0.0000
# 3 24.2611 58.0351 126.8990 0.0000 19.3953 0.0000
# 4 0.0000 0.0000 0.0000 47.4211 0.0000 -8.0996
# 5 -10.1241 6.8810 19.3953 0.0000 25.2945 0.0000
# 6 0.0000 0.0000 0.0000 -8.0996 0.0000 6.9317
#
#
#
# Elastic Compliance Matrix: (Units=1/GPa)
#
#
# Indices 1 2 3 4 5 6 
#
# 1 0.100281 -0.005343 -0.026150 0.000000 0.061642 0.000000
# 2 -0.005343 0.008958 -0.002691 0.000000 -0.002512 0.000000
# 3 -0.026150 -0.002691 0.017669 0.000000 -0.023283 0.000000
# 4 0.000000 0.000000 0.000000 0.026346 0.000000 0.030785
# 5 0.061642 -0.002512 -0.023283 0.000000 0.082743 0.000000
# 6 0.000000 0.000000 0.000000 0.030785 0.000000 0.180237
#
#
# Mechanical properties :
#
#
# Convention : Reuss Voigt Hill
#
# Bulk Modulus (GPa) = 17.08261 54.88348 35.98305
# Shear Modulus (GPa) = 9.91838 28.70622 19.31230
#
# Velocity S-wave (km/s) = 2.03739 3.46611 2.84297
# Velocity P-wave (km/s) = 3.56145 6.24404 5.08291
#
# Compressibility (1/GPa) = 0.05853906
#
# Stress axis : x y z
#
# Youngs Moduli (GPa) = 9.97202 111.63071 56.59573
#
# Poissons Ratio (x) = 0.59644 1.47998
# Poissons Ratio (y) = 0.05328 0.15232
# Poissons Ratio (z) = 0.26077 0.30045
#
# Static dielectric constant tensor:
#      x y z
#    x 2.003780 0.000000 -0.062730 
#    y 0.000000 2.031290 0.000000 
#    z -0.062730 0.000000 1.950160 
# 
# From -- ./inp_files/43992.got.cif
#   From: 2010.05.17/outbox.cif.g08.bks.cpg/sg15_22_cif.got.tgz:43992.got - 2010.06.03 18:47:42.
