data_PCOD9254357
_publ_section_title
;
Structure prediction by ZEFSAII (Michael W. Deem and Ramdas Pophale) SiO2 
 PCOD9254357
Probable space group: C 2/C
;
_chemical_formula_sum "Si O2"
_cell_formula_units_Z 52
_cell_length_a 5.269028
_cell_length_b 13.217560
_cell_length_c 29.004883
_cell_angle_alpha 90.000000
_cell_angle_beta 92.574943
_cell_angle_gamma 90.000000
_cell_volume 2017.967613
_symmetry_space_group_name_H-M "C 2/C"
_symmetry_group_IT_number 15
_symmetry_cell_setting 'monoclinic'
loop_
_space_group_symop_operation_xyz
x,y,z
-x,y,1/2-z
-x,-y,-z
x,-y,1/2+z
1/2+x,1/2+y,z
1/2-x,1/2+y,1/2-z
1/2-x,1/2-y,-z
1/2+x,1/2-y,1/2+z
loop_
_atom_site_type_symbol
_atom_site_label
_atom_site_fract_x
_atom_site_fract_y
_atom_site_fract_z
Si Si1 0.260895 0.820857 0.660966
Si Si2 0.249361 0.073341 0.723111
Si Si3 0.057427 0.380104 0.507608
Si Si4 0.500000 0.275192 0.750000
Si Si5 0.027950 0.125095 0.632859
Si Si6 0.741518 0.167842 0.111431
Si Si7 0.546961 0.403452 0.467817
O O1 0.315460 0.698016 0.655219
O O2 0.532360 0.867798 0.648164
O O3 0.152606 0.833946 0.711685
O O4 0.034083 0.853222 0.624861
O O5 0.500000 0.030293 0.750000
O O6 0.304815 0.195620 0.724704
O O7 0.171626 0.054173 0.669978
O O8 0.000000 0.052103 0.750000
O O9 0.129334 0.363725 0.561291
O O10 0.289240 0.345512 0.477860
O O11 0.000000 0.500000 0.500000
O O12 0.791966 0.343069 0.485347
O O13 0.219277 0.211044 0.616600
O O14 0.929006 0.072393 0.585918
O O15 0.500000 0.500000 0.500000
#
# Coordination Sequence:
#
# PCOD9254357 Si02
#       7
#     8   8   8   4   8   8   8
#     4  10  20  30  51  84 118 151 183 226 289 343
#     4  10  17  28  47  76 111 149 173 217 278 337
#     4  10  22  40  56  74 110 145 201 240 278 336
#     4  10  16  30  48  74 124 146 174 216 282 342
#     4  10  21  33  54  81 123 145 187 238 284 339
#     4  10  20  34  51  83 111 149 188 233 285 330
#     4  10  23  38  56  77 109 151 203 237 287 339
#
# _framework density 25.768498999999998
#
# number of rings (size 3 to 8) (size 9 to 14) (size 15 to 20)
#    1.385    0.615    3.077    0.923    2.154    1.231 
#    0.000    0.000    0.000    0.000    0.000    0.000 
#   92.308    0.000    0.000    0.000    0.000    0.000 
#
# Total GULP energy -145125.872202 kJ/mol
# GULP energy per Si atom -5581.764315 kJ/mol
# Density = 2.570985 g / cm^3
# Si number density = 25.768499 Si / 1000 Ang^3
#
#
#
# Elastic Constant Matrix: (Units=GPa)
#
#
# Indices 1 2 3 4 5 6 
#
# 1 201.7531 -2.1860 59.0554 0.0000 23.2565 0.0000
# 2 -2.1860 49.1639 33.3423 0.0000 6.6890 0.0000
# 3 59.0554 33.3423 201.5958 0.0000 12.4968 0.0000
# 4 0.0000 0.0000 0.0000 42.2048 0.0000 0.2967
# 5 23.2565 6.6890 12.4968 0.0000 49.0867 0.0000
# 6 0.0000 0.0000 0.0000 0.2967 0.0000 -3.3986
#
#
#
# Elastic Compliance Matrix: (Units=1/GPa)
#
#
# Indices 1 2 3 4 5 6 
#
# 1 0.005811 0.001860 -0.001853 0.000000 -0.002535 0.000000
# 2 0.001860 0.023740 -0.004284 0.000000 -0.003026 0.000000
# 3 -0.001853 -0.004284 0.006219 0.000000 -0.000122 0.000000
# 4 0.000000 0.000000 0.000000 0.023679 0.000000 0.002067
# 5 -0.002535 -0.003026 -0.000122 0.000000 0.022016 0.000000
# 6 0.000000 0.000000 0.000000 0.002067 0.000000 -0.294062
#
#
# Mechanical properties :
#
#
# Convention : Reuss Voigt Hill
#
# Bulk Modulus (GPa) = 36.74192 70.32625 53.53409
# Shear Modulus (GPa) = -25.64493 41.73199 8.04353
#
# Velocity S-wave (km/s) = -3.15811 4.02866 1.76868
# Velocity P-wave (km/s) = 0.99560 6.99935 4.99911
#
# Compressibility (1/GPa) = 0.02721687
#
# Stress axis : x y z
#
# Youngs Moduli (GPa) = 172.07972 42.12384 160.79233
#
# Poissons Ratio (x) = -0.07834 0.29792
# Poissons Ratio (y) = -0.32004 0.68877
# Poissons Ratio (z) = 0.31883 0.18044
#
# Static dielectric constant tensor:
#      x y z
#    x 2.439120 0.000000 0.085680 
#    y 0.000000 1.833710 0.000000 
#    z 0.085680 0.000000 2.030030 
# 
# From -- ./inp_files/285913.got.cif
#   From: 2010.05.17/outbox.cif.g08.bks.cpg/sg15_143_cif.got.tgz:285913.got - 2010.06.03 18:47:42.
