data_PCOD9254119
_publ_section_title
;
Structure prediction by ZEFSAII (Michael W. Deem and Ramdas Pophale) SiO2 
 PCOD9254119
Probable space group: C 2/C
;
_chemical_formula_sum "Si O2"
_cell_formula_units_Z 56
_cell_length_a 21.134426
_cell_length_b 18.818855
_cell_length_c 18.312524
_cell_angle_alpha 90.000000
_cell_angle_beta 25.224071
_cell_angle_gamma 90.000000
_cell_volume 3103.872838
_symmetry_space_group_name_H-M "C 2/C"
_symmetry_group_IT_number 15
_symmetry_cell_setting 'monoclinic'
loop_
_space_group_symop_operation_xyz
x,y,z
-x,y,1/2-z
-x,-y,-z
x,-y,1/2+z
1/2+x,1/2+y,z
1/2-x,1/2+y,1/2-z
1/2-x,1/2-y,-z
1/2+x,1/2-y,1/2+z
loop_
_atom_site_type_symbol
_atom_site_label
_atom_site_fract_x
_atom_site_fract_y
_atom_site_fract_z
Si Si1 0.404225 0.101266 0.457320
Si Si2 0.491382 0.274830 0.994915
Si Si3 0.149867 0.873788 0.927010
Si Si4 0.887002 0.502222 0.185618
Si Si5 0.804600 0.647479 0.727868
Si Si6 0.892327 0.120500 0.797503
Si Si7 0.868628 0.722276 0.279612
O O1 0.337955 0.125651 0.606997
O O2 0.268708 0.087312 0.544798
O O3 0.506743 0.166962 0.325776
O O4 0.511943 0.034393 0.355725
O O5 0.621012 0.329412 0.883934
O O6 0.570537 0.205267 0.880401
O O7 0.356389 0.315803 0.097977
O O8 0.421427 0.248080 0.144424
O O9 0.219331 0.821026 0.916268
O O10 0.261054 0.938785 0.802772
O O11 0.989568 0.895926 0.124056
O O12 0.819242 0.424019 0.259481
O O13 0.000000 0.500000 0.000000
O O14 0.860028 0.205529 0.833820
O O15 0.000000 0.098135 0.750000
#
# Coordination Sequence:
#
# PCOD9254119 Si02
#       7
#     8   8   8   8   8   8   8
#     4   9  17  31  42  60  93 122 155 202 228 262
#     4  10  16  26  45  65  93 119 154 188 230 268
#     4  10  18  31  45  63  94 129 160 197 226 266
#     4   9  20  32  46  63  87 124 168 185 227 283
#     4  10  17  29  45  65  89 124 158 186 227 285
#     4  11  20  29  44  67  90 122 168 206 229 254
#     4   9  16  28  43  58  88 129 158 194 229 251
#
# _framework density 18.041975999999998
#
# number of rings (size 3 to 8) (size 9 to 14) (size 15 to 20)
#    0.000    2.286    4.286    2.571    0.000    2.857 
#    0.000    2.143    0.000    0.000    0.000    0.000 
#    0.000    0.000    0.000   12.857    0.000    0.000 
#
# Total GULP energy -156088.596853 kJ/mol
# GULP energy per Si atom -5574.592745 kJ/mol
# Density = 1.800091 g / cm^3
# Si number density = 18.041976 Si / 1000 Ang^3
#
#
#
# Elastic Constant Matrix: (Units=GPa)
#
#
# Indices 1 2 3 4 5 6 
#
# 1 30.5266 33.2058 21.9039 -0.0006 -19.8449 0.0001
# 2 33.2058 119.6883 50.0297 -0.0001 -23.1007 0.0000
# 3 21.9039 50.0297 82.5948 -0.0009 -33.2160 0.0005
# 4 -0.0006 -0.0001 -0.0009 26.5401 0.0007 -1.3095
# 5 -19.8449 -23.1007 -33.2160 0.0007 30.8122 -0.0002
# 6 0.0001 0.0000 0.0005 -1.3095 -0.0002 1.3317
#
#
#
# Elastic Compliance Matrix: (Units=1/GPa)
#
#
# Indices 1 2 3 4 5 6 
#
# 1 0.071060 -0.014435 0.006976 0.000000 0.042465 -0.000003
# 2 -0.014435 0.014184 -0.007460 0.000000 -0.006704 0.000003
# 3 0.006976 -0.007460 0.025303 0.000000 0.026177 -0.000007
# 4 0.000000 0.000000 0.000000 0.039600 -0.000001 0.038943
# 5 0.042465 -0.006704 0.026177 -0.000001 0.082998 -0.000002
# 6 -0.000003 0.000003 -0.000007 0.038943 -0.000002 0.789238
#
#
# Mechanical properties :
#
#
# Convention : Reuss Voigt Hill
#
# Bulk Modulus (GPa) = 12.38993 49.23209 30.81101
# Shear Modulus (GPa) = 4.63339 20.24813 12.44076
#
# Velocity S-wave (km/s) = 1.60427 3.35368 2.62877
# Velocity P-wave (km/s) = 3.21151 6.50715 5.13112
#
# Compressibility (1/GPa) = 0.08071069
#
# Stress axis : x y z
#
# Youngs Moduli (GPa) = 14.07261 70.50260 39.52060
#
# Poissons Ratio (x) = 1.01767 -0.27570
# Poissons Ratio (y) = 0.20313 0.29481
# Poissons Ratio (z) = -0.09817 0.52593
#
# Static dielectric constant tensor:
#      x y z
#    x 1.646520 0.000000 -0.015710 
#    y 0.000000 1.645180 0.000000 
#    z -0.015710 0.000000 1.669210 
# 
# From -- ./inp_files/56158.got.cif
#   From: 2010.05.17/outbox.cif.g08.bks.cpg/sg15_29_cif.got.tgz:56158.got - 2010.06.03 18:47:42.
