data_PCOD9254310
_publ_section_title
;
Structure prediction by ZEFSAII (Michael W. Deem and Ramdas Pophale) SiO2 
 PCOD9254310
Probable space group: C 2/C
;
_chemical_formula_sum "Si O2"
_cell_formula_units_Z 64
_cell_length_a 21.108475
_cell_length_b 30.949404
_cell_length_c 5.731740
_cell_angle_alpha 90.000000
_cell_angle_beta 85.277531
_cell_angle_gamma 90.000000
_cell_volume 3731.803516
_symmetry_space_group_name_H-M "C 2/C"
_symmetry_group_IT_number 15
_symmetry_cell_setting 'monoclinic'
loop_
_space_group_symop_operation_xyz
x,y,z
-x,y,1/2-z
-x,-y,-z
x,-y,1/2+z
1/2+x,1/2+y,z
1/2-x,1/2+y,1/2-z
1/2-x,1/2-y,-z
1/2+x,1/2-y,1/2+z
loop_
_atom_site_type_symbol
_atom_site_label
_atom_site_fract_x
_atom_site_fract_y
_atom_site_fract_z
Si Si1 0.968513 0.191384 0.004378
Si Si2 0.663895 0.676975 0.959816
Si Si3 0.659475 0.738471 0.329186
Si Si4 0.588678 0.615057 0.688941
Si Si5 0.712030 0.389000 0.834664
Si Si6 0.231775 0.987534 0.760011
Si Si7 0.769088 0.314181 0.035253
Si Si8 0.585158 0.519383 0.832856
O O1 0.899023 0.214223 0.032498
O O2 0.000000 0.199869 0.250000
O O3 0.957250 0.139378 0.978421
O O4 0.000000 0.206446 0.750000
O O5 0.650182 0.724472 0.064442
O O6 0.683508 0.642633 0.150083
O O7 0.604021 0.653322 0.864920
O O8 0.722674 0.681288 0.769633
O O9 0.726627 0.715398 0.373825
O O10 0.669512 0.787543 0.403950
O O11 0.655987 0.605951 0.541481
O O12 0.570810 0.570114 0.811032
O O13 0.725856 0.436072 0.735681
O O14 0.770770 0.361952 0.925265
O O15 0.261388 0.004523 0.508503
O O16 0.161590 0.009639 0.805088
O O17 0.563211 0.497908 0.593361
#
# Coordination Sequence:
#
# PCOD9254310 Si02
#       8
#     8   8   8   8   8   8   8   8
#     4  12  26  40  55  74  97 137 173 215 262 307
#     4  10  16  29  50  75  96 129 154 210 259 303
#     4  10  19  35  50  74 101 123 168 204 263 316
#     4  11  20  33  51  68  99 123 171 218 249 304
#     4  10  18  28  48  75  99 125 165 208 255 306
#     4  10  18  28  43  72  98 128 164 197 243 304
#     4   9  19  30  52  77  98 127 156 215 264 300
#     4  10  19  29  48  74  89 124 162 206 262 301
#
# _framework density 17.149885999999999
#
# number of rings (size 3 to 8) (size 9 to 14) (size 15 to 20)
#    0.000    1.750    6.250    2.625    1.750    0.000 
#    0.000    0.000    0.000    2.250    0.000    0.000 
#    0.000    0.000    0.000    0.000    0.000    3.750 
#
# Total GULP energy -178176.372497 kJ/mol
# GULP energy per Si atom -5568.011641 kJ/mol
# Density = 1.711085 g / cm^3
# Si number density = 17.149886 Si / 1000 Ang^3
#
#
#
# Elastic Constant Matrix: (Units=GPa)
#
#
# Indices 1 2 3 4 5 6 
#
# 1 26.2531 25.8251 12.9158 0.0000 6.6922 0.0000
# 2 25.8251 71.2040 19.9946 0.0000 16.0935 0.0000
# 3 12.9158 19.9946 97.3793 0.0000 1.7445 0.0000
# 4 0.0000 0.0000 0.0000 19.6446 0.0000 6.0529
# 5 6.6922 16.0935 1.7445 0.0000 13.4703 0.0000
# 6 0.0000 0.0000 0.0000 6.0529 0.0000 7.9841
#
#
#
# Elastic Compliance Matrix: (Units=1/GPa)
#
#
# Indices 1 2 3 4 5 6 
#
# 1 0.060868 -0.019518 -0.003951 0.000000 -0.006409 0.000000
# 2 -0.019518 0.026803 -0.002521 0.000000 -0.022000 0.000000
# 3 -0.003951 -0.002521 0.011248 0.000000 0.003518 0.000000
# 4 0.000000 0.000000 0.000000 0.066420 0.000000 -0.050354
# 5 -0.006409 -0.022000 0.003518 0.000000 0.103250 0.000000
# 6 0.000000 0.000000 0.000000 -0.050354 0.000000 0.163425
#
#
# Mechanical properties :
#
#
# Convention : Reuss Voigt Hill
#
# Bulk Modulus (GPa) = 21.30380 34.70082 28.00231
# Shear Modulus (GPa) = 10.00722 17.29319 13.65021
#
# Velocity S-wave (km/s) = 2.41823 3.17891 2.82429
# Velocity P-wave (km/s) = 4.49958 5.80962 5.19605
#
# Compressibility (1/GPa) = 0.04693997
#
# Stress axis : x y z
#
# Youngs Moduli (GPa) = 16.42894 37.30867 88.90748
#
# Poissons Ratio (x) = 0.72820 0.35125
# Poissons Ratio (y) = 0.32067 0.22410
# Poissons Ratio (z) = 0.06491 0.09404
#
# Static dielectric constant tensor:
#      x y z
#    x 1.596440 0.000000 0.011680 
#    y 0.000000 1.598060 0.000000 
#    z 0.011680 0.000000 1.715720 
# 
# From -- ./inp_files/16564.got.cif
#   From: 2010.05.17/outbox.cif.g08.bks.cpg/sg15_9_cif.got.tgz:16564.got - 2010.06.03 18:47:42.
