data_PCOD9254642
_publ_section_title
;
Structure prediction by ZEFSAII (Michael W. Deem and Ramdas Pophale) SiO2 
 PCOD9254642
Probable space group: C 2/C
;
_chemical_formula_sum "Si O2"
_cell_formula_units_Z 40
_cell_length_a 12.334022
_cell_length_b 27.321073
_cell_length_c 5.193678
_cell_angle_alpha 90.000000
_cell_angle_beta 81.936006
_cell_angle_gamma 90.000000
_cell_volume 1732.853383
_symmetry_space_group_name_H-M "C 2/C"
_symmetry_group_IT_number 15
_symmetry_cell_setting 'monoclinic'
loop_
_space_group_symop_operation_xyz
x,y,z
-x,y,1/2-z
-x,-y,-z
x,-y,1/2+z
1/2+x,1/2+y,z
1/2-x,1/2+y,1/2-z
1/2-x,1/2-y,-z
1/2+x,1/2-y,1/2+z
loop_
_atom_site_type_symbol
_atom_site_label
_atom_site_fract_x
_atom_site_fract_y
_atom_site_fract_z
Si Si1 0.241089 0.686598 0.255161
Si Si2 0.548937 0.943966 0.482685
Si Si3 0.374053 0.210991 0.712175
Si Si4 0.567269 0.382446 0.991386
Si Si5 0.799435 0.029832 0.840739
O O1 0.314306 0.736076 0.243835
O O2 0.189217 0.678685 0.552675
O O3 0.324750 0.646281 0.128752
O O4 0.148155 0.692760 0.068925
O O5 0.500000 0.918868 0.250000
O O6 0.678301 0.948624 0.429152
O O7 0.500000 0.000000 0.500000
O O8 0.500000 0.919768 0.750000
O O9 0.500000 0.215351 0.750000
O O10 0.500000 0.388684 0.750000
O O11 0.500000 0.357331 0.250000
O O12 0.609596 0.432534 0.101402
O O13 0.807769 0.015124 0.539515
#
# Coordination Sequence:
#
# PCOD9254642 Si02
#       5
#     8   8   8   8   8
#     4  10  22  40  64  96 129 171 209 250 316 390
#     4  10  16  32  58  84 109 147 195 262 308 384
#     4  10  20  38  69  98 130 163 207 258 308 380
#     4  12  27  45  63  88 129 173 217 269 324 377
#     4  12  23  39  64  89 119 160 222 270 307 377
#
# _framework density 23.083314999999999
#
# number of rings (size 3 to 8) (size 9 to 14) (size 15 to 20)
#    0.000    1.200    4.000    3.600    0.000    5.600 
#    0.000    3.000    0.000    0.000    0.000    0.000 
#    0.000    0.000    0.000    0.000    0.000    0.000 
#
# Total GULP energy -111906.233881 kJ/mol
# GULP energy per Si atom -5595.311694 kJ/mol
# Density = 2.303078 g / cm^3
# Si number density = 23.083315 Si / 1000 Ang^3
#
#
#
# Elastic Constant Matrix: (Units=GPa)
#
#
# Indices 1 2 3 4 5 6 
#
# 1 151.1459 25.9396 37.7265 0.0000 23.5247 0.0000
# 2 25.9396 21.9991 4.9767 0.0000 -2.7505 0.0000
# 3 37.7265 4.9767 119.2828 0.0000 10.5415 0.0000
# 4 0.0000 0.0000 0.0000 10.3906 0.0000 -2.5975
# 5 23.5247 -2.7505 10.5415 0.0000 42.9030 0.0000
# 6 0.0000 0.0000 0.0000 -2.5975 0.0000 11.7038
#
#
#
# Elastic Compliance Matrix: (Units=1/GPa)
#
#
# Indices 1 2 3 4 5 6 
#
# 1 0.010166 -0.012218 -0.002191 0.000000 -0.005819 0.000000
# 2 -0.012218 0.061092 0.000386 0.000000 0.010521 0.000000
# 3 -0.002191 0.000386 0.009151 0.000000 -0.001022 0.000000
# 4 0.000000 0.000000 0.000000 0.101895 0.000000 0.022614
# 5 -0.005819 0.010521 -0.001022 0.000000 0.027425 0.000000
# 6 0.000000 0.000000 0.000000 0.022614 0.000000 0.090461
#
#
# Mechanical properties :
#
#
# Convention : Reuss Voigt Hill
#
# Bulk Modulus (GPa) = 19.09844 47.74595 33.42219
# Shear Modulus (GPa) = 14.46384 27.91847 21.19116
#
# Velocity S-wave (km/s) = 2.50590 3.48151 3.03319
# Velocity P-wave (km/s) = 4.08220 6.07374 5.17468
#
# Compressibility (1/GPa) = 0.05236029
#
# Stress axis : x y z
#
# Youngs Moduli (GPa) = 98.37071 16.36889 109.28137
#
# Poissons Ratio (x) = 0.20000 0.23945
# Poissons Ratio (y) = 1.20193 -0.04215
# Poissons Ratio (z) = 0.21554 -0.00631
#
# Static dielectric constant tensor:
#      x y z
#    x 1.826440 0.000000 -0.016510 
#    y 0.000000 1.876770 0.000000 
#    z -0.016510 0.000000 1.865480 
# 
# From -- ./inp_files/4931.got.cif
#   From: 2010.05.17/outbox.cif.g08.bks.cpg/sg15_3_cif.got.tgz:4931.got - 2010.06.03 18:47:42.
