data_PCOD9254540
_publ_section_title
;
Structure prediction by ZEFSAII (Michael W. Deem and Ramdas Pophale) SiO2 
 PCOD9254540
Probable space group: C 2/C
;
_chemical_formula_sum "Si O2"
_cell_formula_units_Z 56
_cell_length_a 14.841079
_cell_length_b 10.421196
_cell_length_c 15.114404
_cell_angle_alpha 90.000000
_cell_angle_beta 97.575941
_cell_angle_gamma 90.000000
_cell_volume 2317.215705
_symmetry_space_group_name_H-M "C 2/C"
_symmetry_group_IT_number 15
_symmetry_cell_setting 'monoclinic'
loop_
_space_group_symop_operation_xyz
x,y,z
-x,y,1/2-z
-x,-y,-z
x,-y,1/2+z
1/2+x,1/2+y,z
1/2-x,1/2+y,1/2-z
1/2-x,1/2-y,-z
1/2+x,1/2-y,1/2+z
loop_
_atom_site_type_symbol
_atom_site_label
_atom_site_fract_x
_atom_site_fract_y
_atom_site_fract_z
Si Si1 0.617806 0.803597 0.723121
Si Si2 0.639378 0.002478 0.451200
Si Si3 0.463561 0.085188 0.836992
Si Si4 0.221484 0.416825 0.123404
Si Si5 0.277361 0.551448 0.306791
Si Si6 0.540499 0.551081 0.655738
Si Si7 0.105977 0.213458 0.916063
O O1 0.574260 0.939671 0.689562
O O2 0.723723 0.826946 0.759648
O O3 0.597798 0.685210 0.658003
O O4 0.579824 0.759936 0.813344
O O5 0.549647 0.924435 0.412926
O O6 0.688470 0.971921 0.550036
O O7 0.709976 0.006047 0.377802
O O8 0.604395 0.149474 0.462529
O O9 0.500000 0.139873 0.750000
O O10 0.370937 0.149209 0.855883
O O11 0.273643 0.463670 0.217739
O O12 0.291356 0.334559 0.075816
O O13 0.381148 0.552922 0.351913
O O14 0.500000 0.524796 0.750000
O O15 0.457552 0.588881 0.580072
#
# Coordination Sequence:
#
# PCOD9254540 Si02
#       7
#     8   8   8   8   8   8   8
#     4   9  16  29  54  78 104 133 182 219 259 308
#     4  11  21  35  54  84 106 140 182 231 270 313
#     4  11  17  33  54  80 105 141 175 221 270 320
#     4  11  21  31  53  85 111 135 180 234 269 310
#     4  10  20  32  55  83 107 140 179 227 270 318
#     4  10  16  31  58  77 100 145 183 216 265 321
#     4  10  18  33  54  83 105 134 187 228 262 315
#
# _framework density 24.166934999999999
#
# number of rings (size 3 to 8) (size 9 to 14) (size 15 to 20)
#    0.000    1.714    8.571    1.286    0.000    0.000 
#    0.000    0.714    0.000   10.286   11.143    0.000 
#    0.000    0.000    0.000    0.000    0.000    0.000 
#
# Total GULP energy -155981.575725 kJ/mol
# GULP energy per Si atom -5570.770562 kJ/mol
# Density = 2.411193 g / cm^3
# Si number density = 24.166935 Si / 1000 Ang^3
#
#
#
# Elastic Constant Matrix: (Units=GPa)
#
#
# Indices 1 2 3 4 5 6 
#
# 1 166.3270 15.5133 21.8384 0.0000 21.5442 0.0000
# 2 15.5133 42.8804 -10.3330 0.0000 5.2024 0.0000
# 3 21.8384 -10.3330 96.2761 0.0000 6.2215 0.0000
# 4 0.0000 0.0000 0.0000 10.2864 0.0000 9.1661
# 5 21.5442 5.2024 6.2215 0.0000 29.4265 0.0000
# 6 0.0000 0.0000 0.0000 9.1661 0.0000 32.2857
#
#
#
# Elastic Compliance Matrix: (Units=1/GPa)
#
#
# Indices 1 2 3 4 5 6 
#
# 1 0.007006 -0.002380 -0.001562 0.000000 -0.004379 0.000000
# 2 -0.002380 0.025449 0.003497 0.000000 -0.003496 0.000000
# 3 -0.001562 0.003497 0.011236 0.000000 -0.001850 0.000000
# 4 0.000000 0.000000 0.000000 0.130139 0.000000 -0.036947
# 5 -0.004379 -0.003496 -0.001850 0.000000 0.038198 0.000000
# 6 0.000000 0.000000 0.000000 -0.036947 0.000000 0.041463
#
#
# Mechanical properties :
#
#
# Convention : Reuss Voigt Hill
#
# Bulk Modulus (GPa) = 23.36349 39.94675 31.65512
# Shear Modulus (GPa) = 18.61174 32.96404 25.78789
#
# Velocity S-wave (km/s) = 2.77814 3.69726 3.27015
# Velocity P-wave (km/s) = 4.46982 5.89845 5.23311
#
# Compressibility (1/GPa) = 0.04280182
#
# Stress axis : x y z
#
# Youngs Moduli (GPa) = 142.72558 39.29497 89.00007
#
# Poissons Ratio (x) = 0.09352 0.13900
# Poissons Ratio (y) = 0.33967 -0.31124
# Poissons Ratio (z) = 0.22290 -0.13742
#
# Static dielectric constant tensor:
#      x y z
#    x 2.045750 0.000000 0.030080 
#    y 0.000000 2.066620 0.000000 
#    z 0.030080 0.000000 1.998310 
# 
# From -- ./inp_files/204859.got.cif
#   From: 2010.05.17/outbox.cif.g08.bks.cpg/sg15_103_cif.got.tgz:204859.got - 2010.06.03 18:47:42.
