data_PCOD9254469
_publ_section_title
;
Structure prediction by ZEFSAII (Michael W. Deem and Ramdas Pophale) SiO2 
 PCOD9254469
Probable space group: C 2/C
;
_chemical_formula_sum "Si O2"
_cell_formula_units_Z 44
_cell_length_a 21.925935
_cell_length_b 7.000628
_cell_length_c 20.389614
_cell_angle_alpha 90.000000
_cell_angle_beta 123.838936
_cell_angle_gamma 90.000000
_cell_volume 2599.556834
_symmetry_space_group_name_H-M "C 2/C"
_symmetry_group_IT_number 15
_symmetry_cell_setting 'monoclinic'
loop_
_space_group_symop_operation_xyz
x,y,z
-x,y,1/2-z
-x,-y,-z
x,-y,1/2+z
1/2+x,1/2+y,z
1/2-x,1/2+y,1/2-z
1/2-x,1/2-y,-z
1/2+x,1/2-y,1/2+z
loop_
_atom_site_type_symbol
_atom_site_label
_atom_site_fract_x
_atom_site_fract_y
_atom_site_fract_z
Si Si1 0.669325 0.336165 0.951531
Si Si2 0.580565 0.460790 0.774705
Si Si3 0.547922 0.974263 0.412702
Si Si4 0.000000 0.665133 0.250000
Si Si5 0.052870 0.858750 0.614434
Si Si6 0.591008 0.380534 0.493814
O O1 0.641037 0.394694 0.862327
O O2 0.614461 0.172237 0.943881
O O3 0.750000 0.250000 0.000000
O O4 0.654754 0.518371 0.990081
O O5 0.500000 0.383576 0.750000
O O6 0.566301 0.688469 0.771854
O O7 0.591752 0.395606 0.707053
O O8 0.482909 0.852537 0.407450
O O9 0.520537 0.043707 0.325287
O O10 0.575683 0.162352 0.466041
O O11 0.099329 0.895292 0.577001
O O12 0.983647 0.004999 0.570344
#
# Coordination Sequence:
#
# PCOD9254469 Si02
#       6
#     8   8   8   4   8   8
#     4  11  23  37  57  78 115 152 186 229 279 343
#     4  10  16  37  54  81 109 141 180 238 276 321
#     4  11  17  32  56  83 106 139 184 225 289 330
#     4  10  16  30  58  86 106 130 188 240 266 324
#     4  10  19  31  57  82 115 134 175 239 285 322
#     4  10  19  34  51  86 112 139 178 233 280 328
#
# _framework density 16.925962999999999
#
# number of rings (size 3 to 8) (size 9 to 14) (size 15 to 20)
#    0.545    1.091    7.273    1.636    0.000    0.727 
#    0.000    0.000    4.000    0.000    0.000    0.000 
#    0.000    0.000    0.000    0.000    0.000    0.000 
#
# Total GULP energy -122611.631518 kJ/mol
# GULP energy per Si atom -5573.255978 kJ/mol
# Density = 1.688744 g / cm^3
# Si number density = 16.925963 Si / 1000 Ang^3
#
#
#
# Elastic Constant Matrix: (Units=GPa)
#
#
# Indices 1 2 3 4 5 6 
#
# 1 57.7385 19.7353 56.3911 0.0000 -13.2791 0.0000
# 2 19.7353 99.6511 23.5529 0.0001 -7.6824 0.0000
# 3 56.3911 23.5529 108.9401 0.0000 -21.7966 0.0000
# 4 0.0000 0.0001 0.0000 25.1788 0.0000 -0.9523
# 5 -13.2791 -7.6824 -21.7966 0.0000 28.4086 0.0000
# 6 0.0000 0.0000 0.0000 -0.9523 0.0000 8.2728
#
#
#
# Elastic Compliance Matrix: (Units=1/GPa)
#
#
# Indices 1 2 3 4 5 6 
#
# 1 0.035948 -0.002785 -0.017478 0.000000 0.002640 0.000000
# 2 -0.002785 0.010832 -0.000679 0.000000 0.001107 0.000000
# 3 -0.017478 -0.000679 0.019731 0.000000 0.006785 0.000000
# 4 0.000000 0.000000 0.000000 0.039890 0.000000 0.004592
# 5 0.002640 0.001107 0.006785 0.000000 0.041940 0.000000
# 6 0.000000 0.000000 0.000000 0.004592 0.000000 0.121407
#
#
# Mechanical properties :
#
#
# Convention : Reuss Voigt Hill
#
# Bulk Modulus (GPa) = 40.60358 51.74315 46.17336
# Shear Modulus (GPa) = 15.63277 23.48207 19.55742
#
# Velocity S-wave (km/s) = 3.04237 3.72874 3.40291
# Velocity P-wave (km/s) = 6.03178 7.01247 6.54053
#
# Compressibility (1/GPa) = 0.02462837
#
# Stress axis : x y z
#
# Youngs Moduli (GPa) = 27.81758 92.31617 50.68212
#
# Poissons Ratio (x) = 0.25709 0.88581
# Poissons Ratio (y) = 0.07747 0.03441
# Poissons Ratio (z) = 0.48619 0.06268
#
# Static dielectric constant tensor:
#      x y z
#    x 1.565170 0.000000 -0.026020 
#    y 0.000000 1.600670 0.000000 
#    z -0.026020 0.000000 1.562140 
# 
# From -- ./inp_files/250753.got.cif
#   From: 2010.05.17/outbox.cif.g08.bks.cpg/sg15_126_cif.got.tgz:250753.got - 2010.06.03 18:47:42.
