data_PCOD9254686
_publ_section_title
;
Structure prediction by ZEFSAII (Michael W. Deem and Ramdas Pophale) SiO2 
 PCOD9254686
Probable space group: C 2/C
;
_chemical_formula_sum "Si O2"
_cell_formula_units_Z 64
_cell_length_a 30.870746
_cell_length_b 9.567327
_cell_length_c 12.404917
_cell_angle_alpha 90.000000
_cell_angle_beta 45.644735
_cell_angle_gamma 90.000000
_cell_volume 2619.684736
_symmetry_space_group_name_H-M "C 2/C"
_symmetry_group_IT_number 15
_symmetry_cell_setting 'monoclinic'
loop_
_space_group_symop_operation_xyz
x,y,z
-x,y,1/2-z
-x,-y,-z
x,-y,1/2+z
1/2+x,1/2+y,z
1/2-x,1/2+y,1/2-z
1/2-x,1/2-y,-z
1/2+x,1/2-y,1/2+z
loop_
_atom_site_type_symbol
_atom_site_label
_atom_site_fract_x
_atom_site_fract_y
_atom_site_fract_z
Si Si1 0.182831 0.747881 0.965910
Si Si2 0.381066 0.233011 0.203334
Si Si3 0.369508 0.148402 0.650511
Si Si4 0.004676 0.733027 0.112122
Si Si5 0.410317 0.443982 0.632846
Si Si6 0.691676 0.186712 0.360765
Si Si7 0.231116 0.590223 0.512220
Si Si8 0.153726 0.959607 0.557940
O O1 0.155897 0.641440 0.925624
O O2 0.251843 0.772377 0.812793
O O3 0.147551 0.894964 0.008273
O O4 0.168665 0.715190 0.114686
O O5 0.443036 0.199299 0.157875
O O6 0.389948 0.396458 0.149885
O O7 0.362345 0.151261 0.127740
O O8 0.441493 0.130667 0.521451
O O9 0.364112 0.316469 0.686602
O O10 0.329172 0.075278 0.810887
O O11 0.000000 0.729541 0.250000
O O12 0.029426 0.885646 0.028751
O O13 0.406833 0.434644 0.768933
O O14 0.716199 0.084026 0.411809
O O15 0.670970 0.326376 0.459161
O O16 0.250000 0.750000 0.500000
O O17 0.288254 0.510337 0.463444
#
# Coordination Sequence:
#
# PCOD9254686 Si02
#       8
#     8   8   8   8   8   8   8   8
#     4  11  20  32  51  79 106 134 175 218 258 314
#     4  11  21  32  45  73 109 138 168 217 260 297
#     4  10  17  32  51  70  98 133 183 203 239 308
#     4  10  19  32  48  68 101 148 175 207 245 310
#     4   9  18  31  47  74 100 138 183 198 250 312
#     4  11  20  33  52  76 106 137 173 220 260 311
#     4  10  16  33  53  70  97 138 177 207 257 313
#     4  10  19  33  54  74 103 146 170 216 267 306
#
# _framework density 24.430419000000001
#
# number of rings (size 3 to 8) (size 9 to 14) (size 15 to 20)
#    0.750    1.000    6.250    1.500    0.000    1.000 
#    0.000    2.500    0.000    0.000    0.000    0.875 
#    0.000    2.500    0.000    0.125    0.000    0.000 
#
# Total GULP energy -178601.972121 kJ/mol
# GULP energy per Si atom -5581.311629 kJ/mol
# Density = 2.437481 g / cm^3
# Si number density = 24.430419 Si / 1000 Ang^3
#
#
#
# Elastic Constant Matrix: (Units=GPa)
#
#
# Indices 1 2 3 4 5 6 
#
# 1 169.0070 15.8419 70.9810 0.0000 0.6172 0.0000
# 2 15.8419 62.3654 14.0877 0.0000 8.8922 0.0000
# 3 70.9810 14.0877 166.7891 0.0000 -3.2997 0.0000
# 4 0.0000 0.0000 0.0000 21.5962 0.0000 10.1165
# 5 0.6172 8.8922 -3.2997 0.0000 21.4516 0.0000
# 6 0.0000 0.0000 0.0000 10.1165 0.0000 31.9320
#
#
#
# Elastic Compliance Matrix: (Units=1/GPa)
#
#
# Indices 1 2 3 4 5 6 
#
# 1 0.007289 -0.001143 -0.003009 0.000000 -0.000199 0.000000
# 2 -0.001143 0.017649 -0.001152 0.000000 -0.007460 0.000000
# 3 -0.003009 -0.001152 0.007407 0.000000 0.001703 0.000000
# 4 0.000000 0.000000 0.000000 0.054374 0.000000 -0.017226
# 5 -0.000199 -0.007460 0.001703 0.000000 0.049977 0.000000
# 6 0.000000 0.000000 0.000000 -0.017226 0.000000 0.036774
#
#
# Mechanical properties :
#
#
# Convention : Reuss Voigt Hill
#
# Bulk Modulus (GPa) = 46.00638 66.66474 56.33556
# Shear Modulus (GPa) = 26.13377 34.81266 30.47321
#
# Velocity S-wave (km/s) = 3.27421 3.77898 3.53561
# Velocity P-wave (km/s) = 5.75903 6.81085 6.30691
#
# Compressibility (1/GPa) = 0.02173612
#
# Stress axis : x y z
#
# Youngs Moduli (GPa) = 137.19963 56.66104 135.00356
#
# Poissons Ratio (x) = 0.06478 0.40625
# Poissons Ratio (y) = 0.15687 0.15548
# Poissons Ratio (z) = 0.41286 0.06526
#
# Static dielectric constant tensor:
#      x y z
#    x 1.972760 0.000000 0.004040 
#    y 0.000000 2.020420 0.000000 
#    z 0.004040 0.000000 1.936910 
# 
# From -- ./inp_files/126866.got.cif
#   From: 2010.05.17/outbox.cif.g08.bks.cpg/sg15_64_cif.got.tgz:126866.got - 2010.06.03 18:47:42.
