data_PCOD9254156
_publ_section_title
;
Structure prediction by ZEFSAII (Michael W. Deem and Ramdas Pophale) SiO2 
 PCOD9254156
Probable space group: C 2/C
;
_chemical_formula_sum "Si O2"
_cell_formula_units_Z 64
_cell_length_a 19.987548
_cell_length_b 9.813239
_cell_length_c 19.041770
_cell_angle_alpha 90.000000
_cell_angle_beta 46.851497
_cell_angle_gamma 90.000000
_cell_volume 2724.923242
_symmetry_space_group_name_H-M "C 2/C"
_symmetry_group_IT_number 15
_symmetry_cell_setting 'monoclinic'
loop_
_space_group_symop_operation_xyz
x,y,z
-x,y,1/2-z
-x,-y,-z
x,-y,1/2+z
1/2+x,1/2+y,z
1/2-x,1/2+y,1/2-z
1/2-x,1/2-y,-z
1/2+x,1/2-y,1/2+z
loop_
_atom_site_type_symbol
_atom_site_label
_atom_site_fract_x
_atom_site_fract_y
_atom_site_fract_z
Si Si1 0.898997 0.566778 0.810449
Si Si2 0.174927 0.686808 0.932821
Si Si3 0.873561 0.258559 0.816373
Si Si4 0.508041 0.650520 0.899903
Si Si5 0.410176 0.804977 0.545379
Si Si6 0.779849 0.396326 0.528075
Si Si7 0.400767 0.075150 0.646435
Si Si8 0.420691 0.517361 0.359323
O O1 0.905240 0.404388 0.818833
O O2 0.874739 0.580840 0.746110
O O3 0.000000 0.625214 0.750000
O O4 0.829657 0.619604 0.918191
O O5 0.264937 0.772747 0.883554
O O6 0.191227 0.544000 0.960547
O O7 0.166195 0.658843 0.856222
O O8 0.079709 0.752735 0.023998
O O9 0.925807 0.207605 0.709105
O O10 0.894012 0.137944 0.856014
O O11 0.564888 0.667598 0.930869
O O12 0.467421 0.506571 0.901576
O O13 0.497109 0.862012 0.438035
O O14 0.323012 0.798828 0.556666
O O15 0.399526 0.923136 0.613300
O O16 0.672218 0.403447 0.589172
O O17 0.500000 0.563713 0.250000
#
# Coordination Sequence:
#
# PCOD9254156 Si02
#       8
#     8   8   8   8   8   8   8   8
#     4  12  18  24  41  72  98 116 147 191 236 278
#     4   9  18  30  40  61  96 127 152 186 233 287
#     4  10  18  25  42  66  88 125 156 185 230 283
#     4  10  16  27  43  62  92 125 155 191 228 285
#     4   9  16  28  40  60  92 131 158 180 235 290
#     4  10  18  27  42  64  96 127 154 190 236 288
#     4   9  17  27  40  58  94 126 148 188 231 286
#     4   9  18  29  41  65  95 127 159 193 233 280
#
# _framework density 23.486899999999999
#
# number of rings (size 3 to 8) (size 9 to 14) (size 15 to 20)
#    0.000    2.250    2.500    4.125    0.000    2.000 
#    0.000    0.000    0.000    0.000    3.250    5.250 
#    0.000    0.000    0.000    0.000    0.000    0.000 
#
# Total GULP energy -178874.616479 kJ/mol
# GULP energy per Si atom -5589.831765 kJ/mol
# Density = 2.343344 g / cm^3
# Si number density = 23.486900 Si / 1000 Ang^3
#
#
#
# Elastic Constant Matrix: (Units=GPa)
#
#
# Indices 1 2 3 4 5 6 
#
# 1 136.1185 47.2350 88.3099 0.0000 27.5292 0.0000
# 2 47.2350 61.6701 10.9521 0.0000 7.9743 0.0000
# 3 88.3099 10.9521 115.1999 0.0000 14.2256 0.0000
# 4 0.0000 0.0000 0.0000 -53.3050 0.0000 26.1602
# 5 27.5292 7.9743 14.2256 0.0000 26.1874 0.0000
# 6 0.0000 0.0000 0.0000 26.1602 0.0000 15.6484
#
#
#
# Elastic Compliance Matrix: (Units=1/GPa)
#
#
# Indices 1 2 3 4 5 6 
#
# 1 0.026973 -0.015741 -0.017441 0.000000 -0.014088 0.000000
# 2 -0.015741 0.026183 0.009131 0.000000 0.003614 0.000000
# 3 -0.017441 0.009131 0.020647 0.000000 0.004338 0.000000
# 4 0.000000 0.000000 0.000000 -0.010305 0.000000 0.017228
# 5 -0.014088 0.003614 0.004338 0.000000 0.049539 0.000000
# 6 0.000000 0.000000 0.000000 0.017228 0.000000 0.035104
#
#
# Mechanical properties :
#
#
# Convention : Reuss Voigt Hill
#
# Bulk Modulus (GPa) = 38.90883 67.33140 53.12012
# Shear Modulus (GPa) = 24.41314 8.80557 16.60936
#
# Velocity S-wave (km/s) = 3.22753 1.93837 2.66216
# Velocity P-wave (km/s) = 5.52190 5.80858 5.66705
#
# Compressibility (1/GPa) = 0.02570111
#
# Stress axis : x y z
#
# Youngs Moduli (GPa) = 37.07400 38.19341 48.43410
#
# Poissons Ratio (x) = 0.60118 0.84474
# Poissons Ratio (y) = 0.58356 -0.44225
# Poissons Ratio (z) = 0.64660 -0.34874
#
# Static dielectric constant tensor:
#      x y z
#    x 1.931940 0.000000 0.007680 
#    y 0.000000 1.886970 0.000000 
#    z 0.007680 0.000000 1.849100 
# 
# From -- ./inp_files/211527.got.cif
#   From: 2010.05.17/outbox.cif.g08.bks.cpg/sg15_106_cif.got.tgz:211527.got - 2010.06.03 18:47:42.
