data_PCOD9254428
_publ_section_title
;
Structure prediction by ZEFSAII (Michael W. Deem and Ramdas Pophale) SiO2 
 PCOD9254428
Probable space group: C 2/C
;
_chemical_formula_sum "Si O2"
_cell_formula_units_Z 36
_cell_length_a 14.024873
_cell_length_b 12.556523
_cell_length_c 9.967237
_cell_angle_alpha 90.000000
_cell_angle_beta 106.675964
_cell_angle_gamma 90.000000
_cell_volume 1681.445398
_symmetry_space_group_name_H-M "C 2/C"
_symmetry_group_IT_number 15
_symmetry_cell_setting 'monoclinic'
loop_
_space_group_symop_operation_xyz
x,y,z
-x,y,1/2-z
-x,-y,-z
x,-y,1/2+z
1/2+x,1/2+y,z
1/2-x,1/2+y,1/2-z
1/2-x,1/2-y,-z
1/2+x,1/2-y,1/2+z
loop_
_atom_site_type_symbol
_atom_site_label
_atom_site_fract_x
_atom_site_fract_y
_atom_site_fract_z
Si Si1 0.648669 0.013527 0.432752
Si Si2 0.790373 0.310447 0.883121
Si Si3 0.007877 0.714917 0.459561
Si Si4 0.000000 0.631408 0.750000
Si Si5 0.689965 0.331597 0.570021
O O1 0.570065 0.109120 0.436669
O O2 0.753230 0.059184 0.428218
O O3 0.676019 0.929928 0.560661
O O4 0.595397 0.945139 0.296201
O O5 0.708655 0.303636 0.733456
O O6 0.750000 0.250000 0.000000
O O7 0.003998 0.303073 0.386442
O O8 0.078013 0.816957 0.476104
O O9 0.895867 0.730266 0.363009
O O10 0.750000 0.250000 0.500000
#
# Coordination Sequence:
#
# PCOD9254428 Si02
#       5
#     8   8   8   4   8
#     4  10  19  33  55  81 109 143 182 227 272 323
#     4  11  22  36  58  85 112 144 184 227 274 326
#     4  10  20  34  55  81 109 143 181 224 272 323
#     4  10  16  30  54  80 108 140 180 228 272 316
#     4  10  21  36  57  84 113 144 182 228 275 324
#
# _framework density 21.410150000000002
#
# number of rings (size 3 to 8) (size 9 to 14) (size 15 to 20)
#    0.000    1.778    0.000    8.000    0.000    4.444 
#    0.000    1.111    0.000    5.333    0.000    0.000 
#    0.000    0.000    0.000    0.000    0.000    0.000 
#
# Total GULP energy -100358.151700 kJ/mol
# GULP energy per Si atom -5575.452872 kJ/mol
# Density = 2.136142 g / cm^3
# Si number density = 21.410150 Si / 1000 Ang^3
#
#
#
# Elastic Constant Matrix: (Units=GPa)
#
#
# Indices 1 2 3 4 5 6 
#
# 1 105.4249 28.9317 -14.6816 0.0000 15.1946 0.0000
# 2 28.9317 28.1880 -2.3388 0.0000 7.3497 0.0000
# 3 -14.6816 -2.3388 63.4272 0.0000 -4.5971 0.0000
# 4 0.0000 0.0000 0.0000 -16.2341 0.0000 -1.7473
# 5 15.1946 7.3497 -4.5971 0.0000 33.7934 0.0000
# 6 0.0000 0.0000 0.0000 -1.7473 0.0000 37.7233
#
#
#
# Elastic Compliance Matrix: (Units=1/GPa)
#
#
# Indices 1 2 3 4 5 6 
#
# 1 0.013918 -0.013288 0.002512 0.000000 -0.003026 0.000000
# 2 -0.013288 0.050335 -0.001596 0.000000 -0.005190 0.000000
# 3 0.002512 -0.001596 0.016394 0.000000 0.001448 0.000000
# 4 0.000000 0.000000 0.000000 -0.061293 0.000000 -0.002839
# 5 -0.003026 -0.005190 0.001448 0.000000 0.032278 0.000000
# 6 0.000000 0.000000 0.000000 -0.002839 0.000000 0.026377
#
#
# Mechanical properties :
#
#
# Convention : Reuss Voigt Hill
#
# Bulk Modulus (GPa) = 17.88765 24.54031 21.21398
# Shear Modulus (GPa) = 41.19075 23.39842 32.29458
#
# Velocity S-wave (km/s) = 4.39097 3.30944 3.88800
# Velocity P-wave (km/s) = 5.83784 5.10784 5.48500
#
# Compressibility (1/GPa) = 0.05590449
#
# Stress axis : x y z
#
# Youngs Moduli (GPa) = 71.84931 19.86681 60.99899
#
# Poissons Ratio (x) = 0.26398 -0.15325
# Poissons Ratio (y) = 0.95471 0.09734
# Poissons Ratio (z) = -0.18051 0.03170
#
# Static dielectric constant tensor:
#      x y z
#    x 1.868280 0.000000 -0.016630 
#    y 0.000000 1.837450 0.000000 
#    z -0.016630 0.000000 1.794360 
# 
# From -- ./inp_files/37448.got.cif
#   From: 2010.05.17/outbox.cif.g08.bks.cpg/sg15_19_cif.got.tgz:37448.got - 2010.06.03 18:47:42.
