data_PCOD9254849
_publ_section_title
;
Structure prediction by ZEFSAII (Michael W. Deem and Ramdas Pophale) SiO2 
 PCOD9254849
Probable space group: C 2/C
;
_chemical_formula_sum "Si O2"
_cell_formula_units_Z 56
_cell_length_a 18.839235
_cell_length_b 8.403617
_cell_length_c 21.770967
_cell_angle_alpha 90.000000
_cell_angle_beta 37.235437
_cell_angle_gamma 90.000000
_cell_volume 2085.587387
_symmetry_space_group_name_H-M "C 2/C"
_symmetry_group_IT_number 15
_symmetry_cell_setting 'monoclinic'
loop_
_space_group_symop_operation_xyz
x,y,z
-x,y,1/2-z
-x,-y,-z
x,-y,1/2+z
1/2+x,1/2+y,z
1/2-x,1/2+y,1/2-z
1/2-x,1/2-y,-z
1/2+x,1/2-y,1/2+z
loop_
_atom_site_type_symbol
_atom_site_label
_atom_site_fract_x
_atom_site_fract_y
_atom_site_fract_z
Si Si1 0.923854 0.977895 0.892517
Si Si2 0.469289 0.276850 0.104024
Si Si3 0.500000 0.000000 0.000000
Si Si4 0.305749 0.177779 0.326253
Si Si5 0.691979 0.470907 0.653941
Si Si6 0.500000 0.975512 0.750000
Si Si7 0.498276 0.153553 0.880273
Si Si8 0.759004 0.851570 0.177974
O O1 0.055720 0.979156 0.771757
O O2 0.929540 0.817912 0.927958
O O3 0.826012 0.963643 0.907252
O O4 0.926708 0.133277 0.933361
O O5 0.396478 0.179047 0.205503
O O6 0.363803 0.388373 0.152532
O O7 0.493123 0.186339 0.024441
O O8 0.451629 0.035196 0.963032
O O9 0.257054 0.355637 0.362974
O O10 0.389469 0.142295 0.326288
O O11 0.241998 0.010253 0.361941
O O12 0.747629 0.315585 0.648322
O O13 0.495054 0.089095 0.812583
O O14 0.637164 0.162489 0.800343
#
# Coordination Sequence:
#
# PCOD9254849 Si02
#       8
#     8   8   4   8   8   4   8   8
#     4   9  18  35  57  89 116 163 214 268 308 393
#     4  11  23  37  60  93 131 169 213 267 335 391
#     4  12  24  40  56 100 136 178 200 272 340 400
#     4  10  19  32  61  89 118 156 214 273 307 383
#     4   9  18  33  61  92 120 149 220 278 316 359
#     4  10  16  36  60  94 114 168 216 270 304 388
#     4  10  21  35  65  89 130 165 220 266 327 387
#     4  10  21  37  57  96 125 166 210 272 326 384
#
# _framework density 26.850949
#
# number of rings (size 3 to 8) (size 9 to 14) (size 15 to 20)
#    0.000    2.000    2.857    4.286    6.000    0.571 
#    0.000    0.000    0.000    8.571    0.000    0.000 
#    0.000    0.000    0.000    0.000    0.000    0.000 
#
# Total GULP energy -155980.078626 kJ/mol
# GULP energy per Si atom -5570.717094 kJ/mol
# Density = 2.678984 g / cm^3
# Si number density = 26.850949 Si / 1000 Ang^3
#
#
#
# Elastic Constant Matrix: (Units=GPa)
#
#
# Indices 1 2 3 4 5 6 
#
# 1 90.1527 24.9511 -4.8020 0.0000 30.8273 0.0003
# 2 24.9511 157.6273 25.6823 0.0001 22.4529 0.0003
# 3 -4.8020 25.6823 58.5019 0.0000 3.3506 0.0000
# 4 0.0000 0.0001 0.0000 38.7829 0.0000 0.3259
# 5 30.8273 22.4529 3.3506 0.0000 37.0205 -0.0001
# 6 0.0003 0.0003 0.0000 0.3259 -0.0001 -111.3861
#
#
#
# Elastic Compliance Matrix: (Units=1/GPa)
#
#
# Indices 1 2 3 4 5 6 
#
# 1 0.015913 -0.001106 0.002525 0.000000 -0.012808 0.000000
# 2 -0.001106 0.007517 -0.003199 0.000000 -0.003349 0.000000
# 3 0.002525 -0.003199 0.018812 0.000000 -0.001865 0.000000
# 4 0.000000 0.000000 0.000000 0.025784 0.000000 0.000075
# 5 -0.012808 -0.003349 -0.001865 0.000000 0.039878 0.000000
# 6 0.000000 0.000000 0.000000 0.000075 0.000000 -0.008978
#
#
# Mechanical properties :
#
#
# Convention : Reuss Voigt Hill
#
# Bulk Modulus (GPa) = 25.85143 44.21607 35.03375
# Shear Modulus (GPa) = 43.33522 10.24684 26.79103
#
# Velocity S-wave (km/s) = 4.02172 1.95563 3.16217
# Velocity P-wave (km/s) = 5.58697 4.64783 5.13890
#
# Compressibility (1/GPa) = 0.03868258
#
# Stress axis : x y z
#
# Youngs Moduli (GPa) = 62.84319 133.02508 53.15769
#
# Poissons Ratio (x) = 0.14710 -0.13423
# Poissons Ratio (y) = 0.06949 0.17006
# Poissons Ratio (z) = -0.15869 0.42556
#
# Static dielectric constant tensor:
#      x y z
#    x 2.205520 0.000000 -0.165440 
#    y 0.000000 2.143840 0.000000 
#    z -0.165440 0.000000 2.715550 
# 
# From -- ./inp_files/247387.got.cif
#   From: 2010.05.17/outbox.cif.g08.bks.cpg/sg15_124_cif.got.tgz:247387.got - 2010.06.03 18:47:42.
