data_PCOD9254518
_publ_section_title
;
Structure prediction by ZEFSAII (Michael W. Deem and Ramdas Pophale) SiO2 
 PCOD9254518
Probable space group: C 2/C
;
_chemical_formula_sum "Si O2"
_cell_formula_units_Z 60
_cell_length_a 15.406549
_cell_length_b 11.979237
_cell_length_c 22.177082
_cell_angle_alpha 90.000000
_cell_angle_beta 120.912916
_cell_angle_gamma 90.000000
_cell_volume 3511.562974
_symmetry_space_group_name_H-M "C 2/C"
_symmetry_group_IT_number 15
_symmetry_cell_setting 'monoclinic'
loop_
_space_group_symop_operation_xyz
x,y,z
-x,y,1/2-z
-x,-y,-z
x,-y,1/2+z
1/2+x,1/2+y,z
1/2-x,1/2+y,1/2-z
1/2-x,1/2-y,-z
1/2+x,1/2-y,1/2+z
loop_
_atom_site_type_symbol
_atom_site_label
_atom_site_fract_x
_atom_site_fract_y
_atom_site_fract_z
Si Si1 0.516127 0.167575 0.981071
Si Si2 0.000000 0.382640 0.250000
Si Si3 0.319838 0.764830 0.117779
Si Si4 0.820577 0.089819 0.552500
Si Si5 0.394937 0.168721 0.058581
Si Si6 0.288060 0.056390 0.386464
Si Si7 0.137866 0.130211 0.490802
Si Si8 0.942142 0.487637 0.348026
O O1 0.549775 0.295723 0.987703
O O2 0.484406 0.110515 0.907227
O O3 0.429904 0.165159 0.000917
O O4 0.613446 0.095732 0.038796
O O5 0.919294 0.313331 0.182741
O O6 0.938885 0.452046 0.277992
O O7 0.272437 0.670933 0.143812
O O8 0.339640 0.697751 0.062985
O O9 0.236155 0.856135 0.068650
O O10 0.717031 0.117246 0.479544
O O11 0.882748 0.204988 0.578691
O O12 0.779829 0.031473 0.599911
O O13 0.879445 0.995612 0.535686
O O14 0.479387 0.091126 0.119402
O O15 0.335592 0.015367 0.341186
#
# Coordination Sequence:
#
# PCOD9254518 Si02
#       8
#     8   4   8   8   8   8   8   8
#     4  10  16  31  54  78 102 135 173 218 253 311
#     4  12  22  32  56  78 106 128 186 226 258 310
#     4   9  18  31  53  80 101 135 171 225 257 310
#     4  10  17  28  49  80 105 133 163 215 256 310
#     4  10  19  29  49  78 110 132 171 207 261 316
#     4   9  17  33  56  72 103 139 175 207 261 313
#     4   9  17  31  54  78 106 130 174 219 270 293
#     4  11  19  34  51  78 102 139 175 213 261 311
#
# _framework density 17.086407999999999
#
# number of rings (size 3 to 8) (size 9 to 14) (size 15 to 20)
#    0.000    2.133    4.000    2.400    0.000    0.533 
#    0.000    1.333    2.933    9.600    0.000    0.000 
#    0.000    0.000    0.000    0.000    0.000    0.000 
#
# Total GULP energy -167061.157670 kJ/mol
# GULP energy per Si atom -5568.705256 kJ/mol
# Density = 1.704752 g / cm^3
# Si number density = 17.086408 Si / 1000 Ang^3
#
#
#
# Elastic Constant Matrix: (Units=GPa)
#
#
# Indices 1 2 3 4 5 6 
#
# 1 56.0222 34.6129 21.5699 0.0000 -10.9863 0.0000
# 2 34.6129 93.2487 21.9475 0.0000 -3.9159 0.0000
# 3 21.5699 21.9475 52.6848 0.0000 -8.9882 0.0000
# 4 0.0000 0.0000 0.0000 6.1664 0.0000 -4.2242
# 5 -10.9863 -3.9159 -8.9882 0.0000 21.4133 0.0000
# 6 0.0000 0.0000 0.0000 -4.2242 0.0000 33.0577
#
#
#
# Elastic Compliance Matrix: (Units=1/GPa)
#
#
# Indices 1 2 3 4 5 6 
#
# 1 0.027222 -0.008274 -0.006003 0.000000 0.009933 0.000000
# 2 -0.008274 0.014405 -0.003111 0.000000 -0.002917 0.000000
# 3 -0.006003 -0.003111 0.023818 0.000000 0.006348 0.000000
# 4 0.000000 0.000000 0.000000 0.177726 0.000000 0.022710
# 5 0.009933 -0.002917 0.006348 0.000000 0.053928 0.000000
# 6 0.000000 0.000000 0.000000 0.022710 0.000000 0.033152
#
#
# Mechanical properties :
#
#
# Convention : Reuss Voigt Hill
#
# Bulk Modulus (GPa) = 32.60794 39.80181 36.20487
# Shear Modulus (GPa) = 13.32447 20.38252 16.85349
#
# Velocity S-wave (km/s) = 2.79557 3.45760 3.14406
# Velocity P-wave (km/s) = 5.43561 6.26777 5.86646
#
# Compressibility (1/GPa) = 0.03066738
#
# Stress axis : x y z
#
# Youngs Moduli (GPa) = 36.73535 69.42019 41.98565
#
# Poissons Ratio (x) = 0.57440 0.25206
# Poissons Ratio (y) = 0.30396 0.13061
# Poissons Ratio (z) = 0.22054 0.21596
#
# Static dielectric constant tensor:
#      x y z
#    x 1.615170 0.000000 -0.013950 
#    y 0.000000 1.625110 0.000000 
#    z -0.013950 0.000000 1.551820 
# 
# From -- ./inp_files/243758.got.cif
#   From: 2010.05.17/outbox.cif.g08.bks.cpg/sg15_122_cif.got.tgz:243758.got - 2010.06.03 18:47:42.
