data_PCOD9254614
_publ_section_title
;
Structure prediction by ZEFSAII (Michael W. Deem and Ramdas Pophale) SiO2 
 PCOD9254614
Probable space group: C 2/C
;
_chemical_formula_sum "Si O2"
_cell_formula_units_Z 44
_cell_length_a 16.099304
_cell_length_b 7.581987
_cell_length_c 15.017079
_cell_angle_alpha 90.000000
_cell_angle_beta 66.351930
_cell_angle_gamma 90.000000
_cell_volume 1679.127407
_symmetry_space_group_name_H-M "C 2/C"
_symmetry_group_IT_number 15
_symmetry_cell_setting 'monoclinic'
loop_
_space_group_symop_operation_xyz
x,y,z
-x,y,1/2-z
-x,-y,-z
x,-y,1/2+z
1/2+x,1/2+y,z
1/2-x,1/2+y,1/2-z
1/2-x,1/2-y,-z
1/2+x,1/2-y,1/2+z
loop_
_atom_site_type_symbol
_atom_site_label
_atom_site_fract_x
_atom_site_fract_y
_atom_site_fract_z
Si Si1 0.000000 0.830609 0.750000
Si Si2 0.868497 0.541868 0.887570
Si Si3 0.190796 0.923242 0.997831
Si Si4 0.343358 0.918167 0.696258
Si Si5 0.148462 0.828639 0.818553
Si Si6 0.485420 0.724227 0.862147
O O1 0.929552 0.706219 0.834584
O O2 0.934121 0.908654 0.702523
O O3 0.770649 0.565949 0.973864
O O4 0.849137 0.444085 0.801190
O O5 0.931773 0.405036 0.912151
O O6 0.160010 0.915121 0.908892
O O7 0.250000 0.750000 0.000000
O O8 0.094370 0.919151 0.088330
O O9 0.240924 0.857600 0.723146
O O10 0.416512 0.770687 0.637700
O O11 0.362121 0.118846 0.658438
O O12 0.500000 0.725562 0.750000
#
# Coordination Sequence:
#
# PCOD9254614 Si02
#       6
#     4   8   8   8   8   8
#     4  10  16  32  56  74 106 156 182 210 268 338
#     4   8  13  28  48  75 104 138 171 216 268 307
#     4   9  18  28  50  87 112 132 179 240 268 307
#     4   9  17  30  52  79 106 143 179 222 266 320
#     4  10  19  33  57  81 109 143 184 224 267 324
#     4   9  14  28  49  76 107 139 177 229 275 310
#
# _framework density 26.204084999999999
#
# number of rings (size 3 to 8) (size 9 to 14) (size 15 to 20)
#    0.000    2.909    4.545    1.091    0.000    0.727 
#    0.000    0.000   14.000   10.909    0.000    0.000 
#    0.000    0.000    0.000    0.000    0.000    0.000 
#
# Total GULP energy -122782.002079 kJ/mol
# GULP energy per Si atom -5581.000094 kJ/mol
# Density = 2.614444 g / cm^3
# Si number density = 26.204085 Si / 1000 Ang^3
#
#
#
# Elastic Constant Matrix: (Units=GPa)
#
#
# Indices 1 2 3 4 5 6 
#
# 1 200.8185 27.5771 56.4827 0.0000 -45.1533 0.0000
# 2 27.5771 100.0191 19.2962 0.0000 -16.7521 0.0000
# 3 56.4827 19.2962 84.3495 0.0000 -43.4132 0.0000
# 4 0.0000 0.0000 0.0000 -3.3813 0.0000 -8.7619
# 5 -45.1533 -16.7521 -43.4132 0.0000 55.7931 0.0000
# 6 0.0000 0.0000 0.0000 -8.7619 0.0000 27.5899
#
#
#
# Elastic Compliance Matrix: (Units=1/GPa)
#
#
# Indices 1 2 3 4 5 6 
#
# 1 0.006498 -0.000785 -0.002646 0.000000 0.002964 0.000000
# 2 -0.000785 0.010709 -0.000995 0.000000 0.001806 0.000000
# 3 -0.002646 -0.000995 0.021015 0.000000 0.013912 0.000000
# 4 0.000000 0.000000 0.000000 -0.162237 0.000000 -0.051523
# 5 0.002964 0.001806 0.013912 0.000000 0.031690 0.000000
# 6 0.000000 0.000000 0.000000 -0.051523 0.000000 0.019883
#
#
# Mechanical properties :
#
#
# Convention : Reuss Voigt Hill
#
# Bulk Modulus (GPa) = 34.04686 65.76656 49.90671
# Shear Modulus (GPa) = -92.93565 34.78908 -29.07329
#
# Velocity S-wave (km/s) = -5.96180 3.64761 -3.33452
# Velocity P-wave (km/s) = 5.86256 6.54922 2.06431
#
# Compressibility (1/GPa) = 0.02937129
#
# Stress axis : x y z
#
# Youngs Moduli (GPa) = 153.88977 93.38040 47.58478
#
# Poissons Ratio (x) = 0.07327 0.12592
# Poissons Ratio (y) = 0.12075 0.04733
# Poissons Ratio (z) = 0.40721 0.09288
#
# Static dielectric constant tensor:
#      x y z
#    x 2.042580 0.000000 -0.057150 
#    y 0.000000 2.258020 0.000000 
#    z -0.057150 0.000000 2.067620 
# 
# From -- ./inp_files/203211.got.cif
#   From: 2010.05.17/outbox.cif.g08.bks.cpg/sg15_102_cif.got.tgz:203211.got - 2010.06.03 18:47:42.
