data_PCOD9254929
_publ_section_title
;
Structure prediction by ZEFSAII (Michael W. Deem and Ramdas Pophale) SiO2 
 PCOD9254929
Probable space group: C 2/C
;
_chemical_formula_sum "Si O2"
_cell_formula_units_Z 60
_cell_length_a 30.323408
_cell_length_b 9.379673
_cell_length_c 7.763920
_cell_angle_alpha 90.000000
_cell_angle_beta 91.477250
_cell_angle_gamma 90.000000
_cell_volume 2207.508543
_symmetry_space_group_name_H-M "C 2/C"
_symmetry_group_IT_number 15
_symmetry_cell_setting 'monoclinic'
loop_
_space_group_symop_operation_xyz
x,y,z
-x,y,1/2-z
-x,-y,-z
x,-y,1/2+z
1/2+x,1/2+y,z
1/2-x,1/2+y,1/2-z
1/2-x,1/2-y,-z
1/2+x,1/2-y,1/2+z
loop_
_atom_site_type_symbol
_atom_site_label
_atom_site_fract_x
_atom_site_fract_y
_atom_site_fract_z
Si Si1 0.903727 0.883649 0.842530
Si Si2 0.292234 0.387082 0.385295
Si Si3 0.824737 0.191730 0.515603
Si Si4 0.513993 0.703856 0.995663
Si Si5 0.000000 0.560431 0.750000
Si Si6 0.599140 0.888011 0.394054
Si Si7 0.307463 0.143496 0.673469
Si Si8 0.574023 0.310377 0.166553
O O1 0.877937 0.814408 0.001865
O O2 0.893976 0.767793 0.697269
O O3 0.895460 0.050698 0.818329
O O4 0.956026 0.878787 0.869103
O O5 0.312844 0.539693 0.428505
O O6 0.304191 0.280480 0.543215
O O7 0.240232 0.423045 0.364507
O O8 0.306722 0.312469 0.206842
O O9 0.808859 0.306971 0.373774
O O10 0.464432 0.653418 0.978046
O O11 0.541711 0.708873 0.824718
O O12 0.511091 0.859581 0.074856
O O13 0.945602 0.538580 0.685671
O O14 0.648488 0.948511 0.366206
O O15 0.594392 0.833661 0.590772
#
# Coordination Sequence:
#
# PCOD9254929 Si02
#       8
#     8   8   8   8   4   8   8   8
#     4  10  19  26  40  59  87 125 170 206 245 293
#     4  11  22  37  57  77 109 139 183 225 276 318
#     4  11  22  36  55  77 104 143 179 226 272 323
#     4   9  18  26  35  55  85 124 164 208 238 276
#     4   8  16  32  42  58  90 130 164 208 250 308
#     4   9  18  30  44  63  94 124 170 209 256 305
#     4  10  22  38  55  81 105 143 179 226 270 326
#     4  10  17  24  38  58  85 122 167 208 241 282
#
# _framework density 27.179963000000001
#
# number of rings (size 3 to 8) (size 9 to 14) (size 15 to 20)
#    0.000    2.133    1.333    2.400    5.600    5.333 
#    0.000    0.000    0.000    0.000    0.000    0.000 
#    0.000    1.067    0.000    0.000    0.000    0.267 
#
# Total GULP energy -167216.875389 kJ/mol
# GULP energy per Si atom -5573.895846 kJ/mol
# Density = 2.711810 g / cm^3
# Si number density = 27.179963 Si / 1000 Ang^3
#
#
#
# Elastic Constant Matrix: (Units=GPa)
#
#
# Indices 1 2 3 4 5 6 
#
# 1 183.0584 3.4394 7.7379 0.0000 2.8208 0.0000
# 2 3.4394 52.2620 14.1994 0.0000 2.4856 0.0000
# 3 7.7379 14.1994 118.1945 0.0000 -16.6481 0.0000
# 4 0.0000 0.0000 0.0000 -9.6165 0.0000 -22.5402
# 5 2.8208 2.4856 -16.6481 0.0000 39.9380 0.0000
# 6 0.0000 0.0000 0.0000 -22.5402 0.0000 2.6642
#
#
#
# Elastic Compliance Matrix: (Units=1/GPa)
#
#
# Indices 1 2 3 4 5 6 
#
# 1 0.005493 -0.000224 -0.000409 0.000000 -0.000545 0.000000
# 2 -0.000224 0.020001 -0.002721 0.000000 -0.002363 0.000000
# 3 -0.000409 -0.002721 0.009394 0.000000 0.004114 0.000000
# 4 0.000000 0.000000 0.000000 -0.004992 0.000000 -0.042235
# 5 -0.000545 -0.002363 0.004114 0.000000 0.026939 0.000000
# 6 0.000000 0.000000 0.000000 -0.042235 0.000000 0.018019
#
#
# Mechanical properties :
#
#
# Convention : Reuss Voigt Hill
#
# Bulk Modulus (GPa) = 35.48882 44.91868 40.20375
# Shear Modulus (GPa) = 54.97193 28.47303 41.72248
#
# Velocity S-wave (km/s) = 4.50212 3.24014 3.92222
# Velocity P-wave (km/s) = 6.33331 5.52813 5.94437
#
# Compressibility (1/GPa) = 0.02817789
#
# Stress axis : x y z
#
# Youngs Moduli (GPa) = 182.06152 49.99797 106.45327
#
# Poissons Ratio (x) = 0.01122 0.04358
# Poissons Ratio (y) = 0.04085 0.28966
# Poissons Ratio (z) = 0.07453 0.13604
#
# Static dielectric constant tensor:
#      x y z
#    x 2.196060 0.000000 0.040810 
#    y 0.000000 2.216880 0.000000 
#    z 0.040810 0.000000 2.177280 
# 
# From -- ./inp_files/69101.got.cif
#   From: 2010.05.17/outbox.cif.g08.bks.cpg/sg15_35_cif.got.tgz:69101.got - 2010.06.03 18:47:42.
