data_PCOD9254164
_publ_section_title
;
Structure prediction by ZEFSAII (Michael W. Deem and Ramdas Pophale) SiO2 
 PCOD9254164
Probable space group: C 2/C
;
_chemical_formula_sum "Si O2"
_cell_formula_units_Z 56
_cell_length_a 22.769742
_cell_length_b 7.851751
_cell_length_c 22.289055
_cell_angle_alpha 90.000000
_cell_angle_beta 33.447236
_cell_angle_gamma 90.000000
_cell_volume 2196.346854
_symmetry_space_group_name_H-M "C 2/C"
_symmetry_group_IT_number 15
_symmetry_cell_setting 'monoclinic'
loop_
_space_group_symop_operation_xyz
x,y,z
-x,y,1/2-z
-x,-y,-z
x,-y,1/2+z
1/2+x,1/2+y,z
1/2-x,1/2+y,1/2-z
1/2-x,1/2-y,-z
1/2+x,1/2-y,1/2+z
loop_
_atom_site_type_symbol
_atom_site_label
_atom_site_fract_x
_atom_site_fract_y
_atom_site_fract_z
Si Si1 0.512294 0.629648 0.934735
Si Si2 0.478033 0.338940 0.883136
Si Si3 0.209745 0.474044 0.654418
Si Si4 0.260859 0.830819 0.187411
Si Si5 0.523329 0.018770 0.079143
Si Si6 0.284279 0.691670 0.294083
Si Si7 0.390767 0.934827 0.378267
O O1 0.459347 0.526119 0.924146
O O2 0.637711 0.643343 0.813534
O O3 0.473358 0.825440 0.969697
O O4 0.500000 0.500000 0.000000
O O5 0.606898 0.340887 0.760994
O O6 0.470194 0.183541 0.938220
O O7 0.408839 0.259327 0.887654
O O8 0.260499 0.300430 0.633413
O O9 0.265363 0.640709 0.634595
O O10 0.196043 0.512649 0.596075
O O11 0.093775 0.469421 0.787761
O O12 0.311348 0.743858 0.202716
O O13 0.288586 0.024548 0.147240
O O14 0.607083 0.041535 0.062405
O O15 0.500000 0.971216 0.250000
#
# Coordination Sequence:
#
# PCOD9254164 Si02
#       7
#     8   8   8   8   8   8   8
#     4  10  19  31  44  66  95 125 158 187 224 271
#     4   8  17  29  45  68  93 117 151 190 232 270
#     4   9  15  28  43  66  97 119 144 183 236 287
#     4  10  19  28  45  70  95 126 147 189 230 278
#     4   7  15  28  43  62  90 117 147 187 222 263
#     4  10  16  27  45  66  99 118 147 188 235 282
#     4   8  13  28  45  63  97 118 143 183 233 285
#
# _framework density 25.496881999999999
#
# number of rings (size 3 to 8) (size 9 to 14) (size 15 to 20)
#    0.857    2.286    2.857    0.000    0.000    0.571 
#    2.571    0.714    0.000    0.000    0.000    2.000 
#    0.000    0.000    0.000    0.000    0.000    0.000 
#
# Total GULP energy -156191.062691 kJ/mol
# GULP energy per Si atom -5578.252239 kJ/mol
# Density = 2.543885 g / cm^3
# Si number density = 25.496882 Si / 1000 Ang^3
#
#
#
# Elastic Constant Matrix: (Units=GPa)
#
#
# Indices 1 2 3 4 5 6 
#
# 1 123.0232 49.4794 20.4475 0.0005 26.7675 -0.0011
# 2 49.4794 166.9500 23.2713 0.0010 10.5881 -0.0014
# 3 20.4475 23.2713 62.2078 0.0001 -5.5292 -0.0004
# 4 0.0005 0.0010 0.0001 46.3907 0.0002 -1.7058
# 5 26.7675 10.5881 -5.5292 0.0002 33.9395 0.0003
# 6 -0.0011 -0.0014 -0.0004 -1.7058 0.0003 45.6965
#
#
#
# Elastic Compliance Matrix: (Units=1/GPa)
#
#
# Indices 1 2 3 4 5 6 
#
# 1 0.011682 -0.002361 -0.003764 0.000000 -0.009090 0.000000
# 2 -0.002361 0.006994 -0.001896 0.000000 -0.000629 0.000000
# 3 -0.003764 -0.001896 0.018608 0.000000 0.006592 0.000000
# 4 0.000000 0.000000 0.000000 0.021586 0.000000 0.000806
# 5 -0.009090 -0.000629 0.006592 0.000000 0.037903 0.000000
# 6 0.000000 0.000000 0.000000 0.000806 0.000000 0.021914
#
#
# Mechanical properties :
#
#
# Convention : Reuss Voigt Hill
#
# Bulk Modulus (GPa) = 47.08082 59.84195 53.46139
# Shear Modulus (GPa) = 35.25886 42.47086 38.86486
#
# Velocity S-wave (km/s) = 3.72273 4.08576 3.90846
# Velocity P-wave (km/s) = 6.08142 6.76603 6.43284
#
# Compressibility (1/GPa) = 0.02124007
#
# Stress axis : x y z
#
# Youngs Moduli (GPa) = 85.60534 142.98591 53.74110
#
# Poissons Ratio (x) = 0.33757 0.20230
# Poissons Ratio (y) = 0.20210 0.10190
# Poissons Ratio (z) = 0.32225 0.27112
#
# Static dielectric constant tensor:
#      x y z
#    x 2.035590 0.000000 -0.096020 
#    y 0.000000 1.983380 0.000000 
#    z -0.096020 0.000000 2.190730 
# 
# From -- ./inp_files/281349.got.cif
#   From: 2010.05.17/outbox.cif.g08.bks.cpg/sg15_141_cif.got.tgz:281349.got - 2010.06.03 18:47:42.
