data_PCOD9254446
_publ_section_title
;
Structure prediction by ZEFSAII (Michael W. Deem and Ramdas Pophale) SiO2 
 PCOD9254446
Probable space group: C 2/C
;
_chemical_formula_sum "Si O2"
_cell_formula_units_Z 40
_cell_length_a 7.470504
_cell_length_b 27.920012
_cell_length_c 7.993860
_cell_angle_alpha 90.000000
_cell_angle_beta 99.733468
_cell_angle_gamma 90.000000
_cell_volume 1643.330392
_symmetry_space_group_name_H-M "C 2/C"
_symmetry_group_IT_number 15
_symmetry_cell_setting 'monoclinic'
loop_
_space_group_symop_operation_xyz
x,y,z
-x,y,1/2-z
-x,-y,-z
x,-y,1/2+z
1/2+x,1/2+y,z
1/2-x,1/2+y,1/2-z
1/2-x,1/2-y,-z
1/2+x,1/2-y,1/2+z
loop_
_atom_site_type_symbol
_atom_site_label
_atom_site_fract_x
_atom_site_fract_y
_atom_site_fract_z
Si Si1 0.465105 0.250251 0.548958
Si Si2 0.279423 0.426750 0.195949
Si Si3 0.790576 0.015211 0.010773
Si Si4 0.500000 0.422183 0.750000
Si Si5 0.163996 0.149078 0.040594
Si Si6 0.500000 0.180029 0.250000
O O1 0.500000 0.240396 0.750000
O O2 0.250000 0.250000 0.500000
O O3 0.561830 0.300290 0.515052
O O4 0.524289 0.211901 0.419981
O O5 0.500000 0.429705 0.250000
O O6 0.204847 0.464702 0.047309
O O7 0.212280 0.448776 0.360629
O O8 0.253748 0.373507 0.116726
O O9 0.825615 0.044842 0.186646
O O10 0.000000 0.000000 0.000000
O O11 0.476623 0.389377 0.908306
O O12 0.314863 0.151092 0.211074
#
# Coordination Sequence:
#
# PCOD9254446 Si02
#       6
#     8   8   8   4   8   4
#     4  12  26  48  73  99 131 175 224 283 350 404
#     4  10  18  31  57  92 124 163 209 266 325 389
#     4  10  16  30  54  94 127 161 202 271 326 379
#     4  12  18  34  61  94 126 160 215 272 318 400
#     4  12  24  40  64  95 127 170 222 272 329 407
#     4  12  28  48  65  92 138 178 219 288 342 406
#
# _framework density 24.340814000000002
#
# number of rings (size 3 to 8) (size 9 to 14) (size 15 to 20)
#    0.000    0.800   10.000    0.600    1.400    0.000 
#    3.600    0.000    0.000    4.800    0.000    0.000 
#    0.000    0.000    0.000    0.000    0.000    0.000 
#
# Total GULP energy -111583.310524 kJ/mol
# GULP energy per Si atom -5579.165526 kJ/mol
# Density = 2.428541 g / cm^3
# Si number density = 24.340814 Si / 1000 Ang^3
#
#
#
# Elastic Constant Matrix: (Units=GPa)
#
#
# Indices 1 2 3 4 5 6 
#
# 1 64.0859 22.1764 13.3488 0.0000 16.2885 0.0000
# 2 22.1764 90.9715 55.5741 0.0000 9.6523 0.0000
# 3 13.3488 55.5741 174.5711 0.0000 4.8357 0.0000
# 4 0.0000 0.0000 0.0000 57.1070 0.0000 2.4451
# 5 16.2885 9.6523 4.8357 0.0000 30.9927 0.0000
# 6 0.0000 0.0000 0.0000 2.4451 0.0000 3.4952
#
#
#
# Elastic Compliance Matrix: (Units=1/GPa)
#
#
# Indices 1 2 3 4 5 6 
#
# 1 0.019157 -0.003700 -0.000040 0.000000 -0.008910 0.000000
# 2 -0.003700 0.014770 -0.004364 0.000000 -0.001974 0.000000
# 3 -0.000040 -0.004364 0.007113 0.000000 0.000270 0.000000
# 4 0.000000 0.000000 0.000000 0.018052 0.000000 -0.012628
# 5 -0.008910 -0.001974 0.000270 0.000000 0.037521 0.000000
# 6 0.000000 0.000000 0.000000 -0.012628 0.000000 0.294942
#
#
# Mechanical properties :
#
#
# Convention : Reuss Voigt Hill
#
# Bulk Modulus (GPa) = 40.27166 56.86967 48.57066
# Shear Modulus (GPa) = 12.01803 34.22094 23.11948
#
# Velocity S-wave (km/s) = 2.22444 3.75361 3.08526
# Velocity P-wave (km/s) = 4.81439 6.49621 5.71748
#
# Compressibility (1/GPa) = 0.02483136
#
# Stress axis : x y z
#
# Youngs Moduli (GPa) = 52.19922 67.70427 140.58197
#
# Poissons Ratio (x) = 0.25052 0.00565
# Poissons Ratio (y) = 0.19315 0.61355
# Poissons Ratio (z) = 0.00210 0.29549
#
# Static dielectric constant tensor:
#      x y z
#    x 2.111950 0.000000 0.000460 
#    y 0.000000 2.034300 0.000000 
#    z 0.000460 0.000000 1.976100 
# 
# From -- ./inp_files/23804.got.cif
#   From: 2010.05.17/outbox.cif.g08.bks.cpg/sg15_12_cif.got.tgz:23804.got - 2010.06.03 18:47:42.
