data_PCOD9254773
_publ_section_title
;
Structure prediction by ZEFSAII (Michael W. Deem and Ramdas Pophale) SiO2 
 PCOD9254773
Probable space group: C 2/C
;
_chemical_formula_sum "Si O2"
_cell_formula_units_Z 36
_cell_length_a 9.897593
_cell_length_b 12.222474
_cell_length_c 16.158675
_cell_angle_alpha 90.000000
_cell_angle_beta 48.831651
_cell_angle_gamma 90.000000
_cell_volume 1471.505062
_symmetry_space_group_name_H-M "C 2/C"
_symmetry_group_IT_number 15
_symmetry_cell_setting 'monoclinic'
loop_
_space_group_symop_operation_xyz
x,y,z
-x,y,1/2-z
-x,-y,-z
x,-y,1/2+z
1/2+x,1/2+y,z
1/2-x,1/2+y,1/2-z
1/2-x,1/2-y,-z
1/2+x,1/2-y,1/2+z
loop_
_atom_site_type_symbol
_atom_site_label
_atom_site_fract_x
_atom_site_fract_y
_atom_site_fract_z
Si Si1 0.961705 0.116401 0.392134
Si Si2 0.588904 0.925515 0.391503
Si Si3 0.500000 0.573092 0.750000
Si Si4 0.343721 0.246515 0.065320
Si Si5 0.381587 0.861960 0.720213
O O1 0.170226 0.140473 0.320001
O O2 0.848124 0.190116 0.371997
O O3 0.863452 0.132296 0.520619
O O4 0.959582 0.999580 0.348383
O O5 0.795614 0.886502 0.316667
O O6 0.467138 0.819597 0.449624
O O7 0.500000 0.000000 0.500000
O O8 0.576850 0.011510 0.321435
O O9 0.412761 0.217028 0.128194
O O10 0.500000 0.828854 0.750000
#
# Coordination Sequence:
#
# PCOD9254773 Si02
#       5
#     8   8   4   8   8
#     4  10  18  34  59  82 107 149 187 232 276 333
#     4   9  17  34  57  80 108 150 184 231 280 336
#     4  10  16  34  62  80 112 152 186 228 288 326
#     4  10  19  35  61  81 108 147 194 233 274 340
#     4  10  20  36  54  79 116 148 178 231 295 333
#
# _framework density 24.464746999999999
#
# number of rings (size 3 to 8) (size 9 to 14) (size 15 to 20)
#    0.000    2.222    6.667    0.000    0.000    0.889 
#    4.000    1.111    0.000    0.000    0.000    0.000 
#    0.000    0.000    0.000    0.000    0.000    0.000 
#
# Total GULP energy -100322.891877 kJ/mol
# GULP energy per Si atom -5573.493993 kJ/mol
# Density = 2.440906 g / cm^3
# Si number density = 24.464747 Si / 1000 Ang^3
#
#
#
# Elastic Constant Matrix: (Units=GPa)
#
#
# Indices 1 2 3 4 5 6 
#
# 1 181.8698 18.7685 59.3670 0.0000 9.9232 0.0000
# 2 18.7685 24.6800 15.3522 0.0000 -5.3441 0.0000
# 3 59.3670 15.3522 94.4041 0.0000 -24.1346 0.0000
# 4 0.0000 0.0000 0.0000 49.0058 0.0000 -4.7446
# 5 9.9232 -5.3441 -24.1346 0.0000 42.5447 0.0000
# 6 0.0000 0.0000 0.0000 -4.7446 0.0000 21.2572
#
#
#
# Elastic Compliance Matrix: (Units=1/GPa)
#
#
# Indices 1 2 3 4 5 6 
#
# 1 0.008156 -0.003720 -0.006000 0.000000 -0.005773 0.000000
# 2 -0.003720 0.046889 -0.004162 0.000000 0.004397 0.000000
# 3 -0.006000 -0.004162 0.017856 0.000000 0.011006 0.000000
# 4 0.000000 0.000000 0.000000 0.020856 0.000000 0.004655
# 5 -0.005773 0.004397 0.011006 0.000000 0.031647 0.000000
# 6 0.000000 0.000000 0.000000 0.004655 0.000000 0.048082
#
#
# Mechanical properties :
#
#
# Convention : Reuss Voigt Hill
#
# Bulk Modulus (GPa) = 22.15456 54.21435 38.18446
# Shear Modulus (GPa) = 23.11657 36.39262 29.75459
#
# Velocity S-wave (km/s) = 3.07725 3.86107 3.49122
# Velocity P-wave (km/s) = 4.65846 6.48733 5.64742
#
# Compressibility (1/GPa) = 0.04513743
#
# Stress axis : x y z
#
# Youngs Moduli (GPa) = 122.61152 21.32718 56.00268
#
# Poissons Ratio (x) = 0.07934 0.33601
# Poissons Ratio (y) = 0.45614 0.23306
# Poissons Ratio (z) = 0.73564 0.08875
#
# Static dielectric constant tensor:
#      x y z
#    x 1.968950 0.000000 0.047120 
#    y 0.000000 2.272230 0.000000 
#    z 0.047120 0.000000 1.955380 
# 
# From -- ./inp_files/188660.got.cif
#   From: 2010.05.17/outbox.cif.g08.bks.cpg/sg15_95_cif.got.tgz:188660.got - 2010.06.03 18:47:42.
