data_PCOD9254107
_publ_section_title
;
Structure prediction by ZEFSAII (Michael W. Deem and Ramdas Pophale) SiO2 
 PCOD9254107
Probable space group: C 2/C
;
_chemical_formula_sum "Si O2"
_cell_formula_units_Z 60
_cell_length_a 14.071605
_cell_length_b 23.748861
_cell_length_c 14.556875
_cell_angle_alpha 90.000000
_cell_angle_beta 46.371164
_cell_angle_gamma 90.000000
_cell_volume 3521.177925
_symmetry_space_group_name_H-M "C 2/C"
_symmetry_group_IT_number 15
_symmetry_cell_setting 'monoclinic'
loop_
_space_group_symop_operation_xyz
x,y,z
-x,y,1/2-z
-x,-y,-z
x,-y,1/2+z
1/2+x,1/2+y,z
1/2-x,1/2+y,1/2-z
1/2-x,1/2-y,-z
1/2+x,1/2-y,1/2+z
loop_
_atom_site_type_symbol
_atom_site_label
_atom_site_fract_x
_atom_site_fract_y
_atom_site_fract_z
Si Si1 0.796781 0.578404 0.385121
Si Si2 0.129836 0.259312 0.391412
Si Si3 0.812817 0.531790 0.568351
Si Si4 0.372755 0.794941 0.643016
Si Si5 0.390399 0.071562 0.123070
Si Si6 0.093006 0.161883 0.550794
Si Si7 0.500000 0.823668 0.750000
Si Si8 0.181664 0.142487 0.699737
O O1 0.795491 0.535843 0.470203
O O2 0.856885 0.556304 0.251101
O O3 0.655797 0.606565 0.462811
O O4 0.885404 0.632722 0.356081
O O5 0.227388 0.231796 0.250085
O O6 0.149232 0.216418 0.463443
O O7 0.190970 0.320605 0.365712
O O8 0.971983 0.268268 0.501490
O O9 0.809258 0.469520 0.611180
O O10 0.711104 0.576274 0.679050
O O11 0.956890 0.557346 0.493748
O O12 0.363739 0.862044 0.632252
O O13 0.445371 0.791025 0.696718
O O14 0.136101 0.158935 0.627690
O O15 0.936178 0.159018 0.654417
#
# Coordination Sequence:
#
# PCOD9254107 Si02
#       8
#     8   8   8   8   8   8   4   8
#     4  10  16  31  45  64  88 119 155 186 230 266
#     4  12  19  26  40  61  92 125 154 182 216 275
#     4  10  18  30  47  62  88 121 156 197 225 262
#     4  11  21  27  41  63  91 124 157 179 225 271
#     4  10  18  30  47  65  86 123 155 192 231 265
#     4  10  19  27  40  59  91 125 146 182 216 275
#     4  10  16  26  40  58  90 116 156 180 206 264
#     4  10  20  28  38  63  89 120 160 178 222 266
#
# _framework density 17.039753000000001
#
# number of rings (size 3 to 8) (size 9 to 14) (size 15 to 20)
#    0.000    1.600    8.000    1.200    1.867    0.000 
#    0.000    0.667    0.000    0.000    0.000    0.000 
#    0.000    1.067    4.800    0.000    0.533    0.000 
#
# Total GULP energy -167033.964569 kJ/mol
# GULP energy per Si atom -5567.798819 kJ/mol
# Density = 1.700097 g / cm^3
# Si number density = 17.039753 Si / 1000 Ang^3
#
#
#
# Elastic Constant Matrix: (Units=GPa)
#
#
# Indices 1 2 3 4 5 6 
#
# 1 12.9685 18.0732 17.4524 -0.0001 -4.8926 0.0001
# 2 18.0732 82.5505 28.1913 0.0000 -2.0010 0.0000
# 3 17.4524 28.1913 86.0277 -0.0001 -29.8805 0.0000
# 4 -0.0001 0.0000 -0.0001 20.0784 0.0001 1.9435
# 5 -4.8926 -2.0010 -29.8805 0.0001 17.0684 -0.0001
# 6 0.0001 0.0000 0.0000 1.9435 -0.0001 19.3534
#
#
#
# Elastic Compliance Matrix: (Units=1/GPa)
#
#
# Indices 1 2 3 4 5 6 
#
# 1 0.136191 -0.023305 -0.018833 0.000001 0.003337 0.000000
# 2 -0.023305 0.019555 -0.008175 0.000000 -0.018700 0.000000
# 3 -0.018833 -0.008175 0.040608 0.000000 0.064732 0.000000
# 4 0.000001 0.000000 0.000000 0.050294 -0.000001 -0.005051
# 5 0.003337 -0.018700 0.064732 -0.000001 0.170674 0.000001
# 6 0.000000 0.000000 0.000000 -0.005051 0.000001 0.052178
#
#
# Mechanical properties :
#
#
# Convention : Reuss Voigt Hill
#
# Bulk Modulus (GPa) = 10.44629 34.33117 22.38873
# Shear Modulus (GPa) = 8.30518 19.15536 13.73027
#
# Velocity S-wave (km/s) = 2.21011 3.35648 2.84170
# Velocity P-wave (km/s) = 3.55762 5.93403 4.89231
#
# Compressibility (1/GPa) = 0.09572773
#
# Stress axis : x y z
#
# Youngs Moduli (GPa) = 7.34261 51.13884 24.62598
#
# Poissons Ratio (x) = 1.19177 0.46378
# Poissons Ratio (y) = 0.17112 0.20133
# Poissons Ratio (z) = 0.13828 0.41808
#
# Static dielectric constant tensor:
#      x y z
#    x 1.584690 0.000000 -0.052220 
#    y 0.000000 1.601220 0.000000 
#    z -0.052220 0.000000 1.646560 
# 
# From -- ./inp_files/163953.got.cif
#   From: 2010.05.17/outbox.cif.g08.bks.cpg/sg15_82_cif.got.tgz:163953.got - 2010.06.03 18:47:42.
