data_PCOD9254550
_publ_section_title
;
Structure prediction by ZEFSAII (Michael W. Deem and Ramdas Pophale) SiO2 
 PCOD9254550
Probable space group: C 2/C
;
_chemical_formula_sum "Si O2"
_cell_formula_units_Z 56
_cell_length_a 15.405011
_cell_length_b 18.767113
_cell_length_c 28.019147
_cell_angle_alpha 90.000000
_cell_angle_beta 161.007319
_cell_angle_gamma 90.000000
_cell_volume 2636.301997
_symmetry_space_group_name_H-M "C 2/C"
_symmetry_group_IT_number 15
_symmetry_cell_setting 'monoclinic'
loop_
_space_group_symop_operation_xyz
x,y,z
-x,y,1/2-z
-x,-y,-z
x,-y,1/2+z
1/2+x,1/2+y,z
1/2-x,1/2+y,1/2-z
1/2-x,1/2-y,-z
1/2+x,1/2-y,1/2+z
loop_
_atom_site_type_symbol
_atom_site_label
_atom_site_fract_x
_atom_site_fract_y
_atom_site_fract_z
Si Si1 0.590506 0.617465 0.708512
Si Si2 0.548071 0.885282 0.520914
Si Si3 0.585911 0.234853 0.351016
Si Si4 0.469481 0.692543 0.408388
Si Si5 0.645638 0.727589 0.603832
Si Si6 0.221007 0.008088 0.905907
Si Si7 0.536021 0.833469 0.380463
O O1 0.416775 0.689117 0.623246
O O2 0.410366 0.547401 0.617967
O O3 0.808663 0.612932 0.780266
O O4 0.770154 0.628111 0.849758
O O5 0.654917 0.812457 0.597927
O O6 0.480307 0.945080 0.525583
O O7 0.715859 0.924877 0.566753
O O8 0.500000 0.241407 0.250000
O O9 0.891520 0.211532 0.505600
O O10 0.351893 0.188424 0.254529
O O11 0.578135 0.690928 0.518632
O O12 0.526923 0.771288 0.415951
O O13 0.662771 0.644685 0.475944
O O14 0.909026 0.702241 0.767130
O O15 0.000000 0.016518 0.750000
#
# Coordination Sequence:
#
# PCOD9254550 Si02
#       7
#     8   8   8   8   8   8   8
#     4  10  16  32  47  62 104 139 171 210 269 311
#     4  10  17  30  47  68  98 136 170 220 257 308
#     4   9  14  28  48  63  91 140 169 202 252 302
#     4   9  19  32  42  68 101 137 171 208 262 309
#     4  11  18  30  52  73 100 137 182 210 255 328
#     4   9  18  29  47  67  92 134 181 214 259 307
#     4  10  20  30  47  71 100 146 172 212 261 318
#
# _framework density 21.241875
#
# number of rings (size 3 to 8) (size 9 to 14) (size 15 to 20)
#    0.000    2.286    5.714    0.857    0.000    3.429 
#    0.000    0.000    0.000    0.000    0.000    0.000 
#    0.000    4.571    0.000    0.000    0.000    0.143 
#
# Total GULP energy -155893.866101 kJ/mol
# GULP energy per Si atom -5567.638075 kJ/mol
# Density = 2.119353 g / cm^3
# Si number density = 21.241875 Si / 1000 Ang^3
#
#
#
# Elastic Constant Matrix: (Units=GPa)
#
#
# Indices 1 2 3 4 5 6 
#
# 1 101.7219 13.7078 29.0356 0.0029 39.5985 0.0033
# 2 13.7078 21.8478 5.2938 -0.0037 18.0172 0.0021
# 3 29.0356 5.2938 59.7886 0.0291 25.0029 -0.0010
# 4 0.0029 -0.0037 0.0291 17.7632 0.0006 14.7341
# 5 39.5985 18.0172 25.0029 0.0006 58.7069 -0.0020
# 6 0.0033 0.0021 -0.0010 14.7341 -0.0020 28.2784
#
#
#
# Elastic Compliance Matrix: (Units=1/GPa)
#
#
# Indices 1 2 3 4 5 6 
#
# 1 0.013944 -0.001845 -0.003543 0.000009 -0.007330 -0.000007
# 2 -0.001845 0.061961 0.003458 0.000023 -0.019244 -0.000018
# 3 -0.003543 0.003458 0.021395 -0.000059 -0.007783 0.000031
# 4 0.000009 0.000023 -0.000059 0.099146 0.000009 -0.051659
# 5 -0.007330 -0.019244 -0.007783 0.000009 0.031199 -0.000001
# 6 -0.000007 -0.000018 0.000031 -0.051659 -0.000001 0.062279
#
#
# Mechanical properties :
#
#
# Convention : Reuss Voigt Hill
#
# Bulk Modulus (GPa) = 10.70226 31.04809 20.87518
# Shear Modulus (GPa) = 15.38785 29.97110 22.67947
#
# Velocity S-wave (km/s) = 2.69441 3.76033 3.27108
# Velocity P-wave (km/s) = 3.83784 5.78806 4.91073
#
# Compressibility (1/GPa) = 0.09343818
#
# Stress axis : x y z
#
# Youngs Moduli (GPa) = 71.71399 16.13920 46.73991
#
# Poissons Ratio (x) = 0.02978 0.16560
# Poissons Ratio (y) = 0.13235 -0.16160
# Poissons Ratio (z) = 0.25409 -0.05580
#
# Static dielectric constant tensor:
#      x y z
#    x 1.868530 0.000000 0.043470 
#    y 0.000000 1.831650 0.000030 
#    z 0.043470 0.000030 1.847390 
# 
# From -- ./inp_files/297113.got.cif
#   From: 2010.05.17/outbox.cif.g08.bks.cpg/sg15_149_cif.got.tgz:297113.got - 2010.06.03 18:47:42.
