data_PCOD9254013
_publ_section_title
;
Structure prediction by ZEFSAII (Michael W. Deem and Ramdas Pophale) SiO2 
 PCOD9254013
Probable space group: C 2/C
;
_chemical_formula_sum "Si O2"
_cell_formula_units_Z 48
_cell_length_a 11.718885
_cell_length_b 19.518773
_cell_length_c 10.380411
_cell_angle_alpha 90.000000
_cell_angle_beta 66.653995
_cell_angle_gamma 90.000000
_cell_volume 2180.001625
_symmetry_space_group_name_H-M "C 2/C"
_symmetry_group_IT_number 15
_symmetry_cell_setting 'monoclinic'
loop_
_space_group_symop_operation_xyz
x,y,z
-x,y,1/2-z
-x,-y,-z
x,-y,1/2+z
1/2+x,1/2+y,z
1/2-x,1/2+y,1/2-z
1/2-x,1/2-y,-z
1/2+x,1/2-y,1/2+z
loop_
_atom_site_type_symbol
_atom_site_label
_atom_site_fract_x
_atom_site_fract_y
_atom_site_fract_z
Si Si1 0.618016 0.455540 0.480156
Si Si2 0.500000 0.113651 0.750000
Si Si3 0.249921 0.285750 0.855501
Si Si4 0.243263 0.847915 0.239206
Si Si5 0.000000 0.859339 0.750000
Si Si6 0.317762 0.949291 0.010255
Si Si7 0.088197 0.577187 0.433023
O O1 0.500000 0.500000 0.500000
O O2 0.660695 0.401260 0.355389
O O3 0.573996 0.408688 0.619313
O O4 0.727665 0.510132 0.456611
O O5 0.618763 0.152233 0.756794
O O6 0.552464 0.074797 0.601964
O O7 0.198653 0.228656 0.780977
O O8 0.388100 0.310309 0.753663
O O9 0.164524 0.353358 0.886965
O O10 0.250000 0.250000 0.000000
O O11 0.255523 0.880880 0.093806
O O12 0.335224 0.006922 0.116523
O O13 0.458590 0.927038 0.915354
#
# Coordination Sequence:
#
# PCOD9254013 Si02
#       7
#     8   4   8   8   4   8   8
#     4  12  24  41  61  90 127 172 212 261 322 383
#     4  10  15  32  58  92 120 163 192 264 317 368
#     4  12  21  37  61 100 127 165 211 266 322 384
#     4  11  22  35  63  92 127 160 212 262 325 372
#     4  12  23  38  64  96 128 161 214 264 317 386
#     4  10  21  40  59  95 124 164 207 267 315 383
#     4  10  20  35  62  91 133 154 212 262 325 371
#
# _framework density 22.018331
#
# number of rings (size 3 to 8) (size 9 to 14) (size 15 to 20)
#    0.000    1.000    6.667    1.500    2.333    0.000 
#    0.000    0.000    0.000    6.000    0.000    0.000 
#    0.000    0.000    0.000    0.000    0.000    0.000 
#
# Total GULP energy -133873.546845 kJ/mol
# GULP energy per Si atom -5578.064452 kJ/mol
# Density = 2.196822 g / cm^3
# Si number density = 22.018331 Si / 1000 Ang^3
#
#
#
# Elastic Constant Matrix: (Units=GPa)
#
#
# Indices 1 2 3 4 5 6 
#
# 1 103.2841 42.3564 1.6955 0.0000 -31.7530 0.0000
# 2 42.3564 159.8193 16.2145 0.0000 -14.5086 0.0000
# 3 1.6955 16.2145 53.3962 0.0000 -9.1708 0.0000
# 4 0.0000 0.0000 0.0000 17.6540 0.0000 -7.8896
# 5 -31.7530 -14.5086 -9.1708 0.0000 20.5726 0.0000
# 6 0.0000 0.0000 0.0000 -7.8896 0.0000 29.8255
#
#
#
# Elastic Compliance Matrix: (Units=1/GPa)
#
#
# Indices 1 2 3 4 5 6 
#
# 1 0.020955 -0.003183 0.005924 0.000000 0.032740 0.000000
# 2 -0.003183 0.007256 -0.002238 0.000000 -0.000793 0.000000
# 3 0.005924 -0.002238 0.022220 0.000000 0.017470 0.000000
# 4 0.000000 0.000000 0.000000 0.064239 0.000000 0.016993
# 5 0.032740 -0.000793 0.017470 0.000000 0.106370 0.000000
# 6 0.000000 0.000000 0.000000 0.016993 0.000000 0.038023
#
#
# Mechanical properties :
#
#
# Convention : Reuss Voigt Hill
#
# Bulk Modulus (GPa) = 19.44112 48.55915 34.00013
# Shear Modulus (GPa) = 18.16847 30.69265 24.43056
#
# Velocity S-wave (km/s) = 2.87566 3.73763 3.33461
# Velocity P-wave (km/s) = 4.45809 6.38187 5.50468
#
# Compressibility (1/GPa) = 0.05143737
#
# Stress axis : x y z
#
# Youngs Moduli (GPa) = 47.72056 137.82381 45.00436
#
# Poissons Ratio (x) = 0.43863 -0.26661
# Poissons Ratio (y) = 0.15187 0.10074
# Poissons Ratio (z) = -0.28270 0.30851
#
# Static dielectric constant tensor:
#      x y z
#    x 1.609730 0.000000 -0.078090 
#    y 0.000000 1.888660 0.000000 
#    z -0.078090 0.000000 1.846920 
# 
# From -- ./inp_files/87833.got.cif
#   From: 2010.05.17/outbox.cif.g08.bks.cpg/sg15_44_cif.got.tgz:87833.got - 2010.06.03 18:47:42.
