data_PCOD9254418
_publ_section_title
;
Structure prediction by ZEFSAII (Michael W. Deem and Ramdas Pophale) SiO2 
 PCOD9254418
Probable space group: C 2/C
;
_chemical_formula_sum "Si O2"
_cell_formula_units_Z 60
_cell_length_a 12.418816
_cell_length_b 19.921538
_cell_length_c 14.306732
_cell_angle_alpha 90.000000
_cell_angle_beta 115.954707
_cell_angle_gamma 90.000000
_cell_volume 3182.518695
_symmetry_space_group_name_H-M "C 2/C"
_symmetry_group_IT_number 15
_symmetry_cell_setting 'monoclinic'
loop_
_space_group_symop_operation_xyz
x,y,z
-x,y,1/2-z
-x,-y,-z
x,-y,1/2+z
1/2+x,1/2+y,z
1/2-x,1/2+y,1/2-z
1/2-x,1/2-y,-z
1/2+x,1/2-y,1/2+z
loop_
_atom_site_type_symbol
_atom_site_label
_atom_site_fract_x
_atom_site_fract_y
_atom_site_fract_z
Si Si1 0.599020 0.436210 0.706736
Si Si2 0.653370 0.254684 0.381095
Si Si3 0.301613 0.429605 0.301531
Si Si4 0.700139 0.691543 0.348494
Si Si5 0.335843 0.798098 0.307830
Si Si6 0.083144 0.866408 0.990173
Si Si7 0.500000 0.373316 0.250000
Si Si8 0.476417 0.224841 0.457794
O O1 0.500000 0.454148 0.750000
O O2 0.700328 0.491550 0.721575
O O3 0.661302 0.369040 0.767208
O O4 0.521106 0.414530 0.587337
O O5 0.750000 0.250000 0.500000
O O6 0.732004 0.250538 0.316508
O O7 0.594240 0.326505 0.339180
O O8 0.544240 0.211763 0.384374
O O9 0.209407 0.374219 0.226505
O O10 0.321714 0.410544 0.416798
O O11 0.427436 0.413604 0.298624
O O12 0.647170 0.760075 0.283911
O O13 0.642696 0.672280 0.425759
O O14 0.842825 0.697167 0.411003
O O15 0.443173 0.797748 0.423263
O O16 0.035944 0.805562 0.036130
#
# Coordination Sequence:
#
# PCOD9254418 Si02
#       8
#     8   8   8   8   8   8   4   8
#     4  10  22  38  58  84 118 153 194 241 295 343
#     4   9  18  31  50  83 110 136 182 232 286 328
#     4  11  20  36  55  83 112 149 193 238 290 340
#     4  11  22  37  56  87 120 155 191 237 291 351
#     4  10  21  34  58  86 115 151 193 238 291 343
#     4  11  21  35  58  86 117 152 191 239 297 342
#     4  10  16  30  54  72 104 146 172 234 280 326
#     4  11  19  35  56  85 117 147 190 245 283 341
#
# _framework density 18.852990999999999
#
# number of rings (size 3 to 8) (size 9 to 14) (size 15 to 20)
#    0.000    1.600    4.667    1.600    0.000    0.000 
#    0.000    0.667    0.000    0.000    3.467    0.000 
#    0.000    0.000    0.000    0.000    0.000    0.000 
#
# Total GULP energy -167019.582041 kJ/mol
# GULP energy per Si atom -5567.319401 kJ/mol
# Density = 1.881008 g / cm^3
# Si number density = 18.852991 Si / 1000 Ang^3
#
#
#
# Elastic Constant Matrix: (Units=GPa)
#
#
# Indices 1 2 3 4 5 6 
#
# 1 47.2263 10.4541 17.2258 0.0000 5.0288 0.0000
# 2 10.4541 77.5082 12.9858 0.0000 9.2396 0.0000
# 3 17.2258 12.9858 50.1277 0.0000 8.7253 0.0000
# 4 0.0000 0.0000 0.0000 8.2573 0.0000 8.3831
# 5 5.0288 9.2396 8.7253 0.0000 31.6018 0.0000
# 6 0.0000 0.0000 0.0000 8.3831 0.0000 6.9138
#
#
#
# Elastic Compliance Matrix: (Units=1/GPa)
#
#
# Indices 1 2 3 4 5 6 
#
# 1 0.024540 -0.001868 -0.007736 0.000000 -0.001223 0.000000
# 2 -0.001868 0.013931 -0.002426 0.000000 -0.003106 0.000000
# 3 -0.007736 -0.002426 0.024054 0.000000 -0.004701 0.000000
# 4 0.000000 0.000000 0.000000 -0.524242 0.000000 0.635659
# 5 -0.001223 -0.003106 -0.004701 0.000000 0.034044 0.000000
# 6 0.000000 0.000000 0.000000 0.635659 0.000000 -0.626116
#
#
# Mechanical properties :
#
#
# Convention : Reuss Voigt Hill
#
# Bulk Modulus (GPa) = 25.99824 28.46597 27.23210
# Shear Modulus (GPa) = -4.91688 18.30100 6.69206
#
# Velocity S-wave (km/s) = -1.61668 3.11902 1.88608
# Velocity P-wave (km/s) = 3.21481 5.30120 4.38393
#
# Compressibility (1/GPa) = 0.03846415
#
# Stress axis : x y z
#
# Youngs Moduli (GPa) = 40.74960 71.78473 41.57270
#
# Poissons Ratio (x) = 0.13409 0.32161
# Poissons Ratio (y) = 0.07612 0.10087
# Poissons Ratio (z) = 0.31524 0.17417
#
# Static dielectric constant tensor:
#      x y z
#    x 1.712250 0.000000 -0.044700 
#    y 0.000000 1.661970 0.000000 
#    z -0.044700 0.000000 1.699140 
# 
# From -- ./inp_files/146137.got.cif
#   From: 2010.05.17/outbox.cif.g08.bks.cpg/sg15_74_cif.got.tgz:146137.got - 2010.06.03 18:47:42.
