data_PCOD9254976
_publ_section_title
;
Structure prediction by ZEFSAII (Michael W. Deem and Ramdas Pophale) SiO2 
 PCOD9254976
Probable space group: C 2/C
;
_chemical_formula_sum "Si O2"
_cell_formula_units_Z 64
_cell_length_a 22.270233
_cell_length_b 13.265847
_cell_length_c 10.587763
_cell_angle_alpha 90.000000
_cell_angle_beta 98.095406
_cell_angle_gamma 90.000000
_cell_volume 3096.809449
_symmetry_space_group_name_H-M "C 2/C"
_symmetry_group_IT_number 15
_symmetry_cell_setting 'monoclinic'
loop_
_space_group_symop_operation_xyz
x,y,z
-x,y,1/2-z
-x,-y,-z
x,-y,1/2+z
1/2+x,1/2+y,z
1/2-x,1/2+y,1/2-z
1/2-x,1/2-y,-z
1/2+x,1/2-y,1/2+z
loop_
_atom_site_type_symbol
_atom_site_label
_atom_site_fract_x
_atom_site_fract_y
_atom_site_fract_z
Si Si1 0.956225 0.899592 0.858896
Si Si2 0.636434 0.418665 0.860149
Si Si3 0.733495 0.298610 0.196603
Si Si4 0.442781 0.632219 0.933119
Si Si5 0.271413 0.010704 0.106606
Si Si6 0.381814 0.652116 0.668466
Si Si7 0.218130 0.417106 0.624429
Si Si8 0.805019 0.796461 0.932695
O O1 0.892731 0.869848 0.775402
O O2 0.000000 0.900466 0.750000
O O3 0.947208 0.013256 0.903869
O O4 0.994150 0.841881 0.978187
O O5 0.610544 0.533407 0.858590
O O6 0.708412 0.428545 0.865370
O O7 0.611032 0.362329 0.977465
O O8 0.752338 0.396351 0.126733
O O9 0.680971 0.335947 0.273756
O O10 0.708872 0.202631 0.111563
O O11 0.790107 0.258099 0.296369
O O12 0.429466 0.681468 0.792695
O O13 0.302931 0.052682 0.241354
O O14 0.214297 0.085549 0.077719
O O15 0.306369 0.996470 0.985465
O O16 0.366502 0.709383 0.533064
O O17 0.750000 0.750000 0.000000
#
# Coordination Sequence:
#
# PCOD9254976 Si02
#       8
#     8   8   8   8   8   8   8   8
#     4   8  16  28  38  62  86 112 153 204 243 286
#     4  10  17  26  45  63  87 124 163 203 243 292
#     4  10  20  30  43  66  90 120 163 211 246 286
#     4   9  17  26  43  60  87 118 158 201 241 293
#     4  11  19  33  45  64  90 122 161 205 251 283
#     4  10  17  29  44  62  89 124 163 202 246 293
#     4  11  21  30  48  66  92 124 169 209 245 294
#     4   9  18  30  44  62  88 118 160 203 241 285
#
# _framework density 20.666432
#
# number of rings (size 3 to 8) (size 9 to 14) (size 15 to 20)
#    0.000    2.250    2.500    1.875    1.750    0.000 
#    0.000    0.000    0.000    0.000    0.000    0.000 
#    0.000    0.000    0.000   10.125    0.000  475.875 
#
# Total GULP energy -178248.063436 kJ/mol
# GULP energy per Si atom -5570.251982 kJ/mol
# Density = 2.061939 g / cm^3
# Si number density = 20.666432 Si / 1000 Ang^3
#
#
#
# Elastic Constant Matrix: (Units=GPa)
#
#
# Indices 1 2 3 4 5 6 
#
# 1 49.5703 7.6413 22.9607 0.0000 11.6597 0.0000
# 2 7.6413 66.6758 26.1464 0.0000 4.3586 0.0000
# 3 22.9607 26.1464 143.7190 0.0000 24.6329 0.0000
# 4 0.0000 0.0000 0.0000 23.4013 0.0000 1.8725
# 5 11.6597 4.3586 24.6329 0.0000 22.9720 0.0000
# 6 0.0000 0.0000 0.0000 1.8725 0.0000 16.7507
#
#
#
# Elastic Compliance Matrix: (Units=1/GPa)
#
#
# Indices 1 2 3 4 5 6 
#
# 1 0.023518 -0.001335 -0.001852 0.000000 -0.009697 0.000000
# 2 -0.001335 0.016226 -0.002851 0.000000 0.000656 0.000000
# 3 -0.001852 -0.002851 0.009212 0.000000 -0.008397 0.000000
# 4 0.000000 0.000000 0.000000 0.043118 0.000000 -0.004820
# 5 -0.009697 0.000656 -0.008397 0.000000 0.057333 0.000000
# 6 0.000000 0.000000 0.000000 -0.004820 0.000000 0.060238
#
#
# Mechanical properties :
#
#
# Convention : Reuss Voigt Hill
#
# Bulk Modulus (GPa) = 27.11565 41.49578 34.30571
# Shear Modulus (GPa) = 21.36616 26.17256 23.76936
#
# Velocity S-wave (km/s) = 3.21885 3.56255 3.39506
# Velocity P-wave (km/s) = 5.19267 6.08644 5.65723
#
# Compressibility (1/GPa) = 0.03687908
#
# Stress axis : x y z
#
# Youngs Moduli (GPa) = 42.52050 61.62911 108.55602
#
# Poissons Ratio (x) = 0.08227 0.20108
# Poissons Ratio (y) = 0.05676 0.30951
# Poissons Ratio (z) = 0.07876 0.17571
#
# Static dielectric constant tensor:
#      x y z
#    x 1.812100 0.000000 -0.022780 
#    y 0.000000 1.734660 0.000000 
#    z -0.022780 0.000000 1.998590 
# 
# From -- ./inp_files/122994.got.cif
#   From: 2010.05.17/outbox.cif.g08.bks.cpg/sg15_62_cif.got.tgz:122994.got - 2010.06.03 18:47:42.
