data_PCOD9254451
_publ_section_title
;
Structure prediction by ZEFSAII (Michael W. Deem and Ramdas Pophale) SiO2 
 PCOD9254451
Probable space group: C 2/C
;
_chemical_formula_sum "Si O2"
_cell_formula_units_Z 60
_cell_length_a 10.141933
_cell_length_b 16.958218
_cell_length_c 20.593416
_cell_angle_alpha 90.000000
_cell_angle_beta 48.373876
_cell_angle_gamma 90.000000
_cell_volume 2647.511209
_symmetry_space_group_name_H-M "C 2/C"
_symmetry_group_IT_number 15
_symmetry_cell_setting 'monoclinic'
loop_
_space_group_symop_operation_xyz
x,y,z
-x,y,1/2-z
-x,-y,-z
x,-y,1/2+z
1/2+x,1/2+y,z
1/2-x,1/2+y,1/2-z
1/2-x,1/2-y,-z
1/2+x,1/2-y,1/2+z
loop_
_atom_site_type_symbol
_atom_site_label
_atom_site_fract_x
_atom_site_fract_y
_atom_site_fract_z
Si Si1 0.169296 0.603395 0.923545
Si Si2 0.345555 0.510375 0.474290
Si Si3 0.118904 0.657140 0.395815
Si Si4 0.985139 0.501019 0.640543
Si Si5 0.313250 0.447893 0.188186
Si Si6 0.160113 0.726915 0.750337
Si Si7 0.117466 0.187508 0.077037
Si Si8 0.500000 0.412143 0.250000
O O1 0.237124 0.530592 0.947986
O O2 0.056879 0.570769 0.898954
O O3 0.348957 0.636752 0.834912
O O4 0.054515 0.664268 0.002422
O O5 0.531239 0.463777 0.413649
O O6 0.396117 0.603089 0.454275
O O7 0.195767 0.500441 0.578186
O O8 0.084584 0.575545 0.372552
O O9 0.175986 0.719361 0.324102
O O10 0.284471 0.658955 0.389683
O O11 0.869389 0.507089 0.743036
O O12 0.247687 0.358752 0.218272
O O13 0.410390 0.466340 0.225224
O O14 0.000000 0.723317 0.750000
O O15 0.060369 0.765637 0.844868
O O16 0.250000 0.250000 0.000000
#
# Coordination Sequence:
#
# PCOD9254451 Si02
#       8
#     8   8   8   8   8   8   8   4
#     4   9  15  28  50  80 111 137 170 228 288 332
#     4  10  17  30  50  81 105 135 181 226 274 329
#     4  10  18  32  51  79 113 141 175 231 287 333
#     4  10  16  30  55  81 112 134 180 233 289 329
#     4  10  20  34  54  81 110 147 185 228 276 332
#     4  10  23  36  50  77 117 154 184 222 283 335
#     4  11  20  31  52  83 113 140 177 233 291 329
#     4   8  18  28  52  80 104 136 178 228 274 318
#
# _framework density 22.662794000000002
#
# number of rings (size 3 to 8) (size 9 to 14) (size 15 to 20)
#    0.000    2.133    2.667    2.400    1.867    0.000 
#    0.000    6.000    0.000    7.200    6.933    0.000 
#    0.000    0.000    0.000    0.000    0.000    0.000 
#
# Total GULP energy -167049.728460 kJ/mol
# GULP energy per Si atom -5568.324282 kJ/mol
# Density = 2.261121 g / cm^3
# Si number density = 22.662794 Si / 1000 Ang^3
#
#
#
# Elastic Constant Matrix: (Units=GPa)
#
#
# Indices 1 2 3 4 5 6 
#
# 1 70.9577 6.9277 12.3675 0.0001 -20.9612 0.0000
# 2 6.9277 106.8072 60.5860 -0.0001 -16.3207 0.0001
# 3 12.3675 60.5860 221.3871 -0.0005 -45.1026 -0.0002
# 4 0.0001 -0.0001 -0.0005 35.9865 0.0001 -17.5200
# 5 -20.9612 -16.3207 -45.1026 0.0001 20.2892 0.0000
# 6 0.0000 0.0001 -0.0002 -17.5200 0.0000 3.6533
#
#
#
# Elastic Compliance Matrix: (Units=1/GPa)
#
#
# Indices 1 2 3 4 5 6 
#
# 1 0.025301 0.000873 0.006975 0.000000 0.042346 0.000000
# 2 0.000873 0.011291 -0.002019 0.000000 0.005497 0.000000
# 3 0.006975 -0.002019 0.010632 0.000000 0.029217 -0.000001
# 4 0.000000 0.000000 0.000000 -0.020819 -0.000001 -0.099841
# 5 0.042346 0.005497 0.029217 -0.000001 0.162406 -0.000001
# 6 0.000000 0.000000 -0.000001 -0.099841 -0.000001 -0.205076
#
#
# Mechanical properties :
#
#
# Convention : Reuss Voigt Hill
#
# Bulk Modulus (GPa) = 16.98293 62.10161 39.54227
# Shear Modulus (GPa) = -602.78177 33.27052 -284.75562
#
# Velocity S-wave (km/s) = -16.32654 3.83569 -11.22148
# Velocity P-wave (km/s) = 18.65202 6.86139 12.26416
#
# Compressibility (1/GPa) = 0.05888264
#
# Stress axis : x y z
#
# Youngs Moduli (GPa) = 39.52375 88.56452 94.05517
#
# Poissons Ratio (x) = -0.07734 -0.65600
# Poissons Ratio (y) = -0.03452 0.18989
# Poissons Ratio (z) = -0.27567 0.17881
#
# Static dielectric constant tensor:
#      x y z
#    x 1.909180 0.000000 0.006220 
#    y 0.000000 1.877280 0.000000 
#    z 0.006220 0.000000 2.343370 
# 
# From -- ./inp_files/205150.got.cif
#   From: 2010.05.17/outbox.cif.g08.bks.cpg/sg15_103_cif.got.tgz:205150.got - 2010.06.03 18:47:42.
