data_PCOD9254088
_publ_section_title
;
Structure prediction by ZEFSAII (Michael W. Deem and Ramdas Pophale) SiO2 
 PCOD9254088
Probable space group: C 2/C
;
_chemical_formula_sum "Si O2"
_cell_formula_units_Z 44
_cell_length_a 26.255558
_cell_length_b 16.720789
_cell_length_c 17.554053
_cell_angle_alpha 90.000000
_cell_angle_beta 167.202903
_cell_angle_gamma 90.000000
_cell_volume 1706.975822
_symmetry_space_group_name_H-M "C 2/C"
_symmetry_group_IT_number 15
_symmetry_cell_setting 'monoclinic'
loop_
_space_group_symop_operation_xyz
x,y,z
-x,y,1/2-z
-x,-y,-z
x,-y,1/2+z
1/2+x,1/2+y,z
1/2-x,1/2+y,1/2-z
1/2-x,1/2-y,-z
1/2+x,1/2-y,1/2+z
loop_
_atom_site_type_symbol
_atom_site_label
_atom_site_fract_x
_atom_site_fract_y
_atom_site_fract_z
Si Si1 0.297002 0.105091 0.259381
Si Si2 0.796437 0.522452 0.102947
Si Si3 0.691669 0.794407 0.310756
Si Si4 0.451875 0.617608 0.067748
Si Si5 0.000000 0.514362 0.250000
Si Si6 0.379853 0.619840 0.343305
O O1 0.492826 0.040090 0.570636
O O2 0.431649 0.189214 0.455352
O O3 0.101525 0.112921 0.038720
O O4 0.247470 0.079755 0.101529
O O5 0.897420 0.560129 0.172775
O O6 0.573092 0.465951 0.765406
O O7 0.858325 0.819454 0.623044
O O8 0.729235 0.706183 0.334381
O O9 0.742913 0.858141 0.316874
O O10 0.424992 0.616252 0.937630
O O11 0.207510 0.452174 0.571217
#
# Coordination Sequence:
#
# PCOD9254088 Si02
#       6
#     8   8   8   8   4   8
#     4   9  17  27  43  61  89 118 145 176 210 261
#     4   8  15  28  42  60  83 120 151 171 210 254
#     4  10  17  25  40  66  93 117 140 174 213 255
#     4   9  17  26  41  61  91 119 145 176 207 257
#     4   8  14  24  44  62  82 110 148 178 196 254
#     4  10  16  25  41  65  91 120 142 166 213 264
#
# _framework density 25.776581
#
# number of rings (size 3 to 8) (size 9 to 14) (size 15 to 20)
#    0.000    2.909    0.000    3.818    0.000    0.000 
#    0.000    0.000    0.000   45.818    0.000    1.273 
#    0.000    0.000    0.000   12.182    0.000    0.000 
#
# Total GULP energy -122956.477775 kJ/mol
# GULP energy per Si atom -5588.930808 kJ/mol
# Density = 2.571791 g / cm^3
# Si number density = 25.776581 Si / 1000 Ang^3
#
#
#
# Elastic Constant Matrix: (Units=GPa)
#
#
# Indices 1 2 3 4 5 6 
#
# 1 267.5329 38.6022 42.1945 -0.0001 -15.2370 0.0000
# 2 38.6022 92.1300 25.0474 0.0000 -12.0996 0.0000
# 3 42.1945 25.0474 42.6031 -0.0003 2.7241 -0.0001
# 4 -0.0001 0.0000 -0.0003 23.0293 -0.0001 -6.9624
# 5 -15.2370 -12.0996 2.7241 -0.0001 43.3505 0.0000
# 6 0.0000 0.0000 -0.0001 -6.9624 0.0000 38.9059
#
#
#
# Elastic Compliance Matrix: (Units=1/GPa)
#
#
# Indices 1 2 3 4 5 6 
#
# 1 0.004600 -0.000510 -0.004368 0.000000 0.001749 0.000000
# 2 -0.000510 0.013745 -0.007841 0.000000 0.004150 0.000000
# 3 -0.004368 -0.007841 0.032778 0.000000 -0.005783 0.000000
# 4 0.000000 0.000000 0.000000 0.045907 0.000000 0.008215
# 5 0.001749 0.004150 -0.005783 0.000000 0.025204 0.000000
# 6 0.000000 0.000000 0.000000 0.008215 0.000000 0.027173
#
#
# Mechanical properties :
#
#
# Convention : Reuss Voigt Hill
#
# Bulk Modulus (GPa) = 38.93319 68.21712 53.57516
# Shear Modulus (GPa) = 27.26199 40.81861 34.04030
#
# Velocity S-wave (km/s) = 3.25565 3.98371 3.63794
# Velocity P-wave (km/s) = 5.41010 6.90522 6.20287
#
# Compressibility (1/GPa) = 0.02568502
#
# Stress axis : x y z
#
# Youngs Moduli (GPa) = 217.39431 72.75534 30.50839
#
# Poissons Ratio (x) = 0.03712 0.13325
# Poissons Ratio (y) = 0.11092 0.23921
# Poissons Ratio (z) = 0.94950 0.57046
#
# Static dielectric constant tensor:
#      x y z
#    x 2.091610 0.000000 -0.024030 
#    y 0.000000 2.010540 0.000000 
#    z -0.024030 0.000000 2.132220 
# 
# From -- ./inp_files/174283.got.cif
#   From: 2010.05.17/outbox.cif.g08.bks.cpg/sg15_88_cif.got.tgz:174283.got - 2010.06.03 18:47:42.
