data_PCOD9254754
_publ_section_title
;
Structure prediction by ZEFSAII (Michael W. Deem and Ramdas Pophale) SiO2 
 PCOD9254754
Probable space group: C 2/C
;
_chemical_formula_sum "Si O2"
_cell_formula_units_Z 56
_cell_length_a 15.067442
_cell_length_b 12.866542
_cell_length_c 14.134971
_cell_angle_alpha 90.000000
_cell_angle_beta 120.527821
_cell_angle_gamma 90.000000
_cell_volume 2360.436895
_symmetry_space_group_name_H-M "C 2/C"
_symmetry_group_IT_number 15
_symmetry_cell_setting 'monoclinic'
loop_
_space_group_symop_operation_xyz
x,y,z
-x,y,1/2-z
-x,-y,-z
x,-y,1/2+z
1/2+x,1/2+y,z
1/2-x,1/2+y,1/2-z
1/2-x,1/2-y,-z
1/2+x,1/2-y,1/2+z
loop_
_atom_site_type_symbol
_atom_site_label
_atom_site_fract_x
_atom_site_fract_y
_atom_site_fract_z
Si Si1 0.309352 0.315213 0.912433
Si Si2 0.983502 0.718281 0.900804
Si Si3 0.273746 0.022108 0.631343
Si Si4 0.791869 0.032061 0.117653
Si Si5 0.500000 0.376125 0.750000
Si Si6 0.792231 0.251483 0.914292
Si Si7 0.000000 0.550104 0.750000
Si Si8 0.123883 0.178140 0.831867
O O1 0.383715 0.226447 0.910964
O O2 0.305502 0.434972 0.874752
O O3 0.192444 0.275423 0.836604
O O4 0.349371 0.325170 0.041893
O O5 0.956663 0.803702 0.807548
O O6 0.013453 0.620717 0.851884
O O7 0.084510 0.750057 0.014108
O O8 0.266531 0.017115 0.512660
O O9 0.250907 0.141972 0.647912
O O10 0.392772 0.995369 0.714396
O O11 0.908608 0.062358 0.153631
O O12 0.742735 0.134182 0.139936
O O13 0.817173 0.922811 0.180305
O O14 0.750000 0.250000 0.000000
O O15 0.000000 0.180604 0.750000
#
# Coordination Sequence:
#
# PCOD9254754 Si02
#       8
#     8   8   8   8   4   8   4   8
#     4  10  25  44  63  93 133 162 225 268 310 380
#     4  11  21  38  62  98 128 168 207 270 321 385
#     4  10  20  38  62  91 122 175 204 266 316 390
#     4  10  18  36  63  92 117 165 208 256 317 372
#     4  11  18  34  63  88 128 154 203 253 330 372
#     4  10  16  34  58  90 126 157 198 255 335 362
#     4  11  20  38  67  92 138 174 213 257 344 384
#     4  10  22  47  69  83 122 183 217 259 318 389
#
# _framework density 23.724421
#
# number of rings (size 3 to 8) (size 9 to 14) (size 15 to 20)
#    0.000    1.714    6.429    0.857    1.000    0.571 
#    7.714    0.714    0.000    0.000    0.000    0.000 
#    0.000    0.000    0.000    0.000    0.000    0.000 
#
# Total GULP energy -156015.251235 kJ/mol
# GULP energy per Si atom -5571.973258 kJ/mol
# Density = 2.367042 g / cm^3
# Si number density = 23.724421 Si / 1000 Ang^3
#
#
#
# Elastic Constant Matrix: (Units=GPa)
#
#
# Indices 1 2 3 4 5 6 
#
# 1 73.1085 33.1261 33.3816 0.0000 24.5483 0.0000
# 2 33.1261 115.3783 29.4892 0.0000 10.8529 0.0000
# 3 33.3816 29.4892 87.3246 0.0000 37.5643 0.0000
# 4 0.0000 0.0000 0.0000 9.4427 0.0000 18.9491
# 5 24.5483 10.8529 37.5643 0.0000 46.5218 0.0000
# 6 0.0000 0.0000 0.0000 18.9491 0.0000 12.2524
#
#
#
# Elastic Compliance Matrix: (Units=1/GPa)
#
#
# Indices 1 2 3 4 5 6 
#
# 1 0.019181 -0.004092 -0.003075 0.000000 -0.006683 0.000000
# 2 -0.004092 0.010369 -0.002797 0.000000 0.001999 0.000000
# 3 -0.003075 -0.002797 0.019295 0.000000 -0.013304 0.000000
# 4 0.000000 0.000000 0.000000 -0.050344 0.000000 0.077860
# 5 -0.006683 0.001999 -0.013304 0.000000 0.035298 0.000000
# 6 0.000000 0.000000 0.000000 0.077860 0.000000 -0.038799
#
#
# Mechanical properties :
#
#
# Convention : Reuss Voigt Hill
#
# Bulk Modulus (GPa) = 34.58395 51.97836 43.28116
# Shear Modulus (GPa) = 203.52133 25.63102 114.57618
#
# Velocity S-wave (km/s) = 9.27210 3.29046 6.95697
# Velocity P-wave (km/s) = 11.36829 6.03265 9.10030
#
# Compressibility (1/GPa) = 0.02891514
#
# Stress axis : x y z
#
# Youngs Moduli (GPa) = 52.13508 96.44178 51.82733
#
# Poissons Ratio (x) = 0.39467 0.15939
# Poissons Ratio (y) = 0.21335 0.14497
# Poissons Ratio (z) = 0.16034 0.26976
#
# Static dielectric constant tensor:
#      x y z
#    x 1.992460 0.000000 -0.059140 
#    y 0.000000 1.978530 0.000000 
#    z -0.059140 0.000000 1.924330 
# 
# From -- ./inp_files/205525.got.cif
#   From: 2010.05.17/outbox.cif.g08.bks.cpg/sg15_103_cif.got.tgz:205525.got - 2010.06.03 18:47:42.
