data_PCOD9254359
_publ_section_title
;
Structure prediction by ZEFSAII (Michael W. Deem and Ramdas Pophale) SiO2 
 PCOD9254359
Probable space group: C 2/C
;
_chemical_formula_sum "Si O2"
_cell_formula_units_Z 44
_cell_length_a 24.210151
_cell_length_b 16.565135
_cell_length_c 5.319237
_cell_angle_alpha 90.000000
_cell_angle_beta 54.591898
_cell_angle_gamma 90.000000
_cell_volume 1738.696867
_symmetry_space_group_name_H-M "C 2/C"
_symmetry_group_IT_number 15
_symmetry_cell_setting 'monoclinic'
loop_
_space_group_symop_operation_xyz
x,y,z
-x,y,1/2-z
-x,-y,-z
x,-y,1/2+z
1/2+x,1/2+y,z
1/2-x,1/2+y,1/2-z
1/2-x,1/2-y,-z
1/2+x,1/2-y,1/2+z
loop_
_atom_site_type_symbol
_atom_site_label
_atom_site_fract_x
_atom_site_fract_y
_atom_site_fract_z
Si Si1 0.042427 0.727707 0.390134
Si Si2 0.819211 0.299457 0.848244
Si Si3 0.075820 0.536401 0.290512
Si Si4 0.223943 0.342022 0.037615
Si Si5 0.000000 0.054607 0.750000
Si Si6 0.353458 0.552362 0.068274
O O1 0.119337 0.757886 0.229063
O O2 0.060004 0.631613 0.343980
O O3 0.000000 0.744301 0.250000
O O4 0.000000 0.749264 0.750000
O O5 0.830555 0.337588 0.543473
O O6 0.750000 0.250000 0.000000
O O7 0.804291 0.362065 0.112170
O O8 0.108941 0.498003 0.450346
O O9 0.000000 0.500000 0.500000
O O10 0.250000 0.250000 0.000000
O O11 0.287108 0.395551 0.792863
O O12 0.073722 0.095598 0.570329
O O13 0.000000 0.000000 0.500000
O O14 0.352307 0.482570 0.287883
#
# Coordination Sequence:
#
# PCOD9254359 Si02
#       6
#     8   8   8   8   4   8
#     4  12  21  35  62  88 112 158 206 253 305 370
#     4  10  23  42  63  84 121 170 213 264 327 377
#     4  10  16  30  48  75 118 149 178 240 293 358
#     4  10  21  41  65  84 126 183 216 256 328 395
#     4   8  16  30  54  92 122 166 200 266 346 388
#     4  10  19  35  63  95 136 164 218 275 328 400
#
# _framework density 25.306308999999999
#
# number of rings (size 3 to 8) (size 9 to 14) (size 15 to 20)
#    0.000    1.818    3.636    2.182    0.000    0.000 
#    0.000    5.455   24.000    0.000    0.000    0.000 
#    0.000    0.000    0.000    0.000    0.000    0.000 
#
# Total GULP energy -122916.187953 kJ/mol
# GULP energy per Si atom -5587.099452 kJ/mol
# Density = 2.524871 g / cm^3
# Si number density = 25.306309 Si / 1000 Ang^3
#
#
#
# Elastic Constant Matrix: (Units=GPa)
#
#
# Indices 1 2 3 4 5 6 
#
# 1 195.2485 22.6133 72.4195 0.0000 15.2728 0.0000
# 2 22.6133 45.1752 -14.8546 0.0000 0.1962 0.0000
# 3 72.4195 -14.8546 128.2959 0.0000 35.8353 0.0000
# 4 0.0000 0.0000 0.0000 17.1916 0.0000 -16.6038
# 5 15.2728 0.1962 35.8353 0.0000 78.7011 0.0000
# 6 0.0000 0.0000 0.0000 -16.6038 0.0000 36.7075
#
#
#
# Elastic Compliance Matrix: (Units=1/GPa)
#
#
# Indices 1 2 3 4 5 6 
#
# 1 0.007616 -0.005522 -0.005189 0.000000 0.000899 0.000000
# 2 -0.005522 0.027163 0.006854 0.000000 -0.002117 0.000000
# 3 -0.005189 0.006854 0.012879 0.000000 -0.004874 0.000000
# 4 0.000000 0.000000 0.000000 0.103292 0.000000 0.046722
# 5 0.000899 -0.002117 -0.004874 0.000000 0.014757 0.000000
# 6 0.000000 0.000000 0.000000 0.046722 0.000000 0.048376
#
#
# Mechanical properties :
#
#
# Convention : Reuss Voigt Hill
#
# Bulk Modulus (GPa) = 25.03679 58.78622 41.91150
# Shear Modulus (GPa) = 21.26643 45.75614 33.51129
#
# Velocity S-wave (km/s) = 2.90204 4.25678 3.64294
# Velocity P-wave (km/s) = 4.59827 6.88771 5.85596
#
# Compressibility (1/GPa) = 0.03994122
#
# Stress axis : x y z
#
# Youngs Moduli (GPa) = 131.30677 36.81448 77.64766
#
# Poissons Ratio (x) = 0.20331 0.40294
# Poissons Ratio (y) = 0.72514 -0.53217
# Poissons Ratio (z) = 0.68139 -0.25231
#
# Static dielectric constant tensor:
#      x y z
#    x 2.075010 0.000000 0.039610 
#    y 0.000000 2.130440 0.000000 
#    z 0.039610 0.000000 2.419220 
# 
# From -- ./inp_files/17137.got.cif
#   From: 2010.05.17/outbox.cif.g08.bks.cpg/sg15_9_cif.got.tgz:17137.got - 2010.06.03 18:47:42.
