data_PCOD9254513
_publ_section_title
;
Structure prediction by ZEFSAII (Michael W. Deem and Ramdas Pophale) SiO2 
 PCOD9254513
Probable space group: C 2/C
;
_chemical_formula_sum "Si O2"
_cell_formula_units_Z 64
_cell_length_a 18.883228
_cell_length_b 11.426867
_cell_length_c 13.348350
_cell_angle_alpha 90.000000
_cell_angle_beta 60.280896
_cell_angle_gamma 90.000000
_cell_volume 2501.404628
_symmetry_space_group_name_H-M "C 2/C"
_symmetry_group_IT_number 15
_symmetry_cell_setting 'monoclinic'
loop_
_space_group_symop_operation_xyz
x,y,z
-x,y,1/2-z
-x,-y,-z
x,-y,1/2+z
1/2+x,1/2+y,z
1/2-x,1/2+y,1/2-z
1/2-x,1/2-y,-z
1/2+x,1/2-y,1/2+z
loop_
_atom_site_type_symbol
_atom_site_label
_atom_site_fract_x
_atom_site_fract_y
_atom_site_fract_z
Si Si1 0.927127 0.846563 0.186533
Si Si2 0.665534 0.839570 0.479571
Si Si3 0.519867 0.897234 0.883180
Si Si4 0.270036 0.236550 0.231207
Si Si5 0.637011 0.214592 0.697795
Si Si6 0.894928 0.912048 0.425138
Si Si7 0.263332 0.022184 0.385920
Si Si8 0.519225 0.154499 0.602810
O O1 0.948693 0.711160 0.203958
O O2 0.850957 0.817073 0.169234
O O3 0.905102 0.925404 0.298374
O O4 0.015007 0.895862 0.090306
O O5 0.574958 0.882317 0.525013
O O6 0.715211 0.815945 0.344906
O O7 0.652177 0.711680 0.535549
O O8 0.704940 0.925171 0.531508
O O9 0.521168 0.027596 0.839983
O O10 0.556041 0.872824 0.968323
O O11 0.213788 0.204566 0.174789
O O12 0.281564 0.116497 0.285845
O O13 0.588215 0.206404 0.627120
O O14 0.561591 0.234486 0.828299
O O15 0.685677 0.092639 0.670094
O O16 0.833314 0.995240 0.526874
#
# Coordination Sequence:
#
# PCOD9254513 Si02
#       8
#     8   8   8   8   8   8   8   8
#     4  10  18  30  53  82 110 144 189 235 282 341
#     4  10  16  31  53  81 115 138 180 236 296 338
#     4  10  19  32  54  82 116 145 178 233 299 354
#     4  11  20  35  52  84 114 150 197 231 286 353
#     4  11  23  34  56  81 119 159 187 235 291 356
#     4   9  18  28  51  82 106 142 182 240 288 325
#     4  11  19  35  55  83 118 151 188 248 291 334
#     4  10  21  35  50  84 119 147 182 227 299 364
#
# _framework density 25.585622999999998
#
# number of rings (size 3 to 8) (size 9 to 14) (size 15 to 20)
#    0.000    1.750    5.000    1.500    0.000    1.000 
#    0.000    1.250    0.000    0.000    0.000    1.750 
#    0.000    0.000    0.000    0.000    0.000    0.000 
#
# Total GULP energy -178508.184157 kJ/mol
# GULP energy per Si atom -5578.380755 kJ/mol
# Density = 2.552739 g / cm^3
# Si number density = 25.585623 Si / 1000 Ang^3
#
#
#
# Elastic Constant Matrix: (Units=GPa)
#
#
# Indices 1 2 3 4 5 6 
#
# 1 143.1513 0.2011 30.5993 0.0000 -5.0085 0.0000
# 2 0.2011 13.1914 11.6498 0.0000 -4.3238 0.0000
# 3 30.5993 11.6498 79.2983 0.0000 -8.8402 0.0000
# 4 0.0000 0.0000 0.0000 8.6473 0.0000 7.0135
# 5 -5.0085 -4.3238 -8.8402 0.0000 46.6747 0.0000
# 6 0.0000 0.0000 0.0000 7.0135 0.0000 15.4168
#
#
#
# Elastic Compliance Matrix: (Units=1/GPa)
#
#
# Indices 1 2 3 4 5 6 
#
# 1 0.007718 0.003011 -0.003368 0.000000 0.000469 0.000000
# 2 0.003011 0.089830 -0.013684 0.000000 0.006053 0.000000
# 3 -0.003368 -0.013684 0.016078 0.000000 0.001416 0.000000
# 4 0.000000 0.000000 0.000000 0.183260 0.000000 -0.083369
# 5 0.000469 0.006053 0.001416 0.000000 0.022304 0.000000
# 6 0.000000 0.000000 0.000000 -0.083369 0.000000 0.102791
#
#
# Mechanical properties :
#
#
# Convention : Reuss Voigt Hill
#
# Bulk Modulus (GPa) = 11.69000 35.61569 23.65285
# Shear Modulus (GPa) = 10.44762 27.02717 18.73739
#
# Velocity S-wave (km/s) = 2.02293 3.25367 2.70912
# Velocity P-wave (km/s) = 3.16784 5.29769 4.36468
#
# Compressibility (1/GPa) = 0.08554318
#
# Stress axis : x y z
#
# Youngs Moduli (GPa) = 129.57157 11.13217 62.19505
#
# Poissons Ratio (x) = -0.03351 0.20948
# Poissons Ratio (y) = -0.39008 0.85107
# Poissons Ratio (z) = 0.43641 0.15233
#
# Static dielectric constant tensor:
#      x y z
#    x 2.152290 0.000000 0.035840 
#    y 0.000000 2.049690 0.000000 
#    z 0.035840 0.000000 2.108410 
# 
# From -- ./inp_files/162270.got.cif
#   From: 2010.05.17/outbox.cif.g08.bks.cpg/sg15_82_cif.got.tgz:162270.got - 2010.06.03 18:47:42.
