data_PCOD9254311
_publ_section_title
;
Structure prediction by ZEFSAII (Michael W. Deem and Ramdas Pophale) SiO2 
 PCOD9254311
Probable space group: C 2/C
;
_chemical_formula_sum "Si O2"
_cell_formula_units_Z 52
_cell_length_a 9.377272
_cell_length_b 13.128830
_cell_length_c 15.990038
_cell_angle_alpha 90.000000
_cell_angle_beta 74.422108
_cell_angle_gamma 90.000000
_cell_volume 1896.262177
_symmetry_space_group_name_H-M "C 2/C"
_symmetry_group_IT_number 15
_symmetry_cell_setting 'monoclinic'
loop_
_space_group_symop_operation_xyz
x,y,z
-x,y,1/2-z
-x,-y,-z
x,-y,1/2+z
1/2+x,1/2+y,z
1/2-x,1/2+y,1/2-z
1/2-x,1/2-y,-z
1/2+x,1/2-y,1/2+z
loop_
_atom_site_type_symbol
_atom_site_label
_atom_site_fract_x
_atom_site_fract_y
_atom_site_fract_z
Si Si1 0.758806 0.568677 0.071903
Si Si2 0.776356 0.679193 0.732711
Si Si3 0.958304 0.116185 0.933442
Si Si4 0.212854 0.601789 0.244300
Si Si5 0.500000 0.311436 0.250000
Si Si6 0.974576 0.805552 0.611676
Si Si7 0.304147 0.066460 0.884362
O O1 0.658167 0.470485 0.070795
O O2 0.822754 0.569046 0.155824
O O3 0.645843 0.665406 0.088478
O O4 0.856926 0.575022 0.971783
O O5 0.660127 0.778410 0.744597
O O6 0.643595 0.603132 0.741527
O O7 0.900550 0.697269 0.646286
O O8 0.838227 0.657856 0.813748
O O9 0.963611 0.198098 0.859679
O O10 0.124378 0.071163 0.919893
O O11 0.920218 0.165768 0.028352
O O12 0.384416 0.627302 0.195150
O O13 0.153708 0.531617 0.178905
#
# Coordination Sequence:
#
# PCOD9254311 Si02
#       7
#     8   8   8   8   4   8   8
#     4  11  16  28  54  74 102 127 144 203 265 286
#     4   9  20  32  45  71  98 128 169 194 238 284
#     4  10  16  29  50  77  96 118 158 204 263 287
#     4  10  19  31  49  73 104 124 159 196 244 295
#     4  10  20  30  48  66  98 132 164 208 232 276
#     4   9  18  30  44  75 101 121 153 196 243 301
#     4  10  18  31  48  76 103 124 161 199 237 299
#
# _framework density 27.422369
#
# number of rings (size 3 to 8) (size 9 to 14) (size 15 to 20)
#    0.923    1.231    3.077    3.231    0.000    1.231 
#    0.000    0.000    0.000    1.846    0.000   14.000 
#    0.000    0.000    0.000    0.000    0.000    0.000 
#
# Total GULP energy -144872.575413 kJ/mol
# GULP energy per Si atom -5572.022131 kJ/mol
# Density = 2.735995 g / cm^3
# Si number density = 27.422369 Si / 1000 Ang^3
#
#
#
# Elastic Constant Matrix: (Units=GPa)
#
#
# Indices 1 2 3 4 5 6 
#
# 1 96.2480 12.2790 49.4752 0.0000 -0.7264 0.0000
# 2 12.2790 98.5396 76.9607 0.0000 -6.9618 0.0000
# 3 49.4752 76.9607 292.0266 0.0000 9.7268 0.0000
# 4 0.0000 0.0000 0.0000 61.3968 0.0000 -5.1628
# 5 -0.7264 -6.9618 9.7268 0.0000 40.4801 0.0000
# 6 0.0000 0.0000 0.0000 -5.1628 0.0000 14.3515
#
#
#
# Elastic Compliance Matrix: (Units=1/GPa)
#
#
# Indices 1 2 3 4 5 6 
#
# 1 0.011402 0.000198 -0.002008 0.000000 0.000721 0.000000
# 2 0.000198 0.013162 -0.003607 0.000000 0.003134 0.000000
# 3 -0.002008 -0.003607 0.004775 0.000000 -0.001804 0.000000
# 4 0.000000 0.000000 0.000000 0.016796 0.000000 0.006042
# 5 0.000721 0.003134 -0.001804 0.000000 0.025689 0.000000
# 6 0.000000 0.000000 0.000000 0.006042 0.000000 0.071853
#
#
# Mechanical properties :
#
#
# Convention : Reuss Voigt Hill
#
# Bulk Modulus (GPa) = 54.03505 84.91600 69.47552
# Shear Modulus (GPa) = 31.11823 46.45230 38.78526
#
# Velocity S-wave (km/s) = 3.37230 4.12024 3.76489
# Velocity P-wave (km/s) = 5.90853 7.32587 6.65504
#
# Compressibility (1/GPa) = 0.01850651
#
# Stress axis : x y z
#
# Youngs Moduli (GPa) = 87.70245 75.97803 209.41845
#
# Poissons Ratio (x) = -0.01508 0.42053
# Poissons Ratio (y) = -0.01741 0.75530
# Poissons Ratio (z) = 0.17611 0.27403
#
# Static dielectric constant tensor:
#      x y z
#    x 2.221540 0.000000 0.031550 
#    y 0.000000 2.419670 0.000000 
#    z 0.031550 0.000000 2.223020 
# 
# From -- ./inp_files/145030.got.cif
#   From: 2010.05.17/outbox.cif.g08.bks.cpg/sg15_73_cif.got.tgz:145030.got - 2010.06.03 18:47:42.
