data_PCOD9254899
_publ_section_title
;
Structure prediction by ZEFSAII (Michael W. Deem and Ramdas Pophale) SiO2 
 PCOD9254899
Probable space group: C 2/C
;
_chemical_formula_sum "Si O2"
_cell_formula_units_Z 44
_cell_length_a 11.684019
_cell_length_b 11.804579
_cell_length_c 17.889691
_cell_angle_alpha 90.000000
_cell_angle_beta 71.180816
_cell_angle_gamma 90.000000
_cell_volume 2335.528477
_symmetry_space_group_name_H-M "C 2/C"
_symmetry_group_IT_number 15
_symmetry_cell_setting 'monoclinic'
loop_
_space_group_symop_operation_xyz
x,y,z
-x,y,1/2-z
-x,-y,-z
x,-y,1/2+z
1/2+x,1/2+y,z
1/2-x,1/2+y,1/2-z
1/2-x,1/2-y,-z
1/2+x,1/2-y,1/2+z
loop_
_atom_site_type_symbol
_atom_site_label
_atom_site_fract_x
_atom_site_fract_y
_atom_site_fract_z
Si Si1 0.175746 0.930851 0.480581
Si Si2 0.500000 0.493955 0.750000
Si Si3 0.266011 0.486513 0.871072
Si Si4 0.579864 0.386022 0.890031
Si Si5 0.166245 0.721583 0.653486
Si Si6 0.112603 0.341137 0.326567
O O1 0.237724 0.990335 0.538654
O O2 0.250861 0.831777 0.427282
O O3 0.048847 0.883866 0.539832
O O4 0.153016 0.020676 0.419895
O O5 0.383267 0.552381 0.812098
O O6 0.553350 0.425145 0.810217
O O7 0.298215 0.354323 0.848295
O O8 0.149496 0.541636 0.857327
O O9 0.644807 0.265300 0.872549
O O10 0.179953 0.669448 0.733094
O O11 0.028814 0.686841 0.659850
#
# Coordination Sequence:
#
# PCOD9254899 Si02
#       6
#     8   4   8   8   8   8
#     4  10  22  36  62  84 125 155 202 251 310 358
#     4  10  16  38  60  80 118 156 214 230 298 370
#     4  11  21  36  64  91 114 167 201 248 310 369
#     4  10  19  38  59  88 114 165 199 249 302 366
#     4  11  21  41  59  89 119 157 201 257 298 371
#     4  11  22  37  66  84 120 160 201 248 310 363
#
# _framework density 18.83942
#
# number of rings (size 3 to 8) (size 9 to 14) (size 15 to 20)
#    0.000    1.455    5.455    1.636    0.000    1.455 
#    0.000    0.000    4.000    0.000    0.000    0.000 
#    0.000    0.000    0.000    0.000    0.000    0.000 
#
# Total GULP energy -122505.767202 kJ/mol
# GULP energy per Si atom -5568.443964 kJ/mol
# Density = 1.879654 g / cm^3
# Si number density = 18.839420 Si / 1000 Ang^3
#
#
#
# Elastic Constant Matrix: (Units=GPa)
#
#
# Indices 1 2 3 4 5 6 
#
# 1 63.5460 55.0901 34.9245 0.0000 19.5805 0.0000
# 2 55.0901 79.0609 54.0654 0.0000 15.3569 0.0000
# 3 34.9245 54.0654 124.9530 0.0000 17.9757 0.0000
# 4 0.0000 0.0000 0.0000 26.8786 0.0000 2.8932
# 5 19.5805 15.3569 17.9757 0.0000 24.7148 0.0000
# 6 0.0000 0.0000 0.0000 2.8932 0.0000 27.2117
#
#
#
# Elastic Compliance Matrix: (Units=1/GPa)
#
#
# Indices 1 2 3 4 5 6 
#
# 1 0.047312 -0.031195 0.003214 0.000000 -0.020437 0.000000
# 2 -0.031195 0.039411 -0.009344 0.000000 0.007022 0.000000
# 3 0.003214 -0.009344 0.011927 0.000000 -0.005415 0.000000
# 4 0.000000 0.000000 0.000000 0.037635 0.000000 -0.004001
# 5 -0.020437 0.007022 -0.005415 0.000000 0.056229 0.000000
# 6 0.000000 0.000000 0.000000 -0.004001 0.000000 0.037174
#
#
# Mechanical properties :
#
#
# Convention : Reuss Voigt Hill
#
# Bulk Modulus (GPa) = 41.66708 61.74665 51.70686
# Shear Modulus (GPa) = 16.00836 23.99301 20.00068
#
# Velocity S-wave (km/s) = 2.91817 3.57256 3.26182
# Velocity P-wave (km/s) = 5.78958 7.06144 6.45690
#
# Compressibility (1/GPa) = 0.02399976
#
# Stress axis : x y z
#
# Youngs Moduli (GPa) = 21.13647 25.37350 83.84648
#
# Poissons Ratio (x) = 0.79153 -0.26950
# Poissons Ratio (y) = 0.65936 0.78344
# Poissons Ratio (z) = -0.06794 0.23708
#
# Static dielectric constant tensor:
#      x y z
#    x 1.695940 0.000000 -0.000050 
#    y 0.000000 1.675690 0.000000 
#    z -0.000050 0.000000 1.660920 
# 
# From -- ./inp_files/195943.got.cif
#   From: 2010.05.17/outbox.cif.g08.bks.cpg/sg15_98_cif.got.tgz:195943.got - 2010.06.03 18:47:42.
