data_PCOD9254154
_publ_section_title
;
Structure prediction by ZEFSAII (Michael W. Deem and Ramdas Pophale) SiO2 
 PCOD9254154
Probable space group: C 2/C
;
_chemical_formula_sum "Si O2"
_cell_formula_units_Z 48
_cell_length_a 15.393228
_cell_length_b 29.771020
_cell_length_c 9.809710
_cell_angle_alpha 90.000000
_cell_angle_beta 25.146444
_cell_angle_gamma 90.000000
_cell_volume 1910.294785
_symmetry_space_group_name_H-M "C 2/C"
_symmetry_group_IT_number 15
_symmetry_cell_setting 'monoclinic'
loop_
_space_group_symop_operation_xyz
x,y,z
-x,y,1/2-z
-x,-y,-z
x,-y,1/2+z
1/2+x,1/2+y,z
1/2-x,1/2+y,1/2-z
1/2-x,1/2-y,-z
1/2+x,1/2-y,1/2+z
loop_
_atom_site_type_symbol
_atom_site_label
_atom_site_fract_x
_atom_site_fract_y
_atom_site_fract_z
Si Si1 0.746118 0.971595 0.890867
Si Si2 0.246947 0.869865 0.121926
Si Si3 0.687281 0.092783 0.244081
Si Si4 0.794379 0.722797 0.629796
Si Si5 0.752575 0.553208 0.805618
Si Si6 0.528627 0.808763 0.048787
O O1 0.500000 0.972752 0.250000
O O2 0.813381 0.961590 0.949563
O O3 0.791725 0.931151 0.722703
O O4 0.801881 0.017175 0.733140
O O5 0.500000 0.867808 0.750000
O O6 0.189551 0.895554 0.066421
O O7 0.171908 0.818792 0.235912
O O8 0.188877 0.898420 0.336870
O O9 0.500798 0.059538 0.464088
O O10 0.595296 0.140527 0.421805
O O11 0.690515 0.770567 0.779769
O O12 0.842044 0.704683 0.714408
O O13 0.000000 0.726848 0.250000
O O14 0.500000 0.805247 0.250000
#
# Coordination Sequence:
#
# PCOD9254154 Si02
#       6
#     8   8   8   8   8   8
#     4  10  17  23  40  66  98 144 168 218 268 351
#     4   9  16  30  47  67  96 141 178 223 268 330
#     4  10  18  29  45  68 104 140 178 218 283 330
#     4  11  22  39  60  79 111 151 199 232 285 338
#     4  10  16  27  41  66 103 140 177 214 280 338
#     4  12  23  38  56  85 113 151 188 244 285 338
#
# _framework density 25.127012000000001
#
# number of rings (size 3 to 8) (size 9 to 14) (size 15 to 20)
#    0.000    1.667    5.000    7.000    0.000    0.000 
#    0.000    0.000    0.000    0.000    0.000    0.000 
#    0.000    2.667    0.000    1.000    0.000    0.333 
#
# Total GULP energy -134353.691323 kJ/mol
# GULP energy per Si atom -5598.070472 kJ/mol
# Density = 2.506982 g / cm^3
# Si number density = 25.127012 Si / 1000 Ang^3
#
#
#
# Elastic Constant Matrix: (Units=GPa)
#
#
# Indices 1 2 3 4 5 6 
#
# 1 145.5813 59.0344 40.6891 0.0001 34.6112 0.0000
# 2 59.0344 170.8373 44.2186 0.0001 14.6790 0.0000
# 3 40.6891 44.2186 81.6722 0.0002 28.0463 0.0000
# 4 0.0001 0.0001 0.0002 30.2906 -0.0001 22.6283
# 5 34.6112 14.6790 28.0463 -0.0001 44.5342 0.0000
# 6 0.0000 0.0000 0.0000 22.6283 0.0000 31.3091
#
#
#
# Elastic Compliance Matrix: (Units=1/GPa)
#
#
# Indices 1 2 3 4 5 6 
#
# 1 0.009649 -0.002451 -0.001509 0.000000 -0.005741 0.000000
# 2 -0.002451 0.007430 -0.003337 0.000000 0.001557 0.000000
# 3 -0.001509 -0.003337 0.017891 0.000000 -0.008995 0.000000
# 4 0.000000 0.000000 0.000000 0.071755 0.000000 -0.051860
# 5 -0.005741 0.001557 -0.008995 0.000000 0.032068 0.000000
# 6 0.000000 0.000000 0.000000 -0.051860 0.000000 0.069421
#
#
# Mechanical properties :
#
#
# Convention : Reuss Voigt Hill
#
# Bulk Modulus (GPa) = 49.07119 76.21947 62.64533
# Shear Modulus (GPa) = 21.77700 38.17001 29.97350
#
# Velocity S-wave (km/s) = 2.94713 3.90177 3.45756
# Velocity P-wave (km/s) = 5.58144 7.12025 6.39728
#
# Compressibility (1/GPa) = 0.02037856
#
# Stress axis : x y z
#
# Youngs Moduli (GPa) = 103.63260 134.58608 55.89372
#
# Poissons Ratio (x) = 0.32981 0.08434
# Poissons Ratio (y) = 0.25396 0.18649
# Poissons Ratio (z) = 0.15638 0.44905
#
# Static dielectric constant tensor:
#      x y z
#    x 2.055950 0.000000 -0.067030 
#    y 0.000000 1.942020 0.000000 
#    z -0.067030 0.000000 2.016070 
# 
# From -- ./inp_files/44417.got.cif
#   From: 2010.05.17/outbox.cif.g08.bks.cpg/sg15_23_cif.got.tgz:44417.got - 2010.06.03 18:47:42.
