data_PCOD9254549
_publ_section_title
;
Structure prediction by ZEFSAII (Michael W. Deem and Ramdas Pophale) SiO2 
 PCOD9254549
Probable space group: C 2/C
;
_chemical_formula_sum "Si O2"
_cell_formula_units_Z 52
_cell_length_a 14.669297
_cell_length_b 18.479602
_cell_length_c 30.471956
_cell_angle_alpha 90.000000
_cell_angle_beta 160.082622
_cell_angle_gamma 90.000000
_cell_volume 2814.034490
_symmetry_space_group_name_H-M "C 2/C"
_symmetry_group_IT_number 15
_symmetry_cell_setting 'monoclinic'
loop_
_space_group_symop_operation_xyz
x,y,z
-x,y,1/2-z
-x,-y,-z
x,-y,1/2+z
1/2+x,1/2+y,z
1/2-x,1/2+y,1/2-z
1/2-x,1/2-y,-z
1/2+x,1/2-y,1/2+z
loop_
_atom_site_type_symbol
_atom_site_label
_atom_site_fract_x
_atom_site_fract_y
_atom_site_fract_z
Si Si1 0.000000 0.574924 0.250000
Si Si2 0.445594 0.448233 0.636552
Si Si3 0.461228 0.454591 0.542002
Si Si4 0.802444 0.169313 0.903018
Si Si5 0.977031 0.422150 0.563251
Si Si6 0.769389 0.612614 0.059982
Si Si7 0.718415 0.168146 0.096683
O O1 0.255717 0.527644 0.352813
O O2 0.049714 0.624356 0.315164
O O3 0.505466 0.434293 0.612574
O O4 0.731365 0.455661 0.791093
O O5 0.284494 0.381656 0.585007
O O6 0.249807 0.517880 0.549216
O O7 0.350114 0.389424 0.462608
O O8 0.280556 0.525805 0.461019
O O9 0.500000 0.165804 0.750000
O O10 0.866119 0.249608 0.949549
O O11 0.994541 0.151440 0.948621
O O12 0.021958 0.373454 0.540863
O O13 0.886177 0.375244 0.564712
O O14 0.000000 0.172882 0.250000
#
# Coordination Sequence:
#
# PCOD9254549 Si02
#       7
#     4   8   8   8   8   8   8
#     4  10  16  32  44  72 110 134 168 210 276 312
#     4  10  20  37  60  85 111 144 188 232 280 327
#     4  10  21  30  55  80 107 143 177 230 271 332
#     4  10  21  35  54  82 112 149 186 222 280 336
#     4  10  20  37  60  85 111 144 188 232 280 327
#     4  10  21  30  55  80 107 143 177 230 271 332
#     4   9  20  38  58  78 112 151 185 229 276 329
#
# _framework density 18.478805999999999
#
# number of rings (size 3 to 8) (size 9 to 14) (size 15 to 20)
#    0.000    2.154    1.538    2.308    4.308    2.462 
#    0.000    0.000   13.538    0.000    0.000    0.000 
#    0.000    0.000    0.000    0.000    0.000    0.000 
#
# Total GULP energy -144903.762609 kJ/mol
# GULP energy per Si atom -5573.221639 kJ/mol
# Density = 1.843675 g / cm^3
# Si number density = 18.478806 Si / 1000 Ang^3
#
#
#
# Elastic Constant Matrix: (Units=GPa)
#
#
# Indices 1 2 3 4 5 6 
#
# 1 90.4330 23.0884 2.6784 -0.0249 6.6067 -0.0032
# 2 23.0884 61.3771 13.8417 -0.0171 3.7566 -0.0027
# 3 2.6784 13.8417 60.4186 -0.0079 7.5836 -0.0114
# 4 -0.0249 -0.0171 -0.0079 -1.9362 0.0027 -8.1587
# 5 6.6067 3.7566 7.5836 0.0027 25.4142 0.0055
# 6 -0.0032 -0.0027 -0.0114 -8.1587 0.0055 2.1158
#
#
#
# Elastic Compliance Matrix: (Units=1/GPa)
#
#
# Indices 1 2 3 4 5 6 
#
# 1 0.012438 -0.004705 0.000878 -0.000013 -0.002800 -0.000027
# 2 -0.004705 0.019010 -0.004101 -0.000004 -0.000363 -0.000021
# 3 0.000878 -0.004101 0.018082 -0.000029 -0.005018 -0.000006
# 4 -0.000013 -0.000004 -0.000029 -0.029943 0.000041 -0.115462
# 5 -0.002800 -0.000363 -0.005018 0.000041 0.041627 0.000018
# 6 -0.000027 -0.000021 -0.000006 -0.115462 0.000018 0.027401
#
#
# Mechanical properties :
#
#
# Convention : Reuss Voigt Hill
#
# Bulk Modulus (GPa) = 29.69779 32.38287 31.04033
# Shear Modulus (GPa) = 43.21732 16.62680 29.92206
#
# Velocity S-wave (km/s) = 4.84131 3.00288 4.02837
# Velocity P-wave (km/s) = 6.88166 5.43925 6.20253
#
# Compressibility (1/GPa) = 0.03367253
#
# Stress axis : x y z
#
# Youngs Moduli (GPa) = 80.40025 52.60444 55.30493
#
# Poissons Ratio (x) = 0.24753 -0.04856
# Poissons Ratio (y) = 0.37832 0.22680
# Poissons Ratio (z) = -0.07059 0.21573
#
# Static dielectric constant tensor:
#      x y z
#    x 1.652530 0.000000 -0.000020 
#    y 0.000000 1.638140 -0.000010 
#    z -0.000020 -0.000010 1.693580 
# 
# From -- ./inp_files/127180.got.cif
#   From: 2010.05.17/outbox.cif.g08.bks.cpg/sg15_64_cif.got.tgz:127180.got - 2010.06.03 18:47:42.
