data_PCOD9254842
_publ_section_title
;
Structure prediction by ZEFSAII (Michael W. Deem and Ramdas Pophale) SiO2 
 PCOD9254842
Probable space group: C 2/C
;
_chemical_formula_sum "Si O2"
_cell_formula_units_Z 44
_cell_length_a 8.783115
_cell_length_b 14.168432
_cell_length_c 18.803226
_cell_angle_alpha 90.000000
_cell_angle_beta 139.824603
_cell_angle_gamma 90.000000
_cell_volume 1509.557738
_symmetry_space_group_name_H-M "C 2/C"
_symmetry_group_IT_number 15
_symmetry_cell_setting 'monoclinic'
loop_
_space_group_symop_operation_xyz
x,y,z
-x,y,1/2-z
-x,-y,-z
x,-y,1/2+z
1/2+x,1/2+y,z
1/2-x,1/2+y,1/2-z
1/2-x,1/2-y,-z
1/2+x,1/2-y,1/2+z
loop_
_atom_site_type_symbol
_atom_site_label
_atom_site_fract_x
_atom_site_fract_y
_atom_site_fract_z
Si Si1 0.409706 0.452843 0.344793
Si Si2 0.500000 0.094112 0.250000
Si Si3 0.017968 0.340370 0.610756
Si Si4 0.000000 0.079158 0.250000
Si Si5 0.000000 0.500000 0.000000
Si Si6 0.467312 0.675575 0.990390
Si Si7 0.450816 0.826441 0.368869
O O1 0.208324 0.527251 0.295885
O O2 0.570966 0.509241 0.341713
O O3 0.509427 0.416181 0.455182
O O4 0.277807 0.367400 0.255095
O O5 0.568334 0.159659 0.340079
O O6 0.299714 0.353503 0.706168
O O7 0.950962 0.439995 0.553921
O O8 0.964643 0.253975 0.542740
O O9 0.011192 0.399448 0.052718
O O10 0.183238 0.669392 0.902752
O O11 0.549598 0.721777 0.095466
#
# Coordination Sequence:
#
# PCOD9254842 Si02
#       7
#     8   4   8   4   4   8   8
#     4  11  19  38  59  82 119 159 191 248 292 355
#     4  10  18  36  60  82 110 158 204 228 304 354
#     4  10  21  34  61  87 115 152 201 251 290 360
#     4  10  22  34  56  88 116 152 202 236 296 344
#     4  10  16  36  60  86 112 154 202 238 290 360
#     4  10  21  34  61  86 116 147 206 243 297 349
#     4  10  19  34  59  89 109 156 198 242 291 358
#
# _framework density 29.147611000000001
#
# number of rings (size 3 to 8) (size 9 to 14) (size 15 to 20)
#    0.000    1.818    5.455    0.000    2.545    0.727 
#    0.000    0.909    4.000   12.000    0.000    0.000 
#    0.000    0.000    0.000    0.000    0.000    0.000 
#
# Total GULP energy -122837.457209 kJ/mol
# GULP energy per Si atom -5583.520782 kJ/mol
# Density = 2.908127 g / cm^3
# Si number density = 29.147611 Si / 1000 Ang^3
#
#
#
# Elastic Constant Matrix: (Units=GPa)
#
#
# Indices 1 2 3 4 5 6 
#
# 1 183.1501 30.4506 19.3861 0.0001 -38.7638 0.0000
# 2 30.4506 115.6277 56.1481 0.0001 -16.6498 0.0000
# 3 19.3861 56.1481 158.0532 0.0002 -38.6087 0.0000
# 4 0.0001 0.0001 0.0002 80.2998 0.0001 -15.7669
# 5 -38.7638 -16.6498 -38.6087 0.0001 37.8933 0.0000
# 6 0.0000 0.0000 0.0000 -15.7669 0.0000 46.5284
#
#
#
# Elastic Compliance Matrix: (Units=1/GPa)
#
#
# Indices 1 2 3 4 5 6 
#
# 1 0.007360 -0.001548 0.001758 0.000000 0.008640 0.000000
# 2 -0.001548 0.010810 -0.003830 0.000000 -0.000736 0.000000
# 3 0.001758 -0.003830 0.009985 0.000000 0.010289 0.000000
# 4 0.000000 0.000000 0.000000 0.013341 0.000000 0.004521
# 5 0.008640 -0.000736 0.010289 0.000000 0.045388 0.000000
# 6 0.000000 0.000000 0.000000 0.004521 0.000000 0.023024
#
#
# Mechanical properties :
#
#
# Convention : Reuss Voigt Hill
#
# Bulk Modulus (GPa) = 47.81312 74.31117 61.06215
# Shear Modulus (GPa) = 40.28353 56.33406 48.30879
#
# Velocity S-wave (km/s) = 3.72163 4.40104 4.07552
# Velocity P-wave (km/s) = 5.90820 7.16768 6.56820
#
# Compressibility (1/GPa) = 0.02091476
#
# Stress axis : x y z
#
# Youngs Moduli (GPa) = 135.87208 92.50744 100.14622
#
# Poissons Ratio (x) = 0.14316 -0.17601
# Poissons Ratio (y) = 0.21028 0.38357
# Poissons Ratio (z) = -0.23880 0.35432
#
# Static dielectric constant tensor:
#      x y z
#    x 1.930740 0.000000 -0.103480 
#    y 0.000000 2.158840 0.000000 
#    z -0.103480 0.000000 2.160850 
# 
# From -- ./inp_files/188847.got.cif
#   From: 2010.05.17/outbox.cif.g08.bks.cpg/sg15_95_cif.got.tgz:188847.got - 2010.06.03 18:47:42.
