data_PCOD9254241
_publ_section_title
;
Structure prediction by ZEFSAII (Michael W. Deem and Ramdas Pophale) SiO2 
 PCOD9254241
Probable space group: C 2/C
;
_chemical_formula_sum "Si O2"
_cell_formula_units_Z 52
_cell_length_a 22.049220
_cell_length_b 22.738141
_cell_length_c 9.155519
_cell_angle_alpha 90.000000
_cell_angle_beta 151.256433
_cell_angle_gamma 90.000000
_cell_volume 2207.380481
_symmetry_space_group_name_H-M "C 2/C"
_symmetry_group_IT_number 15
_symmetry_cell_setting 'monoclinic'
loop_
_space_group_symop_operation_xyz
x,y,z
-x,y,1/2-z
-x,-y,-z
x,-y,1/2+z
1/2+x,1/2+y,z
1/2-x,1/2+y,1/2-z
1/2-x,1/2-y,-z
1/2+x,1/2-y,1/2+z
loop_
_atom_site_type_symbol
_atom_site_label
_atom_site_fract_x
_atom_site_fract_y
_atom_site_fract_z
Si Si1 0.685382 0.688149 0.194438
Si Si2 0.592508 0.424466 0.665284
Si Si3 0.687518 0.599801 0.939291
Si Si4 0.086374 0.358749 0.167914
Si Si5 0.263225 0.087954 0.782578
Si Si6 0.500000 0.207798 0.250000
Si Si7 0.826784 0.464122 0.970761
O O1 0.613662 0.643063 0.153060
O O2 0.829492 0.684737 0.554879
O O3 0.679144 0.656438 0.024856
O O4 0.615908 0.749433 0.036378
O O5 0.445367 0.434941 0.334376
O O6 0.693846 0.458713 0.779097
O O7 0.640201 0.432041 0.930546
O O8 0.716769 0.614226 0.835196
O O9 0.795049 0.560941 0.244081
O O10 0.165522 0.374651 0.188879
O O11 0.081268 0.419165 0.250051
O O12 0.972652 0.327558 0.844160
O O13 0.352400 0.032459 0.010355
#
# Coordination Sequence:
#
# PCOD9254241 Si02
#       7
#     8   8   8   8   8   4   8
#     4   9  18  34  55  76 101 133 169 219 258 297
#     4   9  17  28  45  79 106 135 179 195 245 331
#     4  10  16  28  49  74 109 137 169 203 257 317
#     4   9  22  35  54  84  97 130 186 208 253 326
#     4  10  19  30  47  74 112 136 159 218 263 293
#     4  12  18  38  64  70  94 142 180 222 254 298
#     4   9  18  32  47  70 109 141 169 206 247 302
#
# _framework density 23.557334999999998
#
# number of rings (size 3 to 8) (size 9 to 14) (size 15 to 20)
#    0.000    3.077    1.538    4.154    0.000    3.692 
#    0.000    1.538    0.000    9.231    0.000    0.000 
#    0.000    0.000    0.000    0.000    0.000    0.000 
#
# Total GULP energy -145109.421931 kJ/mol
# GULP energy per Si atom -5581.131613 kJ/mol
# Density = 2.350372 g / cm^3
# Si number density = 23.557335 Si / 1000 Ang^3
#
#
#
# Elastic Constant Matrix: (Units=GPa)
#
#
# Indices 1 2 3 4 5 6 
#
# 1 85.4033 10.4479 49.2679 0.0000 -20.9875 0.0000
# 2 10.4479 87.2984 31.3476 0.0000 -9.3895 0.0000
# 3 49.2679 31.3476 132.0541 0.0000 -33.5284 0.0000
# 4 0.0000 0.0000 0.0000 16.5271 0.0000 -13.1818
# 5 -20.9875 -9.3895 -33.5284 0.0000 48.0370 0.0000
# 6 0.0000 0.0000 0.0000 -13.1818 0.0000 -2.3063
#
#
#
# Elastic Compliance Matrix: (Units=1/GPa)
#
#
# Indices 1 2 3 4 5 6 
#
# 1 0.015344 0.000299 -0.004957 0.000000 0.003302 0.000000
# 2 0.000299 0.012536 -0.002956 0.000000 0.000518 0.000000
# 3 -0.004957 -0.002956 0.011458 0.000000 0.005254 0.000000
# 4 0.000000 0.000000 0.000000 0.010885 0.000000 -0.062215
# 5 0.003302 0.000518 0.005254 0.000000 0.026028 0.000000
# 6 0.000000 0.000000 0.000000 -0.062215 0.000000 -0.078003
#
#
# Mechanical properties :
#
#
# Convention : Reuss Voigt Hill
#
# Bulk Modulus (GPa) = 41.47764 54.09805 47.78784
# Shear Modulus (GPa) = 232.42581 26.69772 129.56177
#
# Velocity S-wave (km/s) = 9.94375 3.37012 7.42414
# Velocity P-wave (km/s) = 12.22631 6.17720 9.68609
#
# Compressibility (1/GPa) = 0.02410938
#
# Stress axis : x y z
#
# Youngs Moduli (GPa) = 65.17300 79.76819 87.27784
#
# Poissons Ratio (x) = -0.02384 0.43264
# Poissons Ratio (y) = -0.01948 0.25799
# Poissons Ratio (z) = 0.32307 0.23579
#
# Static dielectric constant tensor:
#      x y z
#    x 1.872690 0.000000 0.053400 
#    y 0.000000 1.986900 0.000000 
#    z 0.053400 0.000000 1.964500 
# 
# From -- ./inp_files/63870.got.cif
#   From: 2010.05.17/outbox.cif.g08.bks.cpg/sg15_32_cif.got.tgz:63870.got - 2010.06.03 18:47:42.
