data_PCOD9254777
_publ_section_title
;
Structure prediction by ZEFSAII (Michael W. Deem and Ramdas Pophale) SiO2 
 PCOD9254777
Probable space group: C 2/C
;
_chemical_formula_sum "Si O2"
_cell_formula_units_Z 56
_cell_length_a 6.115610
_cell_length_b 24.145000
_cell_length_c 16.838358
_cell_angle_alpha 90.000000
_cell_angle_beta 109.703841
_cell_angle_gamma 90.000000
_cell_volume 2340.793173
_symmetry_space_group_name_H-M "C 2/C"
_symmetry_group_IT_number 15
_symmetry_cell_setting 'monoclinic'
loop_
_space_group_symop_operation_xyz
x,y,z
-x,y,1/2-z
-x,-y,-z
x,-y,1/2+z
1/2+x,1/2+y,z
1/2-x,1/2+y,1/2-z
1/2-x,1/2-y,-z
1/2+x,1/2-y,1/2+z
loop_
_atom_site_type_symbol
_atom_site_label
_atom_site_fract_x
_atom_site_fract_y
_atom_site_fract_z
Si Si1 0.111868 0.919927 0.687376
Si Si2 0.500000 0.612928 0.750000
Si Si3 0.193252 0.312431 0.325013
Si Si4 0.454532 0.291645 0.501893
Si Si5 0.000000 0.491780 0.250000
Si Si6 0.802101 0.386623 0.940350
Si Si7 0.402115 0.819397 0.651849
Si Si8 0.436957 0.910749 0.381500
O O1 0.273329 0.875594 0.664411
O O2 0.000000 0.890651 0.750000
O O3 0.875557 0.933080 0.612027
O O4 0.273989 0.970203 0.731722
O O5 0.677654 0.648561 0.720982
O O6 0.664271 0.582490 0.832095
O O7 0.409988 0.288847 0.401583
O O8 0.039579 0.350938 0.365076
O O9 0.000000 0.278318 0.250000
O O10 0.250000 0.250000 0.500000
O O11 0.364418 0.350196 0.523648
O O12 0.702811 0.285689 0.576749
O O13 0.043785 0.454423 0.332879
O O14 0.909611 0.344352 0.887930
O O15 0.999969 0.413049 0.018881
O O16 0.500000 0.795816 0.750000
#
# Coordination Sequence:
#
# PCOD9254777 Si02
#       8
#     8   4   8   8   4   8   8   8
#     4  11  22  40  63  88 125 172 212 271 308 370
#     4  10  16  34  62  84 121 170 207 248 320 384
#     4   9  18  37  58  87 124 165 208 250 326 386
#     4  10  23  40  65  97 129 158 207 272 317 389
#     4  12  22  36  60  92 131 166 227 260 314 388
#     4  10  22  42  67  89 127 167 214 262 328 381
#     4  11  21  43  69  91 124 172 217 253 327 387
#     4  10  21  36  59  91 123 168 208 264 319 380
#
# _framework density 23.923514999999998
#
# number of rings (size 3 to 8) (size 9 to 14) (size 15 to 20)
#    0.000    1.714    4.286    0.857    1.000    1.143 
#    2.571    2.857    6.286    0.000    0.000    0.000 
#    0.000    0.000    0.000    0.000    0.000    0.000 
#
# Total GULP energy -155901.759484 kJ/mol
# GULP energy per Si atom -5567.919982 kJ/mol
# Density = 2.386906 g / cm^3
# Si number density = 23.923515 Si / 1000 Ang^3
#
#
#
# Elastic Constant Matrix: (Units=GPa)
#
#
# Indices 1 2 3 4 5 6 
#
# 1 65.5548 -0.0269 58.9163 0.0000 34.6208 0.0000
# 2 -0.0269 37.3265 30.7381 0.0000 22.3322 0.0000
# 3 58.9163 30.7381 216.9128 0.0000 50.5462 0.0000
# 4 0.0000 0.0000 0.0000 27.2807 0.0000 7.9812
# 5 34.6208 22.3322 50.5462 0.0000 44.5313 0.0000
# 6 0.0000 0.0000 0.0000 7.9812 0.0000 29.8565
#
#
#
# Elastic Compliance Matrix: (Units=1/GPa)
#
#
# Indices 1 2 3 4 5 6 
#
# 1 0.042254 0.029400 -0.006189 0.000000 -0.040569 0.000000
# 2 0.029400 0.058999 -0.005608 0.000000 -0.046078 0.000000
# 3 -0.006189 -0.005608 0.007219 0.000000 -0.000569 0.000000
# 4 0.000000 0.000000 0.000000 0.039766 0.000000 -0.010630
# 5 -0.040569 -0.046078 -0.000569 0.000000 0.077750 0.000000
# 6 0.000000 0.000000 0.000000 -0.010630 0.000000 0.036335
#
#
# Mechanical properties :
#
#
# Convention : Reuss Voigt Hill
#
# Bulk Modulus (GPa) = 6.96015 55.44992 31.20503
# Shear Modulus (GPa) = 18.18107 35.67814 26.92960
#
# Velocity S-wave (km/s) = 2.75974 3.86598 3.35872
# Velocity P-wave (km/s) = 3.61532 6.56933 5.30220
#
# Compressibility (1/GPa) = 0.14367515
#
# Stress axis : x y z
#
# Youngs Moduli (GPa) = 23.66617 16.94954 138.53014
#
# Poissons Ratio (x) = -0.49831 0.85741
# Poissons Ratio (y) = -0.69578 0.77694
# Poissons Ratio (z) = 0.14648 0.09506
#
# Static dielectric constant tensor:
#      x y z
#    x 2.136420 0.000000 -0.526000 
#    y 0.000000 1.944330 0.000000 
#    z -0.526000 0.000000 3.641550 
# 
# From -- ./inp_files/186699.got.cif
#   From: 2010.05.17/outbox.cif.g08.bks.cpg/sg15_94_cif.got.tgz:186699.got - 2010.06.03 18:47:42.
