data_PCOD9254714
_publ_section_title
;
Structure prediction by ZEFSAII (Michael W. Deem and Ramdas Pophale) SiO2 
 PCOD9254714
Probable space group: C 2/C
;
_chemical_formula_sum "Si O2"
_cell_formula_units_Z 60
_cell_length_a 13.662722
_cell_length_b 19.542453
_cell_length_c 8.782402
_cell_angle_alpha 90.000000
_cell_angle_beta 68.066983
_cell_angle_gamma 90.000000
_cell_volume 2175.205380
_symmetry_space_group_name_H-M "C 2/C"
_symmetry_group_IT_number 15
_symmetry_cell_setting 'monoclinic'
loop_
_space_group_symop_operation_xyz
x,y,z
-x,y,1/2-z
-x,-y,-z
x,-y,1/2+z
1/2+x,1/2+y,z
1/2-x,1/2+y,1/2-z
1/2-x,1/2-y,-z
1/2+x,1/2-y,1/2+z
loop_
_atom_site_type_symbol
_atom_site_label
_atom_site_fract_x
_atom_site_fract_y
_atom_site_fract_z
Si Si1 0.388885 0.475627 0.983369
Si Si2 0.118620 0.322226 0.076428
Si Si3 0.392331 0.397831 0.245085
Si Si4 0.000000 0.194695 0.250000
Si Si5 0.183743 0.687350 0.889009
Si Si6 0.295327 0.663921 0.219791
Si Si7 0.177555 0.460279 0.638989
Si Si8 0.517134 0.088959 0.043603
O O1 0.399649 0.400860 0.057042
O O2 0.262275 0.480180 0.097566
O O3 0.500000 0.500000 0.000000
O O4 0.384357 0.525400 0.834469
O O5 0.056225 0.249953 0.104612
O O6 0.153146 0.326882 0.230167
O O7 0.214456 0.321497 0.903420
O O8 0.044562 0.385285 0.068405
O O9 0.500000 0.368342 0.250000
O O10 0.291590 0.353526 0.345334
O O11 0.090633 0.150577 0.274807
O O12 0.197698 0.768219 0.884772
O O13 0.084930 0.658558 0.045661
O O14 0.254599 0.599919 0.151892
O O15 0.119514 0.459534 0.506966
O O16 0.075715 0.443919 0.802172
#
# Coordination Sequence:
#
# PCOD9254714 Si02
#       8
#     8   8   8   4   8   8   8   8
#     4  10  22  46  67  89 131 169 226 281 336 403
#     4  10  19  36  57  88 129 176 213 261 327 397
#     4  10  23  44  67  98 126 174 221 288 340 409
#     4  10  16  34  50  78 126 166 212 264 304 386
#     4  11  19  39  64  92 132 169 218 279 332 410
#     4  10  22  36  57  96 131 173 221 266 339 407
#     4  10  22  40  61  93 126 173 216 277 334 398
#     4  10  19  37  63  85 132 162 209 265 335 398
#
# _framework density 27.583603
#
# number of rings (size 3 to 8) (size 9 to 14) (size 15 to 20)
#    0.000    1.867    4.000    1.600    0.000    2.667 
#   18.000    0.667    5.867    0.000    0.000    0.000 
#    0.000    0.000    0.000    0.000    0.000    0.000 
#
# Total GULP energy -167079.677646 kJ/mol
# GULP energy per Si atom -5569.322588 kJ/mol
# Density = 2.752082 g / cm^3
# Si number density = 27.583603 Si / 1000 Ang^3
#
#
#
# Elastic Constant Matrix: (Units=GPa)
#
#
# Indices 1 2 3 4 5 6 
#
# 1 239.4178 48.7502 43.4468 0.0000 -4.0462 0.0000
# 2 48.7502 72.4926 16.8909 0.0000 7.1851 0.0000
# 3 43.4468 16.8909 103.4586 0.0000 -12.6758 0.0000
# 4 0.0000 0.0000 0.0000 28.6992 0.0000 -7.3273
# 5 -4.0462 7.1851 -12.6758 0.0000 51.0742 0.0000
# 6 0.0000 0.0000 0.0000 -7.3273 0.0000 -1.8798
#
#
#
# Elastic Compliance Matrix: (Units=1/GPa)
#
#
# Indices 1 2 3 4 5 6 
#
# 1 0.005104 -0.003109 -0.001581 0.000000 0.000449 0.000000
# 2 -0.003109 0.016598 -0.001775 0.000000 -0.003022 0.000000
# 3 -0.001581 -0.001775 0.010968 0.000000 0.002846 0.000000
# 4 0.000000 0.000000 0.000000 0.017464 0.000000 -0.068073
# 5 0.000449 -0.003022 0.002846 0.000000 0.020747 0.000000
# 6 0.000000 0.000000 0.000000 -0.068073 0.000000 -0.266626
#
#
# Mechanical properties :
#
#
# Convention : Reuss Voigt Hill
#
# Bulk Modulus (GPa) = 50.65350 70.39389 60.52370
# Shear Modulus (GPa) = -28.37112 35.99744 3.81316
#
# Velocity S-wave (km/s) = -3.21058 3.61644 1.17703
# Velocity P-wave (km/s) = 2.15864 6.55849 4.88229
#
# Compressibility (1/GPa) = 0.01974197
#
# Stress axis : x y z
#
# Youngs Moduli (GPa) = 195.91399 60.24802 91.17369
#
# Poissons Ratio (x) = 0.18730 0.14414
# Poissons Ratio (y) = 0.60904 0.16179
# Poissons Ratio (z) = 0.30972 0.10691
#
# Static dielectric constant tensor:
#      x y z
#    x 2.123300 0.000000 0.059210 
#    y 0.000000 2.234180 0.000000 
#    z 0.059210 0.000000 2.382900 
# 
# From -- ./inp_files/91762.got.cif
#   From: 2010.05.17/outbox.cif.g08.bks.cpg/sg15_46_cif.got.tgz:91762.got - 2010.06.03 18:47:42.
