data_PCOD9254738
_publ_section_title
;
Structure prediction by ZEFSAII (Michael W. Deem and Ramdas Pophale) SiO2 
 PCOD9254738
Probable space group: C 2/C
;
_chemical_formula_sum "Si O2"
_cell_formula_units_Z 40
_cell_length_a 35.009166
_cell_length_b 9.276141
_cell_length_c 5.628063
_cell_angle_alpha 90.000000
_cell_angle_beta 111.286170
_cell_angle_gamma 90.000000
_cell_volume 1703.024594
_symmetry_space_group_name_H-M "C 2/C"
_symmetry_group_IT_number 15
_symmetry_cell_setting 'monoclinic'
loop_
_space_group_symop_operation_xyz
x,y,z
-x,y,1/2-z
-x,-y,-z
x,-y,1/2+z
1/2+x,1/2+y,z
1/2-x,1/2+y,1/2-z
1/2-x,1/2-y,-z
1/2+x,1/2-y,1/2+z
loop_
_atom_site_type_symbol
_atom_site_label
_atom_site_fract_x
_atom_site_fract_y
_atom_site_fract_z
Si Si1 0.157533 0.050897 0.109405
Si Si2 0.236832 0.138591 0.768426
Si Si3 0.484262 0.829008 0.464461
Si Si4 0.100440 0.571878 0.789730
Si Si5 0.185773 0.659979 0.802485
O O1 0.163061 0.221864 0.081951
O O2 0.138630 0.019084 0.328328
O O3 0.202981 0.980240 0.252618
O O4 0.212578 0.240429 0.533202
O O5 0.279299 0.073871 0.760750
O O6 0.250000 0.250000 0.000000
O O7 0.500000 0.768845 0.250000
O O8 0.435059 0.815116 0.349179
O O9 0.500000 0.000000 0.500000
O O10 0.500000 0.769447 0.750000
O O11 0.092698 0.465020 0.547799
O O12 0.148753 0.595745 0.868002
#
# Coordination Sequence:
#
# PCOD9254738 Si02
#       5
#     8   8   8   8   8
#     4  10  20  36  57  72 100 139 185 229 275 325
#     4  10  20  39  55  74 103 153 191 232 283 331
#     4  10  16  34  57  77 109 154 177 212 289 346
#     4  12  24  36  55  86 119 151 186 234 276 348
#     4  10  24  36  53  82 109 142 196 235 284 326
#
# _framework density 23.487621000000001
#
# number of rings (size 3 to 8) (size 9 to 14) (size 15 to 20)
#    0.000    1.600    6.000    0.000    2.800    4.800 
#    0.000    0.000    0.000    0.000    0.000    0.000 
#    0.000   19.200    0.000    0.000    0.000    0.000 
#
# Total GULP energy -111457.088539 kJ/mol
# GULP energy per Si atom -5572.854427 kJ/mol
# Density = 2.343416 g / cm^3
# Si number density = 23.487621 Si / 1000 Ang^3
#
#
#
# Elastic Constant Matrix: (Units=GPa)
#
#
# Indices 1 2 3 4 5 6 
#
# 1 93.3887 -13.2048 33.1585 0.0000 11.3319 0.0000
# 2 -13.2048 19.2874 1.9150 0.0000 -8.2739 0.0000
# 3 33.1585 1.9150 131.8160 0.0000 -10.3158 0.0000
# 4 0.0000 0.0000 0.0000 19.3513 0.0000 -7.1539
# 5 11.3319 -8.2739 -10.3158 0.0000 34.4356 0.0000
# 6 0.0000 0.0000 0.0000 -7.1539 0.0000 6.6002
#
#
#
# Elastic Compliance Matrix: (Units=1/GPa)
#
#
# Indices 1 2 3 4 5 6 
#
# 1 0.013676 0.008161 -0.003848 0.000000 -0.003692 0.000000
# 2 0.008161 0.062684 -0.002043 0.000000 0.011763 0.000000
# 3 -0.003848 -0.002043 0.008852 0.000000 0.003427 0.000000
# 4 0.000000 0.000000 0.000000 0.086227 0.000000 0.093460
# 5 -0.003692 0.011763 0.003427 0.000000 0.034108 0.000000
# 6 0.000000 0.000000 0.000000 0.093460 0.000000 0.252812
#
#
# Mechanical properties :
#
#
# Convention : Reuss Voigt Hill
#
# Bulk Modulus (GPa) = 11.14168 32.02551 21.58359
# Shear Modulus (GPa) = 10.33623 26.91897 18.62760
#
# Velocity S-wave (km/s) = 2.10006 3.38907 2.81923
# Velocity P-wave (km/s) = 3.26103 5.38322 4.45047
#
# Compressibility (1/GPa) = 0.08975311
#
# Stress axis : x y z
#
# Youngs Moduli (GPa) = 73.12016 15.95305 112.96713
#
# Poissons Ratio (x) = -0.13020 0.43467
# Poissons Ratio (y) = -0.59676 0.23080
# Poissons Ratio (z) = 0.28135 0.03259
#
# Static dielectric constant tensor:
#      x y z
#    x 2.011080 0.000000 -0.106520 
#    y 0.000000 1.996290 0.000000 
#    z -0.106520 0.000000 1.975860 
# 
# From -- ./inp_files/16743.got.cif
#   From: 2010.05.17/outbox.cif.g08.bks.cpg/sg15_9_cif.got.tgz:16743.got - 2010.06.03 18:47:42.
