data_PCOD9254868
_publ_section_title
;
Structure prediction by ZEFSAII (Michael W. Deem and Ramdas Pophale) SiO2 
 PCOD9254868
Probable space group: C 2/C
;
_chemical_formula_sum "Si O2"
_cell_formula_units_Z 44
_cell_length_a 25.031733
_cell_length_b 4.915245
_cell_length_c 23.946958
_cell_angle_alpha 90.000000
_cell_angle_beta 137.618304
_cell_angle_gamma 90.000000
_cell_volume 1986.045287
_symmetry_space_group_name_H-M "C 2/C"
_symmetry_group_IT_number 15
_symmetry_cell_setting 'monoclinic'
loop_
_space_group_symop_operation_xyz
x,y,z
-x,y,1/2-z
-x,-y,-z
x,-y,1/2+z
1/2+x,1/2+y,z
1/2-x,1/2+y,1/2-z
1/2-x,1/2-y,-z
1/2+x,1/2-y,1/2+z
loop_
_atom_site_type_symbol
_atom_site_label
_atom_site_fract_x
_atom_site_fract_y
_atom_site_fract_z
Si Si1 0.000000 0.000000 0.500000
Si Si2 0.197689 0.440723 0.198056
Si Si3 0.468176 0.968330 0.889863
Si Si4 0.120717 0.786705 0.043557
Si Si5 0.338074 0.346086 0.553615
Si Si6 0.559275 0.138718 0.344937
O O1 0.036236 0.193105 0.578882
O O2 0.094394 0.930805 0.550402
O O3 0.245501 0.163704 0.228736
O O4 0.119503 0.410787 0.176344
O O5 0.172908 0.593482 0.121551
O O6 0.508151 0.903110 0.861898
O O7 0.526145 0.183352 0.967643
O O8 0.150267 0.804660 0.003832
O O9 0.250000 0.250000 0.500000
O O10 0.369440 0.647622 0.590833
O O11 0.398754 0.148962 0.632802
O O12 0.500000 0.218938 0.250000
#
# Coordination Sequence:
#
# PCOD9254868 Si02
#       6
#     4   8   8   8   8   8
#     4  10  16  36  64  84 114 154 224 250 288 376
#     4  11  26  37  58  94 132 159 202 269 332 360
#     4  10  23  39  66  89 124 174 221 252 311 399
#     4  10  23  39  66  89 123 174 220 252 312 395
#     4  11  24  43  67  97 128 171 219 270 325 385
#     4  11  24  43  67  97 128 172 220 270 325 385
#
# _framework density 22.154578999999998
#
# number of rings (size 3 to 8) (size 9 to 14) (size 15 to 20)
#    0.000    1.455    1.818    3.273   10.182    2.909 
#    0.000    0.000    0.000    0.000    0.000    0.000 
#    0.000    0.000    0.000    0.000    0.000    0.000 
#
# Total GULP energy -122607.602732 kJ/mol
# GULP energy per Si atom -5573.072851 kJ/mol
# Density = 2.210415 g / cm^3
# Si number density = 22.154579 Si / 1000 Ang^3
#
#
#
# Elastic Constant Matrix: (Units=GPa)
#
#
# Indices 1 2 3 4 5 6 
#
# 1 130.8613 1.8383 38.3956 -0.0189 16.7754 -0.0162
# 2 1.8383 75.0538 2.1438 0.0012 7.1750 0.0818
# 3 38.3956 2.1438 90.5395 0.0051 6.8917 0.0074
# 4 -0.0189 0.0012 0.0051 38.3076 -0.0052 14.1756
# 5 16.7754 7.1750 6.8917 -0.0052 34.1958 0.0042
# 6 -0.0162 0.0818 0.0074 14.1756 0.0042 24.0925
#
#
#
# Elastic Compliance Matrix: (Units=1/GPa)
#
#
# Indices 1 2 3 4 5 6 
#
# 1 0.009189 0.000244 -0.003611 0.000002 -0.003831 0.000006
# 2 0.000244 0.013604 -0.000202 0.000021 -0.002933 -0.000058
# 3 -0.003611 -0.000202 0.012637 -0.000002 -0.000733 -0.000004
# 4 0.000002 0.000021 -0.000002 0.033370 0.000002 -0.019635
# 5 -0.003831 -0.002933 -0.000733 0.000002 0.031886 0.000001
# 6 0.000006 -0.000058 -0.000004 -0.019635 0.000001 0.053060
#
#
# Mechanical properties :
#
#
# Convention : Reuss Voigt Hill
#
# Bulk Modulus (GPa) = 35.34608 42.35666 38.85137
# Shear Modulus (GPa) = 29.35751 36.25764 32.80757
#
# Velocity S-wave (km/s) = 3.64417 4.04985 3.85235
# Velocity P-wave (km/s) = 5.80479 6.40536 6.11245
#
# Compressibility (1/GPa) = 0.02829168
#
# Stress axis : x y z
#
# Youngs Moduli (GPa) = 108.82738 73.50740 79.13399
#
# Poissons Ratio (x) = -0.01796 0.28575
# Poissons Ratio (y) = -0.02659 0.01602
# Poissons Ratio (z) = 0.39297 0.01488
#
# Static dielectric constant tensor:
#      x y z
#    x 1.563940 0.000190 0.146200 
#    y 0.000190 1.018830 -0.000140 
#    z 0.146200 -0.000140 1.823720 
# 
# From -- ./inp_files/170876.got.cif
#   From: 2010.05.17/outbox.cif.g08.bks.cpg/sg15_86_cif.got.tgz:170876.got - 2010.06.03 18:47:42.
