data_PCOD9254019
_publ_section_title
;
Structure prediction by ZEFSAII (Michael W. Deem and Ramdas Pophale) SiO2 
 PCOD9254019
Probable space group: C 2/C
;
_chemical_formula_sum "Si O2"
_cell_formula_units_Z 48
_cell_length_a 18.250033
_cell_length_b 9.146226
_cell_length_c 14.136564
_cell_angle_alpha 90.000000
_cell_angle_beta 115.362674
_cell_angle_gamma 90.000000
_cell_volume 2132.223152
_symmetry_space_group_name_H-M "C 2/C"
_symmetry_group_IT_number 15
_symmetry_cell_setting 'monoclinic'
loop_
_space_group_symop_operation_xyz
x,y,z
-x,y,1/2-z
-x,-y,-z
x,-y,1/2+z
1/2+x,1/2+y,z
1/2-x,1/2+y,1/2-z
1/2-x,1/2-y,-z
1/2+x,1/2-y,1/2+z
loop_
_atom_site_type_symbol
_atom_site_label
_atom_site_fract_x
_atom_site_fract_y
_atom_site_fract_z
Si Si1 0.838985 0.806775 0.026716
Si Si2 0.934853 0.070940 0.042184
Si Si3 0.646670 0.676168 0.680495
Si Si4 0.041136 0.673761 0.636735
Si Si5 0.509654 0.854157 0.890390
Si Si6 0.308794 0.348789 0.787705
O O1 0.833656 0.836487 0.911458
O O2 0.886544 0.955725 0.079545
O O3 0.750000 0.750000 0.000000
O O4 0.901662 0.685191 0.096936
O O5 0.870215 0.152056 0.939962
O O6 0.982642 0.191391 0.127403
O O7 0.000000 0.000000 0.000000
O O8 0.561161 0.737860 0.671097
O O9 0.674588 0.516416 0.733442
O O10 0.717066 0.795204 0.729221
O O11 0.019186 0.512581 0.656467
O O12 0.129474 0.727508 0.718882
O O13 0.026306 0.657085 0.513699
#
# Coordination Sequence:
#
# PCOD9254019 Si02
#       6
#     8   8   8   8   8   8
#     4  10  19  33  50  71 103 136 170 206 257 323
#     4  10  15  33  52  71  98 136 172 210 257 303
#     4  10  17  28  48  73 103 124 168 220 261 295
#     4   9  15  27  49  71  93 122 170 215 248 293
#     4   9  16  28  47  70  93 129 169 205 251 304
#     4  10  18  29  47  78 100 125 166 220 263 293
#
# _framework density 22.511714999999999
#
# number of rings (size 3 to 8) (size 9 to 14) (size 15 to 20)
#    0.000    2.333    6.667    1.000    0.000    1.333 
#    0.000    1.667    0.000    0.000    0.000    4.667 
#    0.000    0.000    0.000    0.000    0.000    0.000 
#
# Total GULP energy -133665.318498 kJ/mol
# GULP energy per Si atom -5569.388271 kJ/mol
# Density = 2.246048 g / cm^3
# Si number density = 22.511715 Si / 1000 Ang^3
#
#
#
# Elastic Constant Matrix: (Units=GPa)
#
#
# Indices 1 2 3 4 5 6 
#
# 1 100.8749 68.8425 35.7382 0.0000 45.6388 0.0000
# 2 68.8425 152.0352 16.1079 0.0000 43.8277 0.0000
# 3 35.7382 16.1079 60.0009 0.0000 24.6703 0.0000
# 4 0.0000 0.0000 0.0000 28.7037 0.0000 19.7188
# 5 45.6388 43.8277 24.6703 0.0000 60.6527 0.0000
# 6 0.0000 0.0000 0.0000 19.7188 0.0000 12.2605
#
#
#
# Elastic Compliance Matrix: (Units=1/GPa)
#
#
# Indices 1 2 3 4 5 6 
#
# 1 0.020168 -0.006111 -0.007142 0.000000 -0.007854 0.000000
# 2 -0.006111 0.010164 0.002450 0.000000 -0.003743 0.000000
# 3 -0.007142 0.002450 0.022553 0.000000 -0.005569 0.000000
# 4 0.000000 0.000000 0.000000 -0.332171 0.000000 0.534239
# 5 -0.007854 -0.003743 -0.005569 0.000000 0.027367 0.000000
# 6 0.000000 0.000000 0.000000 0.534239 0.000000 -0.777667
#
#
# Mechanical properties :
#
#
# Convention : Reuss Voigt Hill
#
# Bulk Modulus (GPa) = 31.97162 61.58758 46.77960
# Shear Modulus (GPa) = -5.01226 33.13819 14.06297
#
# Velocity S-wave (km/s) = -1.49377 3.84088 2.50210
# Velocity P-wave (km/s) = 3.35528 6.86201 5.40116
#
# Compressibility (1/GPa) = 0.03127774
#
# Stress axis : x y z
#
# Youngs Moduli (GPa) = 49.58372 98.38717 44.34034
#
# Poissons Ratio (x) = 0.60126 0.31670
# Poissons Ratio (y) = 0.30302 -0.10864
# Poissons Ratio (z) = 0.35415 -0.24107
#
# Static dielectric constant tensor:
#      x y z
#    x 1.942230 0.000000 -0.030720 
#    y 0.000000 1.936250 0.000000 
#    z -0.030720 0.000000 1.843210 
# 
# From -- ./inp_files/279269.got.cif
#   From: 2010.05.17/outbox.cif.g08.bks.cpg/sg15_140_cif.got.tgz:279269.got - 2010.06.03 18:47:42.
