data_PCOD9254237
_publ_section_title
;
Structure prediction by ZEFSAII (Michael W. Deem and Ramdas Pophale) SiO2 
 PCOD9254237
Probable space group: C 2/C
;
_chemical_formula_sum "Si O2"
_cell_formula_units_Z 48
_cell_length_a 21.370035
_cell_length_b 10.299661
_cell_length_c 14.971595
_cell_angle_alpha 90.000000
_cell_angle_beta 35.875034
_cell_angle_gamma 90.000000
_cell_volume 1931.115187
_symmetry_space_group_name_H-M "C 2/C"
_symmetry_group_IT_number 15
_symmetry_cell_setting 'monoclinic'
loop_
_space_group_symop_operation_xyz
x,y,z
-x,y,1/2-z
-x,-y,-z
x,-y,1/2+z
1/2+x,1/2+y,z
1/2-x,1/2+y,1/2-z
1/2-x,1/2-y,-z
1/2+x,1/2-y,1/2+z
loop_
_atom_site_type_symbol
_atom_site_label
_atom_site_fract_x
_atom_site_fract_y
_atom_site_fract_z
Si Si1 0.279988 0.624836 0.409862
Si Si2 0.501210 0.731095 0.139882
Si Si3 0.868233 0.858868 0.325002
Si Si4 0.572183 0.476619 0.003080
Si Si5 0.816359 0.259208 0.068429
Si Si6 0.433390 0.005370 0.919448
O O1 0.250000 0.750000 0.500000
O O2 0.389808 0.668592 0.237135
O O3 0.311807 0.491934 0.423077
O O4 0.177532 0.579386 0.474418
O O5 0.500000 0.736980 0.250000
O O6 0.591216 0.624221 0.013239
O O7 0.506456 0.878220 0.099810
O O8 0.987521 0.900608 0.164409
O O9 0.853962 0.759675 0.421516
O O10 0.804313 0.809711 0.310630
O O11 0.669787 0.375214 0.894190
O O12 0.500000 0.500000 0.000000
O O13 0.895359 0.373270 0.010009
O O14 0.500000 0.980620 0.750000
#
# Coordination Sequence:
#
# PCOD9254237 Si02
#       6
#     8   8   8   8   8   8
#     4  10  16  28  48  80 113 129 172 232 283 337
#     4  10  19  33  54  79 109 141 190 235 289 340
#     4   9  20  36  60  86 112 149 195 248 294 341
#     4  11  22  38  57  81 118 162 194 231 298 368
#     4  10  20  37  61  85 116 144 197 251 293 345
#     4  10  18  28  51  83 109 135 176 238 295 331
#
# _framework density 24.856103999999998
#
# number of rings (size 3 to 8) (size 9 to 14) (size 15 to 20)
#    0.000    2.000    3.333    3.500    0.000    0.000 
#    0.000    5.833    0.000    0.000    0.000    0.000 
#    0.000    0.000    0.000    0.000    0.000    0.000 
#
# Total GULP energy -133819.607590 kJ/mol
# GULP energy per Si atom -5575.816983 kJ/mol
# Density = 2.479953 g / cm^3
# Si number density = 24.856104 Si / 1000 Ang^3
#
#
#
# Elastic Constant Matrix: (Units=GPa)
#
#
# Indices 1 2 3 4 5 6 
#
# 1 64.4621 10.6842 5.7004 0.0000 0.2323 0.0000
# 2 10.6842 159.7919 4.0459 0.0000 -5.9786 0.0000
# 3 5.7004 4.0459 43.4798 0.0000 -15.5446 0.0000
# 4 0.0000 0.0000 0.0000 25.7784 0.0000 -18.6310
# 5 0.2323 -5.9786 -15.5446 0.0000 21.4351 0.0000
# 6 0.0000 0.0000 0.0000 -18.6310 0.0000 28.7604
#
#
#
# Elastic Compliance Matrix: (Units=1/GPa)
#
#
# Indices 1 2 3 4 5 6 
#
# 1 0.015961 -0.001090 -0.002918 0.000000 -0.002593 0.000000
# 2 -0.001090 0.006399 0.000256 0.000000 0.001982 0.000000
# 3 -0.002918 0.000256 0.031583 0.000000 0.023007 0.000000
# 4 0.000000 0.000000 0.000000 0.072944 0.000000 0.047253
# 5 -0.002593 0.001982 0.023007 0.000000 0.063918 0.000000
# 6 0.000000 0.000000 0.000000 0.047253 0.000000 0.065380
#
#
# Mechanical properties :
#
#
# Convention : Reuss Voigt Hill
#
# Bulk Modulus (GPa) = 21.53395 34.28830 27.91112
# Shear Modulus (GPa) = 17.91027 31.68167 24.79597
#
# Velocity S-wave (km/s) = 2.68723 3.57403 3.16188
# Velocity P-wave (km/s) = 4.27908 5.55484 4.95817
#
# Compressibility (1/GPa) = 0.04643830
#
# Stress axis : x y z
#
# Youngs Moduli (GPa) = 62.65227 156.28109 31.66233
#
# Poissons Ratio (x) = 0.17040 0.09240
# Poissons Ratio (y) = 0.06831 -0.00811
# Poissons Ratio (z) = 0.18284 -0.04005
#
# Static dielectric constant tensor:
#      x y z
#    x 2.086810 0.000000 -0.012160 
#    y 0.000000 2.080770 0.000000 
#    z -0.012160 0.000000 2.068950 
# 
# From -- ./inp_files/214742.got.cif
#   From: 2010.05.17/outbox.cif.g08.bks.cpg/sg15_108_cif.got.tgz:214742.got - 2010.06.03 18:47:42.
