data_PCOD9254355
_publ_section_title
;
Structure prediction by ZEFSAII (Michael W. Deem and Ramdas Pophale) SiO2 
 PCOD9254355
Probable space group: C 2/C
;
_chemical_formula_sum "Si O2"
_cell_formula_units_Z 60
_cell_length_a 14.626518
_cell_length_b 25.158079
_cell_length_c 11.184846
_cell_angle_alpha 90.000000
_cell_angle_beta 117.591613
_cell_angle_gamma 90.000000
_cell_volume 3647.666830
_symmetry_space_group_name_H-M "C 2/C"
_symmetry_group_IT_number 15
_symmetry_cell_setting 'monoclinic'
loop_
_space_group_symop_operation_xyz
x,y,z
-x,y,1/2-z
-x,-y,-z
x,-y,1/2+z
1/2+x,1/2+y,z
1/2-x,1/2+y,1/2-z
1/2-x,1/2-y,-z
1/2+x,1/2-y,1/2+z
loop_
_atom_site_type_symbol
_atom_site_label
_atom_site_fract_x
_atom_site_fract_y
_atom_site_fract_z
Si Si1 0.000000 0.719289 0.750000
Si Si2 0.375024 0.928220 0.690505
Si Si3 0.843410 0.740297 0.463585
Si Si4 0.119526 0.764209 0.287152
Si Si5 0.393816 0.859342 0.351104
Si Si6 0.625923 0.947961 0.325031
Si Si7 0.371631 0.117625 0.444824
Si Si8 0.277490 0.829944 0.504912
O O1 0.946475 0.748745 0.607282
O O2 0.914791 0.679215 0.752127
O O3 0.500000 0.920941 0.750000
O O4 0.348659 0.911445 0.808635
O O5 0.309178 0.888515 0.568074
O O6 0.349878 0.990088 0.657969
O O7 0.750000 0.750000 0.500000
O O8 0.857639 0.768385 0.342170
O O9 0.834030 0.677868 0.425897
O O10 0.163902 0.813097 0.393353
O O11 0.180492 0.712280 0.373437
O O12 0.000000 0.756541 0.250000
O O13 0.341110 0.912851 0.269543
O O14 0.504450 0.876639 0.469167
O O15 0.339327 0.825317 0.418417
O O16 0.500000 0.944718 0.250000
O O17 0.664084 0.917402 0.465194
#
# Coordination Sequence:
#
# PCOD9254355 Si02
#       8
#     4   8   8   8   8   8   8   8
#     4  10  18  32  50  72 106 134 168 214 258 306
#     4  11  20  30  49  75 109 143 172 213 257 315
#     4  11  21  35  55  76 102 140 180 215 261 307
#     4  11  23  38  53  76 108 141 178 222 265 311
#     4  10  16  30  48  71 104 139 172 204 255 312
#     4   9  19  28  46  74 107 145 171 207 260 318
#     4  10  18  32  45  71 110 139 169 211 254 312
#     4  11  22  33  52  76 102 142 179 211 261 318
#
# _framework density 16.448871
#
# number of rings (size 3 to 8) (size 9 to 14) (size 15 to 20)
#    0.000    1.600    6.000    2.800    1.867    2.667 
#    0.000    0.000    0.000    0.000    0.000    0.933 
#    2.000    0.000    0.000    0.000    0.000    0.000 
#
# Total GULP energy -167010.656016 kJ/mol
# GULP energy per Si atom -5567.021867 kJ/mol
# Density = 1.641143 g / cm^3
# Si number density = 16.448871 Si / 1000 Ang^3
#
#
#
# Elastic Constant Matrix: (Units=GPa)
#
#
# Indices 1 2 3 4 5 6 
#
# 1 43.1136 7.8469 28.9111 0.0000 -12.8838 0.0000
# 2 7.8469 51.3234 29.3807 0.0000 1.3761 0.0000
# 3 28.9111 29.3807 90.1676 0.0000 -12.1350 0.0000
# 4 0.0000 0.0000 0.0000 18.5389 0.0000 -1.4648
# 5 -12.8838 1.3761 -12.1350 0.0000 24.3262 0.0000
# 6 0.0000 0.0000 0.0000 -1.4648 0.0000 16.9462
#
#
#
# Elastic Compliance Matrix: (Units=1/GPa)
#
#
# Indices 1 2 3 4 5 6 
#
# 1 0.033033 -0.000439 -0.008673 0.000000 0.013194 0.000000
# 2 -0.000439 0.024699 -0.008711 0.000000 -0.005975 0.000000
# 3 -0.008673 -0.008711 0.017321 0.000000 0.004540 0.000000
# 4 0.000000 0.000000 0.000000 0.054311 0.000000 0.004695
# 5 0.013194 -0.005975 0.004540 0.000000 0.050698 0.000000
# 6 0.000000 0.000000 0.000000 0.004695 0.000000 0.059416
#
#
# Mechanical properties :
#
#
# Convention : Reuss Voigt Hill
#
# Bulk Modulus (GPa) = 25.37715 35.20913 30.29314
# Shear Modulus (GPa) = 17.34542 19.85998 18.60270
#
# Velocity S-wave (km/s) = 3.25084 3.47850 3.36659
# Velocity P-wave (km/s) = 5.43617 6.13066 5.79383
#
# Compressibility (1/GPa) = 0.03940553
#
# Stress axis : x y z
#
# Youngs Moduli (GPa) = 30.27271 40.48819 57.73405
#
# Poissons Ratio (x) = 0.01779 0.50072
# Poissons Ratio (y) = 0.01330 0.50294
# Poissons Ratio (z) = 0.26255 0.35270
#
# Static dielectric constant tensor:
#      x y z
#    x 1.579850 0.000000 -0.018590 
#    y 0.000000 1.571810 0.000000 
#    z -0.018590 0.000000 1.610880 
# 
# From -- ./inp_files/100974.got.cif
#   From: 2010.05.17/outbox.cif.g08.bks.cpg/sg15_51_cif.got.tgz:100974.got - 2010.06.03 18:47:42.
