data_PCOD9254529
_publ_section_title
;
Structure prediction by ZEFSAII (Michael W. Deem and Ramdas Pophale) SiO2 
 PCOD9254529
Probable space group: C 2/C
;
_chemical_formula_sum "Si O2"
_cell_formula_units_Z 60
_cell_length_a 16.150223
_cell_length_b 12.494355
_cell_length_c 18.773846
_cell_angle_alpha 90.000000
_cell_angle_beta 122.226832
_cell_angle_gamma 90.000000
_cell_volume 3204.697088
_symmetry_space_group_name_H-M "C 2/C"
_symmetry_group_IT_number 15
_symmetry_cell_setting 'monoclinic'
loop_
_space_group_symop_operation_xyz
x,y,z
-x,y,1/2-z
-x,-y,-z
x,-y,1/2+z
1/2+x,1/2+y,z
1/2-x,1/2+y,1/2-z
1/2-x,1/2-y,-z
1/2+x,1/2-y,1/2+z
loop_
_atom_site_type_symbol
_atom_site_label
_atom_site_fract_x
_atom_site_fract_y
_atom_site_fract_z
Si Si1 0.716608 0.372382 0.330162
Si Si2 0.274488 0.010396 0.992767
Si Si3 0.000000 0.042163 0.750000
Si Si4 0.706506 0.417411 0.163920
Si Si5 0.505898 0.627325 0.514883
Si Si6 0.288825 0.354709 0.912165
Si Si7 0.070252 0.119453 0.391411
Si Si8 0.322834 0.186035 0.587170
O O1 0.775895 0.445320 0.414003
O O2 0.601233 0.393108 0.293887
O O3 0.738535 0.406299 0.259615
O O4 0.744714 0.249542 0.355943
O O5 0.167828 0.951410 0.952259
O O6 0.272578 0.107062 0.047747
O O7 0.349673 0.919771 0.053901
O O8 0.999069 0.962632 0.681379
O O9 0.599157 0.362168 0.108065
O O10 0.704843 0.541465 0.137138
O O11 0.772077 0.356239 0.135449
O O12 0.500000 0.500000 0.500000
O O13 0.400214 0.667578 0.489053
O O14 0.530647 0.666488 0.446969
O O15 0.098717 0.223131 0.358849
O O16 0.250000 0.250000 0.500000
#
# Coordination Sequence:
#
# PCOD9254529 Si02
#       8
#     8   8   4   8   8   8   8   8
#     4  11  23  34  55  84 113 144 187 240 281 327
#     4   9  18  34  52  78 110 145 189 220 268 343
#     4  10  22  34  52  86 112 130 194 244 272 326
#     4  10  20  34  54  84 113 142 186 238 277 325
#     4  10  16  31  56  78 113 139 182 223 271 326
#     4  10  20  35  56  79 111 157 183 220 285 341
#     4  10  17  32  58  86 106 142 183 236 280 319
#     4   9  16  32  56  81 106 145 181 221 283 333
#
# _framework density 18.722517
#
# number of rings (size 3 to 8) (size 9 to 14) (size 15 to 20)
#    0.000    2.133    5.333    2.000    1.867    4.267 
#    0.000    0.000    0.000    7.200    0.000    0.000 
#    0.000    0.000    0.000    0.000    0.000    0.000 
#
# Total GULP energy -167089.990927 kJ/mol
# GULP energy per Si atom -5569.666364 kJ/mol
# Density = 1.867990 g / cm^3
# Si number density = 18.722517 Si / 1000 Ang^3
#
#
#
# Elastic Constant Matrix: (Units=GPa)
#
#
# Indices 1 2 3 4 5 6 
#
# 1 35.9550 41.0154 23.7179 0.0000 -7.3225 0.0000
# 2 41.0154 93.4792 44.2036 0.0000 -2.3610 0.0000
# 3 23.7179 44.2036 97.5628 0.0000 -25.9541 0.0000
# 4 0.0000 0.0000 0.0000 29.0371 0.0000 1.2765
# 5 -7.3225 -2.3610 -25.9541 0.0000 30.7566 0.0000
# 6 0.0000 0.0000 0.0000 1.2765 0.0000 22.0048
#
#
#
# Elastic Compliance Matrix: (Units=1/GPa)
#
#
# Indices 1 2 3 4 5 6 
#
# 1 0.060020 -0.026391 0.000810 0.000000 0.012947 0.000000
# 2 -0.026391 0.025941 -0.008355 0.000000 -0.011342 0.000000
# 3 0.000810 -0.008355 0.017690 0.000000 0.014479 0.000000
# 4 0.000000 0.000000 0.000000 0.034527 0.000000 -0.002003
# 5 0.012947 -0.011342 0.014479 0.000000 0.046944 0.000000
# 6 0.000000 0.000000 0.000000 -0.002003 0.000000 0.045561
#
#
# Mechanical properties :
#
#
# Convention : Reuss Voigt Hill
#
# Bulk Modulus (GPa) = 27.94825 49.43008 38.68916
# Shear Modulus (GPa) = 16.10409 24.23038 20.16723
#
# Velocity S-wave (km/s) = 2.93601 3.60138 3.28558
# Velocity P-wave (km/s) = 5.14330 6.61453 5.92476
#
# Compressibility (1/GPa) = 0.03578042
#
# Stress axis : x y z
#
# Youngs Moduli (GPa) = 16.66117 38.54861 56.52858
#
# Poissons Ratio (x) = 1.01733 -0.04581
# Poissons Ratio (y) = 0.43970 0.47230
# Poissons Ratio (z) = -0.01350 0.32207
#
# Static dielectric constant tensor:
#      x y z
#    x 1.715200 0.000000 -0.012420 
#    y 0.000000 1.671970 0.000000 
#    z -0.012420 0.000000 1.705830 
# 
# From -- ./inp_files/210661.got.cif
#   From: 2010.05.17/outbox.cif.g08.bks.cpg/sg15_106_cif.got.tgz:210661.got - 2010.06.03 18:47:42.
