data_PCOD9254028
_publ_section_title
;
Structure prediction by ZEFSAII (Michael W. Deem and Ramdas Pophale) SiO2 
 PCOD9254028
Probable space group: C 2/C
;
_chemical_formula_sum "Si O2"
_cell_formula_units_Z 52
_cell_length_a 7.157675
_cell_length_b 11.824434
_cell_length_c 26.103169
_cell_angle_alpha 90.000000
_cell_angle_beta 86.867760
_cell_angle_gamma 90.000000
_cell_volume 2205.953159
_symmetry_space_group_name_H-M "C 2/C"
_symmetry_group_IT_number 15
_symmetry_cell_setting 'monoclinic'
loop_
_space_group_symop_operation_xyz
x,y,z
-x,y,1/2-z
-x,-y,-z
x,-y,1/2+z
1/2+x,1/2+y,z
1/2-x,1/2+y,1/2-z
1/2-x,1/2-y,-z
1/2+x,1/2-y,1/2+z
loop_
_atom_site_type_symbol
_atom_site_label
_atom_site_fract_x
_atom_site_fract_y
_atom_site_fract_z
Si Si1 0.090848 0.855096 0.664583
Si Si2 0.011213 0.661927 0.464239
Si Si3 0.206713 0.909752 0.185312
Si Si4 0.465320 0.192020 0.355137
Si Si5 0.086173 0.238515 0.063483
Si Si6 0.000000 0.328984 0.250000
Si Si7 0.947976 0.466407 0.392283
O O1 0.314996 0.833561 0.656082
O O2 0.002209 0.837224 0.609783
O O3 0.024836 0.756186 0.702456
O O4 0.073058 0.982048 0.684831
O O5 0.958811 0.716416 0.519110
O O6 0.237538 0.670399 0.460890
O O7 0.943988 0.730092 0.414862
O O8 0.964678 0.535863 0.445441
O O9 0.106837 0.789672 0.179793
O O10 0.326011 0.905010 0.235678
O O11 0.355299 0.926995 0.135981
O O12 0.377721 0.065034 0.354864
O O13 0.156189 0.351841 0.092197
#
# Coordination Sequence:
#
# PCOD9254028 Si02
#       7
#     8   8   8   8   8   4   8
#     4  10  23  41  60  88 116 157 192 248 294 342
#     4   8  18  32  60  90 116 163 188 225 301 341
#     4  11  22  43  60  86 121 145 200 252 290 353
#     4   8  20  39  58  87 121 149 188 239 292 343
#     4  10  15  35  62  85 121 156 197 231 284 358
#     4  12  26  40  64  84 106 162 200 240 308 344
#     4   9  18  35  61  83 120 158 187 236 286 342
#
# _framework density 23.572578
#
# number of rings (size 3 to 8) (size 9 to 14) (size 15 to 20)
#    0.923    1.538    3.077    0.462    0.000    4.308 
#    5.538    1.538    0.000    0.000    0.000    0.000 
#    0.000    0.000    0.000    0.000    0.000    0.000 
#
# Total GULP energy -144822.733842 kJ/mol
# GULP energy per Si atom -5570.105148 kJ/mol
# Density = 2.351893 g / cm^3
# Si number density = 23.572578 Si / 1000 Ang^3
#
#
#
# Elastic Constant Matrix: (Units=GPa)
#
#
# Indices 1 2 3 4 5 6 
#
# 1 44.6519 18.5029 -5.0963 0.0000 -2.5233 0.0000
# 2 18.5029 117.5720 -13.9997 0.0000 12.8648 0.0000
# 3 -5.0963 -13.9997 48.8880 0.0000 -0.4401 0.0000
# 4 0.0000 0.0000 0.0000 22.0526 0.0000 5.7016
# 5 -2.5233 12.8648 -0.4401 0.0000 27.5891 0.0000
# 6 0.0000 0.0000 0.0000 5.7016 0.0000 30.9818
#
#
#
# Elastic Compliance Matrix: (Units=1/GPa)
#
#
# Indices 1 2 3 4 5 6 
#
# 1 0.024513 -0.004150 0.001405 0.000000 0.004199 0.000000
# 2 -0.004150 0.009989 0.002383 0.000000 -0.005000 0.000000
# 3 0.001405 0.002383 0.021278 0.000000 -0.000643 0.000000
# 4 0.000000 0.000000 0.000000 0.047612 0.000000 -0.008762
# 5 0.004199 -0.005000 -0.000643 0.000000 0.038951 0.000000
# 6 0.000000 0.000000 0.000000 -0.008762 0.000000 0.033889
#
#
# Mechanical properties :
#
#
# Convention : Reuss Voigt Hill
#
# Bulk Modulus (GPa) = 18.16347 23.32507 20.74427
# Shear Modulus (GPa) = 25.60051 30.23838 27.91944
#
# Velocity S-wave (km/s) = 3.29907 3.58547 3.44525
# Velocity P-wave (km/s) = 4.71528 5.20166 4.96443
#
# Compressibility (1/GPa) = 0.05505557
#
# Stress axis : x y z
#
# Youngs Moduli (GPa) = 40.79504 100.10686 46.99700
#
# Poissons Ratio (x) = 0.41544 -0.06602
# Poissons Ratio (y) = 0.16930 -0.11199
# Poissons Ratio (z) = -0.05731 -0.23855
#
# Static dielectric constant tensor:
#      x y z
#    x 1.940690 0.000000 -0.018650 
#    y 0.000000 1.880170 0.000000 
#    z -0.018650 0.000000 1.955780 
# 
# From -- ./inp_files/287662.got.cif
#   From: 2010.05.17/outbox.cif.g08.bks.cpg/sg15_144_cif.got.tgz:287662.got - 2010.06.03 18:47:42.
