data_PCOD9254389
_publ_section_title
;
Structure prediction by ZEFSAII (Michael W. Deem and Ramdas Pophale) SiO2 
 PCOD9254389
Probable space group: C 2/C
;
_chemical_formula_sum "Si O2"
_cell_formula_units_Z 40
_cell_length_a 20.560713
_cell_length_b 6.869438
_cell_length_c 13.603976
_cell_angle_alpha 90.000000
_cell_angle_beta 136.756481
_cell_angle_gamma 90.000000
_cell_volume 1316.374867
_symmetry_space_group_name_H-M "C 2/C"
_symmetry_group_IT_number 15
_symmetry_cell_setting 'monoclinic'
loop_
_space_group_symop_operation_xyz
x,y,z
-x,y,1/2-z
-x,-y,-z
x,-y,1/2+z
1/2+x,1/2+y,z
1/2-x,1/2+y,1/2-z
1/2-x,1/2-y,-z
1/2+x,1/2-y,1/2+z
loop_
_atom_site_type_symbol
_atom_site_label
_atom_site_fract_x
_atom_site_fract_y
_atom_site_fract_z
Si Si1 0.894062 0.545957 0.754126
Si Si2 0.250000 0.250000 0.000000
Si Si3 0.089490 0.415167 0.010578
Si Si4 0.352889 0.353594 0.442866
Si Si5 0.221948 0.025378 0.339434
Si Si6 0.500000 0.368706 0.750000
O O1 0.804507 0.413796 0.632598
O O2 0.898391 0.653355 0.865359
O O3 0.921997 0.714129 0.708089
O O4 0.986489 0.402359 0.853427
O O5 0.328049 0.424555 0.126160
O O6 0.101588 0.648834 0.043465
O O7 0.181492 0.374445 0.042303
O O8 0.315461 0.473675 0.308790
O O9 0.440277 0.457917 0.593900
O O10 0.263893 0.239143 0.396049
#
# Coordination Sequence:
#
# PCOD9254389 Si02
#       6
#     8   4   8   8   8   4
#     4  10  16  30  50  82 100 137 180 220 251 312
#     4  12  16  26  54  80 104 126 186 218 256 300
#     4   8  18  31  50  75 106 135 172 220 262 303
#     4   9  18  33  52  77 108 133 177 218 262 312
#     4  10  19  32  52  81 105 141 174 225 262 314
#     4  10  18  32  54  80 100 142 186 214 248 332
#
# _framework density 30.386481
#
# number of rings (size 3 to 8) (size 9 to 14) (size 15 to 20)
#    1.200    1.200    4.000    0.000    0.000    0.000 
#    0.000    1.000    0.000    7.200    0.000    0.000 
#    0.000    0.000    0.000    0.000    0.000    0.000 
#
# Total GULP energy -111386.048195 kJ/mol
# GULP energy per Si atom -5569.302410 kJ/mol
# Density = 3.031732 g / cm^3
# Si number density = 30.386481 Si / 1000 Ang^3
#
#
#
# Elastic Constant Matrix: (Units=GPa)
#
#
# Indices 1 2 3 4 5 6 
#
# 1 71.0801 26.8825 6.9925 0.0000 -13.0747 0.0000
# 2 26.8825 187.9845 56.2111 0.0000 10.9555 0.0000
# 3 6.9925 56.2111 249.6099 0.0000 -23.6713 0.0000
# 4 0.0000 0.0000 0.0000 33.8451 0.0000 2.3254
# 5 -13.0747 10.9555 -23.6713 0.0000 39.7653 0.0000
# 6 0.0000 0.0000 0.0000 2.3254 0.0000 26.6774
#
#
#
# Elastic Compliance Matrix: (Units=1/GPa)
#
#
# Indices 1 2 3 4 5 6 
#
# 1 0.016346 -0.002982 0.000849 0.000000 0.006701 0.000000
# 2 -0.002982 0.006487 -0.001738 0.000000 -0.003802 0.000000
# 3 0.000849 -0.001738 0.004712 0.000000 0.003563 0.000000
# 4 0.000000 0.000000 0.000000 0.029724 0.000000 -0.002591
# 5 0.006701 -0.003802 0.003563 0.000000 0.030519 0.000000
# 6 0.000000 0.000000 0.000000 -0.002591 0.000000 0.037711
#
#
# Mechanical properties :
#
#
# Convention : Reuss Voigt Hill
#
# Bulk Modulus (GPa) = 50.49733 76.53851 63.51792
# Shear Modulus (GPa) = 35.75478 47.96346 41.85912
#
# Velocity S-wave (km/s) = 3.43398 3.97728 3.71557
# Velocity P-wave (km/s) = 5.69011 6.80696 6.27344
#
# Compressibility (1/GPa) = 0.01980303
#
# Stress axis : x y z
#
# Youngs Moduli (GPa) = 61.17883 154.14760 212.23694
#
# Poissons Ratio (x) = 0.45966 -0.18022
# Poissons Ratio (y) = 0.18243 0.36886
# Poissons Ratio (z) = -0.05195 0.26790
#
# Static dielectric constant tensor:
#      x y z
#    x 0.802830 0.000000 0.693300 
#    y 0.000000 7.977670 0.000000 
#    z 0.693300 0.000000 2.326990 
# 
# From -- ./inp_files/202504.got.cif
#   From: 2010.05.17/outbox.cif.g08.bks.cpg/sg15_102_cif.got.tgz:202504.got - 2010.06.03 18:47:42.
