data_PCOD9254610
_publ_section_title
;
Structure prediction by ZEFSAII (Michael W. Deem and Ramdas Pophale) SiO2 
 PCOD9254610
Probable space group: C 2/C
;
_chemical_formula_sum "Si O2"
_cell_formula_units_Z 52
_cell_length_a 19.370658
_cell_length_b 8.104963
_cell_length_c 17.138145
_cell_angle_alpha 90.000000
_cell_angle_beta 127.339265
_cell_angle_gamma 90.000000
_cell_volume 2139.232753
_symmetry_space_group_name_H-M "C 2/C"
_symmetry_group_IT_number 15
_symmetry_cell_setting 'monoclinic'
loop_
_space_group_symop_operation_xyz
x,y,z
-x,y,1/2-z
-x,-y,-z
x,-y,1/2+z
1/2+x,1/2+y,z
1/2-x,1/2+y,1/2-z
1/2-x,1/2-y,-z
1/2+x,1/2-y,1/2+z
loop_
_atom_site_type_symbol
_atom_site_label
_atom_site_fract_x
_atom_site_fract_y
_atom_site_fract_z
Si Si1 0.708039 0.854215 0.727406
Si Si2 0.842743 0.760651 0.624682
Si Si3 0.941103 0.397098 0.329807
Si Si4 0.500000 0.852181 0.750000
Si Si5 0.655617 0.660982 0.539515
Si Si6 0.589610 0.579875 0.116737
Si Si7 0.366342 0.603812 0.710955
O O1 0.670045 0.780262 0.622156
O O2 0.808653 0.893672 0.791518
O O3 0.701555 0.716303 0.789717
O O4 0.646528 0.006197 0.705172
O O5 0.912717 0.706474 0.735010
O O6 0.757204 0.646018 0.578675
O O7 0.881233 0.759002 0.564247
O O8 0.827091 0.952713 0.635622
O O9 0.998787 0.539515 0.328959
O O10 0.956400 0.258233 0.407321
O O11 0.417860 0.732170 0.693388
O O12 0.599509 0.512076 0.539834
O O13 0.567496 0.461012 0.175054
#
# Coordination Sequence:
#
# PCOD9254610 Si02
#       7
#     8   8   8   4   8   8   8
#     4  10  16  32  55  83 110 141 174 229 266 341
#     4  10  19  33  52  83 115 148 161 230 282 337
#     4  10  19  34  58  79 108 144 192 221 269 310
#     4  10  22  36  56  80 100 146 200 240 240 310
#     4  10  19  31  52  84 121 137 170 212 300 337
#     4  10  17  31  55  81 106 144 174 224 271 338
#     4   9  19  33  55  76 110 140 186 222 272 309
#
# _framework density 24.307782
#
# number of rings (size 3 to 8) (size 9 to 14) (size 15 to 20)
#    0.000    2.154    4.615    0.923    0.000    2.462 
#    0.000    3.846    0.000   24.000    0.000    0.000 
#    0.000    0.000    0.000    0.000    0.000    0.000 
#
# Total GULP energy -145005.363569 kJ/mol
# GULP energy per Si atom -5577.129368 kJ/mol
# Density = 2.425246 g / cm^3
# Si number density = 24.307782 Si / 1000 Ang^3
#
#
#
# Elastic Constant Matrix: (Units=GPa)
#
#
# Indices 1 2 3 4 5 6 
#
# 1 106.7748 44.5632 16.0852 0.0000 -31.1329 0.0000
# 2 44.5632 103.3649 14.1102 0.0000 -11.8829 0.0000
# 3 16.0852 14.1102 83.4244 0.0000 -21.3444 0.0000
# 4 0.0000 0.0000 0.0000 28.5071 0.0000 -5.7823
# 5 -31.1329 -11.8829 -21.3444 0.0000 30.3384 0.0000
# 6 0.0000 0.0000 0.0000 -5.7823 0.0000 36.6937
#
#
#
# Elastic Compliance Matrix: (Units=1/GPa)
#
#
# Indices 1 2 3 4 5 6 
#
# 1 0.015788 -0.005281 0.001787 0.000000 0.015390 0.000000
# 2 -0.005281 0.011947 -0.001453 0.000000 -0.001763 0.000000
# 3 0.001787 -0.001453 0.014892 0.000000 0.011742 0.000000
# 4 0.000000 0.000000 0.000000 0.036237 0.000000 0.005710
# 5 0.015390 -0.001763 0.011742 0.000000 0.056325 0.000000
# 6 0.000000 0.000000 0.000000 0.005710 0.000000 0.028153
#
#
# Mechanical properties :
#
#
# Convention : Reuss Voigt Hill
#
# Bulk Modulus (GPa) = 30.55169 49.23126 39.89148
# Shear Modulus (GPa) = 27.15212 33.69489 30.42350
#
# Velocity S-wave (km/s) = 3.34580 3.72718 3.54163
# Velocity P-wave (km/s) = 5.24612 6.23055 5.75941
#
# Compressibility (1/GPa) = 0.03273141
#
# Stress axis : x y z
#
# Youngs Moduli (GPa) = 63.34040 83.70251 67.14844
#
# Poissons Ratio (x) = 0.44205 -0.11997
# Poissons Ratio (y) = 0.33451 0.09759
# Poissons Ratio (z) = -0.11317 0.12165
#
# Static dielectric constant tensor:
#      x y z
#    x 2.052850 0.000000 -0.012250 
#    y 0.000000 2.012070 0.000000 
#    z -0.012250 0.000000 1.956290 
# 
# From -- ./inp_files/213516.got.cif
#   From: 2010.05.17/outbox.cif.g08.bks.cpg/sg15_107_cif.got.tgz:213516.got - 2010.06.03 18:47:42.
