data_PCOD9254744
_publ_section_title
;
Structure prediction by ZEFSAII (Michael W. Deem and Ramdas Pophale) SiO2 
 PCOD9254744
Probable space group: C 2/C
;
_chemical_formula_sum "Si O2"
_cell_formula_units_Z 60
_cell_length_a 17.692480
_cell_length_b 10.570214
_cell_length_c 27.975957
_cell_angle_alpha 90.000000
_cell_angle_beta 143.128136
_cell_angle_gamma 90.000000
_cell_volume 3139.269262
_symmetry_space_group_name_H-M "C 2/C"
_symmetry_group_IT_number 15
_symmetry_cell_setting 'monoclinic'
loop_
_space_group_symop_operation_xyz
x,y,z
-x,y,1/2-z
-x,-y,-z
x,-y,1/2+z
1/2+x,1/2+y,z
1/2-x,1/2+y,1/2-z
1/2-x,1/2-y,-z
1/2+x,1/2-y,1/2+z
loop_
_atom_site_type_symbol
_atom_site_label
_atom_site_fract_x
_atom_site_fract_y
_atom_site_fract_z
Si Si1 0.114721 0.099330 0.731317
Si Si2 0.220166 0.959776 0.500778
Si Si3 0.697497 0.129058 0.600208
Si Si4 0.882156 0.741011 0.122196
Si Si5 0.752102 0.867931 0.573084
Si Si6 0.530492 0.707909 0.498832
Si Si7 0.455471 0.478083 0.410042
Si Si8 0.000000 0.098619 0.250000
O O1 0.255369 0.115849 0.821637
O O2 0.028715 0.223528 0.697285
O O3 0.101828 0.055037 0.670262
O O4 0.053982 0.993044 0.735620
O O5 0.168529 0.846327 0.441002
O O6 0.345146 0.899259 0.586753
O O7 0.108085 0.974224 0.481722
O O8 0.233425 0.082200 0.473902
O O9 0.799693 0.221405 0.626571
O O10 0.558470 0.182694 0.525444
O O11 0.710016 0.994744 0.580351
O O12 0.644689 0.765323 0.526635
O O13 0.884471 0.830743 0.665431
O O14 0.437714 0.618919 0.420707
O O15 0.580047 0.623343 0.567833
#
# Coordination Sequence:
#
# PCOD9254744 Si02
#       8
#     8   8   8   8   8   8   8   4
#     4  10  17  34  57  82 105 145 188 229 280 329
#     4   9  16  30  54  80 102 136 188 228 268 322
#     4  10  18  34  55  82 111 136 181 236 286 329
#     4   9  14  27  56  80 103 131 181 231 266 319
#     4  10  20  34  58  84 106 140 191 243 278 323
#     4  11  23  37  53  81 116 151 188 230 282 347
#     4  10  21  38  55  74 114 160 187 217 289 356
#     4  10  16  34  58  80 104 134 186 240 278 336
#
# _framework density 19.112728000000001
#
# number of rings (size 3 to 8) (size 9 to 14) (size 15 to 20)
#    0.000    2.133    6.667    0.400    1.867    0.533 
#    4.800    0.000    0.000    3.200    0.000    0.000 
#    0.000    0.000    0.000    0.000    0.000    0.000 
#
# Total GULP energy -167105.631940 kJ/mol
# GULP energy per Si atom -5570.187731 kJ/mol
# Density = 1.906923 g / cm^3
# Si number density = 19.112728 Si / 1000 Ang^3
#
#
#
# Elastic Constant Matrix: (Units=GPa)
#
#
# Indices 1 2 3 4 5 6 
#
# 1 50.7807 17.4462 1.6363 0.0000 -15.8200 0.0000
# 2 17.4462 38.6278 15.3947 0.0000 -0.2854 0.0000
# 3 1.6363 15.3947 42.3266 0.0000 -10.9701 0.0000
# 4 0.0000 0.0000 0.0000 6.7271 0.0000 2.8571
# 5 -15.8200 -0.2854 -10.9701 0.0000 25.3092 0.0000
# 6 0.0000 0.0000 0.0000 2.8571 0.0000 23.5016
#
#
#
# Elastic Compliance Matrix: (Units=1/GPa)
#
#
# Indices 1 2 3 4 5 6 
#
# 1 0.035003 -0.020936 0.013373 0.000000 0.027440 0.000000
# 2 -0.020936 0.043370 -0.020537 0.000000 -0.021499 0.000000
# 3 0.013373 -0.020537 0.036821 0.000000 0.024088 0.000000
# 4 0.000000 0.000000 0.000000 0.156745 0.000000 -0.019056
# 5 0.027440 -0.021499 0.024088 0.000000 0.066861 0.000000
# 6 0.000000 0.000000 0.000000 -0.019056 0.000000 0.044867
#
#
# Mechanical properties :
#
#
# Convention : Reuss Voigt Hill
#
# Bulk Modulus (GPa) = 16.95072 22.29885 19.62479
# Shear Modulus (GPa) = 10.88066 17.59143 14.23604
#
# Velocity S-wave (km/s) = 2.38857 3.03711 2.73215
# Velocity P-wave (km/s) = 4.06141 4.89806 4.49923
#
# Compressibility (1/GPa) = 0.05899455
#
# Stress axis : x y z
#
# Youngs Moduli (GPa) = 28.56921 23.05756 27.15823
#
# Poissons Ratio (x) = 0.48273 -0.36319
# Poissons Ratio (y) = 0.59812 0.55774
# Poissons Ratio (z) = -0.38206 0.47353
#
# Static dielectric constant tensor:
#      x y z
#    x 1.679080 0.000000 -0.010010 
#    y 0.000000 1.688530 0.000000 
#    z -0.010010 0.000000 1.702170 
# 
# From -- ./inp_files/298785.got.cif
#   From: 2010.05.17/outbox.cif.g08.bks.cpg/sg15_150_cif.got.tgz:298785.got - 2010.06.03 18:47:42.
