data_PCOD9254391
_publ_section_title
;
Structure prediction by ZEFSAII (Michael W. Deem and Ramdas Pophale) SiO2 
 PCOD9254391
Probable space group: C 2/C
;
_chemical_formula_sum "Si O2"
_cell_formula_units_Z 52
_cell_length_a 27.933541
_cell_length_b 9.075420
_cell_length_c 20.080427
_cell_angle_alpha 90.000000
_cell_angle_beta 147.919868
_cell_angle_gamma 90.000000
_cell_volume 2703.621515
_symmetry_space_group_name_H-M "C 2/C"
_symmetry_group_IT_number 15
_symmetry_cell_setting 'monoclinic'
loop_
_space_group_symop_operation_xyz
x,y,z
-x,y,1/2-z
-x,-y,-z
x,-y,1/2+z
1/2+x,1/2+y,z
1/2-x,1/2+y,1/2-z
1/2-x,1/2-y,-z
1/2+x,1/2-y,1/2+z
loop_
_atom_site_type_symbol
_atom_site_label
_atom_site_fract_x
_atom_site_fract_y
_atom_site_fract_z
Si Si1 0.051797 0.991018 0.171585
Si Si2 0.184687 0.599354 0.633727
Si Si3 0.657232 0.812098 0.820691
Si Si4 0.500000 0.469758 0.250000
Si Si5 0.054051 0.810404 0.559354
Si Si6 0.644086 0.188320 0.160694
Si Si7 0.138914 0.716876 0.440333
O O1 0.113889 0.850467 0.261097
O O2 0.029526 0.054957 0.218260
O O3 0.094902 0.104510 0.170620
O O4 0.970605 0.922063 0.030819
O O5 0.119575 0.689500 0.606569
O O6 0.282808 0.678611 0.750254
O O7 0.181186 0.431639 0.653286
O O8 0.142747 0.620131 0.510722
O O9 0.638090 0.886106 0.727489
O O10 0.622137 0.867391 0.850602
O O11 0.763602 0.792646 0.950208
O O12 0.572049 0.354118 0.364736
O O13 0.957322 0.745969 0.469899
#
# Coordination Sequence:
#
# PCOD9254391 Si02
#       7
#     8   8   8   4   8   8   8
#     4   9  18  30  57  78 108 138 188 221 278 317
#     4  11  22  36  59  84 110 149 182 233 275 331
#     4   8  17  33  51  80 105 138 176 235 264 324
#     4  10  16  30  50  86 102 146 186 228 256 334
#     4  10  20  35  53  81 116 146 175 233 279 328
#     4  10  23  36  57  83 113 142 186 227 284 326
#     4   9  17  30  52  78 105 135 187 224 267 311
#
# _framework density 19.233460999999998
#
# number of rings (size 3 to 8) (size 9 to 14) (size 15 to 20)
#    0.000    2.462    1.538    0.462    8.615    0.000 
#    0.000    0.000    3.385    0.923    0.000    0.000 
#    0.000    0.000    0.000    0.000    0.000    0.000 
#
# Total GULP energy -144749.442903 kJ/mol
# GULP energy per Si atom -5567.286266 kJ/mol
# Density = 1.918968 g / cm^3
# Si number density = 19.233461 Si / 1000 Ang^3
#
#
#
# Elastic Constant Matrix: (Units=GPa)
#
#
# Indices 1 2 3 4 5 6 
#
# 1 123.2200 39.1750 33.1519 0.0000 -26.4465 0.0000
# 2 39.1750 36.0474 14.2135 0.0000 -16.9065 0.0000
# 3 33.1519 14.2135 53.7305 0.0000 -8.4008 0.0000
# 4 0.0000 0.0000 0.0000 10.8836 0.0000 -1.4416
# 5 -26.4465 -16.9065 -8.4008 0.0000 37.7304 0.0000
# 6 0.0000 0.0000 0.0000 -1.4416 0.0000 33.1275
#
#
#
# Elastic Compliance Matrix: (Units=1/GPa)
#
#
# Indices 1 2 3 4 5 6 
#
# 1 0.013836 -0.011456 -0.004966 0.000000 0.003459 0.000000
# 2 -0.011456 0.047413 -0.003530 0.000000 0.012429 0.000000
# 3 -0.004966 -0.003530 0.022604 0.000000 -0.000029 0.000000
# 4 0.000000 0.000000 0.000000 0.092414 0.000000 0.004021
# 5 0.003459 0.012429 -0.000029 0.000000 0.034491 0.000000
# 6 0.000000 0.000000 0.000000 0.004021 0.000000 0.030361
#
#
# Mechanical properties :
#
#
# Convention : Reuss Voigt Hill
#
# Bulk Modulus (GPa) = 22.75373 42.89765 32.82569
# Shear Modulus (GPa) = 16.91049 24.77882 20.84465
#
# Velocity S-wave (km/s) = 2.96839 3.59321 3.29564
# Velocity P-wave (km/s) = 4.85843 6.29023 5.62011
#
# Compressibility (1/GPa) = 0.04394884
#
# Stress axis : x y z
#
# Youngs Moduli (GPa) = 72.27355 21.09132 44.23902
#
# Poissons Ratio (x) = 0.24163 0.21967
# Poissons Ratio (y) = 0.82800 0.15618
# Poissons Ratio (z) = 0.35888 0.07446
#
# Static dielectric constant tensor:
#      x y z
#    x 1.777530 0.000000 -0.024240 
#    y 0.000000 1.659480 0.000000 
#    z -0.024240 0.000000 1.709010 
# 
# From -- ./inp_files/258858.got.cif
#   From: 2010.05.17/outbox.cif.g08.bks.cpg/sg15_130_cif.got.tgz:258858.got - 2010.06.03 18:47:42.
