data_PCOD9254971
_publ_section_title
;
Structure prediction by ZEFSAII (Michael W. Deem and Ramdas Pophale) SiO2 
 PCOD9254971
Probable space group: C 2/C
;
_chemical_formula_sum "Si O2"
_cell_formula_units_Z 40
_cell_length_a 17.952491
_cell_length_b 7.944975
_cell_length_c 13.179358
_cell_angle_alpha 90.000000
_cell_angle_beta 130.814038
_cell_angle_gamma 90.000000
_cell_volume 1422.697868
_symmetry_space_group_name_H-M "C 2/C"
_symmetry_group_IT_number 15
_symmetry_cell_setting 'monoclinic'
loop_
_space_group_symop_operation_xyz
x,y,z
-x,y,1/2-z
-x,-y,-z
x,-y,1/2+z
1/2+x,1/2+y,z
1/2-x,1/2+y,1/2-z
1/2-x,1/2-y,-z
1/2+x,1/2-y,1/2+z
loop_
_atom_site_type_symbol
_atom_site_label
_atom_site_fract_x
_atom_site_fract_y
_atom_site_fract_z
Si Si1 0.388379 0.976946 0.621389
Si Si2 0.125825 0.801202 0.750381
Si Si3 0.840181 0.697560 0.397292
Si Si4 0.987986 0.813443 0.037904
Si Si5 0.665237 0.534450 0.962975
O O1 0.500000 0.921993 0.750000
O O2 0.376732 0.155333 0.670315
O O3 0.378594 0.039078 0.495879
O O4 0.278423 0.909829 0.551765
O O5 0.225746 0.831621 0.777016
O O6 0.052268 0.733536 0.600964
O O7 0.118568 0.967311 0.814917
O O8 0.838755 0.869799 0.465251
O O9 0.905427 0.731690 0.356512
O O10 0.908031 0.827839 0.054457
O O11 0.000000 0.000000 0.000000
#
# Coordination Sequence:
#
# PCOD9254971 Si02
#       5
#     8   8   8   8   8
#     4   9  13  24  44  65  92 121 145 183 239 271
#     4   9  16  27  42  66 101 112 147 194 223 271
#     4   8  15  25  40  64  90 123 146 182 235 272
#     4  10  17  26  43  70  97 118 150 187 236 267
#     4   8  17  25  39  70  95 117 148 189 233 268
#
# _framework density 28.115596
#
# number of rings (size 3 to 8) (size 9 to 14) (size 15 to 20)
#    0.000    3.200    2.000    2.400    0.000    0.000 
#    0.000    0.000    0.000    4.800    0.000   22.400 
#    0.000    0.000    0.000    0.000    0.000    0.000 
#
# Total GULP energy -111675.376496 kJ/mol
# GULP energy per Si atom -5583.768825 kJ/mol
# Density = 2.805160 g / cm^3
# Si number density = 28.115596 Si / 1000 Ang^3
#
#
#
# Elastic Constant Matrix: (Units=GPa)
#
#
# Indices 1 2 3 4 5 6 
#
# 1 262.7611 33.9766 25.8391 0.0000 5.4355 0.0000
# 2 33.9766 67.7990 30.1936 0.0000 6.2401 0.0000
# 3 25.8391 30.1936 35.5820 0.0000 3.4756 0.0000
# 4 0.0000 0.0000 0.0000 28.3806 0.0000 -5.1561
# 5 5.4355 6.2401 3.4756 0.0000 32.6124 0.0000
# 6 0.0000 0.0000 0.0000 -5.1561 0.0000 40.0811
#
#
#
# Elastic Compliance Matrix: (Units=1/GPa)
#
#
# Indices 1 2 3 4 5 6 
#
# 1 0.004159 -0.001168 -0.002004 0.000000 -0.000256 0.000000
# 2 -0.001168 0.024227 -0.019479 0.000000 -0.002365 0.000000
# 3 -0.002004 -0.019479 0.046173 0.000000 -0.000860 0.000000
# 4 0.000000 0.000000 0.000000 0.036079 0.000000 0.004641
# 5 -0.000256 -0.002365 -0.000860 0.000000 0.031250 0.000000
# 6 0.000000 0.000000 0.000000 0.004641 0.000000 0.025546
#
#
# Mechanical properties :
#
#
# Convention : Reuss Voigt Hill
#
# Bulk Modulus (GPa) = 34.18044 60.68450 47.43247
# Shear Modulus (GPa) = 22.47302 38.62369 30.54836
#
# Velocity S-wave (km/s) = 2.83027 3.71043 3.29983
# Velocity P-wave (km/s) = 4.78164 6.32354 5.60586
#
# Compressibility (1/GPa) = 0.02925650
#
# Stress axis : x y z
#
# Youngs Moduli (GPa) = 240.43286 41.27550 21.65789
#
# Poissons Ratio (x) = 0.04822 0.04340
# Poissons Ratio (y) = 0.28090 0.42188
# Poissons Ratio (z) = 0.48181 0.80401
#
# Static dielectric constant tensor:
#      x y z
#    x 2.158350 0.000000 -0.011380 
#    y 0.000000 2.241020 0.000000 
#    z -0.011380 0.000000 1.621870 
# 
# From -- ./inp_files/85495.got.cif
#   From: 2010.05.17/outbox.cif.g08.bks.cpg/sg15_43_cif.got.tgz:85495.got - 2010.06.03 18:47:42.
