data_PCOD9254456
_publ_section_title
;
Structure prediction by ZEFSAII (Michael W. Deem and Ramdas Pophale) SiO2 
 PCOD9254456
Probable space group: C 2/C
;
_chemical_formula_sum "Si O2"
_cell_formula_units_Z 48
_cell_length_a 13.853450
_cell_length_b 10.559336
_cell_length_c 14.427990
_cell_angle_alpha 90.000000
_cell_angle_beta 71.088765
_cell_angle_gamma 90.000000
_cell_volume 1996.648146
_symmetry_space_group_name_H-M "C 2/C"
_symmetry_group_IT_number 15
_symmetry_cell_setting 'monoclinic'
loop_
_space_group_symop_operation_xyz
x,y,z
-x,y,1/2-z
-x,-y,-z
x,-y,1/2+z
1/2+x,1/2+y,z
1/2-x,1/2+y,1/2-z
1/2-x,1/2-y,-z
1/2+x,1/2-y,1/2+z
loop_
_atom_site_type_symbol
_atom_site_label
_atom_site_fract_x
_atom_site_fract_y
_atom_site_fract_z
Si Si1 0.500000 0.150012 0.750000
Si Si2 0.253378 0.408051 0.092132
Si Si3 0.500000 0.533159 0.750000
Si Si4 0.118905 0.167438 0.109483
Si Si5 0.530745 0.773848 0.842935
Si Si6 0.321529 0.993546 0.711449
Si Si7 0.107679 0.565247 0.997296
O O1 0.476800 0.240371 0.844931
O O2 0.410337 0.063768 0.741884
O O3 0.207000 0.265077 0.114505
O O4 0.264385 0.486020 0.184074
O O5 0.354138 0.384298 0.999462
O O6 0.173052 0.483920 0.050696
O O7 0.406824 0.447533 0.814720
O O8 0.534964 0.625187 0.822544
O O9 0.500000 0.820093 0.750000
O O10 0.633991 0.854363 0.827477
O O11 0.438399 0.810566 0.939858
O O12 0.320053 0.069248 0.615195
O O13 0.000000 0.500000 0.000000
#
# Coordination Sequence:
#
# PCOD9254456 Si02
#       7
#     4   8   4   8   8   8   8
#     4   9  15  32  56  76  99 133 184 212 254 319
#     4  10  18  33  53  77 103 129 183 217 258 306
#     4   9  17  32  54  74 103 139 172 198 278 319
#     4   9  18  30  56  73  99 144 170 213 264 312
#     4   9  15  29  49  74 100 127 168 204 250 316
#     4  10  16  30  56  80  97 130 180 223 254 302
#     4  10  18  29  56  79  99 131 176 216 261 300
#
# _framework density 24.040291
#
# number of rings (size 3 to 8) (size 9 to 14) (size 15 to 20)
#    0.500    2.000    2.500    3.000    0.000    0.000 
#    0.000    3.333   36.667   13.000    0.000    0.000 
#    0.000    0.000    0.000    0.000    0.000    0.000 
#
# Total GULP energy -133653.502110 kJ/mol
# GULP energy per Si atom -5568.895921 kJ/mol
# Density = 2.398557 g / cm^3
# Si number density = 24.040291 Si / 1000 Ang^3
#
#
#
# Elastic Constant Matrix: (Units=GPa)
#
#
# Indices 1 2 3 4 5 6 
#
# 1 48.7957 15.6322 17.9969 0.0000 7.3827 0.0000
# 2 15.6322 108.5779 47.0682 0.0000 -7.6974 0.0000
# 3 17.9969 47.0682 176.4208 0.0000 -6.0911 0.0000
# 4 0.0000 0.0000 0.0000 39.4748 0.0000 -17.1242
# 5 7.3827 -7.6974 -6.0911 0.0000 30.6478 0.0000
# 6 0.0000 0.0000 0.0000 -17.1242 0.0000 -13.3972
#
#
#
# Elastic Compliance Matrix: (Units=1/GPa)
#
#
# Indices 1 2 3 4 5 6 
#
# 1 0.023134 -0.003032 -0.001782 0.000000 -0.006688 0.000000
# 2 -0.003032 0.010945 -0.002508 0.000000 0.002981 0.000000
# 3 -0.001782 -0.002508 0.006557 0.000000 0.001103 0.000000
# 4 0.000000 0.000000 0.000000 0.016297 0.000000 -0.020830
# 5 -0.006688 0.002981 0.001103 0.000000 0.035208 0.000000
# 6 0.000000 0.000000 0.000000 -0.020830 0.000000 -0.048018
#
#
# Mechanical properties :
#
#
# Convention : Reuss Voigt Hill
#
# Bulk Modulus (GPa) = 38.47302 55.02100 46.74701
# Shear Modulus (GPa) = 74.14956 28.21822 51.18389
#
# Velocity S-wave (km/s) = 5.55975 3.42978 4.61921
# Velocity P-wave (km/s) = 7.56655 6.21459 6.92365
#
# Compressibility (1/GPa) = 0.02599224
#
# Stress axis : x y z
#
# Youngs Moduli (GPa) = 43.22601 91.36572 152.50471
#
# Poissons Ratio (x) = 0.27706 0.27174
# Poissons Ratio (y) = 0.13108 0.38245
# Poissons Ratio (z) = 0.07702 0.22913
#
# Static dielectric constant tensor:
#      x y z
#    x 2.033840 0.000000 -0.067140 
#    y 0.000000 1.945450 0.000000 
#    z -0.067140 0.000000 2.058480 
# 
# From -- ./inp_files/166894.got.cif
#   From: 2010.05.17/outbox.cif.g08.bks.cpg/sg15_84_cif.got.tgz:166894.got - 2010.06.03 18:47:42.
