data_PCOD9254316
_publ_section_title
;
Structure prediction by ZEFSAII (Michael W. Deem and Ramdas Pophale) SiO2 
 PCOD9254316
Probable space group: C 2/C
;
_chemical_formula_sum "Si O2"
_cell_formula_units_Z 56
_cell_length_a 8.364111
_cell_length_b 22.057029
_cell_length_c 14.170814
_cell_angle_alpha 90.000000
_cell_angle_beta 127.480512
_cell_angle_gamma 90.000000
_cell_volume 2074.634335
_symmetry_space_group_name_H-M "C 2/C"
_symmetry_group_IT_number 15
_symmetry_cell_setting 'monoclinic'
loop_
_space_group_symop_operation_xyz
x,y,z
-x,y,1/2-z
-x,-y,-z
x,-y,1/2+z
1/2+x,1/2+y,z
1/2-x,1/2+y,1/2-z
1/2-x,1/2-y,-z
1/2+x,1/2-y,1/2+z
loop_
_atom_site_type_symbol
_atom_site_label
_atom_site_fract_x
_atom_site_fract_y
_atom_site_fract_z
Si Si1 0.098424 0.602798 0.615848
Si Si2 0.276837 0.725081 0.711325
Si Si3 0.754973 0.973667 0.432859
Si Si4 0.868006 0.815741 0.965902
Si Si5 0.934561 0.925682 0.096810
Si Si6 0.080037 0.346278 0.642760
Si Si7 0.449125 0.600742 0.337925
O O1 0.956316 0.556269 0.619866
O O2 0.969320 0.627682 0.479149
O O3 0.167766 0.662469 0.697863
O O4 0.302354 0.571426 0.645492
O O5 0.500000 0.718180 0.750000
O O6 0.145610 0.747082 0.571417
O O7 0.297876 0.781557 0.793851
O O8 0.854474 0.951492 0.370368
O O9 0.908710 0.951949 0.572801
O O10 0.780155 0.044886 0.462478
O O11 0.632681 0.832238 0.885942
O O12 0.993318 0.846265 0.927097
O O13 0.948252 0.853438 0.082389
O O14 0.207802 0.399035 0.741098
O O15 0.500000 0.615634 0.250000
#
# Coordination Sequence:
#
# PCOD9254316 Si02
#       7
#     8   8   8   8   8   8   8
#     4  11  20  36  67  84 117 170 200 243 318 369
#     4   9  19  35  59  89 120 153 206 253 300 373
#     4  10  20  36  58  88 120 152 202 258 302 360
#     4   8  17  33  55  77 110 151 194 245 296 350
#     4   9  20  36  58  86 116 153 202 254 299 363
#     4   9  18  34  56  86 115 150 206 248 291 359
#     4  10  16  29  51  78 117 136 188 251 287 334
#
# _framework density 26.992709999999999
#
# number of rings (size 3 to 8) (size 9 to 14) (size 15 to 20)
#    0.000    2.571    1.429    1.714    0.000    5.143 
#    0.000    7.143   25.143    0.000    0.000    0.000 
#    0.000    0.000    0.000    0.000    0.000    0.286 
#
# Total GULP energy -155962.715273 kJ/mol
# GULP energy per Si atom -5570.096974 kJ/mol
# Density = 2.693127 g / cm^3
# Si number density = 26.992710 Si / 1000 Ang^3
#
#
#
# Elastic Constant Matrix: (Units=GPa)
#
#
# Indices 1 2 3 4 5 6 
#
# 1 147.6293 38.5729 40.9972 0.0000 -15.9545 0.0000
# 2 38.5729 113.2957 40.2914 0.0000 6.6758 0.0000
# 3 40.9972 40.2914 105.7079 0.0000 14.3453 0.0000
# 4 0.0000 0.0000 0.0000 22.0332 0.0000 9.0236
# 5 -15.9545 6.6758 14.3453 0.0000 45.0574 0.0000
# 6 0.0000 0.0000 0.0000 9.0236 0.0000 18.3008
#
#
#
# Elastic Compliance Matrix: (Units=1/GPa)
#
#
# Indices 1 2 3 4 5 6 
#
# 1 0.008671 -0.002086 -0.003163 0.000000 0.004387 0.000000
# 2 -0.002086 0.010716 -0.003093 0.000000 -0.001341 0.000000
# 3 -0.003163 -0.003093 0.012496 0.000000 -0.004640 0.000000
# 4 0.000000 0.000000 0.000000 0.056870 0.000000 -0.028041
# 5 0.004387 -0.001341 -0.004640 0.000000 0.025423 0.000000
# 6 0.000000 0.000000 0.000000 -0.028041 0.000000 0.068469
#
#
# Mechanical properties :
#
#
# Convention : Reuss Voigt Hill
#
# Bulk Modulus (GPa) = 65.79956 67.37286 66.58621
# Shear Modulus (GPa) = 24.46239 33.52971 28.99605
#
# Velocity S-wave (km/s) = 3.01368 3.52828 3.28108
# Velocity P-wave (km/s) = 6.04478 6.45075 6.25106
#
# Compressibility (1/GPa) = 0.01519767
#
# Stress axis : x y z
#
# Youngs Moduli (GPa) = 115.32422 93.32077 80.02794
#
# Poissons Ratio (x) = 0.19464 0.25315
# Poissons Ratio (y) = 0.24053 0.24756
# Poissons Ratio (z) = 0.36480 0.28868
#
# Static dielectric constant tensor:
#      x y z
#    x 2.114180 0.000000 -0.069690 
#    y 0.000000 2.172360 0.000000 
#    z -0.069690 0.000000 2.406240 
# 
# From -- ./inp_files/193041.got.cif
#   From: 2010.05.17/outbox.cif.g08.bks.cpg/sg15_97_cif.got.tgz:193041.got - 2010.06.03 18:47:42.
