data_PCOD9254919
_publ_section_title
;
Structure prediction by ZEFSAII (Michael W. Deem and Ramdas Pophale) SiO2 
 PCOD9254919
Probable space group: C 2/C
;
_chemical_formula_sum "Si O2"
_cell_formula_units_Z 28
_cell_length_a 16.995228
_cell_length_b 5.341574
_cell_length_c 13.349327
_cell_angle_alpha 90.000000
_cell_angle_beta 124.014809
_cell_angle_gamma 90.000000
_cell_volume 1004.509607
_symmetry_space_group_name_H-M "C 2/C"
_symmetry_group_IT_number 15
_symmetry_cell_setting 'monoclinic'
loop_
_space_group_symop_operation_xyz
x,y,z
-x,y,1/2-z
-x,-y,-z
x,-y,1/2+z
1/2+x,1/2+y,z
1/2-x,1/2+y,1/2-z
1/2-x,1/2-y,-z
1/2+x,1/2-y,1/2+z
loop_
_atom_site_type_symbol
_atom_site_label
_atom_site_fract_x
_atom_site_fract_y
_atom_site_fract_z
Si Si1 0.500000 0.136696 0.250000
Si Si2 0.513505 0.766698 0.386371
Si Si3 0.200815 0.213200 0.252121
Si Si4 0.330614 0.452970 0.077735
O O1 0.406470 0.301747 0.200718
O O2 0.527575 0.061919 0.392727
O O3 0.500000 0.800727 0.250000
O O4 0.411193 0.703929 0.353449
O O5 0.603081 0.590671 0.457701
O O6 0.257747 0.981280 0.247150
O O7 0.206132 0.172628 0.375533
O O8 0.250000 0.250000 0.000000
#
# Coordination Sequence:
#
# PCOD9254919 Si02
#       4
#     4   8   8   8
#     4  10  16  40  66  82 132 158 226 256 318 374
#     4   8  19  36  60  85 117 175 205 250 320 386
#     4  11  22  40  65  94 133 172 206 272 343 377
#     4  11  22  39  67  95 120 172 229 263 308 397
#
# _framework density 27.874296000000001
#
# number of rings (size 3 to 8) (size 9 to 14) (size 15 to 20)
#    0.857    1.143    4.286    1.714    0.000    1.143 
#    0.000    2.857    0.000    0.000    0.000    0.000 
#    0.000    0.000    0.000    0.000    0.000    0.000 
#
# Total GULP energy -78041.629453 kJ/mol
# GULP energy per Si atom -5574.402104 kJ/mol
# Density = 2.781085 g / cm^3
# Si number density = 27.874296 Si / 1000 Ang^3
#
#
#
# Elastic Constant Matrix: (Units=GPa)
#
#
# Indices 1 2 3 4 5 6 
#
# 1 166.4773 78.1959 47.4985 -0.0001 51.9596 -0.0001
# 2 78.1959 143.8962 23.5295 0.0002 33.1331 0.0003
# 3 47.4985 23.5295 90.8057 -0.0001 21.7900 0.0000
# 4 -0.0001 0.0002 -0.0001 46.0399 0.0000 4.1828
# 5 51.9596 33.1331 21.7900 0.0000 57.8464 0.0000
# 6 -0.0001 0.0003 0.0000 4.1828 0.0000 56.6105
#
#
#
# Elastic Compliance Matrix: (Units=1/GPa)
#
#
# Indices 1 2 3 4 5 6 
#
# 1 0.010618 -0.003845 -0.003076 0.000000 -0.006177 0.000000
# 2 -0.003845 0.009493 0.000030 0.000000 -0.001995 0.000000
# 3 -0.003076 0.000030 0.013143 0.000000 -0.002205 0.000000
# 4 0.000000 0.000000 0.000000 0.021867 0.000000 -0.001616
# 5 -0.006177 -0.001995 -0.002205 0.000000 0.024809 0.000000
# 6 0.000000 0.000000 0.000000 -0.001616 0.000000 0.017784
#
#
# Mechanical properties :
#
#
# Convention : Reuss Voigt Hill
#
# Bulk Modulus (GPa) = 51.35254 77.73635 64.54445
# Shear Modulus (GPa) = 42.37777 48.89638 45.63707
#
# Velocity S-wave (km/s) = 3.90335 4.19283 4.05068
# Velocity P-wave (km/s) = 6.22718 7.16858 6.71440
#
# Compressibility (1/GPa) = 0.01947323
#
# Stress axis : x y z
#
# Youngs Moduli (GPa) = 94.17778 105.33654 76.08778
#
# Poissons Ratio (x) = 0.40502 0.23402
# Poissons Ratio (y) = 0.36211 -0.00229
# Poissons Ratio (z) = 0.28966 -0.00317
#
# Static dielectric constant tensor:
#      x y z
#    x 2.278310 0.000000 -0.155880 
#    y 0.000000 2.187910 0.000000 
#    z -0.155880 0.000000 2.368500 
# 
# From -- ./inp_files/158000.got.cif
#   From: 2010.05.17/outbox.cif.g08.bks.cpg/sg15_79_cif.got.tgz:158000.got - 2010.06.03 18:47:42.
