data_PCOD9254511
_publ_section_title
;
Structure prediction by ZEFSAII (Michael W. Deem and Ramdas Pophale) SiO2 
 PCOD9254511
Probable space group: C 2/C
;
_chemical_formula_sum "Si O2"
_cell_formula_units_Z 44
_cell_length_a 13.078513
_cell_length_b 8.181178
_cell_length_c 14.532870
_cell_angle_alpha 90.000000
_cell_angle_beta 101.104046
_cell_angle_gamma 90.000000
_cell_volume 1525.872103
_symmetry_space_group_name_H-M "C 2/C"
_symmetry_group_IT_number 15
_symmetry_cell_setting 'monoclinic'
loop_
_space_group_symop_operation_xyz
x,y,z
-x,y,1/2-z
-x,-y,-z
x,-y,1/2+z
1/2+x,1/2+y,z
1/2-x,1/2+y,1/2-z
1/2-x,1/2-y,-z
1/2+x,1/2-y,1/2+z
loop_
_atom_site_type_symbol
_atom_site_label
_atom_site_fract_x
_atom_site_fract_y
_atom_site_fract_z
Si Si1 0.432464 0.470358 0.900352
Si Si2 0.732561 0.129177 0.868516
Si Si3 0.878497 0.422413 0.974218
Si Si4 0.970213 0.694356 0.147635
Si Si5 0.779055 0.110936 0.664943
Si Si6 0.500000 0.429973 0.750000
O O1 0.314037 0.481050 0.901846
O O2 0.468367 0.625045 0.838766
O O3 0.469186 0.333154 0.838317
O O4 0.500000 0.500000 0.000000
O O5 0.802574 0.278384 0.918971
O O6 0.730693 0.137532 0.758072
O O7 0.636435 0.098787 0.919197
O O8 0.814421 0.572481 0.920512
O O9 0.986211 0.383088 0.938217
O O10 0.851789 0.745946 0.137173
O O11 0.000000 0.613593 0.250000
O O12 0.871507 0.973148 0.695861
#
# Coordination Sequence:
#
# PCOD9254511 Si02
#       6
#     8   8   8   8   8   4
#     4   9  13  22  43  68 102 135 167 222 265 309
#     4   9  17  30  44  82 112 134 202 229 263 363
#     4  10  19  28  54  85 109 150 187 238 284 328
#     4  10  16  32  47  76 114 138 188 234 269 348
#     4  10  16  31  53  78 113 149 182 233 290 330
#     4   8  14  24  38  68 100 128 172 208 250 326
#
# _framework density 28.835965999999999
#
# number of rings (size 3 to 8) (size 9 to 14) (size 15 to 20)
#    0.000    2.545    7.273    2.182    0.000    0.000 
#    0.000    0.000    0.000    2.182    2.364    0.000 
#    0.000    0.000    0.000    0.000    0.000    0.000 
#
# Total GULP energy -122670.311447 kJ/mol
# GULP energy per Si atom -5575.923248 kJ/mol
# Density = 2.877033 g / cm^3
# Si number density = 28.835966 Si / 1000 Ang^3
#
#
#
# Elastic Constant Matrix: (Units=GPa)
#
#
# Indices 1 2 3 4 5 6 
#
# 1 167.8204 44.0900 77.2635 0.0000 -28.6330 0.0000
# 2 44.0900 43.8931 19.5576 0.0000 -11.7074 0.0000
# 3 77.2635 19.5576 212.6112 0.0000 -37.6460 0.0000
# 4 0.0000 0.0000 0.0000 33.0861 0.0000 -3.4263
# 5 -28.6330 -11.7074 -37.6460 0.0000 47.8433 0.0000
# 6 0.0000 0.0000 0.0000 -3.4263 0.0000 46.7728
#
#
#
# Elastic Compliance Matrix: (Units=1/GPa)
#
#
# Indices 1 2 3 4 5 6 
#
# 1 0.009456 -0.007947 -0.002379 0.000000 0.001843 0.000000
# 2 -0.007947 0.031405 0.000602 0.000000 0.003402 0.000000
# 3 -0.002379 0.000602 0.006142 0.000000 0.003557 0.000000
# 4 0.000000 0.000000 0.000000 0.030455 0.000000 0.002231
# 5 0.001843 0.003402 0.003557 0.000000 0.025635 0.000000
# 6 0.000000 0.000000 0.000000 0.002231 0.000000 0.021543
#
#
# Mechanical properties :
#
#
# Convention : Reuss Voigt Hill
#
# Bulk Modulus (GPa) = 36.29239 78.46078 57.37659
# Shear Modulus (GPa) = 32.62174 44.43468 38.52821
#
# Velocity S-wave (km/s) = 3.36711 3.92975 3.65926
# Velocity P-wave (km/s) = 5.26590 6.91802 6.14771
#
# Compressibility (1/GPa) = 0.02755398
#
# Stress axis : x y z
#
# Youngs Moduli (GPa) = 105.74836 31.84218 162.80212
#
# Poissons Ratio (x) = 0.25306 0.38733
# Poissons Ratio (y) = 0.84041 -0.09794
# Poissons Ratio (z) = 0.25159 -0.01916
#
# Static dielectric constant tensor:
#      x y z
#    x 2.266510 0.000000 0.006430 
#    y 0.000000 3.426250 0.000000 
#    z 0.006430 0.000000 2.350530 
# 
# From -- ./inp_files/151355.got.cif
#   From: 2010.05.17/outbox.cif.g08.bks.cpg/sg15_76_cif.got.tgz:151355.got - 2010.06.03 18:47:42.
