data_PCOD9254308
_publ_section_title
;
Structure prediction by ZEFSAII (Michael W. Deem and Ramdas Pophale) SiO2 
 PCOD9254308
Probable space group: C 2/C
;
_chemical_formula_sum "Si O2"
_cell_formula_units_Z 64
_cell_length_a 16.599810
_cell_length_b 23.031167
_cell_length_c 11.357026
_cell_angle_alpha 90.000000
_cell_angle_beta 86.506949
_cell_angle_gamma 90.000000
_cell_volume 4333.872165
_symmetry_space_group_name_H-M "C 2/C"
_symmetry_group_IT_number 15
_symmetry_cell_setting 'monoclinic'
loop_
_space_group_symop_operation_xyz
x,y,z
-x,y,1/2-z
-x,-y,-z
x,-y,1/2+z
1/2+x,1/2+y,z
1/2-x,1/2+y,1/2-z
1/2-x,1/2-y,-z
1/2+x,1/2-y,1/2+z
loop_
_atom_site_type_symbol
_atom_site_label
_atom_site_fract_x
_atom_site_fract_y
_atom_site_fract_z
Si Si1 0.792536 0.235935 0.119649
Si Si2 0.724821 0.814000 0.151789
Si Si3 0.129962 0.573827 0.685555
Si Si4 0.946247 0.732497 0.482871
Si Si5 0.466252 0.101141 0.570216
Si Si6 0.147521 0.324904 0.724326
Si Si7 0.627593 0.247683 0.457619
Si Si8 0.581791 0.049389 0.171353
O O1 0.781083 0.286902 0.216849
O O2 0.740813 0.183008 0.177620
O O3 0.750000 0.250000 0.000000
O O4 0.885364 0.232462 0.072729
O O5 0.701610 0.881412 0.154680
O O6 0.811645 0.798385 0.088767
O O7 0.660347 0.778898 0.076731
O O8 0.093539 0.588215 0.817005
O O9 0.141789 0.504902 0.676179
O O10 0.056816 0.587648 0.602445
O O11 0.959540 0.668739 0.537800
O O12 0.904946 0.716197 0.360368
O O13 0.033255 0.762086 0.467340
O O14 0.442187 0.062914 0.460454
O O15 0.137016 0.301485 0.856352
O O16 0.116934 0.390254 0.716428
O O17 0.500000 0.034539 0.250000
#
# Coordination Sequence:
#
# PCOD9254308 Si02
#       8
#     8   8   8   8   8   8   8   8
#     4   9  18  31  47  64  88 120 155 195 236 280
#     4  10  20  31  44  67  92 125 152 194 238 275
#     4  11  20  30  45  64  96 128 155 194 222 275
#     4  10  16  29  50  65  89 123 155 192 233 280
#     4  10  19  30  43  68  92 122 163 186 225 271
#     4   9  19  31  43  66  94 124 153 191 231 274
#     4  10  19  30  46  66  94 119 154 192 239 280
#     4  11  21  29  45  67  94 129 161 186 225 279
#
# _framework density 14.767393999999999
#
# number of rings (size 3 to 8) (size 9 to 14) (size 15 to 20)
#    0.000    2.000    3.750    2.250    0.000    0.500 
#    0.000    0.000    0.000    0.000    0.000    0.875 
#    0.000    0.000   27.000    0.000    0.000    8.125 
#
# Total GULP energy -178328.956501 kJ/mol
# GULP energy per Si atom -5572.779891 kJ/mol
# Density = 1.473378 g / cm^3
# Si number density = 14.767394 Si / 1000 Ang^3
#
#
#
# Elastic Constant Matrix: (Units=GPa)
#
#
# Indices 1 2 3 4 5 6 
#
# 1 90.0128 37.6746 19.6177 0.0000 -13.0853 0.0000
# 2 37.6746 65.9546 17.2247 0.0000 -3.7843 0.0000
# 3 19.6177 17.2247 58.8478 0.0000 2.7241 0.0000
# 4 0.0000 0.0000 0.0000 9.0000 0.0000 -1.5296
# 5 -13.0853 -3.7843 2.7241 0.0000 17.4884 0.0000
# 6 0.0000 0.0000 0.0000 -1.5296 0.0000 24.8616
#
#
#
# Elastic Compliance Matrix: (Units=1/GPa)
#
#
# Indices 1 2 3 4 5 6 
#
# 1 0.016996 -0.008039 -0.003849 0.000000 0.011577 0.000000
# 2 -0.008039 0.020552 -0.003287 0.000000 -0.001056 0.000000
# 3 -0.003849 -0.003287 0.019545 0.000000 -0.006635 0.000000
# 4 0.000000 0.000000 0.000000 0.112285 0.000000 0.006908
# 5 0.011577 -0.001056 -0.006635 0.000000 0.066648 0.000000
# 6 0.000000 0.000000 0.000000 0.006908 0.000000 0.040648
#
#
# Mechanical properties :
#
#
# Convention : Reuss Voigt Hill
#
# Bulk Modulus (GPa) = 37.39152 40.42768 38.90960
# Shear Modulus (GPa) = 15.82592 19.62321 17.72456
#
# Velocity S-wave (km/s) = 3.27720 3.64925 3.46822
# Velocity P-wave (km/s) = 6.30043 6.72249 6.51487
#
# Compressibility (1/GPa) = 0.02674403
#
# Stress axis : x y z
#
# Youngs Moduli (GPa) = 58.83749 48.65762 51.16354
#
# Poissons Ratio (x) = 0.39116 0.19691
# Poissons Ratio (y) = 0.47300 0.16816
# Poissons Ratio (z) = 0.22645 0.15992
#
# Static dielectric constant tensor:
#      x y z
#    x 1.507260 0.000000 -0.004080 
#    y 0.000000 1.479030 0.000000 
#    z -0.004080 0.000000 1.515360 
# 
# From -- ./inp_files/107132.got.cif
#   From: 2010.05.17/outbox.cif.g08.bks.cpg/sg15_54_cif.got.tgz:107132.got - 2010.06.03 18:47:42.
