data_PCOD9254890
_publ_section_title
;
Structure prediction by ZEFSAII (Michael W. Deem and Ramdas Pophale) SiO2 
 PCOD9254890
Probable space group: C 2/C
;
_chemical_formula_sum "Si O2"
_cell_formula_units_Z 56
_cell_length_a 13.481865
_cell_length_b 8.882229
_cell_length_c 19.624332
_cell_angle_alpha 90.000000
_cell_angle_beta 64.630257
_cell_angle_gamma 90.000000
_cell_volume 2123.364866
_symmetry_space_group_name_H-M "C 2/C"
_symmetry_group_IT_number 15
_symmetry_cell_setting 'monoclinic'
loop_
_space_group_symop_operation_xyz
x,y,z
-x,y,1/2-z
-x,-y,-z
x,-y,1/2+z
1/2+x,1/2+y,z
1/2-x,1/2+y,1/2-z
1/2-x,1/2-y,-z
1/2+x,1/2-y,1/2+z
loop_
_atom_site_type_symbol
_atom_site_label
_atom_site_fract_x
_atom_site_fract_y
_atom_site_fract_z
Si Si1 0.185949 0.889829 0.831171
Si Si2 0.922611 0.467723 0.355198
Si Si3 0.500000 0.220013 0.250000
Si Si4 0.000000 0.809827 0.750000
Si Si5 0.122747 0.048919 0.983850
Si Si6 0.821870 0.463050 0.170845
Si Si7 0.614364 0.912164 0.985367
Si Si8 0.959466 0.023348 0.855226
O O1 0.205891 0.712748 0.830868
O O2 0.190459 0.982216 0.900508
O O3 0.254071 0.965758 0.751711
O O4 0.056375 0.902331 0.844668
O O5 0.857133 0.460959 0.445648
O O6 0.909135 0.608980 0.308693
O O7 0.923024 0.318243 0.310159
O O8 0.049985 0.474572 0.343607
O O9 0.484195 0.323433 0.187178
O O10 0.084754 0.945520 0.699076
O O11 0.118213 0.230123 0.987998
O O12 0.000000 0.000000 0.000000
O O13 0.125255 0.973283 0.058139
O O14 0.814677 0.542230 0.100092
O O15 0.500000 0.000000 0.000000
#
# Coordination Sequence:
#
# PCOD9254890 Si02
#       8
#     8   8   4   4   8   8   8   8
#     4  11  23  37  59  84 116 146 181 236 289 335
#     4  10  20  36  58  86 110 144 193 224 281 319
#     4  10  24  30  60  84 114 150 182 242 250 336
#     4  10  16  38  56  80 110 146 190 230 262 336
#     4  10  19  33  57  83 112 142 186 236 277 325
#     4  11  23  37  59  84 116 146 181 236 289 335
#     4  10  19  33  57  83 112 142 186 236 277 325
#     4  10  20  36  58  86 110 144 193 224 281 319
#
# _framework density 26.373234
#
# number of rings (size 3 to 8) (size 9 to 14) (size 15 to 20)
#    0.000    1.714    2.857    3.429   12.000    0.000 
#    0.000    0.000    0.000   10.286    0.000    0.000 
#    0.000    0.000    0.000    0.000    0.000    0.000 
#
# Total GULP energy -156071.819364 kJ/mol
# GULP energy per Si atom -5573.993549 kJ/mol
# Density = 2.631321 g / cm^3
# Si number density = 26.373234 Si / 1000 Ang^3
#
#
#
# Elastic Constant Matrix: (Units=GPa)
#
#
# Indices 1 2 3 4 5 6 
#
# 1 57.2183 4.5170 21.5440 0.0000 10.1447 0.0000
# 2 4.5170 176.6708 97.1289 0.0000 9.3726 0.0000
# 3 21.5440 97.1289 296.1956 0.0000 -0.8554 0.0000
# 4 0.0000 0.0000 0.0000 90.1979 0.0000 32.0177
# 5 10.1447 9.3726 -0.8554 0.0000 48.0303 0.0000
# 6 0.0000 0.0000 0.0000 32.0177 0.0000 31.1801
#
#
#
# Elastic Compliance Matrix: (Units=1/GPa)
#
#
# Indices 1 2 3 4 5 6 
#
# 1 0.018750 0.000604 -0.001574 0.000000 -0.004106 0.000000
# 2 0.000604 0.007018 -0.002350 0.000000 -0.001539 0.000000
# 3 -0.001574 -0.002350 0.004264 0.000000 0.000867 0.000000
# 4 0.000000 0.000000 0.000000 0.017446 0.000000 -0.017915
# 5 -0.004106 -0.001539 0.000867 0.000000 0.022003 0.000000
# 6 0.000000 0.000000 0.000000 -0.017915 0.000000 0.050468
#
#
# Mechanical properties :
#
#
# Convention : Reuss Voigt Hill
#
# Bulk Modulus (GPa) = 42.74943 86.27381 64.51162
# Shear Modulus (GPa) = 37.20643 61.00797 49.10720
#
# Velocity S-wave (km/s) = 3.76009 4.81485 4.31978
# Velocity P-wave (km/s) = 5.92416 7.98085 7.02814
#
# Compressibility (1/GPa) = 0.02339213
#
# Stress axis : x y z
#
# Youngs Moduli (GPa) = 53.33402 142.48437 234.54057
#
# Poissons Ratio (x) = -0.08600 0.36906
# Poissons Ratio (y) = -0.03219 0.55112
# Poissons Ratio (z) = 0.08392 0.33481
#
# Static dielectric constant tensor:
#      x y z
#    x 0.387230 0.000000 -1.594240 
#    y 0.000000 2.032710 0.000000 
#    z -1.594240 0.000000 0.866650 
# 
# From -- ./inp_files/218360.got.cif
#   From: 2010.05.17/outbox.cif.g08.bks.cpg/sg15_110_cif.got.tgz:218360.got - 2010.06.03 18:47:42.
