data_PCOD9254462
_publ_section_title
;
Structure prediction by ZEFSAII (Michael W. Deem and Ramdas Pophale) SiO2 
 PCOD9254462
Probable space group: C 2/C
;
_chemical_formula_sum "Si O2"
_cell_formula_units_Z 52
_cell_length_a 32.262018
_cell_length_b 13.482418
_cell_length_c 5.261251
_cell_angle_alpha 90.000000
_cell_angle_beta 100.618260
_cell_angle_gamma 90.000000
_cell_volume 2249.299914
_symmetry_space_group_name_H-M "C 2/C"
_symmetry_group_IT_number 15
_symmetry_cell_setting 'monoclinic'
loop_
_space_group_symop_operation_xyz
x,y,z
-x,y,1/2-z
-x,-y,-z
x,-y,1/2+z
1/2+x,1/2+y,z
1/2-x,1/2+y,1/2-z
1/2-x,1/2-y,-z
1/2+x,1/2-y,1/2+z
loop_
_atom_site_type_symbol
_atom_site_label
_atom_site_fract_x
_atom_site_fract_y
_atom_site_fract_z
Si Si1 0.450456 0.342524 0.162035
Si Si2 0.167821 0.874630 0.822685
Si Si3 0.132638 0.904334 0.287201
Si Si4 0.426518 0.221810 0.636295
Si Si5 0.352404 0.068887 0.605731
Si Si6 0.000000 0.564886 0.750000
Si Si7 0.756704 0.433433 0.031202
O O1 0.500000 0.366606 0.250000
O O2 0.415316 0.426123 0.185082
O O3 0.437114 0.263699 0.366107
O O4 0.439367 0.300854 0.870857
O O5 0.153651 0.838212 0.531783
O O6 0.157961 0.993371 0.782445
O O7 0.138170 0.849693 0.026028
O O8 0.216697 0.862712 0.941843
O O9 0.383439 0.161395 0.631520
O O10 0.459920 0.134242 0.711857
O O11 0.303888 0.106856 0.556721
O O12 0.358249 0.999635 0.362801
O O13 0.000000 0.500000 0.500000
O O14 0.752999 0.483766 0.303773
#
# Coordination Sequence:
#
# PCOD9254462 Si02
#       7
#     8   8   8   8   8   4   8
#     4  12  24  42  58  80 113 166 197 227 288 356
#     4  10  17  35  57  92 110 141 188 250 284 329
#     4  10  20  33  60  84 113 146 198 233 287 342
#     4  12  23  41  58  81 120 152 194 237 288 348
#     4  10  21  35  58  90 114 146 184 241 291 333
#     4  12  22  36  62  86 108 142 190 252 284 326
#     4  10  16  30  56  88 115 143 176 230 295 344
#
# _framework density 23.118306
#
# number of rings (size 3 to 8) (size 9 to 14) (size 15 to 20)
#    0.000    1.231    4.615    3.692    0.000    0.000 
#    0.000    3.077    0.000    5.538    0.000    0.000 
#    0.000    0.000    0.000    0.000    0.000    0.000 
#
# Total GULP energy -145244.174908 kJ/mol
# GULP energy per Si atom -5586.314420 kJ/mol
# Density = 2.306569 g / cm^3
# Si number density = 23.118306 Si / 1000 Ang^3
#
#
#
# Elastic Constant Matrix: (Units=GPa)
#
#
# Indices 1 2 3 4 5 6 
#
# 1 158.5290 15.2592 0.6203 0.0000 17.5810 0.0000
# 2 15.2592 42.7212 7.3535 0.0000 -2.9873 0.0000
# 3 0.6203 7.3535 145.7812 0.0000 -8.3086 0.0000
# 4 0.0000 0.0000 0.0000 26.0421 0.0000 -11.3331
# 5 17.5810 -2.9873 -8.3086 0.0000 34.3369 0.0000
# 6 0.0000 0.0000 0.0000 -11.3331 0.0000 36.2169
#
#
#
# Elastic Compliance Matrix: (Units=1/GPa)
#
#
# Indices 1 2 3 4 5 6 
#
# 1 0.007000 -0.002751 -0.000110 0.000000 -0.003850 0.000000
# 2 -0.002751 0.024802 -0.001051 0.000000 0.003312 0.000000
# 3 -0.000110 -0.001051 0.007008 0.000000 0.001661 0.000000
# 4 0.000000 0.000000 0.000000 0.044453 0.000000 0.013910
# 5 -0.003850 0.003312 0.001661 0.000000 0.031785 0.000000
# 6 0.000000 0.000000 0.000000 0.013910 0.000000 0.031964
#
#
# Mechanical properties :
#
#
# Convention : Reuss Voigt Hill
#
# Bulk Modulus (GPa) = 32.27155 43.72193 37.99674
# Shear Modulus (GPa) = 30.27282 40.90572 35.58927
#
# Velocity S-wave (km/s) = 3.62259 4.21100 3.92783
# Velocity P-wave (km/s) = 5.61134 6.52661 6.08621
#
# Compressibility (1/GPa) = 0.03098704
#
# Stress axis : x y z
#
# Youngs Moduli (GPa) = 142.85350 40.31860 142.69982
#
# Poissons Ratio (x) = 0.11090 0.01577
# Poissons Ratio (y) = 0.39293 0.14992
# Poissons Ratio (z) = 0.01578 0.04236
#
# Static dielectric constant tensor:
#      x y z
#    x 1.883680 0.000000 0.026410 
#    y 0.000000 1.880620 0.000000 
#    z 0.026410 0.000000 1.943600 
# 
# From -- ./inp_files/18313.got.cif
#   From: 2010.05.17/outbox.cif.g08.bks.cpg/sg15_10_cif.got.tgz:18313.got - 2010.06.03 18:47:42.
