data_PCOD9254603
_publ_section_title
;
Structure prediction by ZEFSAII (Michael W. Deem and Ramdas Pophale) SiO2 
 PCOD9254603
Probable space group: C 2/C
;
_chemical_formula_sum "Si O2"
_cell_formula_units_Z 52
_cell_length_a 9.064391
_cell_length_b 17.061839
_cell_length_c 21.352825
_cell_angle_alpha 90.000000
_cell_angle_beta 140.379342
_cell_angle_gamma 90.000000
_cell_volume 2105.898449
_symmetry_space_group_name_H-M "C 2/C"
_symmetry_group_IT_number 15
_symmetry_cell_setting 'monoclinic'
loop_
_space_group_symop_operation_xyz
x,y,z
-x,y,1/2-z
-x,-y,-z
x,-y,1/2+z
1/2+x,1/2+y,z
1/2-x,1/2+y,1/2-z
1/2-x,1/2-y,-z
1/2+x,1/2-y,1/2+z
loop_
_atom_site_type_symbol
_atom_site_label
_atom_site_fract_x
_atom_site_fract_y
_atom_site_fract_z
Si Si1 0.122719 0.788412 0.539269
Si Si2 0.000000 0.241023 0.750000
Si Si3 0.555503 0.681896 0.382970
Si Si4 0.017554 0.384228 0.983012
Si Si5 0.823337 0.405118 0.335377
Si Si6 0.781345 0.931081 0.722899
Si Si7 0.170649 0.654524 0.860795
O O1 0.376357 0.789641 0.653892
O O2 0.971661 0.788836 0.554996
O O3 0.114360 0.703213 0.504520
O O4 0.949897 0.845241 0.443503
O O5 0.811038 0.177801 0.714474
O O6 0.776179 0.628732 0.440490
O O7 0.330232 0.629255 0.294274
O O8 0.594577 0.755550 0.350080
O O9 0.950985 0.419164 0.894322
O O10 0.169598 0.423486 0.087425
O O11 0.707737 0.476682 0.261074
O O12 0.075772 0.394718 0.388188
O O13 0.000000 0.912686 0.750000
O O14 0.000000 0.627941 0.750000
#
# Coordination Sequence:
#
# PCOD9254603 Si02
#       7
#     8   4   8   8   8   8   8
#     4  10  18  35  57  85 110 149 187 234 282 326
#     4  10  20  32  58  78 118 146 180 228 300 334
#     4  10  16  32  54  82 109 141 183 233 275 330
#     4   9  16  30  52  80 109 141 185 226 278 328
#     4  11  19  35  53  82 115 152 180 234 287 330
#     4  10  20  29  52  87 115 139 180 235 291 331
#     4  11  20  35  62  80 109 150 201 230 263 337
#
# _framework density 24.692549
#
# number of rings (size 3 to 8) (size 9 to 14) (size 15 to 20)
#    0.000    1.846    5.385    3.692    0.000    0.000 
#    0.000    0.769    5.077    0.923    0.000    0.000 
#    0.000    0.000    0.000    0.000    0.000    0.000 
#
# Total GULP energy -144808.424811 kJ/mol
# GULP energy per Si atom -5569.554800 kJ/mol
# Density = 2.463635 g / cm^3
# Si number density = 24.692549 Si / 1000 Ang^3
#
#
#
# Elastic Constant Matrix: (Units=GPa)
#
#
# Indices 1 2 3 4 5 6 
#
# 1 16.6803 12.0924 12.0537 0.0000 3.7578 0.0000
# 2 12.0924 48.8136 31.6817 0.0000 -2.9662 0.0000
# 3 12.0537 31.6817 153.9131 -0.0003 5.4433 -0.0001
# 4 0.0000 0.0000 -0.0003 25.0523 -0.0001 1.6414
# 5 3.7578 -2.9662 5.4433 -0.0001 39.1929 0.0000
# 6 0.0000 0.0000 -0.0001 1.6414 0.0000 14.8025
#
#
#
# Elastic Compliance Matrix: (Units=1/GPa)
#
#
# Indices 1 2 3 4 5 6 
#
# 1 0.076441 -0.018187 -0.001945 0.000000 -0.008436 0.000000
# 2 -0.018187 0.028214 -0.004543 0.000000 0.004510 0.000000
# 3 -0.001945 -0.004543 0.007628 0.000000 -0.001217 0.000000
# 4 0.000000 0.000000 0.000000 0.040209 0.000000 -0.004459
# 5 -0.008436 0.004510 -0.001217 0.000000 0.026834 0.000000
# 6 0.000000 0.000000 0.000000 -0.004459 0.000000 0.068051
#
#
# Mechanical properties :
#
#
# Convention : Reuss Voigt Hill
#
# Bulk Modulus (GPa) = 15.88963 36.78475 26.33719
# Shear Modulus (GPa) = 15.73796 26.71480 21.22638
#
# Velocity S-wave (km/s) = 2.52733 3.29279 2.93512
# Velocity P-wave (km/s) = 3.86853 5.42089 4.70912
#
# Compressibility (1/GPa) = 0.06293414
#
# Stress axis : x y z
#
# Youngs Moduli (GPa) = 13.08192 35.44335 131.10306
#
# Poissons Ratio (x) = 0.64461 0.25493
# Poissons Ratio (y) = 0.23792 0.59557
# Poissons Ratio (z) = 0.02544 0.16101
#
# Static dielectric constant tensor:
#      x y z
#    x 1.995360 0.000000 0.010390 
#    y 0.000000 1.952030 0.000000 
#    z 0.010390 0.000000 2.170000 
# 
# From -- ./inp_files/145491.got.cif
#   From: 2010.05.17/outbox.cif.g08.bks.cpg/sg15_73_cif.got.tgz:145491.got - 2010.06.03 18:47:42.
