data_PCOD9254552
_publ_section_title
;
Structure prediction by ZEFSAII (Michael W. Deem and Ramdas Pophale) SiO2 
 PCOD9254552
Probable space group: C 2/C
;
_chemical_formula_sum "Si O2"
_cell_formula_units_Z 44
_cell_length_a 16.359997
_cell_length_b 25.390402
_cell_length_c 5.247969
_cell_angle_alpha 90.000000
_cell_angle_beta 96.163709
_cell_angle_gamma 90.000000
_cell_volume 2167.335731
_symmetry_space_group_name_H-M "C 2/C"
_symmetry_group_IT_number 15
_symmetry_cell_setting 'monoclinic'
loop_
_space_group_symop_operation_xyz
x,y,z
-x,y,1/2-z
-x,-y,-z
x,-y,1/2+z
1/2+x,1/2+y,z
1/2-x,1/2+y,1/2-z
1/2-x,1/2-y,-z
1/2+x,1/2-y,1/2+z
loop_
_atom_site_type_symbol
_atom_site_label
_atom_site_fract_x
_atom_site_fract_y
_atom_site_fract_z
Si Si1 0.762039 0.115098 0.757833
Si Si2 0.273752 0.685044 0.263987
Si Si3 0.623986 0.767985 0.448281
Si Si4 0.500000 0.807279 0.750000
Si Si5 0.592448 0.465444 0.309781
Si Si6 0.087170 0.624099 0.653035
O O1 0.769106 0.159681 0.539518
O O2 0.834962 0.074866 0.725082
O O3 0.669931 0.090030 0.692042
O O4 0.772081 0.140164 0.042738
O O5 0.352418 0.721199 0.229510
O O6 0.196842 0.724103 0.179576
O O7 0.537087 0.768180 0.556308
O O8 0.617056 0.824100 0.310830
O O9 0.433512 0.849383 0.624490
O O10 0.500000 0.442569 0.250000
O O11 0.598807 0.489155 0.595795
O O12 0.000000 0.605999 0.750000
#
# Coordination Sequence:
#
# PCOD9254552 Si02
#       6
#     8   8   8   4   8   8
#     4  11  21  38  60  87 111 146 188 242 289 337
#     4  10  21  33  54  81 115 150 195 238 276 318
#     4   9  19  31  49  73 116 163 196 230 270 317
#     4  10  16  32  48  72 110 164 198 226 258 326
#     4  10  22  43  68  88 110 140 180 234 299 368
#     4   9  19  32  52  81 114 156 199 224 263 328
#
# _framework density 20.301421999999999
#
# number of rings (size 3 to 8) (size 9 to 14) (size 15 to 20)
#    0.000    2.182    1.818    1.091    2.545    2.182 
#    1.636    0.000    0.000    1.091    0.000    0.000 
#    0.000    0.000    0.000    0.000    0.000    0.000 
#
# Total GULP energy -122536.977823 kJ/mol
# GULP energy per Si atom -5569.862628 kJ/mol
# Density = 2.025522 g / cm^3
# Si number density = 20.301422 Si / 1000 Ang^3
#
#
#
# Elastic Constant Matrix: (Units=GPa)
#
#
# Indices 1 2 3 4 5 6 
#
# 1 137.6754 35.8297 5.2835 0.0000 2.2798 0.0000
# 2 35.8297 16.7925 -2.0169 0.0000 1.8674 0.0000
# 3 5.2835 -2.0169 65.5160 0.0000 -10.6210 0.0000
# 4 0.0000 0.0000 0.0000 16.2120 0.0000 -6.7105
# 5 2.2798 1.8674 -10.6210 0.0000 26.4138 0.0000
# 6 0.0000 0.0000 0.0000 -6.7105 0.0000 36.4528
#
#
#
# Elastic Compliance Matrix: (Units=1/GPa)
#
#
# Indices 1 2 3 4 5 6 
#
# 1 0.016718 -0.035976 -0.002436 0.000000 0.000121 0.000000
# 2 -0.035976 0.137537 0.006485 0.000000 -0.004011 0.000000
# 3 -0.002436 0.006485 0.016708 0.000000 0.006470 0.000000
# 4 0.000000 0.000000 0.000000 0.066771 0.000000 0.012292
# 5 0.000121 -0.004011 0.006470 0.000000 0.040734 0.000000
# 6 0.000000 0.000000 0.000000 0.012292 0.000000 0.029695
#
#
# Mechanical properties :
#
#
# Convention : Reuss Voigt Hill
#
# Bulk Modulus (GPa) = 9.33631 33.13072 21.23351
# Shear Modulus (GPa) = 12.26333 27.87488 20.06911
#
# Velocity S-wave (km/s) = 2.46044 3.70949 3.14754
# Velocity P-wave (km/s) = 3.56097 5.89083 4.86736
#
# Compressibility (1/GPa) = 0.10710867
#
# Stress axis : x y z
#
# Youngs Moduli (GPa) = 59.81711 7.27079 59.84996
#
# Poissons Ratio (x) = 0.26157 0.14580
# Poissons Ratio (y) = 2.15198 -0.38813
# Poissons Ratio (z) = 0.14572 -0.04715
#
# Static dielectric constant tensor:
#      x y z
#    x 1.881150 0.000000 0.013900 
#    y 0.000000 2.191940 0.000000 
#    z 0.013900 0.000000 1.787340 
# 
# From -- ./inp_files/7540.got.cif
#   From: 2010.05.17/outbox.cif.g08.bks.cpg/sg15_4_cif.got.tgz:7540.got - 2010.06.03 18:47:42.
