data_PCOD9254521
_publ_section_title
;
Structure prediction by ZEFSAII (Michael W. Deem and Ramdas Pophale) SiO2 
 PCOD9254521
Probable space group: C 2/C
;
_chemical_formula_sum "Si O2"
_cell_formula_units_Z 56
_cell_length_a 12.018587
_cell_length_b 24.305437
_cell_length_c 11.132122
_cell_angle_alpha 90.000000
_cell_angle_beta 126.530274
_cell_angle_gamma 90.000000
_cell_volume 2613.025395
_symmetry_space_group_name_H-M "C 2/C"
_symmetry_group_IT_number 15
_symmetry_cell_setting 'monoclinic'
loop_
_space_group_symop_operation_xyz
x,y,z
-x,y,1/2-z
-x,-y,-z
x,-y,1/2+z
1/2+x,1/2+y,z
1/2-x,1/2+y,1/2-z
1/2-x,1/2-y,-z
1/2+x,1/2-y,1/2+z
loop_
_atom_site_type_symbol
_atom_site_label
_atom_site_fract_x
_atom_site_fract_y
_atom_site_fract_z
Si Si1 0.164220 0.275899 0.832270
Si Si2 0.333188 0.367595 0.027753
Si Si3 0.971884 0.438683 0.863606
Si Si4 0.080345 0.437862 0.422220
Si Si5 0.353755 0.331924 0.298618
Si Si6 0.153288 0.961248 0.634020
Si Si7 0.631994 0.423167 0.005239
O O1 0.185068 0.232152 0.738272
O O2 0.000000 0.279231 0.750000
O O3 0.250000 0.250000 0.000000
O O4 0.231813 0.335996 0.870756
O O5 0.290928 0.361238 0.139057
O O6 0.480347 0.337417 0.110973
O O7 0.353816 0.429839 0.999590
O O8 0.810269 0.452793 0.771561
O O9 0.000000 0.413548 0.750000
O O10 0.055225 0.496163 0.914419
O O11 0.990760 0.410954 0.005725
O O12 0.244229 0.430281 0.508740
O O13 0.000000 0.420005 0.250000
O O14 0.332328 0.366527 0.404249
O O15 0.030975 0.931594 0.630985
O O16 0.139292 0.026215 0.605710
#
# Coordination Sequence:
#
# PCOD9254521 Si02
#       7
#     8   8   8   8   8   8   8
#     4  10  16  31  54  81 118 157 207 262 327 371
#     4   9  18  31  52  83 120 157 201 265 313 369
#     4  10  20  36  56  76 114 156 200 264 303 350
#     4  10  20  37  55  74 113 164 203 248 306 365
#     4   9  17  32  53  79 119 159 199 254 319 370
#     4  10  20  34  52  84 119 158 212 249 300 374
#     4  10  20  34  53  80 117 168 207 241 305 387
#
# _framework density 21.431097000000001
#
# number of rings (size 3 to 8) (size 9 to 14) (size 15 to 20)
#    0.000    2.286    5.714    0.000    0.000    3.429 
#    0.000    4.286    0.000    0.000    0.000    1.000 
#    0.000    0.000    0.000    0.000    0.000    0.571 
#
# Total GULP energy -155894.220608 kJ/mol
# GULP energy per Si atom -5567.650736 kJ/mol
# Density = 2.138232 g / cm^3
# Si number density = 21.431097 Si / 1000 Ang^3
#
#
#
# Elastic Constant Matrix: (Units=GPa)
#
#
# Indices 1 2 3 4 5 6 
#
# 1 148.6355 25.2003 54.8771 0.0000 -0.4373 0.0000
# 2 25.2003 73.0270 18.5424 0.0000 7.5826 0.0000
# 3 54.8771 18.5424 80.1066 0.0000 0.0433 0.0000
# 4 0.0000 0.0000 0.0000 0.0620 0.0000 6.8832
# 5 -0.4373 7.5826 0.0433 0.0000 39.8074 0.0000
# 6 0.0000 0.0000 0.0000 6.8832 0.0000 21.9191
#
#
#
# Elastic Compliance Matrix: (Units=1/GPa)
#
#
# Indices 1 2 3 4 5 6 
#
# 1 0.009201 -0.001721 -0.005905 0.000000 0.000435 0.000000
# 2 -0.001721 0.015182 -0.002334 0.000000 -0.002908 0.000000
# 3 -0.005905 -0.002334 0.017069 0.000000 0.000361 0.000000
# 4 0.000000 0.000000 0.000000 -0.476298 0.000000 0.149570
# 5 0.000435 -0.002908 0.000361 0.000000 0.025679 0.000000
# 6 0.000000 0.000000 0.000000 0.149570 0.000000 -0.001346
#
#
# Mechanical properties :
#
#
# Convention : Reuss Voigt Hill
#
# Bulk Modulus (GPa) = 46.44199 55.44540 50.94369
# Shear Modulus (GPa) = -13.04067 25.90096 6.43015
#
# Velocity S-wave (km/s) = -2.46944 3.48022 1.73404
# Velocity P-wave (km/s) = 3.68600 6.48667 5.27558
#
# Compressibility (1/GPa) = 0.02153224
#
# Stress axis : x y z
#
# Youngs Moduli (GPa) = 108.68219 65.86767 58.58686
#
# Poissons Ratio (x) = 0.11336 0.34596
# Poissons Ratio (y) = 0.18704 0.13672
# Poissons Ratio (z) = 0.64178 0.15371
#
# Static dielectric constant tensor:
#      x y z
#    x 1.826430 0.000000 -0.009330 
#    y 0.000000 1.807440 0.000000 
#    z -0.009330 0.000000 1.973650 
# 
# From -- ./inp_files/91852.got.cif
#   From: 2010.05.17/outbox.cif.g08.bks.cpg/sg15_46_cif.got.tgz:91852.got - 2010.06.03 18:47:42.
