data_PCOD9254858
_publ_section_title
;
Structure prediction by ZEFSAII (Michael W. Deem and Ramdas Pophale) SiO2 
 PCOD9254858
Probable space group: C 2/C
;
_chemical_formula_sum "Si O2"
_cell_formula_units_Z 64
_cell_length_a 15.525067
_cell_length_b 23.556128
_cell_length_c 15.251516
_cell_angle_alpha 90.000000
_cell_angle_beta 146.823458
_cell_angle_gamma 90.000000
_cell_volume 3052.198913
_symmetry_space_group_name_H-M "C 2/C"
_symmetry_group_IT_number 15
_symmetry_cell_setting 'monoclinic'
loop_
_space_group_symop_operation_xyz
x,y,z
-x,y,1/2-z
-x,-y,-z
x,-y,1/2+z
1/2+x,1/2+y,z
1/2-x,1/2+y,1/2-z
1/2-x,1/2-y,-z
1/2+x,1/2-y,1/2+z
loop_
_atom_site_type_symbol
_atom_site_label
_atom_site_fract_x
_atom_site_fract_y
_atom_site_fract_z
Si Si1 0.418272 0.020979 0.088858
Si Si2 0.535928 0.583350 0.384230
Si Si3 0.326057 0.196972 0.793819
Si Si4 0.892854 0.965762 0.084514
Si Si5 0.246390 0.354995 0.898142
Si Si6 0.395634 0.854954 0.533141
Si Si7 0.963159 0.186108 0.437376
Si Si8 0.401712 0.909601 0.254493
O O1 0.500000 0.041666 0.250000
O O2 0.389841 0.077129 0.007952
O O3 0.525683 0.969222 0.147303
O O4 0.247012 0.003747 0.979113
O O5 0.500000 0.593988 0.250000
O O6 0.508365 0.515966 0.375698
O O7 0.441756 0.628806 0.362117
O O8 0.717926 0.588807 0.571322
O O9 0.396744 0.258211 0.833928
O O10 0.420724 0.144702 0.831800
O O11 0.147163 0.194592 0.610337
O O12 0.334210 0.183618 0.903593
O O13 0.000000 0.936412 0.250000
O O14 0.814139 0.919569 0.955443
O O15 0.206127 0.344500 0.965761
O O16 0.375268 0.319857 0.955485
O O17 0.080091 0.345497 0.708715
O O18 0.500000 0.901391 0.250000
#
# Coordination Sequence:
#
# PCOD9254858 Si02
#       8
#     8   8   8   8   8   8   8   8
#     4  10  16  36  62  92 128 156 193 245 292 370
#     4  10  21  39  63  91 124 160 199 246 307 359
#     4  11  26  43  61  88 121 160 213 256 296 356
#     4  10  19  34  61  96 128 157 195 240 301 370
#     4  10  21  39  65  91 126 159 196 247 302 363
#     4  10  20  39  66  92 122 161 197 242 310 360
#     4  11  26  44  60  87 123 159 212 259 293 357
#     4  10  20  39  65  90 122 161 201 245 301 363
#
# _framework density 20.968489999999999
#
# number of rings (size 3 to 8) (size 9 to 14) (size 15 to 20)
#    0.000    1.750    5.000    0.750    3.500    4.000 
#    0.000    2.500    0.000    0.000    0.000    0.000 
#    0.000    0.000    0.000    0.000    0.000    0.000 
#
# Total GULP energy -178383.094889 kJ/mol
# GULP energy per Si atom -5574.471715 kJ/mol
# Density = 2.092076 g / cm^3
# Si number density = 20.968490 Si / 1000 Ang^3
#
#
#
# Elastic Constant Matrix: (Units=GPa)
#
#
# Indices 1 2 3 4 5 6 
#
# 1 26.9029 5.8629 -2.6668 0.0000 4.8088 0.0000
# 2 5.8629 57.9866 7.4338 0.0000 6.7509 0.0000
# 3 -2.6668 7.4338 50.0632 0.0000 3.3181 0.0000
# 4 0.0000 0.0000 0.0000 36.9641 0.0000 -48.9926
# 5 4.8088 6.7509 3.3181 0.0000 20.5035 0.0000
# 6 0.0000 0.0000 0.0000 -48.9926 0.0000 507.1535
#
#
#
# Elastic Compliance Matrix: (Units=1/GPa)
#
#
# Indices 1 2 3 4 5 6 
#
# 1 0.039793 -0.003418 0.003206 0.000000 -0.008726 0.000000
# 2 -0.003418 0.018491 -0.002605 0.000000 -0.004865 0.000000
# 3 0.003206 -0.002605 0.020748 0.000000 -0.003252 0.000000
# 4 0.000000 0.000000 0.000000 0.031026 0.000000 0.002997
# 5 -0.008726 -0.004865 -0.003252 0.000000 0.052947 0.000000
# 6 0.000000 0.000000 0.000000 0.002997 0.000000 0.002261
#
#
# Mechanical properties :
#
#
# Convention : Reuss Voigt Hill
#
# Bulk Modulus (GPa) = 13.62467 17.35693 15.49080
# Shear Modulus (GPa) = 25.59270 121.21242 73.40256
#
# Velocity S-wave (km/s) = 3.49740 7.61134 5.92302
# Velocity P-wave (km/s) = 4.77712 9.24872 7.36070
#
# Compressibility (1/GPa) = 0.07339629
#
# Stress axis : x y z
#
# Youngs Moduli (GPa) = 25.12987 54.07921 48.19764
#
# Poissons Ratio (x) = 0.18487 -0.15451
# Poissons Ratio (y) = 0.08591 0.12557
# Poissons Ratio (z) = -0.08056 0.14090
#
# Static dielectric constant tensor:
#      x y z
#    x 1.761970 0.000000 0.005530 
#    y 0.000000 1.806600 0.000000 
#    z 0.005530 0.000000 1.776430 
# 
# From -- ./inp_files/211988.got.cif
#   From: 2010.05.17/outbox.cif.g08.bks.cpg/sg15_106_cif.got.tgz:211988.got - 2010.06.03 18:47:42.
