data_PCOD9254904
_publ_section_title
;
Structure prediction by ZEFSAII (Michael W. Deem and Ramdas Pophale) SiO2 
 PCOD9254904
Probable space group: C 2/C
;
_chemical_formula_sum "Si O2"
_cell_formula_units_Z 52
_cell_length_a 20.236346
_cell_length_b 7.823250
_cell_length_c 18.470822
_cell_angle_alpha 90.000000
_cell_angle_beta 139.535981
_cell_angle_gamma 90.000000
_cell_volume 1897.712481
_symmetry_space_group_name_H-M "C 2/C"
_symmetry_group_IT_number 15
_symmetry_cell_setting 'monoclinic'
loop_
_space_group_symop_operation_xyz
x,y,z
-x,y,1/2-z
-x,-y,-z
x,-y,1/2+z
1/2+x,1/2+y,z
1/2-x,1/2+y,1/2-z
1/2-x,1/2-y,-z
1/2+x,1/2-y,1/2+z
loop_
_atom_site_type_symbol
_atom_site_label
_atom_site_fract_x
_atom_site_fract_y
_atom_site_fract_z
Si Si1 0.636740 0.828664 0.221223
Si Si2 0.847467 0.703477 0.245202
Si Si3 0.250000 0.750000 0.000000
Si Si4 0.118005 0.954922 0.949751
Si Si5 0.500000 0.211079 0.750000
Si Si6 0.500000 0.717665 0.750000
Si Si7 0.716862 0.970143 0.610414
Si Si8 0.542359 0.743711 0.517735
O O1 0.554993 0.838177 0.220339
O O2 0.706510 0.663427 0.287470
O O3 0.683063 0.016791 0.252191
O O4 0.572510 0.787350 0.095374
O O5 0.918373 0.778887 0.368678
O O6 0.917550 0.690953 0.231456
O O7 0.758120 0.838564 0.155434
O O8 0.266591 0.603227 0.946274
O O9 0.227730 0.583739 0.036395
O O10 0.098658 0.804499 0.870317
O O11 0.068133 0.912574 0.984460
O O12 0.066244 0.107192 0.863193
O O13 0.605609 0.905913 0.539271
#
# Coordination Sequence:
#
# PCOD9254904 Si02
#       8
#     8   8   4   8   4   4   8   8
#     4  11  23  44  71 102 142 194 238 300 373 429
#     4  12  25  44  70 104 141 187 241 307 362 437
#     4  10  16  38  64  94 134 176 228 284 342 414
#     4   9  17  34  65  92 128 185 223 282 352 423
#     4   9  15  34  62  91 129 176 227 281 350 419
#     4  11  21  40  66 105 137 174 247 297 356 439
#     4  11  24  44  73 101 144 190 243 297 358 440
#     4  10  25  43  70 106 145 191 242 304 374 437
#
# _framework density 27.401411
#
# number of rings (size 3 to 8) (size 9 to 14) (size 15 to 20)
#    0.000    1.538    3.077    2.769    2.154    2.462 
#    0.000    5.385    0.000    0.000    0.000    0.000 
#    0.000    0.000    0.000    0.000    0.000    0.000 
#
# Total GULP energy -144888.868765 kJ/mol
# GULP energy per Si atom -5572.648799 kJ/mol
# Density = 2.733904 g / cm^3
# Si number density = 27.401411 Si / 1000 Ang^3
#
#
#
# Elastic Constant Matrix: (Units=GPa)
#
#
# Indices 1 2 3 4 5 6 
#
# 1 121.1256 1.4065 6.8929 0.0000 -11.1100 0.0000
# 2 1.4065 18.3847 1.3914 0.0000 10.4694 0.0000
# 3 6.8929 1.3914 96.1317 0.0000 -20.8423 0.0000
# 4 0.0000 0.0000 0.0000 45.7765 0.0000 -7.0142
# 5 -11.1100 10.4694 -20.8423 0.0000 53.8134 0.0000
# 6 0.0000 0.0000 0.0000 -7.0142 0.0000 17.2868
#
#
#
# Elastic Compliance Matrix: (Units=1/GPa)
#
#
# Indices 1 2 3 4 5 6 
#
# 1 0.008472 -0.001803 -0.000138 0.000000 0.002047 0.000000
# 2 -0.001803 0.062841 -0.003834 0.000000 -0.014083 0.000000
# 3 -0.000138 -0.003834 0.011597 0.000000 0.005209 0.000000
# 4 0.000000 0.000000 0.000000 0.023293 0.000000 0.009451
# 5 0.002047 -0.014083 0.005209 0.000000 0.023763 0.000000
# 6 0.000000 0.000000 0.000000 0.009451 0.000000 0.061682
#
#
# Mechanical properties :
#
#
# Convention : Reuss Voigt Hill
#
# Bulk Modulus (GPa) = 14.01319 28.33598 21.17459
# Shear Modulus (GPa) = 22.02791 38.43876 30.23334
#
# Velocity S-wave (km/s) = 2.83838 3.74946 3.32527
# Velocity P-wave (km/s) = 3.98335 5.39520 4.74211
#
# Compressibility (1/GPa) = 0.07136134
#
# Stress axis : x y z
#
# Youngs Moduli (GPa) = 118.03043 15.91324 86.22831
#
# Poissons Ratio (x) = 0.02870 0.01187
# Poissons Ratio (y) = 0.21284 0.33056
# Poissons Ratio (z) = 0.01625 0.06100
#
# Static dielectric constant tensor:
#      x y z
#    x 1.765600 0.000000 -0.412800 
#    y 0.000000 2.365780 0.000000 
#    z -0.412800 0.000000 1.617330 
# 
# From -- ./inp_files/255104.got.cif
#   From: 2010.05.17/outbox.cif.g08.bks.cpg/sg15_128_cif.got.tgz:255104.got - 2010.06.03 18:47:42.
