data_PCOD9254623
_publ_section_title
;
Structure prediction by ZEFSAII (Michael W. Deem and Ramdas Pophale) SiO2 
 PCOD9254623
Probable space group: C 2/C
;
_chemical_formula_sum "Si O2"
_cell_formula_units_Z 40
_cell_length_a 19.287195
_cell_length_b 21.713659
_cell_length_c 11.057320
_cell_angle_alpha 90.000000
_cell_angle_beta 159.423210
_cell_angle_gamma 90.000000
_cell_volume 1627.537001
_symmetry_space_group_name_H-M "C 2/C"
_symmetry_group_IT_number 15
_symmetry_cell_setting 'monoclinic'
loop_
_space_group_symop_operation_xyz
x,y,z
-x,y,1/2-z
-x,-y,-z
x,-y,1/2+z
1/2+x,1/2+y,z
1/2-x,1/2+y,1/2-z
1/2-x,1/2-y,-z
1/2+x,1/2-y,1/2+z
loop_
_atom_site_type_symbol
_atom_site_label
_atom_site_fract_x
_atom_site_fract_y
_atom_site_fract_z
Si Si1 0.216165 0.879708 0.212380
Si Si2 0.263983 0.577590 0.498762
Si Si3 0.207241 0.120778 0.211033
Si Si4 0.236673 0.933032 0.004536
Si Si5 0.779359 0.254002 0.903949
O O1 0.296640 0.886190 0.479103
O O2 0.316787 0.918649 0.269550
O O3 0.224147 0.810541 0.172641
O O4 0.991337 0.907182 0.857235
O O5 0.195214 0.605092 0.258000
O O6 0.233977 0.505145 0.465752
O O7 0.502446 0.583605 0.879349
O O8 0.309161 0.100934 0.502652
O O9 0.150595 0.192696 0.133303
O O10 0.000000 0.278253 0.250000
O O11 0.750000 0.250000 0.000000
#
# Coordination Sequence:
#
# PCOD9254623 Si02
#       5
#     8   8   8   8   8
#     4  10  17  30  51  80 112 146 182 233 292 327
#     4  10  19  32  55  91 117 141 191 251 298 339
#     4  10  19  31  52  84 114 147 186 240 294 336
#     4  10  16  32  56  86 112 144 194 248 283 336
#     4  12  22  39  58  82 120 159 205 237 281 361
#
# _framework density 24.577013999999998
#
# number of rings (size 3 to 8) (size 9 to 14) (size 15 to 20)
#    0.000    1.600    4.000    7.200    0.000    0.800 
#    0.000    0.000    0.000    1.200    0.000    0.000 
#    0.000    0.000    0.000    0.000    0.000    0.000 
#
# Total GULP energy -111738.623344 kJ/mol
# GULP energy per Si atom -5586.931167 kJ/mol
# Density = 2.452108 g / cm^3
# Si number density = 24.577014 Si / 1000 Ang^3
#
#
#
# Elastic Constant Matrix: (Units=GPa)
#
#
# Indices 1 2 3 4 5 6 
#
# 1 310.5984 86.1417 39.2085 0.0000 -31.4562 0.0000
# 2 86.1417 202.3255 -3.5368 0.0000 -20.1814 0.0000
# 3 39.2085 -3.5368 58.0864 0.0000 -14.0135 -0.0001
# 4 0.0000 0.0000 0.0000 -16.0570 0.0000 -0.4330
# 5 -31.4562 -20.1814 -14.0135 0.0000 47.0146 0.0000
# 6 0.0000 0.0000 -0.0001 -0.4330 0.0000 50.8598
#
#
#
# Elastic Compliance Matrix: (Units=1/GPa)
#
#
# Indices 1 2 3 4 5 6 
#
# 1 0.004142 -0.001681 -0.002590 0.000000 0.001278 0.000000
# 2 -0.001681 0.005892 0.001974 0.000000 0.001993 0.000000
# 3 -0.002590 0.001974 0.020333 0.000000 0.005175 0.000000
# 4 0.000000 0.000000 0.000000 -0.062264 0.000000 -0.000530
# 5 0.001278 0.001993 0.005175 0.000000 0.024523 0.000000
# 6 0.000000 0.000000 0.000000 -0.000530 0.000000 0.019657
#
#
# Mechanical properties :
#
#
# Convention : Reuss Voigt Hill
#
# Bulk Modulus (GPa) = 38.80126 90.51526 64.65826
# Shear Modulus (GPa) = 196.32211 46.30994 121.31602
#
# Velocity S-wave (km/s) = 8.94728 4.34554 7.03340
# Velocity P-wave (km/s) = 11.07069 7.87956 9.60853
#
# Compressibility (1/GPa) = 0.02577236
#
# Stress axis : x y z
#
# Youngs Moduli (GPa) = 241.41174 169.73065 49.18153
#
# Poissons Ratio (x) = 0.28539 0.12739
# Poissons Ratio (y) = 0.40592 -0.09711
# Poissons Ratio (z) = 0.62531 -0.33512
#
# Static dielectric constant tensor:
#      x y z
#    x 1.945690 0.000000 0.110090 
#    y 0.000000 1.879470 0.000000 
#    z 0.110090 0.000000 2.022370 
# 
# From -- ./inp_files/30152.got.cif
#   From: 2010.05.17/outbox.cif.g08.bks.cpg/sg15_16_cif.got.tgz:30152.got - 2010.06.03 18:47:42.
