data_PCOD9254710
_publ_section_title
;
Structure prediction by ZEFSAII (Michael W. Deem and Ramdas Pophale) SiO2 
 PCOD9254710
Probable space group: C 2/C
;
_chemical_formula_sum "Si O2"
_cell_formula_units_Z 56
_cell_length_a 14.547424
_cell_length_b 18.169210
_cell_length_c 8.723106
_cell_angle_alpha 90.000000
_cell_angle_beta 75.707140
_cell_angle_gamma 90.000000
_cell_volume 2234.281608
_symmetry_space_group_name_H-M "C 2/C"
_symmetry_group_IT_number 15
_symmetry_cell_setting 'monoclinic'
loop_
_space_group_symop_operation_xyz
x,y,z
-x,y,1/2-z
-x,-y,-z
x,-y,1/2+z
1/2+x,1/2+y,z
1/2-x,1/2+y,1/2-z
1/2-x,1/2-y,-z
1/2+x,1/2-y,1/2+z
loop_
_atom_site_type_symbol
_atom_site_label
_atom_site_fract_x
_atom_site_fract_y
_atom_site_fract_z
Si Si1 0.792143 0.626070 0.666435
Si Si2 0.408323 0.579838 0.685163
Si Si3 0.796214 0.782519 0.739425
Si Si4 0.397896 0.734150 0.517024
Si Si5 0.502812 0.121924 0.933315
Si Si6 0.297423 0.442968 0.668536
Si Si7 0.687230 0.947695 0.024521
O O1 0.688188 0.595305 0.676475
O O2 0.802407 0.711493 0.630635
O O3 0.892362 0.594160 0.569738
O O4 0.795146 0.614576 0.851946
O O5 0.500000 0.571286 0.750000
O O6 0.418889 0.653682 0.578526
O O7 0.382130 0.502031 0.614936
O O8 0.692350 0.771817 0.859839
O O9 0.812433 0.857006 0.640313
O O10 0.869839 0.776914 0.850574
O O11 0.479101 0.795836 0.500250
O O12 0.500000 0.125600 0.750000
O O13 0.414968 0.068792 0.005572
O O14 0.210314 0.479556 0.612727
O O15 0.264036 0.442389 0.859953
#
# Coordination Sequence:
#
# PCOD9254710 Si02
#       7
#     8   8   8   8   8   8   8
#     4   9  19  38  67  92 116 160 218 282 297 365
#     4  10  23  42  57  83 136 172 199 255 333 383
#     4  10  16  33  64  94 117 154 224 262 304 363
#     4  10  18  36  69  88 115 170 222 269 298 364
#     4  10  17  36  65  99 114 146 223 284 302 351
#     4  11  21  39  63  94 132 177 203 258 325 389
#     4  10  20  38  65  94 135 162 209 261 323 380
#
# _framework density 25.063983
#
# number of rings (size 3 to 8) (size 9 to 14) (size 15 to 20)
#    0.000    2.000    4.286    2.571    0.000    0.000 
#    5.143   17.143   15.714    6.000    0.000    0.000 
#    0.000    0.000    0.000    0.000    0.000    0.000 
#
# Total GULP energy -156479.455143 kJ/mol
# GULP energy per Si atom -5588.551969 kJ/mol
# Density = 2.500694 g / cm^3
# Si number density = 25.063983 Si / 1000 Ang^3
#
#
#
# Elastic Constant Matrix: (Units=GPa)
#
#
# Indices 1 2 3 4 5 6 
#
# 1 169.1564 49.1832 9.2899 0.0000 17.4773 0.0000
# 2 49.1832 206.1314 15.7909 0.0000 19.7791 0.0000
# 3 9.2899 15.7909 37.8801 0.0000 10.4952 0.0000
# 4 0.0000 0.0000 0.0000 43.3144 0.0000 3.7517
# 5 17.4773 19.7791 10.4952 0.0000 26.3859 0.0000
# 6 0.0000 0.0000 0.0000 3.7517 0.0000 19.4640
#
#
#
# Elastic Compliance Matrix: (Units=1/GPa)
#
#
# Indices 1 2 3 4 5 6 
#
# 1 0.006633 -0.001244 -0.000168 0.000000 -0.003394 0.000000
# 2 -0.001244 0.005512 -0.001209 0.000000 -0.002827 0.000000
# 3 -0.000168 -0.001209 0.029965 0.000000 -0.010901 0.000000
# 4 0.000000 0.000000 0.000000 0.023479 0.000000 -0.004526
# 5 -0.003394 -0.002827 -0.010901 0.000000 0.046602 0.000000
# 6 0.000000 0.000000 0.000000 -0.004526 0.000000 0.052249
#
#
# Mechanical properties :
#
#
# Convention : Reuss Voigt Hill
#
# Bulk Modulus (GPa) = 27.12427 62.41066 44.76747
# Shear Modulus (GPa) = 27.47673 40.42647 33.95160
#
# Velocity S-wave (km/s) = 3.31458 4.02049 3.68448
# Velocity P-wave (km/s) = 5.04917 6.81961 6.00005
#
# Compressibility (1/GPa) = 0.03686735
#
# Stress axis : x y z
#
# Youngs Moduli (GPa) = 150.75314 181.42179 33.37269
#
# Poissons Ratio (x) = 0.22572 0.00560
# Poissons Ratio (y) = 0.18756 0.04036
# Poissons Ratio (z) = 0.02528 0.21942
#
# Static dielectric constant tensor:
#      x y z
#    x 2.011080 0.000000 0.000190 
#    y 0.000000 2.045110 0.000000 
#    z 0.000190 0.000000 2.024710 
# 
# From -- ./inp_files/41226.got.cif
#   From: 2010.05.17/outbox.cif.g08.bks.cpg/sg15_21_cif.got.tgz:41226.got - 2010.06.03 18:47:42.
