data_PCOD9254926
_publ_section_title
;
Structure prediction by ZEFSAII (Michael W. Deem and Ramdas Pophale) SiO2 
 PCOD9254926
Probable space group: C 2/C
;
_chemical_formula_sum "Si O2"
_cell_formula_units_Z 64
_cell_length_a 14.425256
_cell_length_b 19.722977
_cell_length_c 12.851571
_cell_angle_alpha 90.000000
_cell_angle_beta 129.905627
_cell_angle_gamma 90.000000
_cell_volume 2804.822729
_symmetry_space_group_name_H-M "C 2/C"
_symmetry_group_IT_number 15
_symmetry_cell_setting 'monoclinic'
loop_
_space_group_symop_operation_xyz
x,y,z
-x,y,1/2-z
-x,-y,-z
x,-y,1/2+z
1/2+x,1/2+y,z
1/2-x,1/2+y,1/2-z
1/2-x,1/2-y,-z
1/2+x,1/2-y,1/2+z
loop_
_atom_site_type_symbol
_atom_site_label
_atom_site_fract_x
_atom_site_fract_y
_atom_site_fract_z
Si Si1 0.150523 0.854056 0.967019
Si Si2 0.299815 0.543374 0.164406
Si Si3 0.205952 0.932725 0.188580
Si Si4 0.322539 0.831979 0.820483
Si Si5 0.600302 0.830971 0.073954
Si Si6 0.657787 0.764956 0.322520
Si Si7 0.363636 0.009042 0.128513
Si Si8 0.365098 0.172720 0.127227
O O1 0.129192 0.916323 0.873908
O O2 0.110036 0.787812 0.873796
O O3 0.119961 0.881765 0.060134
O O4 0.293484 0.833572 0.087762
O O5 0.354504 0.482023 0.270063
O O6 0.255791 0.602512 0.208725
O O7 0.184390 0.515658 0.017362
O O8 0.310157 0.889655 0.321286
O O9 0.274603 0.979669 0.152910
O O10 0.277046 0.771972 0.861663
O O11 0.296851 0.810483 0.684033
O O12 0.463229 0.849327 0.941760
O O13 0.588291 0.783445 0.167105
O O14 0.659721 0.805365 0.008344
O O15 0.500000 0.986289 0.250000
O O16 0.362979 0.090513 0.125472
O O17 0.500000 0.197475 0.250000
#
# Coordination Sequence:
#
# PCOD9254926 Si02
#       8
#     8   8   8   8   8   8   8   8
#     4   8  18  32  44  62  93 127 164 205 223 261
#     4  10  17  26  43  66  94 132 158 179 239 301
#     4  10  17  26  43  66  94 132 158 179 239 301
#     4  10  19  30  46  67  95 132 167 198 236 279
#     4  10  19  30  46  67  95 132 167 198 236 279
#     4   9  18  35  48  60  94 133 172 211 228 260
#     4  10  17  23  34  58  95 125 152 182 211 280
#     4   9  17  26  38  63  93 120 154 192 225 277
#
# _framework density 22.817841999999999
#
# number of rings (size 3 to 8) (size 9 to 14) (size 15 to 20)
#    0.000    2.500    2.500    0.750    0.000    1.500 
#    0.000   12.500    0.000    0.000    0.000    0.000 
#    0.000   25.000    0.000    0.000    0.000    0.000 
#
# Total GULP energy -178206.635797 kJ/mol
# GULP energy per Si atom -5568.957369 kJ/mol
# Density = 2.276591 g / cm^3
# Si number density = 22.817842 Si / 1000 Ang^3
#
#
#
# Elastic Constant Matrix: (Units=GPa)
#
#
# Indices 1 2 3 4 5 6 
#
# 1 20.9231 6.5489 21.7510 0.0000 -7.8107 0.0000
# 2 6.5489 75.3764 54.9145 0.0000 -13.9064 0.0000
# 3 21.7510 54.9145 137.7837 0.0000 -23.6960 0.0000
# 4 0.0000 0.0000 0.0000 46.5375 0.0000 -14.5771
# 5 -7.8107 -13.9064 -23.6960 0.0000 20.2515 0.0000
# 6 0.0000 0.0000 0.0000 -14.5771 0.0000 11.8258
#
#
#
# Elastic Compliance Matrix: (Units=1/GPa)
#
#
# Indices 1 2 3 4 5 6 
#
# 1 0.061485 0.003815 -0.008385 0.000000 0.016522 0.000000
# 2 0.003815 0.019372 -0.007239 0.000000 0.006304 0.000000
# 3 -0.008385 -0.007239 0.012589 0.000000 0.006525 0.000000
# 4 0.000000 0.000000 0.000000 0.035003 0.000000 0.043147
# 5 0.016522 0.006304 0.006525 0.000000 0.067715 0.000000
# 6 0.000000 0.000000 0.000000 0.043147 0.000000 0.137746
#
#
# Mechanical properties :
#
#
# Convention : Reuss Voigt Hill
#
# Bulk Modulus (GPa) = 14.32099 44.50135 29.41117
# Shear Modulus (GPa) = 13.13012 25.78089 19.45550
#
# Velocity S-wave (km/s) = 2.40142 3.36498 2.92318
# Velocity P-wave (km/s) = 3.73884 5.88580 4.93060
#
# Compressibility (1/GPa) = 0.06982759
#
# Stress axis : x y z
#
# Youngs Moduli (GPa) = 16.26416 51.62033 79.43554
#
# Poissons Ratio (x) = -0.19695 0.66610
# Poissons Ratio (y) = -0.06205 0.57504
# Poissons Ratio (z) = 0.13638 0.37368
#
# Static dielectric constant tensor:
#      x y z
#    x 1.863250 0.000000 -0.028840 
#    y 0.000000 1.892570 0.000000 
#    z -0.028840 0.000000 1.904000 
# 
# From -- ./inp_files/114087.got.cif
#   From: 2010.05.17/outbox.cif.g08.bks.cpg/sg15_58_cif.got.tgz:114087.got - 2010.06.03 18:47:42.
