data_PCOD9254479
_publ_section_title
;
Structure prediction by ZEFSAII (Michael W. Deem and Ramdas Pophale) SiO2 
 PCOD9254479
Probable space group: C 2/C
;
_chemical_formula_sum "Si O2"
_cell_formula_units_Z 60
_cell_length_a 14.649053
_cell_length_b 12.078661
_cell_length_c 19.114228
_cell_angle_alpha 90.000000
_cell_angle_beta 42.819313
_cell_angle_gamma 90.000000
_cell_volume 2298.767683
_symmetry_space_group_name_H-M "C 2/C"
_symmetry_group_IT_number 15
_symmetry_cell_setting 'monoclinic'
loop_
_space_group_symop_operation_xyz
x,y,z
-x,y,1/2-z
-x,-y,-z
x,-y,1/2+z
1/2+x,1/2+y,z
1/2-x,1/2+y,1/2-z
1/2-x,1/2-y,-z
1/2+x,1/2-y,1/2+z
loop_
_atom_site_type_symbol
_atom_site_label
_atom_site_fract_x
_atom_site_fract_y
_atom_site_fract_z
Si Si1 0.000000 0.393155 0.250000
Si Si2 0.048093 0.690157 0.144581
Si Si3 0.383181 0.214827 0.619485
Si Si4 0.255891 0.236634 0.820557
Si Si5 0.089430 0.887362 0.530539
Si Si6 0.340821 0.438966 0.855756
Si Si7 0.062605 0.508575 0.566329
Si Si8 0.145344 0.857836 0.999945
O O1 0.110038 0.322449 0.226754
O O2 0.070951 0.452815 0.144051
O O3 0.982755 0.606365 0.124890
O O4 0.201943 0.649271 0.061665
O O5 0.000000 0.681253 0.250000
O O6 0.052593 0.814195 0.114462
O O7 0.250813 0.203147 0.742052
O O8 0.449872 0.324311 0.617129
O O9 0.477685 0.106333 0.575701
O O10 0.359758 0.263223 0.556332
O O11 0.281171 0.361569 0.829167
O O12 0.147431 0.180761 0.932246
O O13 0.153406 0.875608 0.571961
O O14 0.101636 0.017716 0.506444
O O15 0.500000 0.469065 0.750000
O O16 0.206086 0.512010 0.947314
#
# Coordination Sequence:
#
# PCOD9254479 Si02
#       8
#     4   8   8   8   8   8   8   8
#     4  10  16  30  60  94 130 168 228 288 342 408
#     4  11  25  51  78  94 133 199 254 293 343 449
#     4  11  25  41  68 108 146 177 233 308 380 421
#     4  11  20  33  60 101 137 179 224 295 355 422
#     4  12  22  41  68  98 148 189 224 291 368 437
#     4  12  20  35  63 108 147 180 239 299 357 427
#     4  11  21  40  72 105 135 187 247 298 359 416
#     4  11  27  48  67 103 144 187 241 290 366 446
#
# _framework density 26.100940999999999
#
# number of rings (size 3 to 8) (size 9 to 14) (size 15 to 20)
#    0.000    0.800    6.667    1.600    1.867    2.133 
#    0.000    1.333    0.000    0.000    0.000    0.000 
#    0.000    0.000    0.000    0.000    0.000    0.000 
#
# Total GULP energy -167363.379596 kJ/mol
# GULP energy per Si atom -5578.779320 kJ/mol
# Density = 2.604153 g / cm^3
# Si number density = 26.100941 Si / 1000 Ang^3
#
#
#
# Elastic Constant Matrix: (Units=GPa)
#
#
# Indices 1 2 3 4 5 6 
#
# 1 75.1104 21.0754 25.7828 0.0000 4.0232 0.0000
# 2 21.0754 94.0658 54.3119 0.0000 6.5990 0.0000
# 3 25.7828 54.3119 196.1413 0.0000 5.5275 0.0000
# 4 0.0000 0.0000 0.0000 39.4915 0.0000 3.2694
# 5 4.0232 6.5990 5.5275 0.0000 37.3570 0.0000
# 6 0.0000 0.0000 0.0000 3.2694 0.0000 22.6400
#
#
#
# Elastic Compliance Matrix: (Units=1/GPa)
#
#
# Indices 1 2 3 4 5 6 
#
# 1 0.014470 -0.002491 -0.001186 0.000000 -0.000943 0.000000
# 2 -0.002491 0.013194 -0.003282 0.000000 -0.001577 0.000000
# 3 -0.001186 -0.003282 0.006169 0.000000 -0.000205 0.000000
# 4 0.000000 0.000000 0.000000 0.025628 0.000000 -0.003701
# 5 -0.000943 -0.001577 -0.000205 0.000000 0.027179 0.000000
# 6 0.000000 0.000000 0.000000 -0.003701 0.000000 0.044704
#
#
# Mechanical properties :
#
#
# Convention : Reuss Voigt Hill
#
# Bulk Modulus (GPa) = 50.21061 63.07307 56.64184
# Shear Modulus (GPa) = 32.91617 37.50752 35.21185
#
# Velocity S-wave (km/s) = 3.55506 3.79491 3.67695
# Velocity P-wave (km/s) = 6.01084 6.58934 6.30672
#
# Compressibility (1/GPa) = 0.01991611
#
# Stress axis : x y z
#
# Youngs Moduli (GPa) = 69.10710 75.78958 162.10858
#
# Poissons Ratio (x) = 0.18882 0.19221
# Poissons Ratio (y) = 0.17217 0.53198
# Poissons Ratio (z) = 0.08194 0.24871
#
# Static dielectric constant tensor:
#      x y z
#    x 2.119750 0.000000 0.017550 
#    y 0.000000 2.137100 0.000000 
#    z 0.017550 0.000000 2.141670 
# 
# From -- ./inp_files/248765.got.cif
#   From: 2010.05.17/outbox.cif.g08.bks.cpg/sg15_125_cif.got.tgz:248765.got - 2010.06.03 18:47:42.
