data_PCOD9254082
_publ_section_title
;
Structure prediction by ZEFSAII (Michael W. Deem and Ramdas Pophale) SiO2 
 PCOD9254082
Probable space group: C 2/C
;
_chemical_formula_sum "Si O2"
_cell_formula_units_Z 48
_cell_length_a 8.077008
_cell_length_b 31.353479
_cell_length_c 15.799299
_cell_angle_alpha 90.000000
_cell_angle_beta 32.062614
_cell_angle_gamma 90.000000
_cell_volume 2123.940675
_symmetry_space_group_name_H-M "C 2/C"
_symmetry_group_IT_number 15
_symmetry_cell_setting 'monoclinic'
loop_
_space_group_symop_operation_xyz
x,y,z
-x,y,1/2-z
-x,-y,-z
x,-y,1/2+z
1/2+x,1/2+y,z
1/2-x,1/2+y,1/2-z
1/2-x,1/2-y,-z
1/2+x,1/2-y,1/2+z
loop_
_atom_site_type_symbol
_atom_site_label
_atom_site_fract_x
_atom_site_fract_y
_atom_site_fract_z
Si Si1 0.171387 0.416759 0.337126
Si Si2 0.579609 0.761190 0.814601
Si Si3 0.650630 0.329161 0.278133
Si Si4 0.005040 0.352358 0.647406
Si Si5 0.468666 0.512390 0.611290
Si Si6 0.620510 0.943850 0.872849
O O1 0.500000 0.415197 0.250000
O O2 0.115084 0.368682 0.330406
O O3 0.229822 0.449154 0.235706
O O4 0.912930 0.434171 0.512831
O O5 0.500000 0.765607 0.750000
O O6 0.775917 0.718072 0.745805
O O7 0.674380 0.808702 0.801430
O O8 0.250000 0.750000 0.000000
O O9 0.500000 0.323839 0.250000
O O10 0.362252 0.344583 0.461562
O O11 0.878416 0.396310 0.665416
O O12 0.000000 0.356738 0.750000
O O13 0.500000 0.500000 0.500000
O O14 0.799181 0.531901 0.492736
O O15 0.360548 0.474733 0.721055
#
# Coordination Sequence:
#
# PCOD9254082 Si02
#       6
#     8   8   8   8   8   8
#     4   9  17  31  47  64  89 126 158 190 232 283
#     4   8  15  21  36  59  85 119 146 180 221 285
#     4   9  13  26  41  58  89 121 153 178 231 286
#     4  10  16  25  39  63  90 119 152 186 235 272
#     4  11  21  33  49  69  91 121 162 201 241 275
#     4  11  21  34  49  67  95 130 161 195 235 283
#
# _framework density 22.599499999999999
#
# number of rings (size 3 to 8) (size 9 to 14) (size 15 to 20)
#    0.000    2.333    5.000    2.000    0.000    0.000 
#    0.000    0.000    0.000    0.000    0.000    0.000 
#    0.000    1.333    0.000   13.333    0.000   21.000 
#
# Total GULP energy -133819.383248 kJ/mol
# GULP energy per Si atom -5575.807635 kJ/mol
# Density = 2.254806 g / cm^3
# Si number density = 22.599500 Si / 1000 Ang^3
#
#
#
# Elastic Constant Matrix: (Units=GPa)
#
#
# Indices 1 2 3 4 5 6 
#
# 1 13.2313 33.2814 39.4695 0.0000 -3.0219 0.0000
# 2 33.2814 255.4859 61.8954 0.0000 -1.5390 0.0000
# 3 39.4695 61.8954 132.5759 0.0000 42.3330 0.0000
# 4 0.0000 0.0000 0.0000 88.3066 0.0000 26.2643
# 5 -3.0219 -1.5390 42.3330 0.0000 19.3766 0.0000
# 6 0.0000 0.0000 0.0000 26.2643 0.0000 20.8804
#
#
#
# Elastic Compliance Matrix: (Units=1/GPa)
#
#
# Indices 1 2 3 4 5 6 
#
# 1 -0.019235 -0.005411 0.030913 0.000000 -0.070967 0.000000
# 2 -0.005411 0.005183 -0.002219 0.000000 0.004415 0.000000
# 3 0.030913 -0.002219 -0.006971 0.000000 0.019874 0.000000
# 4 0.000000 0.000000 0.000000 0.018093 0.000000 -0.022758
# 5 -0.070967 0.004415 0.019874 0.000000 -0.002529 0.000000
# 6 0.000000 0.000000 0.000000 -0.022758 0.000000 0.076518
#
#
# Mechanical properties :
#
#
# Convention : Reuss Voigt Hill
#
# Bulk Modulus (GPa) = 39.14650 74.50951 56.82800
# Shear Modulus (GPa) = 151.48544 43.48919 97.48731
#
# Velocity S-wave (km/s) = 8.19609 4.39149 6.57500
# Velocity P-wave (km/s) = 10.34057 7.66516 9.10171
#
# Compressibility (1/GPa) = 0.02554507
#
# Stress axis : x y z
#
# Youngs Moduli (GPa) = -51.98879 192.93651 -143.45555
#
# Poissons Ratio (x) = 1.04399 4.43470
# Poissons Ratio (y) = -0.28131 -0.31826
# Poissons Ratio (z) = 1.60715 0.42803
#
# Static dielectric constant tensor:
#      x y z
#    x 1.808660 0.000000 -0.028660 
#    y 0.000000 1.961230 0.000000 
#    z -0.028660 0.000000 1.858050 
# 
# From -- ./inp_files/201093.got.cif
#   From: 2010.05.17/outbox.cif.g08.bks.cpg/sg15_101_cif.got.tgz:201093.got - 2010.06.03 18:47:42.
