data_PCOD9254216
_publ_section_title
;
Structure prediction by ZEFSAII (Michael W. Deem and Ramdas Pophale) SiO2 
 PCOD9254216
Probable space group: C 2/C
;
_chemical_formula_sum "Si O2"
_cell_formula_units_Z 64
_cell_length_a 19.136685
_cell_length_b 10.182287
_cell_length_c 25.430906
_cell_angle_alpha 90.000000
_cell_angle_beta 146.985083
_cell_angle_gamma 90.000000
_cell_volume 2699.956086
_symmetry_space_group_name_H-M "C 2/C"
_symmetry_group_IT_number 15
_symmetry_cell_setting 'monoclinic'
loop_
_space_group_symop_operation_xyz
x,y,z
-x,y,1/2-z
-x,-y,-z
x,-y,1/2+z
1/2+x,1/2+y,z
1/2-x,1/2+y,1/2-z
1/2-x,1/2-y,-z
1/2+x,1/2-y,1/2+z
loop_
_atom_site_type_symbol
_atom_site_label
_atom_site_fract_x
_atom_site_fract_y
_atom_site_fract_z
Si Si1 0.830319 0.056711 0.307727
Si Si2 0.202989 0.863385 0.308669
Si Si3 0.172657 0.558957 0.307152
Si Si4 0.029936 0.531274 0.887588
Si Si5 0.211173 0.085577 0.928327
Si Si6 0.980016 0.727117 0.941737
Si Si7 0.367147 0.640107 0.514334
Si Si8 0.904646 0.696239 0.381997
O O1 0.752952 0.001116 0.308687
O O2 0.954896 0.121225 0.412379
O O3 0.739952 0.178846 0.229894
O O4 0.834185 0.956155 0.262792
O O5 0.146760 0.715549 0.279442
O O6 0.173752 0.937510 0.344721
O O7 0.354107 0.830548 0.392870
O O8 0.035277 0.493265 0.209961
O O9 0.268290 0.554869 0.416860
O O10 0.997323 0.663946 0.896100
O O11 0.974233 0.423143 0.894511
O O12 0.180841 0.512031 0.982671
O O13 0.284239 0.225907 0.969072
O O14 0.110032 0.093771 0.911547
O O15 0.091508 0.689267 0.052605
O O16 0.499614 0.682084 0.570073
#
# Coordination Sequence:
#
# PCOD9254216 Si02
#       8
#     8   8   8   8   8   8   8   8
#     4  10  19  27  48  74  99 141 169 211 257 310
#     4  10  16  30  44  65  99 132 169 201 261 299
#     4   9  17  27  43  68 102 131 152 211 255 308
#     4  10  17  27  47  71  97 135 171 203 263 303
#     4   9  17  27  46  70  95 135 169 211 246 316
#     4  11  17  29  47  71 104 131 172 218 247 309
#     4   9  16  28  42  67 104 131 159 202 261 300
#     4  10  16  28  46  68 101 140 163 204 263 309
#
# _framework density 23.704090000000001
#
# number of rings (size 3 to 8) (size 9 to 14) (size 15 to 20)
#    0.000    2.250    7.500    1.125    0.000    0.500 
#    0.000    1.250    0.000   15.750    0.000    0.875 
#    0.000   18.000    0.000    4.750    0.000    0.000 
#
# Total GULP energy -178467.589647 kJ/mol
# GULP energy per Si atom -5577.112176 kJ/mol
# Density = 2.365014 g / cm^3
# Si number density = 23.704090 Si / 1000 Ang^3
#
#
#
# Elastic Constant Matrix: (Units=GPa)
#
#
# Indices 1 2 3 4 5 6 
#
# 1 68.6464 16.8382 23.5316 -0.0001 -20.8738 0.0000
# 2 16.8382 25.1633 19.3517 0.0000 -8.1183 0.0000
# 3 23.5316 19.3517 86.2576 -0.0002 -25.1865 -0.0002
# 4 -0.0001 0.0000 -0.0002 20.3020 0.0000 -1.8830
# 5 -20.8738 -8.1183 -25.1865 0.0000 37.1318 -0.0001
# 6 0.0000 0.0000 -0.0002 -1.8830 -0.0001 6.9035
#
#
#
# Elastic Compliance Matrix: (Units=1/GPa)
#
#
# Indices 1 2 3 4 5 6 
#
# 1 0.019842 -0.010008 -0.000686 0.000000 0.008501 0.000000
# 2 -0.010008 0.053550 -0.009362 0.000000 -0.000268 0.000000
# 3 -0.000686 -0.009362 0.016423 0.000000 0.008708 0.000001
# 4 0.000000 0.000000 0.000000 0.050535 0.000000 0.013784
# 5 0.008501 -0.000268 0.008708 0.000000 0.037558 0.000001
# 6 0.000000 0.000000 0.000001 0.013784 0.000001 0.148613
#
#
# Mechanical properties :
#
#
# Convention : Reuss Voigt Hill
#
# Bulk Modulus (GPa) = 20.11857 33.27890 26.69873
# Shear Modulus (GPa) = 13.04800 20.89052 16.96926
#
# Velocity S-wave (km/s) = 2.34872 2.97190 2.67849
# Velocity P-wave (km/s) = 3.98260 5.08390 4.56657
#
# Compressibility (1/GPa) = 0.04970532
#
# Stress axis : x y z
#
# Youngs Moduli (GPa) = 50.39756 18.67401 60.88989
#
# Poissons Ratio (x) = 0.18688 0.04174
# Poissons Ratio (y) = 0.50436 0.57005
# Poissons Ratio (z) = 0.03455 0.17483
#
# Static dielectric constant tensor:
#      x y z
#    x 1.933910 0.000000 0.022150 
#    y 0.000000 1.961270 0.000000 
#    z 0.022150 0.000000 1.997840 
# 
# From -- ./inp_files/279903.got.cif
#   From: 2010.05.17/outbox.cif.g08.bks.cpg/sg15_140_cif.got.tgz:279903.got - 2010.06.03 18:47:42.
