data_PCOD9254846
_publ_section_title
;
Structure prediction by ZEFSAII (Michael W. Deem and Ramdas Pophale) SiO2 
 PCOD9254846
Probable space group: C 2/C
;
_chemical_formula_sum "Si O2"
_cell_formula_units_Z 44
_cell_length_a 13.147905
_cell_length_b 6.982492
_cell_length_c 21.983129
_cell_angle_alpha 90.000000
_cell_angle_beta 50.874617
_cell_angle_gamma 90.000000
_cell_volume 1565.625100
_symmetry_space_group_name_H-M "C 2/C"
_symmetry_group_IT_number 15
_symmetry_cell_setting 'monoclinic'
loop_
_space_group_symop_operation_xyz
x,y,z
-x,y,1/2-z
-x,-y,-z
x,-y,1/2+z
1/2+x,1/2+y,z
1/2-x,1/2+y,1/2-z
1/2-x,1/2-y,-z
1/2+x,1/2-y,1/2+z
loop_
_atom_site_type_symbol
_atom_site_label
_atom_site_fract_x
_atom_site_fract_y
_atom_site_fract_z
Si Si1 0.283160 0.582581 0.644560
Si Si2 0.000000 0.751310 0.750000
Si Si3 0.038243 0.463359 0.915279
Si Si4 0.433185 0.397930 0.348926
Si Si5 0.708619 0.364096 0.225602
Si Si6 0.250234 0.972269 0.477800
O O1 0.131951 0.638441 0.697945
O O2 0.372334 0.771808 0.612462
O O3 0.287851 0.501905 0.712162
O O4 0.302654 0.492342 0.570815
O O5 0.005019 0.894427 0.691092
O O6 0.135660 0.620278 0.848516
O O7 0.900361 0.465675 0.931305
O O8 0.000000 0.500000 0.000000
O O9 0.563876 0.268468 0.296902
O O10 0.334757 0.377122 0.329643
O O11 0.349703 0.420262 0.440326
O O12 0.250000 0.750000 0.500000
#
# Coordination Sequence:
#
# PCOD9254846 Si02
#       6
#     8   4   8   8   8   8
#     4  12  23  37  66 103 125 175 227 273 340 396
#     4  10  16  36  60  90 118 162 216 258 310 388
#     4  12  21  40  66 101 131 168 225 284 325 403
#     4  10  20  42  62  85 128 176 204 262 332 401
#     4  10  22  39  63  89 131 174 212 265 336 396
#     4  12  22  38  67  99 128 168 220 279 335 396
#
# _framework density 28.10379
#
# number of rings (size 3 to 8) (size 9 to 14) (size 15 to 20)
#    0.000    1.091    9.091    1.091    0.000    0.727 
#    0.000    4.545    0.000    0.000    0.000    0.000 
#    0.000    0.000    0.000    0.000    0.000    0.000 
#
# Total GULP energy -122481.021908 kJ/mol
# GULP energy per Si atom -5567.319178 kJ/mol
# Density = 2.803982 g / cm^3
# Si number density = 28.103790 Si / 1000 Ang^3
#
#
#
# Elastic Constant Matrix: (Units=GPa)
#
#
# Indices 1 2 3 4 5 6 
#
# 1 176.2065 34.7481 72.0684 -0.1723 18.2280 0.1477
# 2 34.7481 75.9510 61.7877 -0.2831 -19.4004 0.2429
# 3 72.0684 61.7877 251.8695 -0.0528 7.6011 0.0453
# 4 -0.1723 -0.2831 -0.052859465.2114 -0.0314**********
# 5 18.2280 -19.4004 7.6011 -0.0314 83.1769 0.0268
# 6 0.1477 0.2429 0.0453********** 0.026843771.8935
#
#
#
# Elastic Compliance Matrix: (Units=1/GPa)
#
#
# Indices 1 2 3 4 5 6 
#
# 1 0.006927 -0.002651 -0.001271 0.000000 -0.002020 0.000000
# 2 -0.002651 0.019084 -0.004086 0.000000 0.005406 0.000000
# 3 -0.001271 -0.004086 0.005371 0.000000 -0.001166 0.000000
# 4 0.000000 0.000000 0.000000 0.012189 0.000000 0.014197
# 5 -0.002020 0.005406 -0.001166 0.000000 0.013833 0.000000
# 6 0.000000 0.000000 0.000000 0.014197 0.000000 0.016559
#
#
# Mechanical properties :
#
#
# Convention : Reuss Voigt Hill
#
# Bulk Modulus (GPa) = 65.07788 93.47059 79.27424
# Shear Modulus (GPa) = 52.57500 20686.41789 10369.49645
#
# Velocity S-wave (km/s) = 4.32990 85.88773 60.80892
# Velocity P-wave (km/s) = 6.94291 99.34250 70.41710
#
# Compressibility (1/GPa) = 0.01536621
#
# Stress axis : x y z
#
# Youngs Moduli (GPa) = 144.36950 52.39873 186.16979
#
# Poissons Ratio (x) = 0.13893 0.23654
# Poissons Ratio (y) = 0.38278 0.76073
# Poissons Ratio (z) = 0.18343 0.21411
#
# Static dielectric constant tensor:
#      x y z
#    x 2.240830 0.000000 0.039390 
#    y 0.000000 2.606530 0.000000 
#    z 0.039390 0.000000 2.174990 
# 
# From -- ./inp_files/236808.got.cif
#   From: 2010.05.17/outbox.cif.g08.bks.cpg/sg15_119_cif.got.tgz:236808.got - 2010.06.03 18:47:42.
