data_PCOD9254288
_publ_section_title
;
Structure prediction by ZEFSAII (Michael W. Deem and Ramdas Pophale) SiO2 
 PCOD9254288
Probable space group: C 2/C
;
_chemical_formula_sum "Si O2"
_cell_formula_units_Z 48
_cell_length_a 18.345835
_cell_length_b 29.712009
_cell_length_c 5.268840
_cell_angle_alpha 90.000000
_cell_angle_beta 67.944178
_cell_angle_gamma 90.000000
_cell_volume 2661.823036
_symmetry_space_group_name_H-M "C 2/C"
_symmetry_group_IT_number 15
_symmetry_cell_setting 'monoclinic'
loop_
_space_group_symop_operation_xyz
x,y,z
-x,y,1/2-z
-x,-y,-z
x,-y,1/2+z
1/2+x,1/2+y,z
1/2-x,1/2+y,1/2-z
1/2-x,1/2-y,-z
1/2+x,1/2-y,1/2+z
loop_
_atom_site_type_symbol
_atom_site_label
_atom_site_fract_x
_atom_site_fract_y
_atom_site_fract_z
Si Si1 0.415280 0.180878 0.278332
Si Si2 0.628194 0.229702 0.664889
Si Si3 0.719383 0.970668 0.680625
Si Si4 0.795960 0.820847 0.939744
Si Si5 0.252094 0.629502 0.999773
Si Si6 0.034939 0.550423 0.454558
O O1 0.500000 0.162654 0.250000
O O2 0.398960 0.218176 0.516507
O O3 0.340255 0.146543 0.377476
O O4 0.417552 0.204616 0.000952
O O5 0.714299 0.206841 0.540664
O O6 0.637805 0.282920 0.609358
O O7 0.758020 0.923259 0.555012
O O8 0.627240 0.956922 0.820243
O O9 0.735135 0.006039 0.432053
O O10 0.797149 0.844712 0.666193
O O11 0.787068 0.855690 0.183066
O O12 0.000000 0.571508 0.250000
O O13 0.000000 0.500000 0.500000
O O14 0.000000 0.573543 0.750000
#
# Coordination Sequence:
#
# PCOD9254288 Si02
#       6
#     8   8   8   8   8   8
#     4  10  19  32  45  71  99 121 149 185 240 281
#     4   9  17  30  53  66  88 121 147 189 226 288
#     4  12  21  32  45  59  83 117 162 199 240 275
#     4   9  17  33  49  69  84 110 162 194 233 272
#     4  10  21  32  46  66  91 119 157 212 236 260
#     4  10  16  29  41  53  68  98 148 199 214 266
#
# _framework density 18.032751999999999
#
# number of rings (size 3 to 8) (size 9 to 14) (size 15 to 20)
#    0.000    2.000    3.333    2.500    0.000    4.667 
#    0.000    3.333    0.000    0.000    0.000    0.000 
#    0.000    0.000    0.000    0.000    0.000  210.000 
#
# Total GULP energy -133733.521343 kJ/mol
# GULP energy per Si atom -5572.230056 kJ/mol
# Density = 1.799171 g / cm^3
# Si number density = 18.032752 Si / 1000 Ang^3
#
#
#
# Elastic Constant Matrix: (Units=GPa)
#
#
# Indices 1 2 3 4 5 6 
#
# 1 26.7288 15.4303 19.4194 0.0000 16.0644 0.0000
# 2 15.4303 86.4963 22.7133 0.0000 1.2886 0.0000
# 3 19.4194 22.7133 93.6115 0.0000 35.3296 0.0000
# 4 0.0000 0.0000 0.0000 -6.7571 0.0000 -35.1423
# 5 16.0644 1.2886 35.3296 0.0000 24.7861 0.0000
# 6 0.0000 0.0000 0.0000 -35.1423 0.0000 -70.7642
#
#
#
# Elastic Compliance Matrix: (Units=1/GPa)
#
#
# Indices 1 2 3 4 5 6 
#
# 1 0.079563 -0.016958 0.014584 0.000000 -0.071472 0.000000
# 2 -0.016958 0.016712 -0.009430 0.000000 0.023563 0.000000
# 3 0.014584 -0.009430 0.028844 0.000000 -0.050075 0.000000
# 4 0.000000 0.000000 0.000000 0.093501 0.000000 -0.046434
# 5 -0.071472 0.023563 -0.050075 0.000000 0.156818 0.000000
# 6 0.000000 0.000000 0.000000 -0.046434 0.000000 0.008928
#
#
# Mechanical properties :
#
#
# Convention : Reuss Voigt Hill
#
# Bulk Modulus (GPa) = 9.85132 35.77362 22.81247
# Shear Modulus (GPa) = 11.31705 -0.59546 5.36079
#
# Velocity S-wave (km/s) = 2.50788 -0.57526 1.72605
# Velocity P-wave (km/s) = 3.72301 4.40908 4.08049
#
# Compressibility (1/GPa) = 0.10150923
#
# Stress axis : x y z
#
# Youngs Moduli (GPa) = 12.56870 59.83884 34.66958
#
# Poissons Ratio (x) = 1.01476 -0.50560
# Poissons Ratio (y) = 0.21314 0.32693
# Poissons Ratio (z) = -0.18330 0.56426
#
# Static dielectric constant tensor:
#      x y z
#    x 1.627110 0.000000 0.007110 
#    y 0.000000 1.630480 0.000000 
#    z 0.007110 0.000000 1.671150 
# 
# From -- ./inp_files/14090.got.cif
#   From: 2010.05.17/outbox.cif.g08.bks.cpg/sg15_8_cif.got.tgz:14090.got - 2010.06.03 18:47:42.
