data_PCOD9254629
_publ_section_title
;
Structure prediction by ZEFSAII (Michael W. Deem and Ramdas Pophale) SiO2 
 PCOD9254629
Probable space group: C 2/C
;
_chemical_formula_sum "Si O2"
_cell_formula_units_Z 52
_cell_length_a 14.846291
_cell_length_b 11.484645
_cell_length_c 16.063761
_cell_angle_alpha 90.000000
_cell_angle_beta 126.005769
_cell_angle_gamma 90.000000
_cell_volume 2215.688221
_symmetry_space_group_name_H-M "C 2/C"
_symmetry_group_IT_number 15
_symmetry_cell_setting 'monoclinic'
loop_
_space_group_symop_operation_xyz
x,y,z
-x,y,1/2-z
-x,-y,-z
x,-y,1/2+z
1/2+x,1/2+y,z
1/2-x,1/2+y,1/2-z
1/2-x,1/2-y,-z
1/2+x,1/2-y,1/2+z
loop_
_atom_site_type_symbol
_atom_site_label
_atom_site_fract_x
_atom_site_fract_y
_atom_site_fract_z
Si Si1 0.000000 0.820500 0.750000
Si Si2 0.825891 0.353868 0.110149
Si Si3 0.716268 0.316628 0.781279
Si Si4 0.500000 0.627086 0.750000
Si Si5 0.790514 0.940939 0.037633
Si Si6 0.500000 0.978296 0.750000
Si Si7 0.051970 0.687808 0.142811
Si Si8 0.154775 0.747011 0.565834
O O1 0.928505 0.735762 0.647510
O O2 0.896760 0.875190 0.745165
O O3 0.750809 0.277642 0.130114
O O4 0.890680 0.446562 0.201932
O O5 0.759999 0.431474 0.008126
O O6 0.834259 0.372631 0.823913
O O7 0.677916 0.258451 0.674880
O O8 0.586708 0.559150 0.855139
O O9 0.433191 0.710399 0.779313
O O10 0.716616 0.864298 0.060085
O O11 0.800563 0.861823 0.959401
O O12 0.518828 0.903406 0.841918
O O13 0.974821 0.734270 0.027757
#
# Coordination Sequence:
#
# PCOD9254629 Si02
#       8
#     4   8   8   4   8   4   8   8
#     4   7  20  35  52  70 114 162 180 227 288 341
#     4   9  18  33  54  77 120 154 180 231 298 335
#     4  10  19  36  53  84 117 157 186 242 292 346
#     4   9  18  29  52  86 121 139 182 249 292 327
#     4  10  17  33  54  91 115 147 185 249 291 340
#     4  10  16  32  56  90 113 141 194 248 282 340
#     4  10  18  30  57  87 112 145 196 243 288 337
#     4  10  19  30  57  88 112 142 200 241 287 341
#
# _framework density 23.469006
#
# number of rings (size 3 to 8) (size 9 to 14) (size 15 to 20)
#    0.923    1.538    3.077    0.923    0.000    0.000 
#    0.000    6.923    0.000    0.000    0.000    2.154 
#    0.000    0.000    0.000    0.000    0.000    0.000 
#
# Total GULP energy -144809.207047 kJ/mol
# GULP energy per Si atom -5569.584886 kJ/mol
# Density = 2.341559 g / cm^3
# Si number density = 23.469006 Si / 1000 Ang^3
#
#
#
# Elastic Constant Matrix: (Units=GPa)
#
#
# Indices 1 2 3 4 5 6 
#
# 1 127.4782 14.4774 24.2386 0.0000 5.5172 0.0000
# 2 14.4774 48.6128 26.5167 0.0000 -11.6980 0.0000
# 3 24.2386 26.5167 66.9625 0.0000 14.6489 0.0000
# 4 0.0000 0.0000 0.0000 49.7374 0.0000 21.0185
# 5 5.5172 -11.6980 14.6489 0.0000 28.5602 0.0000
# 6 0.0000 0.0000 0.0000 21.0185 0.0000 12.4988
#
#
#
# Elastic Compliance Matrix: (Units=1/GPa)
#
#
# Indices 1 2 3 4 5 6 
#
# 1 0.008494 -0.001640 -0.002162 0.000000 -0.001204 0.000000
# 2 -0.001640 0.038725 -0.020591 0.000000 0.026740 0.000000
# 3 -0.002162 -0.020591 0.028862 0.000000 -0.022820 0.000000
# 4 0.000000 0.000000 0.000000 0.069484 0.000000 -0.116848
# 5 -0.001204 0.026740 -0.022820 0.000000 0.057903 0.000000
# 6 0.000000 0.000000 0.000000 -0.116848 0.000000 0.276505
#
#
# Mechanical properties :
#
#
# Convention : Reuss Voigt Hill
#
# Bulk Modulus (GPa) = 36.63546 41.50210 39.06878
# Shear Modulus (GPa) = 9.29613 30.01399 19.65506
#
# Velocity S-wave (km/s) = 1.99239 3.58002 2.89708
# Velocity P-wave (km/s) = 4.57568 5.90008 5.27957
#
# Compressibility (1/GPa) = 0.02729596
#
# Stress axis : x y z
#
# Youngs Moduli (GPa) = 117.73190 25.82279 34.64729
#
# Poissons Ratio (x) = 0.04235 0.07490
# Poissons Ratio (y) = 0.19309 0.71342
# Poissons Ratio (z) = 0.25451 0.53172
#
# Static dielectric constant tensor:
#      x y z
#    x 1.874120 0.000000 0.031680 
#    y 0.000000 1.944590 0.000000 
#    z 0.031680 0.000000 1.875250 
# 
# From -- ./inp_files/154091.got.cif
#   From: 2010.05.17/outbox.cif.g08.bks.cpg/sg15_78_cif.got.tgz:154091.got - 2010.06.03 18:47:42.
