data_PCOD9254454
_publ_section_title
;
Structure prediction by ZEFSAII (Michael W. Deem and Ramdas Pophale) SiO2 
 PCOD9254454
Probable space group: C 2/C
;
_chemical_formula_sum "Si O2"
_cell_formula_units_Z 56
_cell_length_a 20.728577
_cell_length_b 9.259378
_cell_length_c 21.151105
_cell_angle_alpha 90.000000
_cell_angle_beta 126.608303
_cell_angle_gamma 90.000000
_cell_volume 3258.775439
_symmetry_space_group_name_H-M "C 2/C"
_symmetry_group_IT_number 15
_symmetry_cell_setting 'monoclinic'
loop_
_space_group_symop_operation_xyz
x,y,z
-x,y,1/2-z
-x,-y,-z
x,-y,1/2+z
1/2+x,1/2+y,z
1/2-x,1/2+y,1/2-z
1/2-x,1/2-y,-z
1/2+x,1/2-y,1/2+z
loop_
_atom_site_type_symbol
_atom_site_label
_atom_site_fract_x
_atom_site_fract_y
_atom_site_fract_z
Si Si1 0.219351 0.579058 0.980678
Si Si2 0.220199 0.727265 0.807011
Si Si3 0.453113 0.679398 0.053913
Si Si4 0.322696 0.524578 0.433726
Si Si5 0.914979 0.713296 0.668116
Si Si6 0.650822 0.932494 0.571648
Si Si7 0.628173 0.777290 0.123463
O O1 0.204193 0.525694 0.041915
O O2 0.250000 0.750000 0.000000
O O3 0.280523 0.483281 0.977203
O O4 0.134752 0.583678 0.893814
O O5 0.268805 0.588581 0.861826
O O6 0.148145 0.763879 0.814769
O O7 0.182337 0.701625 0.716954
O O8 0.286661 0.852849 0.845624
O O9 0.433129 0.686264 0.117472
O O10 0.546921 0.698059 0.097727
O O11 0.410936 0.542022 0.997533
O O12 0.409862 0.815156 0.993692
O O13 0.328482 0.674828 0.401881
O O14 0.000000 0.678101 0.750000
O O15 0.611205 0.068573 0.581588
#
# Coordination Sequence:
#
# PCOD9254454 Si02
#       7
#     8   8   8   8   8   8   8
#     4  10  16  35  58  69  94 137 174 214 240 300
#     4  10  19  35  53  75 103 137 173 209 246 303
#     4  10  19  35  53  75 103 137 173 209 246 303
#     4  10  20  35  53  76 102 138 174 205 256 299
#     4  10  16  30  56  78  88 124 188 214 230 288
#     4  10  20  35  53  76 102 138 174 205 256 299
#     4  12  22  30  50  82 112 132 160 218 260 302
#
# _framework density 17.184369
#
# number of rings (size 3 to 8) (size 9 to 14) (size 15 to 20)
#    0.000    1.714    7.143    1.714    0.000    0.571 
#    0.000    0.000    0.000    0.000    0.000    2.000 
#    0.000    0.000    0.000    0.000    0.000    0.000 
#
# Total GULP energy -155927.428268 kJ/mol
# GULP energy per Si atom -5568.836724 kJ/mol
# Density = 1.714526 g / cm^3
# Si number density = 17.184369 Si / 1000 Ang^3
#
#
#
# Elastic Constant Matrix: (Units=GPa)
#
#
# Indices 1 2 3 4 5 6 
#
# 1 20.2564 -8.1158 -7.2873 0.0000 0.2392 0.0000
# 2 -8.1158 21.1240 5.0186 0.0000 -5.6096 0.0000
# 3 -7.2873 5.0186 86.5524 0.0000 3.2451 0.0000
# 4 0.0000 0.0000 0.0000 9.1816 0.0000 -4.3720
# 5 0.2392 -5.6096 3.2451 0.0000 35.9914 0.0000
# 6 0.0000 0.0000 0.0000 -4.3720 0.0000 19.9363
#
#
#
# Elastic Compliance Matrix: (Units=1/GPa)
#
#
# Indices 1 2 3 4 5 6 
#
# 1 0.059793 0.022872 0.003602 0.000000 0.002843 0.000000
# 2 0.022872 0.059010 -0.001841 0.000000 0.009211 0.000000
# 3 0.003602 -0.001841 0.012016 0.000000 -0.001394 0.000000
# 4 0.000000 0.000000 0.000000 0.121612 0.000000 0.026669
# 5 0.002843 0.009211 -0.001394 0.000000 0.029327 0.000000
# 6 0.000000 0.000000 0.000000 0.026669 0.000000 0.056008
#
#
# Mechanical properties :
#
#
# Convention : Reuss Voigt Hill
#
# Bulk Modulus (GPa) = 5.55299 11.90707 8.73003
# Shear Modulus (GPa) = 14.34595 22.24303 18.29449
#
# Velocity S-wave (km/s) = 2.89247 3.60165 3.26636
# Velocity P-wave (km/s) = 3.79389 4.92340 4.39508
#
# Compressibility (1/GPa) = 0.18008316
#
# Stress axis : x y z
#
# Youngs Moduli (GPa) = 16.72439 16.94616 83.22263
#
# Poissons Ratio (x) = -0.38759 -0.29973
# Poissons Ratio (y) = -0.38251 0.15324
# Poissons Ratio (z) = -0.06023 0.03120
#
# Static dielectric constant tensor:
#      x y z
#    x 1.620470 0.000000 0.001320 
#    y 0.000000 1.567610 0.000000 
#    z 0.001320 0.000000 1.592080 
# 
# From -- ./inp_files/251949.got.cif
#   From: 2010.05.17/outbox.cif.g08.bks.cpg/sg15_126_cif.got.tgz:251949.got - 2010.06.03 18:47:42.
