data_PCOD9254662
_publ_section_title
;
Structure prediction by ZEFSAII (Michael W. Deem and Ramdas Pophale) SiO2 
 PCOD9254662
Probable space group: C 2/C
;
_chemical_formula_sum "Si O2"
_cell_formula_units_Z 56
_cell_length_a 17.045856
_cell_length_b 31.331848
_cell_length_c 5.722968
_cell_angle_alpha 90.000000
_cell_angle_beta 68.493334
_cell_angle_gamma 90.000000
_cell_volume 2843.702365
_symmetry_space_group_name_H-M "C 2/C"
_symmetry_group_IT_number 15
_symmetry_cell_setting 'monoclinic'
loop_
_space_group_symop_operation_xyz
x,y,z
-x,y,1/2-z
-x,-y,-z
x,-y,1/2+z
1/2+x,1/2+y,z
1/2-x,1/2+y,1/2-z
1/2-x,1/2-y,-z
1/2+x,1/2-y,1/2+z
loop_
_atom_site_type_symbol
_atom_site_label
_atom_site_fract_x
_atom_site_fract_y
_atom_site_fract_z
Si Si1 0.500000 0.830634 0.750000
Si Si2 0.098763 0.024349 0.126052
Si Si3 0.872297 0.284588 0.239340
Si Si4 0.925506 0.841666 0.453262
Si Si5 0.800205 0.891524 0.922181
Si Si6 0.651572 0.857653 0.855075
Si Si7 0.224852 0.817373 0.165962
Si Si8 0.500000 0.718778 0.250000
O O1 0.558608 0.799862 0.527238
O O2 0.560503 0.860760 0.837550
O O3 0.160255 0.064744 0.037487
O O4 0.000000 0.037294 0.250000
O O5 0.112270 0.002059 0.367858
O O6 0.860860 0.323988 0.424859
O O7 0.779470 0.279463 0.225285
O O8 0.915845 0.247483 0.340774
O O9 0.864723 0.872222 0.662554
O O10 0.862796 0.811457 0.372056
O O11 0.000000 0.868220 0.250000
O O12 0.981123 0.811319 0.554504
O O13 0.707772 0.895133 0.904586
O O14 0.794247 0.854953 0.126952
O O15 0.710719 0.836615 0.593697
#
# Coordination Sequence:
#
# PCOD9254662 Si02
#       8
#     4   8   8   8   8   8   8   4
#     4  10  16  32  60  84 114 151 197 250 304 360
#     4  10  24  41  66 101 126 162 204 248 309 365
#     4  10  20  36  58  79 116 147 200 263 302 356
#     4  11  25  38  55  81 110 159 208 243 312 359
#     4  10  22  41  61  85 125 152 200 249 290 377
#     4   9  18  34  58  90 111 156 194 246 306 349
#     4   9  21  38  58  81 110 157 200 246 307 354
#     4  12  24  36  54  84 110 155 205 256 312 358
#
# _framework density 19.692637000000001
#
# number of rings (size 3 to 8) (size 9 to 14) (size 15 to 20)
#    0.000    2.000    1.429    0.857    8.000    1.143 
#    0.000   10.000    0.000    0.000    0.000    1.000 
#    0.000    0.000    0.000    0.000    0.000    0.000 
#
# Total GULP energy -156073.153187 kJ/mol
# GULP energy per Si atom -5574.041185 kJ/mol
# Density = 1.964782 g / cm^3
# Si number density = 19.692637 Si / 1000 Ang^3
#
#
#
# Elastic Constant Matrix: (Units=GPa)
#
#
# Indices 1 2 3 4 5 6 
#
# 1 127.2586 15.7294 20.6019 0.0000 23.5288 0.0000
# 2 15.7294 29.8751 -8.9841 0.0000 8.2490 0.0000
# 3 20.6019 -8.9841 69.6180 0.0000 -2.9090 0.0000
# 4 0.0000 0.0000 0.0000 24.6174 0.0000 8.2709
# 5 23.5288 8.2490 -2.9090 0.0000 34.0274 0.0000
# 6 0.0000 0.0000 0.0000 8.2709 0.0000 42.1660
#
#
#
# Elastic Compliance Matrix: (Units=1/GPa)
#
#
# Indices 1 2 3 4 5 6 
#
# 1 0.010246 -0.004849 -0.003919 0.000000 -0.006245 0.000000
# 2 -0.004849 0.039487 0.006293 0.000000 -0.005682 0.000000
# 3 -0.003919 0.006293 0.016444 0.000000 0.002590 0.000000
# 4 0.000000 0.000000 0.000000 0.043488 0.000000 -0.008530
# 5 -0.006245 -0.005682 0.002590 0.000000 0.035305 0.000000
# 6 0.000000 0.000000 0.000000 -0.008530 0.000000 0.025389
#
#
# Mechanical properties :
#
#
# Convention : Reuss Voigt Hill
#
# Bulk Modulus (GPa) = 16.33228 31.27178 23.80203
# Shear Modulus (GPa) = 25.54702 33.45579 29.50141
#
# Velocity S-wave (km/s) = 3.60570 4.12624 3.87472
# Velocity P-wave (km/s) = 5.06422 6.21414 5.66842
#
# Compressibility (1/GPa) = 0.06122842
#
# Stress axis : x y z
#
# Youngs Moduli (GPa) = 97.59578 25.32476 60.81176
#
# Poissons Ratio (x) = 0.12280 0.23831
# Poissons Ratio (y) = 0.47324 -0.38271
# Poissons Ratio (z) = 0.38247 -0.15938
#
# Static dielectric constant tensor:
#      x y z
#    x 1.760600 0.000000 0.056350 
#    y 0.000000 1.667480 0.000000 
#    z 0.056350 0.000000 1.710020 
# 
# From -- ./inp_files/11534.got.cif
#   From: 2010.05.17/outbox.cif.g08.bks.cpg/sg15_6_cif.got.tgz:11534.got - 2010.06.03 18:47:42.
