data_PCOD9254168
_publ_section_title
;
Structure prediction by ZEFSAII (Michael W. Deem and Ramdas Pophale) SiO2 
 PCOD9254168
Probable space group: C 2/C
;
_chemical_formula_sum "Si O2"
_cell_formula_units_Z 56
_cell_length_a 14.221827
_cell_length_b 9.626704
_cell_length_c 22.050066
_cell_angle_alpha 90.000000
_cell_angle_beta 130.068023
_cell_angle_gamma 90.000000
_cell_volume 2310.275135
_symmetry_space_group_name_H-M "C 2/C"
_symmetry_group_IT_number 15
_symmetry_cell_setting 'monoclinic'
loop_
_space_group_symop_operation_xyz
x,y,z
-x,y,1/2-z
-x,-y,-z
x,-y,1/2+z
1/2+x,1/2+y,z
1/2-x,1/2+y,1/2-z
1/2-x,1/2-y,-z
1/2+x,1/2-y,1/2+z
loop_
_atom_site_type_symbol
_atom_site_label
_atom_site_fract_x
_atom_site_fract_y
_atom_site_fract_z
Si Si1 0.316641 0.436727 0.418427
Si Si2 0.680432 0.846296 0.152606
Si Si3 0.437000 0.350909 0.051288
Si Si4 0.115341 0.449205 0.006937
Si Si5 0.496024 0.549819 0.177043
Si Si6 0.730800 0.934343 0.767476
Si Si7 0.905816 0.731807 0.553189
O O1 0.434904 0.394430 0.426835
O O2 0.339113 0.574310 0.467224
O O3 0.221768 0.479508 0.326767
O O4 0.322159 0.314935 0.470420
O O5 0.711610 0.910173 0.100049
O O6 0.775058 0.730831 0.218641
O O7 0.549287 0.767079 0.089747
O O8 0.654296 0.974483 0.187602
O O9 0.437940 0.421439 0.116784
O O10 0.416669 0.188816 0.042293
O O11 0.137773 0.574435 0.970584
O O12 0.000000 0.500000 0.000000
O O13 0.500000 0.539166 0.250000
O O14 0.635648 0.558818 0.209989
O O15 0.422808 0.685703 0.122725
#
# Coordination Sequence:
#
# PCOD9254168 Si02
#       7
#     8   8   8   8   8   8   8
#     4   9  14  28  45  72  97 127 164 197 253 297
#     4  10  19  29  43  77 110 124 153 205 266 305
#     4   9  14  26  48  68  93 122 167 205 235 286
#     4  10  16  27  46  75 103 124 157 206 255 304
#     4   9  19  35  52  70  96 138 180 202 229 302
#     4  10  20  29  49  77 107 131 152 210 264 297
#     4   9  18  30  52  76  96 133 165 209 251 298
#
# _framework density 24.239536999999999
#
# number of rings (size 3 to 8) (size 9 to 14) (size 15 to 20)
#    0.000    2.571    4.286    1.714    2.000    1.143 
#    0.000    0.714    0.000    1.714    0.000    0.000 
#    0.000    0.000    0.000    0.000    0.000    0.000 
#
# Total GULP energy -156242.578127 kJ/mol
# GULP energy per Si atom -5580.092076 kJ/mol
# Density = 2.418437 g / cm^3
# Si number density = 24.239537 Si / 1000 Ang^3
#
#
#
# Elastic Constant Matrix: (Units=GPa)
#
#
# Indices 1 2 3 4 5 6 
#
# 1 61.9250 21.2924 29.9771 0.0000 -8.0848 0.0000
# 2 21.2924 210.8862 86.2908 0.0000 -32.8844 0.0000
# 3 29.9771 86.2908 153.6496 0.0000 -48.5240 0.0000
# 4 0.0000 0.0000 0.0000 25.4593 0.0000 2.7290
# 5 -8.0848 -32.8844 -48.5240 0.0000 32.0326 0.0000
# 6 0.0000 0.0000 0.0000 2.7290 0.0000 -5.8431
#
#
#
# Elastic Compliance Matrix: (Units=1/GPa)
#
#
# Indices 1 2 3 4 5 6 
#
# 1 0.017918 -0.000550 -0.003714 0.000000 -0.001668 0.000000
# 2 -0.000550 0.006246 -0.002721 0.000000 0.002151 0.000000
# 3 -0.003714 -0.002721 0.014538 0.000000 0.018291 0.000000
# 4 0.000000 0.000000 0.000000 0.037406 0.000000 0.017470
# 5 -0.001668 0.002151 0.018291 0.000000 0.060714 0.000000
# 6 0.000000 0.000000 0.000000 0.017470 0.000000 -0.162982
#
#
# Mechanical properties :
#
#
# Convention : Reuss Voigt Hill
#
# Bulk Modulus (GPa) = 40.43277 77.95350 59.19313
# Shear Modulus (GPa) = -1266.54026 29.58980 -618.47523
#
# Velocity S-wave (km/s) = -22.88328 3.49768 -15.99079
# Velocity P-wave (km/s) = 26.10509 6.96715 17.78953
#
# Compressibility (1/GPa) = 0.02473242
#
# Stress axis : x y z
#
# Youngs Moduli (GPa) = 55.81112 160.09247 68.78652
#
# Poissons Ratio (x) = 0.08797 0.25546
# Poissons Ratio (y) = 0.03067 0.18720
# Poissons Ratio (z) = 0.20727 0.43568
#
# Static dielectric constant tensor:
#      x y z
#    x 2.002300 0.000000 0.052350 
#    y 0.000000 1.972870 0.000000 
#    z 0.052350 0.000000 1.978950 
# 
# From -- ./inp_files/279411.got.cif
#   From: 2010.05.17/outbox.cif.g08.bks.cpg/sg15_140_cif.got.tgz:279411.got - 2010.06.03 18:47:42.
