data_PCOD9254862
_publ_section_title
;
Structure prediction by ZEFSAII (Michael W. Deem and Ramdas Pophale) SiO2 
 PCOD9254862
Probable space group: C 2/C
;
_chemical_formula_sum "Si O2"
_cell_formula_units_Z 36
_cell_length_a 19.982189
_cell_length_b 13.821255
_cell_length_c 9.561517
_cell_angle_alpha 90.000000
_cell_angle_beta 36.029485
_cell_angle_gamma 90.000000
_cell_volume 1553.257551
_symmetry_space_group_name_H-M "C 2/C"
_symmetry_group_IT_number 15
_symmetry_cell_setting 'monoclinic'
loop_
_space_group_symop_operation_xyz
x,y,z
-x,y,1/2-z
-x,-y,-z
x,-y,1/2+z
1/2+x,1/2+y,z
1/2-x,1/2+y,1/2-z
1/2-x,1/2-y,-z
1/2+x,1/2-y,1/2+z
loop_
_atom_site_type_symbol
_atom_site_label
_atom_site_fract_x
_atom_site_fract_y
_atom_site_fract_z
Si Si1 0.265126 0.084286 0.838022
Si Si2 0.504287 0.199092 0.468418
Si Si3 0.182205 0.569704 0.044498
Si Si4 0.465485 0.596103 0.143623
Si Si5 0.500000 0.913257 0.250000
O O1 0.382473 0.146075 0.645519
O O2 0.232860 0.085109 0.728174
O O3 0.277451 0.974313 0.876396
O O4 0.169390 0.120071 0.106074
O O5 0.601827 0.161682 0.200840
O O6 0.505424 0.312784 0.485365
O O7 0.537262 0.154596 0.562326
O O8 0.099560 0.483848 0.130988
O O9 0.500000 0.589445 0.250000
O O10 0.500000 0.500000 0.000000
#
# Coordination Sequence:
#
# PCOD9254862 Si02
#       5
#     8   8   8   8   4
#     4  11  22  40  70 100 129 175 220 270 334 398
#     4  11  21  40  71  99 132 165 218 276 339 384
#     4  11  19  38  70 107 130 157 215 285 337 388
#     4  12  28  49  63  90 139 189 223 267 320 395
#     4  10  16  36  64 100 130 156 196 274 338 378
#
# _framework density 23.177095000000001
#
# number of rings (size 3 to 8) (size 9 to 14) (size 15 to 20)
#    0.000    0.889    5.556    3.333    0.000    1.778 
#    0.000    8.889    0.000    0.000    0.000    0.000 
#    0.000    0.000    0.000    0.000    0.000    0.000 
#
# Total GULP energy -100439.026499 kJ/mol
# GULP energy per Si atom -5579.945917 kJ/mol
# Density = 2.312434 g / cm^3
# Si number density = 23.177095 Si / 1000 Ang^3
#
#
#
# Elastic Constant Matrix: (Units=GPa)
#
#
# Indices 1 2 3 4 5 6 
#
# 1 40.4550 13.2184 27.3973 0.0000 15.2973 0.0000
# 2 13.2184 160.9293 64.9122 0.0000 18.0354 0.0000
# 3 27.3973 64.9122 145.3105 0.0000 29.6788 0.0000
# 4 0.0000 0.0000 0.0000 29.6527 0.0000 7.4728
# 5 15.2973 18.0354 29.6788 0.0000 29.2572 0.0000
# 6 0.0000 0.0000 0.0000 7.4728 0.0000 8.3498
#
#
#
# Elastic Compliance Matrix: (Units=1/GPa)
#
#
# Indices 1 2 3 4 5 6 
#
# 1 0.032027 0.000249 -0.003403 0.000000 -0.013447 0.000000
# 2 0.000249 0.007639 -0.003117 0.000000 -0.001677 0.000000
# 3 -0.003403 -0.003117 0.010292 0.000000 -0.006740 0.000000
# 4 0.000000 0.000000 0.000000 0.043545 0.000000 -0.038971
# 5 -0.013447 -0.001677 -0.006740 0.000000 0.049081 0.000000
# 6 0.000000 0.000000 0.000000 -0.038971 0.000000 0.154642
#
#
# Mechanical properties :
#
#
# Convention : Reuss Voigt Hill
#
# Bulk Modulus (GPa) = 26.72648 61.97228 44.34938
# Shear Modulus (GPa) = 15.51639 29.52972 22.52306
#
# Velocity S-wave (km/s) = 2.59022 3.57331 3.12072
# Velocity P-wave (km/s) = 4.52793 6.61977 5.67113
#
# Compressibility (1/GPa) = 0.03741608
#
# Stress axis : x y z
#
# Youngs Moduli (GPa) = 31.22383 130.91492 97.15984
#
# Poissons Ratio (x) = -0.03261 0.33066
# Poissons Ratio (y) = -0.00778 0.30281
# Poissons Ratio (z) = 0.10626 0.40801
#
# Static dielectric constant tensor:
#      x y z
#    x 2.004580 0.000000 -0.062280 
#    y 0.000000 1.846070 0.000000 
#    z -0.062280 0.000000 1.930570 
# 
# From -- ./inp_files/55590.got.cif
#   From: 2010.05.17/outbox.cif.g08.bks.cpg/sg15_28_cif.got.tgz:55590.got - 2010.06.03 18:47:42.
