data_PCOD9254780
_publ_section_title
;
Structure prediction by ZEFSAII (Michael W. Deem and Ramdas Pophale) SiO2 
 PCOD9254780
Probable space group: C 2/C
;
_chemical_formula_sum "Si O2"
_cell_formula_units_Z 60
_cell_length_a 11.557537
_cell_length_b 14.203368
_cell_length_c 23.161391
_cell_angle_alpha 90.000000
_cell_angle_beta 44.330390
_cell_angle_gamma 90.000000
_cell_volume 2656.873832
_symmetry_space_group_name_H-M "C 2/C"
_symmetry_group_IT_number 15
_symmetry_cell_setting 'monoclinic'
loop_
_space_group_symop_operation_xyz
x,y,z
-x,y,1/2-z
-x,-y,-z
x,-y,1/2+z
1/2+x,1/2+y,z
1/2-x,1/2+y,1/2-z
1/2-x,1/2-y,-z
1/2+x,1/2-y,1/2+z
loop_
_atom_site_type_symbol
_atom_site_label
_atom_site_fract_x
_atom_site_fract_y
_atom_site_fract_z
Si Si1 0.500000 0.369003 0.750000
Si Si2 0.729777 0.218032 0.850651
Si Si3 0.246521 0.543878 0.762953
Si Si4 0.147099 0.842137 0.377215
Si Si5 0.879540 0.180689 0.483279
Si Si6 0.374685 0.478086 0.889063
Si Si7 0.791639 0.331078 0.717509
Si Si8 0.316539 0.661852 0.941296
O O1 0.350262 0.419886 0.838502
O O2 0.598603 0.318935 0.766076
O O3 0.704085 0.117914 0.827793
O O4 0.554470 0.265721 0.929275
O O5 0.807804 0.285462 0.774429
O O6 0.839293 0.203279 0.868582
O O7 0.230617 0.599151 0.707731
O O8 0.445085 0.521799 0.694046
O O9 0.165129 0.441086 0.794783
O O10 0.186056 0.845604 0.429918
O O11 0.125868 0.736663 0.358880
O O12 0.962838 0.878343 0.429871
O O13 0.750000 0.250000 0.500000
O O14 0.896692 0.091377 0.435019
O O15 0.241978 0.559387 0.950420
O O16 0.250000 0.750000 0.000000
#
# Coordination Sequence:
#
# PCOD9254780 Si02
#       8
#     4   8   8   8   8   8   8   8
#     4  10  16  34  62  88 110 164 210 246 306 376
#     4  11  22  40  65  93 124 160 221 269 315 384
#     4   9  20  39  65  91 119 168 218 261 315 387
#     4  10  23  38  63  92 124 163 212 262 320 388
#     4  12  24  42  63  97 130 172 208 267 329 392
#     4  10  21  38  65  91 124 171 216 258 321 392
#     4  10  20  37  62  90 125 165 208 270 314 374
#     4  11  22  39  60  90 125 164 205 262 323 386
#
# _framework density 22.582930999999999
#
# number of rings (size 3 to 8) (size 9 to 14) (size 15 to 20)
#    0.000    1.600    4.000    2.400    0.000    7.467 
#    2.400    1.333    2.933    0.000    0.000    0.000 
#    0.000    0.000    0.000    0.000    0.000    0.000 
#
# Total GULP energy -167025.674143 kJ/mol
# GULP energy per Si atom -5567.522471 kJ/mol
# Density = 2.253153 g / cm^3
# Si number density = 22.582931 Si / 1000 Ang^3
#
#
#
# Elastic Constant Matrix: (Units=GPa)
#
#
# Indices 1 2 3 4 5 6 
#
# 1 57.9245 10.0571 27.6062 0.0000 33.3188 0.0000
# 2 10.0571 138.3867 47.7496 0.0000 18.9160 0.0000
# 3 27.6062 47.7496 101.7760 0.0000 50.5645 0.0000
# 4 0.0000 0.0000 0.0000 28.9586 0.0000 -0.0598
# 5 33.3188 18.9160 50.5645 0.0000 51.6461 0.0000
# 6 0.0000 0.0000 0.0000 -0.0598 0.0000 24.0873
#
#
#
# Elastic Compliance Matrix: (Units=1/GPa)
#
#
# Indices 1 2 3 4 5 6 
#
# 1 0.027821 -0.000159 0.002758 0.000000 -0.020590 0.000000
# 2 -0.000159 0.008688 -0.004874 0.000000 0.001692 0.000000
# 3 0.002758 -0.004874 0.022121 0.000000 -0.021652 0.000000
# 4 0.000000 0.000000 0.000000 0.034532 0.000000 0.000086
# 5 -0.020590 0.001692 -0.021652 0.000000 0.053225 0.000000
# 6 0.000000 0.000000 0.000000 0.000086 0.000000 0.041516
#
#
# Mechanical properties :
#
#
# Convention : Reuss Voigt Hill
#
# Bulk Modulus (GPa) = 18.49086 52.10142 35.29614
# Shear Modulus (GPa) = 23.75533 35.11671 29.43602
#
# Velocity S-wave (km/s) = 3.24684 3.94764 3.61427
# Velocity P-wave (km/s) = 4.71824 6.62569 5.75159
#
# Compressibility (1/GPa) = 0.05408076
#
# Stress axis : x y z
#
# Youngs Moduli (GPa) = 35.94442 115.10117 45.20554
#
# Poissons Ratio (x) = 0.01830 -0.12468
# Poissons Ratio (y) = 0.00572 0.22031
# Poissons Ratio (z) = -0.09914 0.56096
#
# Static dielectric constant tensor:
#      x y z
#    x 1.884530 0.000000 -0.055740 
#    y 0.000000 2.049120 0.000000 
#    z -0.055740 0.000000 1.904800 
# 
# From -- ./inp_files/238696.got.cif
#   From: 2010.05.17/outbox.cif.g08.bks.cpg/sg15_120_cif.got.tgz:238696.got - 2010.06.03 18:47:42.
