data_PCOD9254993
_publ_section_title
;
Structure prediction by ZEFSAII (Michael W. Deem and Ramdas Pophale) SiO2 
 PCOD9254993
Probable space group: C 2/C
;
_chemical_formula_sum "Si O2"
_cell_formula_units_Z 64
_cell_length_a 14.090165
_cell_length_b 22.227261
_cell_length_c 16.113792
_cell_angle_alpha 90.000000
_cell_angle_beta 129.657429
_cell_angle_gamma 90.000000
_cell_volume 3885.253909
_symmetry_space_group_name_H-M "C 2/C"
_symmetry_group_IT_number 15
_symmetry_cell_setting 'monoclinic'
loop_
_space_group_symop_operation_xyz
x,y,z
-x,y,1/2-z
-x,-y,-z
x,-y,1/2+z
1/2+x,1/2+y,z
1/2-x,1/2+y,1/2-z
1/2-x,1/2-y,-z
1/2+x,1/2-y,1/2+z
loop_
_atom_site_type_symbol
_atom_site_label
_atom_site_fract_x
_atom_site_fract_y
_atom_site_fract_z
Si Si1 0.869986 0.601449 0.593896
Si Si2 0.316763 0.307064 0.581420
Si Si3 0.401842 0.288028 0.812804
Si Si4 0.392368 0.611431 0.428551
Si Si5 0.990128 0.972309 0.834136
Si Si6 0.131782 0.079871 0.663751
Si Si7 0.227980 0.996095 0.566264
Si Si8 0.126113 0.352432 0.215543
O O1 0.758468 0.632877 0.482872
O O2 0.847331 0.531275 0.600682
O O3 0.867106 0.637255 0.680591
O O4 0.000799 0.612295 0.623638
O O5 0.250000 0.250000 0.500000
O O6 0.327191 0.301130 0.686479
O O7 0.455778 0.306370 0.624176
O O8 0.359388 0.325062 0.869638
O O9 0.394668 0.216526 0.818346
O O10 0.435878 0.571755 0.373302
O O11 0.510688 0.611775 0.556647
O O12 0.283812 0.572733 0.411325
O O13 0.000000 0.943316 0.750000
O O14 0.908999 0.033283 0.788130
O O15 0.122773 0.993726 0.939405
O O16 0.245394 0.122867 0.748008
O O17 0.182683 0.036627 0.618727
#
# Coordination Sequence:
#
# PCOD9254993 Si02
#       8
#     8   8   8   8   8   8   8   8
#     4  10  17  28  43  61  93 124 157 179 211 278
#     4  11  18  27  35  62  97 120 149 184 212 276
#     4  11  20  25  40  64  94 125 150 174 226 276
#     4   9  18  29  42  65  94 119 148 190 222 257
#     4   9  16  27  45  69  86 110 145 191 235 258
#     4   8  16  30  45  61  92 112 151 190 215 271
#     4   8  16  29  43  61  86 121 153 187 220 257
#     4  10  17  27  42  65  86 127 154 167 224 276
#
# _framework density 16.472539999999999
#
# number of rings (size 3 to 8) (size 9 to 14) (size 15 to 20)
#    0.000    2.500    2.500    4.500    3.500    0.000 
#    0.000    0.000    0.000    0.750    9.750    3.500 
#   11.250    0.000    0.000    0.000    0.000    0.000 
#
# Total GULP energy -178135.824514 kJ/mol
# GULP energy per Si atom -5566.744516 kJ/mol
# Density = 1.643505 g / cm^3
# Si number density = 16.472540 Si / 1000 Ang^3
#
#
#
# Elastic Constant Matrix: (Units=GPa)
#
#
# Indices 1 2 3 4 5 6 
#
# 1 32.3729 44.7251 21.9107 0.0000 10.3451 0.0000
# 2 44.7251 89.2933 23.9511 0.0000 19.8527 0.0000
# 3 21.9107 23.9511 48.3161 0.0000 15.2838 0.0000
# 4 0.0000 0.0000 0.0000 21.9513 0.0000 -5.3917
# 5 10.3451 19.8527 15.2838 0.0000 14.1623 0.0000
# 6 0.0000 0.0000 0.0000 -5.3917 0.0000 10.6973
#
#
#
# Elastic Compliance Matrix: (Units=1/GPa)
#
#
# Indices 1 2 3 4 5 6 
#
# 1 0.140713 -0.067459 -0.042164 0.000000 0.037279 0.000000
# 2 -0.067459 0.048663 0.018918 0.000000 -0.039355 0.000000
# 3 -0.042164 0.018918 0.044162 0.000000 -0.043378 0.000000
# 4 0.000000 0.000000 0.000000 0.051992 0.000000 0.026206
# 5 0.037279 -0.039355 -0.043378 0.000000 0.145359 0.000000
# 6 0.000000 0.000000 0.000000 0.026206 0.000000 0.106690
#
#
# Mechanical properties :
#
#
# Convention : Reuss Voigt Hill
#
# Bulk Modulus (GPa) = 19.18343 39.01733 29.10038
# Shear Modulus (GPa) = 6.79012 14.65520 10.72266
#
# Velocity S-wave (km/s) = 2.03249 2.98598 2.55412
# Velocity P-wave (km/s) = 4.14476 5.96873 5.13833
#
# Compressibility (1/GPa) = 0.05212833
#
# Stress axis : x y z
#
# Youngs Moduli (GPa) = 7.10668 20.54939 22.64404
#
# Poissons Ratio (x) = 1.38624 0.95475
# Poissons Ratio (y) = 0.47941 -0.42837
# Poissons Ratio (z) = 0.29964 -0.38875
#
# Static dielectric constant tensor:
#      x y z
#    x 1.561210 0.000000 0.015380 
#    y 0.000000 1.606570 0.000000 
#    z 0.015380 0.000000 1.578110 
# 
# From -- ./inp_files/211827.got.cif
#   From: 2010.05.17/outbox.cif.g08.bks.cpg/sg15_106_cif.got.tgz:211827.got - 2010.06.03 18:47:42.
