data_PCOD9254545
_publ_section_title
;
Structure prediction by ZEFSAII (Michael W. Deem and Ramdas Pophale) SiO2 
 PCOD9254545
Probable space group: C 2/C
;
_chemical_formula_sum "Si O2"
_cell_formula_units_Z 48
_cell_length_a 17.294006
_cell_length_b 19.125832
_cell_length_c 21.368475
_cell_angle_alpha 90.000000
_cell_angle_beta 158.506800
_cell_angle_gamma 90.000000
_cell_volume 2589.608018
_symmetry_space_group_name_H-M "C 2/C"
_symmetry_group_IT_number 15
_symmetry_cell_setting 'monoclinic'
loop_
_space_group_symop_operation_xyz
x,y,z
-x,y,1/2-z
-x,-y,-z
x,-y,1/2+z
1/2+x,1/2+y,z
1/2-x,1/2+y,1/2-z
1/2-x,1/2-y,-z
1/2+x,1/2-y,1/2+z
loop_
_atom_site_type_symbol
_atom_site_label
_atom_site_fract_x
_atom_site_fract_y
_atom_site_fract_z
Si Si1 0.919949 0.079090 0.510778
Si Si2 0.057951 0.451111 0.419217
Si Si3 0.750133 0.961641 0.743961
Si Si4 0.718420 0.673194 0.666705
Si Si5 0.000000 0.540371 0.250000
Si Si6 0.500000 0.622289 0.250000
Si Si7 0.920365 0.176037 0.322594
O O1 0.835521 0.056282 0.378430
O O2 0.056179 0.147740 0.598306
O O3 0.714364 0.083604 0.399149
O O4 0.079866 0.017961 0.653433
O O5 0.030550 0.491241 0.333123
O O6 0.294714 0.425354 0.601731
O O7 0.973572 0.502248 0.410374
O O8 0.903792 0.384105 0.304798
O O9 0.763339 0.889478 0.716600
O O10 0.805714 0.750212 0.743093
O O11 0.599235 0.670538 0.510310
O O12 0.512640 0.667900 0.322545
#
# Coordination Sequence:
#
# PCOD9254545 Si02
#       7
#     8   8   8   8   4   4   8
#     4   8  15  30  55  80  98 130 175 211 250 303
#     4  10  20  34  54  80 107 135 170 213 259 306
#     4   8  16  33  53  73 102 138 171 205 253 311
#     4  10  21  37  54  74 105 143 176 205 253 318
#     4  10  16  31  60  81 100 130 174 224 250 291
#     4  12  24  33  50  81 108 134 170 218 266 299
#     4  11  22  36  53  75 106 139 174 213 255 307
#
# _framework density 18.535623000000001
#
# number of rings (size 3 to 8) (size 9 to 14) (size 15 to 20)
#    0.000    2.333    0.000    6.000    0.000    4.000 
#    0.000    1.667    0.000   10.000    0.000    0.000 
#    0.000    0.000    0.000    0.000    0.000    0.000 
#
# Total GULP energy -133945.502202 kJ/mol
# GULP energy per Si atom -5581.062592 kJ/mol
# Density = 1.849344 g / cm^3
# Si number density = 18.535623 Si / 1000 Ang^3
#
#
#
# Elastic Constant Matrix: (Units=GPa)
#
#
# Indices 1 2 3 4 5 6 
#
# 1 98.7767 54.0277 41.4130 0.0215 21.9687 0.0094
# 2 54.0277 106.3052 49.1638 -0.0113 13.5778 0.0289
# 3 41.4130 49.1638 103.9177 0.0357 33.0399 0.0246
# 4 0.0215 -0.0113 0.0357 16.9647 0.0121 3.8113
# 5 21.9687 13.5778 33.0399 0.0121 32.9091 0.0181
# 6 0.0094 0.0289 0.0246 3.8113 0.0181 19.0581
#
#
#
# Elastic Compliance Matrix: (Units=1/GPa)
#
#
# Indices 1 2 3 4 5 6 
#
# 1 0.015668 -0.006664 -0.000940 -0.000021 -0.006766 0.000014
# 2 -0.006664 0.014903 -0.005662 0.000032 0.003984 -0.000022
# 3 -0.000940 -0.005662 0.017236 -0.000030 -0.014341 0.000006
# 4 -0.000021 0.000032 -0.000030 0.061719 0.000015 -0.012343
# 5 -0.006766 0.003984 -0.014341 0.000015 0.047657 -0.000032
# 6 0.000014 -0.000022 0.000006 -0.012343 -0.000032 0.054940
#
#
# Mechanical properties :
#
#
# Convention : Reuss Voigt Hill
#
# Bulk Modulus (GPa) = 47.00259 66.46763 56.73511
# Shear Modulus (GPa) = 20.34622 24.74606 22.54614
#
# Velocity S-wave (km/s) = 3.31672 3.65780 3.49143
# Velocity P-wave (km/s) = 6.33092 7.33325 6.85044
#
# Compressibility (1/GPa) = 0.02127542
#
# Stress axis : x y z
#
# Youngs Moduli (GPa) = 63.82566 67.09916 58.01902
#
# Poissons Ratio (x) = 0.44715 0.05453
# Poissons Ratio (y) = 0.42533 0.32849
# Poissons Ratio (z) = 0.05999 0.37990
#
# Static dielectric constant tensor:
#      x y z
#    x 1.660130 0.000000 -0.021120 
#    y 0.000000 1.624070 -0.000030 
#    z -0.021120 -0.000030 1.688860 
# 
# From -- ./inp_files/48734.got.cif
#   From: 2010.05.17/outbox.cif.g08.bks.cpg/sg15_25_cif.got.tgz:48734.got - 2010.06.03 18:47:42.
