data_PCOD9254163
_publ_section_title
;
Structure prediction by ZEFSAII (Michael W. Deem and Ramdas Pophale) SiO2 
 PCOD9254163
Probable space group: C 2/C
;
_chemical_formula_sum "Si O2"
_cell_formula_units_Z 56
_cell_length_a 16.493895
_cell_length_b 28.835933
_cell_length_c 9.758679
_cell_angle_alpha 90.000000
_cell_angle_beta 30.473800
_cell_angle_gamma 90.000000
_cell_volume 2353.855621
_symmetry_space_group_name_H-M "C 2/C"
_symmetry_group_IT_number 15
_symmetry_cell_setting 'monoclinic'
loop_
_space_group_symop_operation_xyz
x,y,z
-x,y,1/2-z
-x,-y,-z
x,-y,1/2+z
1/2+x,1/2+y,z
1/2-x,1/2+y,1/2-z
1/2-x,1/2-y,-z
1/2+x,1/2-y,1/2+z
loop_
_atom_site_type_symbol
_atom_site_label
_atom_site_fract_x
_atom_site_fract_y
_atom_site_fract_z
Si Si1 0.995460 0.312999 0.944391
Si Si2 0.780725 0.422433 0.555147
Si Si3 0.894904 0.581554 0.575837
Si Si4 0.500000 0.995241 0.750000
Si Si5 0.711894 0.827008 0.992774
Si Si6 0.774309 0.251757 0.751346
Si Si7 0.000000 0.188589 0.250000
Si Si8 0.453744 0.454916 0.978045
O O1 0.970146 0.367368 0.943126
O O2 0.924835 0.311203 0.203600
O O3 0.875230 0.282912 0.026155
O O4 0.163436 0.285862 0.719243
O O5 0.851205 0.422636 0.298495
O O6 0.856368 0.469893 0.499353
O O7 0.829532 0.372105 0.536995
O O8 0.590950 0.421574 0.835219
O O9 0.016448 0.541300 0.350386
O O10 0.723241 0.567602 0.755463
O O11 0.762227 0.785897 0.822069
O O12 0.856820 0.838698 0.886656
O O13 0.917233 0.219199 0.487974
O O14 0.500000 0.463455 0.750000
O O15 0.500000 0.500000 0.000000
#
# Coordination Sequence:
#
# PCOD9254163 Si02
#       8
#     8   8   8   4   8   8   4   8
#     4  10  20  31  53  79 117 152 197 245 310 377
#     4  10  23  34  58  84 121 157 203 251 315 379
#     4  10  23  38  59  86 118 161 208 255 316 373
#     4  12  22  41  58  80 122 160 205 256 312 364
#     4  10  19  28  48  80 117 150 188 235 311 387
#     4  11  17  31  47  78 116 152 185 237 308 381
#     4  10  16  27  44  74 110 154 177 226 298 384
#     4  10  20  40  60  88 118 164 212 261 317 382
#
# _framework density 23.790755000000001
#
# number of rings (size 3 to 8) (size 9 to 14) (size 15 to 20)
#    0.000    1.714    4.286    1.286   11.000    0.000 
#    0.000    0.000    0.000    0.857    0.000    0.000 
#    0.000    0.000    0.000    0.000    0.000    0.000 
#
# Total GULP energy -156134.815656 kJ/mol
# GULP energy per Si atom -5576.243416 kJ/mol
# Density = 2.373661 g / cm^3
# Si number density = 23.790755 Si / 1000 Ang^3
#
#
#
# Elastic Constant Matrix: (Units=GPa)
#
#
# Indices 1 2 3 4 5 6 
#
# 1 92.7895 41.0624 15.4134 0.0000 -23.8384 0.0000
# 2 41.0624 183.2508 17.6448 0.0000 -12.9404 0.0000
# 3 15.4134 17.6448 48.2428 0.0000 -12.5204 0.0000
# 4 0.0000 0.0000 0.0000 2.8042 0.0000 -13.0778
# 5 -23.8384 -12.9404 -12.5204 0.0000 42.4576 0.0000
# 6 0.0000 0.0000 0.0000 -13.0778 0.0000 41.7035
#
#
#
# Elastic Compliance Matrix: (Units=1/GPa)
#
#
# Indices 1 2 3 4 5 6 
#
# 1 0.013838 -0.002466 -0.001838 0.000000 0.006475 0.000000
# 2 -0.002466 0.006153 -0.001446 0.000000 0.000064 0.000000
# 3 -0.001838 -0.001446 0.023241 0.000000 0.005381 0.000000
# 4 0.000000 0.000000 0.000000 -0.771112 0.000000 -0.241812
# 5 0.006475 0.000064 0.005381 0.000000 0.028795 0.000000
# 6 0.000000 0.000000 0.000000 -0.241812 0.000000 -0.051851
#
#
# Mechanical properties :
#
#
# Convention : Reuss Voigt Hill
#
# Bulk Modulus (GPa) = 31.51530 52.50272 42.00901
# Shear Modulus (GPa) = -6.86005 34.07058 13.60526
#
# Velocity S-wave (km/s) = -1.69993 3.78841 2.39398
# Velocity P-wave (km/s) = 3.06963 6.42281 5.03364
#
# Compressibility (1/GPa) = 0.03173062
#
# Stress axis : x y z
#
# Youngs Moduli (GPa) = 72.26736 162.51092 43.02720
#
# Poissons Ratio (x) = 0.40082 0.07910
# Poissons Ratio (y) = 0.17824 0.06221
# Poissons Ratio (z) = 0.13286 0.23498
#
# Static dielectric constant tensor:
#      x y z
#    x 2.008630 0.000000 -0.045690 
#    y 0.000000 1.956760 0.000000 
#    z -0.045690 0.000000 1.985550 
# 
# From -- ./inp_files/114936.got.cif
#   From: 2010.05.17/outbox.cif.g08.bks.cpg/sg15_58_cif.got.tgz:114936.got - 2010.06.03 18:47:42.
