data_PCOD9254139
_publ_section_title
;
Structure prediction by ZEFSAII (Michael W. Deem and Ramdas Pophale) SiO2 
 PCOD9254139
Probable space group: C 2/C
;
_chemical_formula_sum "Si O2"
_cell_formula_units_Z 56
_cell_length_a 11.477911
_cell_length_b 23.208142
_cell_length_c 9.004523
_cell_angle_alpha 90.000000
_cell_angle_beta 88.143218
_cell_angle_gamma 90.000000
_cell_volume 2397.374311
_symmetry_space_group_name_H-M "C 2/C"
_symmetry_group_IT_number 15
_symmetry_cell_setting 'monoclinic'
loop_
_space_group_symop_operation_xyz
x,y,z
-x,y,1/2-z
-x,-y,-z
x,-y,1/2+z
1/2+x,1/2+y,z
1/2-x,1/2+y,1/2-z
1/2-x,1/2-y,-z
1/2+x,1/2-y,1/2+z
loop_
_atom_site_type_symbol
_atom_site_label
_atom_site_fract_x
_atom_site_fract_y
_atom_site_fract_z
Si Si1 0.412853 0.417214 0.426275
Si Si2 0.605950 0.385178 0.622840
Si Si3 0.181749 0.010593 0.292497
Si Si4 0.014817 0.658730 0.567939
Si Si5 0.263167 0.809357 0.089215
Si Si6 0.876402 0.241886 0.342967
Si Si7 0.922520 0.460991 0.398791
O O1 0.541627 0.396363 0.469278
O O2 0.381508 0.457891 0.288612
O O3 0.380406 0.459735 0.564727
O O4 0.335780 0.358246 0.419285
O O5 0.500000 0.385115 0.750000
O O6 0.686710 0.437637 0.671791
O O7 0.664015 0.322373 0.622858
O O8 0.303403 0.988393 0.349882
O O9 0.881189 0.659995 0.523749
O O10 0.000000 0.659284 0.750000
O O11 0.080028 0.717769 0.524759
O O12 0.085818 0.602078 0.528488
O O13 0.290164 0.782528 0.251314
O O14 0.250000 0.750000 0.000000
O O15 0.000000 0.231828 0.250000
O O16 0.000000 0.453793 0.250000
O O17 0.000000 0.500000 0.500000
#
# Coordination Sequence:
#
# PCOD9254139 Si02
#       7
#     8   8   8   8   8   8   8
#     4  11  21  34  53  81 113 147 183 220 269 329
#     4   9  18  32  50  76 109 142 177 221 268 320
#     4  11  21  35  52  75 109 147 182 223 268 321
#     4   8  15  27  42  66  97 126 159 206 260 313
#     4  10  16  26  48  76 104 133 169 221 277 320
#     4   8  14  26  44  69 102 132 164 216 274 315
#     4  11  21  34  51  75 104 135 173 219 267 322
#
# _framework density 23.358889000000001
#
# number of rings (size 3 to 8) (size 9 to 14) (size 15 to 20)
#    0.000    2.571    0.000    8.143    0.000    0.000 
#    0.000    0.000    0.000    0.000    0.000   20.000 
#    0.000   12.571    0.000    0.000    0.000    0.000 
#
# Total GULP energy -156110.800317 kJ/mol
# GULP energy per Si atom -5575.385726 kJ/mol
# Density = 2.330572 g / cm^3
# Si number density = 23.358889 Si / 1000 Ang^3
#
#
#
# Elastic Constant Matrix: (Units=GPa)
#
#
# Indices 1 2 3 4 5 6 
#
# 1 61.4886 51.6865 38.1162 0.0000 24.6765 0.0000
# 2 51.6865 227.0406 63.1082 0.0000 30.3430 0.0000
# 3 38.1162 63.1082 83.6766 0.0000 26.9882 0.0000
# 4 0.0000 0.0000 0.0000 12.3249 0.0000 5.4614
# 5 24.6765 30.3430 26.9882 0.0000 41.1749 0.0000
# 6 0.0000 0.0000 0.0000 5.4614 0.0000 29.7728
#
#
#
# Elastic Compliance Matrix: (Units=1/GPa)
#
#
# Indices 1 2 3 4 5 6 
#
# 1 0.026789 -0.002906 -0.007005 0.000000 -0.009322 0.000000
# 2 -0.002906 0.005985 -0.002954 0.000000 -0.000733 0.000000
# 3 -0.007005 -0.002954 0.019418 0.000000 -0.006353 0.000000
# 4 0.000000 0.000000 0.000000 0.088315 0.000000 -0.016200
# 5 -0.009322 -0.000733 -0.006353 0.000000 0.034578 0.000000
# 6 0.000000 0.000000 0.000000 -0.016200 0.000000 0.036559
#
#
# Mechanical properties :
#
#
# Convention : Reuss Voigt Hill
#
# Bulk Modulus (GPa) = 37.78717 75.33641 56.56179
# Shear Modulus (GPa) = 20.30913 31.27418 25.79166
#
# Velocity S-wave (km/s) = 2.95182 3.66301 3.32648
# Velocity P-wave (km/s) = 5.27538 7.08603 6.24666
#
# Compressibility (1/GPa) = 0.02646401
#
# Stress axis : x y z
#
# Youngs Moduli (GPa) = 37.32861 167.08440 51.49771
#
# Poissons Ratio (x) = 0.48550 0.36073
# Poissons Ratio (y) = 0.10847 0.15212
# Poissons Ratio (z) = 0.26148 0.49354
#
# Static dielectric constant tensor:
#      x y z
#    x 1.978770 0.000000 -0.009880 
#    y 0.000000 2.022430 0.000000 
#    z -0.009880 0.000000 2.009290 
# 
# From -- ./inp_files/99447.got.cif
#   From: 2010.05.17/outbox.cif.g08.bks.cpg/sg15_50_cif.got.tgz:99447.got - 2010.06.03 18:47:42.
