data_PCOD9254681
_publ_section_title
;
Structure prediction by ZEFSAII (Michael W. Deem and Ramdas Pophale) SiO2 
 PCOD9254681
Probable space group: C 2/C
;
_chemical_formula_sum "Si O2"
_cell_formula_units_Z 28
_cell_length_a 11.480633
_cell_length_b 7.226341
_cell_length_c 13.814201
_cell_angle_alpha 90.000000
_cell_angle_beta 52.961186
_cell_angle_gamma 90.000000
_cell_volume 914.822457
_symmetry_space_group_name_H-M "C 2/C"
_symmetry_group_IT_number 15
_symmetry_cell_setting 'monoclinic'
loop_
_space_group_symop_operation_xyz
x,y,z
-x,y,1/2-z
-x,-y,-z
x,-y,1/2+z
1/2+x,1/2+y,z
1/2-x,1/2+y,1/2-z
1/2-x,1/2-y,-z
1/2+x,1/2-y,1/2+z
loop_
_atom_site_type_symbol
_atom_site_label
_atom_site_fract_x
_atom_site_fract_y
_atom_site_fract_z
Si Si1 0.585163 0.967379 0.109459
Si Si2 0.576776 0.738983 0.931936
Si Si3 0.750000 0.250000 0.000000
Si Si4 0.144297 0.001265 0.729464
O O1 0.500000 0.962036 0.250000
O O2 0.556356 0.167569 0.066666
O O3 0.753421 0.017659 0.034014
O O4 0.542558 0.809461 0.056599
O O5 0.604178 0.555296 0.858984
O O6 0.722746 0.859411 0.839086
O O7 0.808631 0.180745 0.857254
O O8 0.000000 0.928671 0.750000
#
# Coordination Sequence:
#
# PCOD9254681 Si02
#       4
#     8   8   4   8
#     4  10  18  35  62  92 122 164 210 255 307 376
#     4  10  21  36  66  94 121 174 205 250 325 365
#     4  10  16  32  68  80 120 166 200 250 306 356
#     4  11  21  40  63  93 126 165 212 257 307 374
#
# _framework density 30.607033999999999
#
# number of rings (size 3 to 8) (size 9 to 14) (size 15 to 20)
#    0.000    1.714    5.714    0.000    0.000    0.000 
#    0.000    5.714    0.000    0.000    0.000    0.000 
#    0.000    0.000    0.000    0.000    0.000    0.000 
#
# Total GULP energy -78225.314250 kJ/mol
# GULP energy per Si atom -5587.522446 kJ/mol
# Density = 3.053737 g / cm^3
# Si number density = 30.607034 Si / 1000 Ang^3
#
#
#
# Elastic Constant Matrix: (Units=GPa)
#
#
# Indices 1 2 3 4 5 6 
#
# 1 192.6138 40.8648 84.3204 0.0000 6.7606 0.0000
# 2 40.8648 146.4871 50.8849 0.0000 17.5125 0.0000
# 3 84.3204 50.8849 278.2567 0.0000 51.2527 0.0000
# 4 0.0000 0.0000 0.0000 45.3615 0.0000 0.0547
# 5 6.7606 17.5125 51.2527 0.0000 71.5788 0.0000
# 6 0.0000 0.0000 0.0000 0.0547 0.0000 61.4827
#
#
#
# Elastic Compliance Matrix: (Units=1/GPa)
#
#
# Indices 1 2 3 4 5 6 
#
# 1 0.006226 -0.001216 -0.001855 0.000000 0.001038 0.000000
# 2 -0.001216 0.007584 -0.000804 0.000000 -0.001165 0.000000
# 3 -0.001855 -0.000804 0.004878 0.000000 -0.003121 0.000000
# 4 0.000000 0.000000 0.000000 0.022045 0.000000 -0.000020
# 5 0.001038 -0.001165 -0.003121 0.000000 0.016392 0.000000
# 6 0.000000 0.000000 0.000000 -0.000020 0.000000 0.016265
#
#
# Mechanical properties :
#
#
# Convention : Reuss Voigt Hill
#
# Bulk Modulus (GPa) = 91.43310 107.72200 99.57755
# Shear Modulus (GPa) = 58.97181 65.10378 62.03779
#
# Velocity S-wave (km/s) = 4.39423 4.61704 4.50701
# Velocity P-wave (km/s) = 7.46215 7.98087 7.72587
#
# Compressibility (1/GPa) = 0.01093696
#
# Stress axis : x y z
#
# Youngs Moduli (GPa) = 160.62830 131.85044 205.00941
#
# Poissons Ratio (x) = 0.16037 0.38035
# Poissons Ratio (y) = 0.19538 0.16477
# Poissons Ratio (z) = 0.29801 0.10597
#
# Static dielectric constant tensor:
#      x y z
#    x 2.740700 0.000000 -0.006960 
#    y 0.000000 2.670810 0.000000 
#    z -0.006960 0.000000 2.415320 
# 
# From -- ./inp_files/93124.got.cif
#   From: 2010.05.17/outbox.cif.g08.bks.cpg/sg15_47_cif.got.tgz:93124.got - 2010.06.03 18:47:42.
