data_PCOD9254054
_publ_section_title
;
Structure prediction by ZEFSAII (Michael W. Deem and Ramdas Pophale) SiO2 
 PCOD9254054
Probable space group: C 2/C
;
_chemical_formula_sum "Si O2"
_cell_formula_units_Z 64
_cell_length_a 23.398799
_cell_length_b 9.555820
_cell_length_c 13.549952
_cell_angle_alpha 90.000000
_cell_angle_beta 73.047447
_cell_angle_gamma 90.000000
_cell_volume 2898.046773
_symmetry_space_group_name_H-M "C 2/C"
_symmetry_group_IT_number 15
_symmetry_cell_setting 'monoclinic'
loop_
_space_group_symop_operation_xyz
x,y,z
-x,y,1/2-z
-x,-y,-z
x,-y,1/2+z
1/2+x,1/2+y,z
1/2-x,1/2+y,1/2-z
1/2-x,1/2-y,-z
1/2+x,1/2-y,1/2+z
loop_
_atom_site_type_symbol
_atom_site_label
_atom_site_fract_x
_atom_site_fract_y
_atom_site_fract_z
Si Si1 0.566406 0.173636 0.752729
Si Si2 0.885084 0.026470 0.281795
Si Si3 0.945277 0.300261 0.008243
Si Si4 0.792782 0.066895 0.473468
Si Si5 0.070823 0.276565 0.699274
Si Si6 0.337865 0.889282 0.454306
Si Si7 0.080584 0.319046 0.917149
Si Si8 0.400757 0.499354 0.546794
O O1 0.500000 0.130564 0.750000
O O2 0.576528 0.335421 0.714501
O O3 0.573353 0.163610 0.868680
O O4 0.618589 0.101282 0.662148
O O5 0.817301 0.037744 0.352410
O O6 0.916309 0.889277 0.307682
O O7 0.883314 0.018019 0.167542
O O8 0.945470 0.128628 0.004415
O O9 0.912727 0.332372 0.918804
O O10 0.011715 0.358772 0.961543
O O11 0.724315 0.028848 0.524186
O O12 0.810892 0.230137 0.479360
O O13 0.840359 0.983803 0.515182
O O14 0.097750 0.322541 0.792489
O O15 0.000000 0.297431 0.750000
O O16 0.376067 0.907402 0.534786
O O17 0.080007 0.161624 0.965032
#
# Coordination Sequence:
#
# PCOD9254054 Si02
#       8
#     8   8   8   8   8   8   8   8
#     4  10  17  24  36  55  82 109 137 172 205 248
#     4   9  16  24  36  57  78 106 136 169 212 242
#     4  10  16  23  36  56  84 109 133 171 211 251
#     4   9  16  27  39  53  78 108 147 178 200 246
#     4   9  16  23  34  56  84 110 137 163 203 252
#     4   9  17  27  38  54  76 115 148 171 203 242
#     4   9  16  24  35  54  82 113 139 165 201 250
#     4   9  16  23  37  57  77 106 138 174 210 244
#
# _framework density 22.083839000000001
#
# number of rings (size 3 to 8) (size 9 to 14) (size 15 to 20)
#    0.000    2.750    2.500    0.750    0.000    2.000 
#    0.000    0.000    0.000    0.000    3.250    5.250 
#    0.000    1.000    0.000    0.000    0.000    0.750 
#
# Total GULP energy -178224.824508 kJ/mol
# GULP energy per Si atom -5569.525766 kJ/mol
# Density = 2.203358 g / cm^3
# Si number density = 22.083839 Si / 1000 Ang^3
#
#
#
# Elastic Constant Matrix: (Units=GPa)
#
#
# Indices 1 2 3 4 5 6 
#
# 1 111.4286 22.4626 64.3972 0.0000 -4.9777 0.0000
# 2 22.4626 83.5706 26.5660 0.0000 5.2465 0.0000
# 3 64.3972 26.5660 152.9780 0.0000 23.4231 0.0000
# 4 0.0000 0.0000 0.0000 31.7589 0.0000 7.0646
# 5 -4.9777 5.2465 23.4231 0.0000 36.4160 0.0000
# 6 0.0000 0.0000 0.0000 7.0646 0.0000 3.9120
#
#
#
# Elastic Compliance Matrix: (Units=1/GPa)
#
#
# Indices 1 2 3 4 5 6 
#
# 1 0.013185 -0.001974 -0.006131 0.000000 0.006030 0.000000
# 2 -0.001974 0.012967 -0.001213 0.000000 -0.001358 0.000000
# 3 -0.006131 -0.001213 0.010460 0.000000 -0.007391 0.000000
# 4 0.000000 0.000000 0.000000 0.052629 0.000000 -0.095042
# 5 0.006030 -0.001358 -0.007391 0.000000 0.033234 0.000000
# 6 0.000000 0.000000 0.000000 -0.095042 0.000000 0.427258
#
#
# Mechanical properties :
#
#
# Convention : Reuss Voigt Hill
#
# Bulk Modulus (GPa) = 55.62657 63.86984 59.74821
# Shear Modulus (GPa) = 8.70533 30.05415 19.37974
#
# Velocity S-wave (km/s) = 1.98759 3.69306 2.96557
# Velocity P-wave (km/s) = 5.52366 6.86798 6.23218
#
# Compressibility (1/GPa) = 0.01797702
#
# Stress axis : x y z
#
# Youngs Moduli (GPa) = 75.84582 77.11714 95.60193
#
# Poissons Ratio (x) = 0.15219 0.58611
# Poissons Ratio (y) = 0.14968 0.11599
# Poissons Ratio (z) = 0.46499 0.09356
#
# Static dielectric constant tensor:
#      x y z
#    x 1.787830 0.000000 0.040040 
#    y 0.000000 1.935260 0.000000 
#    z 0.040040 0.000000 1.841970 
# 
# From -- ./inp_files/167620.got.cif
#   From: 2010.05.17/outbox.cif.g08.bks.cpg/sg15_84_cif.got.tgz:167620.got - 2010.06.03 18:47:42.
