data_PCOD9254916
_publ_section_title
;
Structure prediction by ZEFSAII (Michael W. Deem and Ramdas Pophale) SiO2 
 PCOD9254916
Probable space group: C 2/C
;
_chemical_formula_sum "Si O2"
_cell_formula_units_Z 56
_cell_length_a 24.460511
_cell_length_b 6.708001
_cell_length_c 13.718763
_cell_angle_alpha 90.000000
_cell_angle_beta 67.354112
_cell_angle_gamma 90.000000
_cell_volume 2077.443642
_symmetry_space_group_name_H-M "C 2/C"
_symmetry_group_IT_number 15
_symmetry_cell_setting 'monoclinic'
loop_
_space_group_symop_operation_xyz
x,y,z
-x,y,1/2-z
-x,-y,-z
x,-y,1/2+z
1/2+x,1/2+y,z
1/2-x,1/2+y,1/2-z
1/2-x,1/2-y,-z
1/2+x,1/2-y,1/2+z
loop_
_atom_site_type_symbol
_atom_site_label
_atom_site_fract_x
_atom_site_fract_y
_atom_site_fract_z
Si Si1 0.422821 0.024485 0.635897
Si Si2 0.158899 0.584201 0.475662
Si Si3 0.000000 0.432312 0.250000
Si Si4 0.769578 0.859683 0.761864
Si Si5 0.500000 0.500000 0.500000
Si Si6 0.913698 0.902926 0.887128
Si Si7 0.311063 0.954761 0.835678
Si Si8 0.896876 0.997772 0.686242
O O1 0.480417 0.973414 0.660795
O O2 0.371820 0.923704 0.736572
O O3 0.422761 0.272527 0.639533
O O4 0.399268 0.988637 0.542876
O O5 0.213609 0.573915 0.364334
O O6 0.144200 0.809611 0.522122
O O7 0.176490 0.459596 0.559161
O O8 0.945844 0.292205 0.320357
O O9 0.793557 0.674865 0.807979
O O10 0.828114 0.992552 0.706234
O O11 0.741672 0.825890 0.673858
O O12 0.539417 0.504276 0.574402
O O13 0.443556 0.620151 0.591391
O O14 0.899608 0.025997 0.800002
#
# Coordination Sequence:
#
# PCOD9254916 Si02
#       8
#     8   8   4   8   4   8   8   8
#     4   9  19  37  60  87 118 160 206 258 313 380
#     4  11  21  37  66  90 118 166 218 256 321 387
#     4  10  16  40  60  82 122 162 192 260 314 358
#     4  10  22  37  64  91 125 165 216 263 324 385
#     4  12  22  36  64  88 120 166 210 248 324 386
#     4  11  21  38  64  85 120 165 207 253 312 380
#     4  10  20  39  58  90 125 160 211 267 316 383
#     4  10  21  41  60  86 127 164 202 264 319 376
#
# _framework density 26.956206999999999
#
# number of rings (size 3 to 8) (size 9 to 14) (size 15 to 20)
#    0.000    1.714    7.143    0.429    2.000    0.571 
#    0.000    7.857    9.429    0.000    0.000    0.000 
#    0.000    0.000    0.000    0.000    0.000    0.000 
#
# Total GULP energy -155993.257012 kJ/mol
# GULP energy per Si atom -5571.187750 kJ/mol
# Density = 2.689485 g / cm^3
# Si number density = 26.956207 Si / 1000 Ang^3
#
#
#
# Elastic Constant Matrix: (Units=GPa)
#
#
# Indices 1 2 3 4 5 6 
#
# 1 167.3104 7.7542 74.2382 0.0000 34.0134 0.0000
# 2 7.7542 47.9414 4.9669 0.0000 20.0719 0.0000
# 3 74.2382 4.9669 161.8202 0.0000 46.5633 0.0000
# 4 0.0000 0.0000 0.0000 21.9037 0.0000 8.8353
# 5 34.0134 20.0719 46.5633 0.0000 74.6775 0.0000
# 6 0.0000 0.0000 0.0000 8.8353 0.0000 38.0871
#
#
#
# Elastic Compliance Matrix: (Units=1/GPa)
#
#
# Indices 1 2 3 4 5 6 
#
# 1 0.007658 -0.000296 -0.003075 0.000000 -0.001491 0.000000
# 2 -0.000296 0.023755 0.001468 0.000000 -0.007166 0.000000
# 3 -0.003075 0.001468 0.008842 0.000000 -0.004508 0.000000
# 4 0.000000 0.000000 0.000000 0.050367 0.000000 -0.011684
# 5 -0.001491 -0.007166 -0.004508 0.000000 0.018807 0.000000
# 6 0.000000 0.000000 0.000000 -0.011684 0.000000 0.028966
#
#
# Mechanical properties :
#
#
# Convention : Reuss Voigt Hill
#
# Bulk Modulus (GPa) = 27.43460 61.22117 44.32789
# Shear Modulus (GPa) = 32.39380 46.27453 39.33417
#
# Velocity S-wave (km/s) = 3.47034 4.14775 3.82408
# Velocity P-wave (km/s) = 5.12419 6.76011 5.99818
#
# Compressibility (1/GPa) = 0.03645032
#
# Stress axis : x y z
#
# Youngs Moduli (GPa) = 130.57740 42.09710 113.09045
#
# Poissons Ratio (x) = 0.01245 0.34778
# Poissons Ratio (y) = 0.03862 -0.16607
# Poissons Ratio (z) = 0.40156 -0.06182
#
# Static dielectric constant tensor:
#      x y z
#    x 1.989660 0.000000 0.006990 
#    y 0.000000 2.090320 0.000000 
#    z 0.006990 0.000000 2.141600 
# 
# From -- ./inp_files/117176.got.cif
#   From: 2010.05.17/outbox.cif.g08.bks.cpg/sg15_59_cif.got.tgz:117176.got - 2010.06.03 18:47:42.
