data_PCOD9254575
_publ_section_title
;
Structure prediction by ZEFSAII (Michael W. Deem and Ramdas Pophale) SiO2 
 PCOD9254575
Probable space group: C 2/C
;
_chemical_formula_sum "Si O2"
_cell_formula_units_Z 36
_cell_length_a 10.416812
_cell_length_b 8.855605
_cell_length_c 20.565525
_cell_angle_alpha 90.000000
_cell_angle_beta 55.420359
_cell_angle_gamma 90.000000
_cell_volume 1561.964183
_symmetry_space_group_name_H-M "C 2/C"
_symmetry_group_IT_number 15
_symmetry_cell_setting 'monoclinic'
loop_
_space_group_symop_operation_xyz
x,y,z
-x,y,1/2-z
-x,-y,-z
x,-y,1/2+z
1/2+x,1/2+y,z
1/2-x,1/2+y,1/2-z
1/2-x,1/2-y,-z
1/2+x,1/2-y,1/2+z
loop_
_atom_site_type_symbol
_atom_site_label
_atom_site_fract_x
_atom_site_fract_y
_atom_site_fract_z
Si Si1 0.932982 0.744748 0.633262
Si Si2 0.500000 0.335702 0.750000
Si Si3 0.345172 0.559190 0.505731
Si Si4 0.849240 0.418853 0.834831
Si Si5 0.799054 0.914930 0.383433
O O1 0.935302 0.734694 0.709956
O O2 0.806869 0.882719 0.661456
O O3 0.857960 0.610822 0.612917
O O4 0.087753 0.793595 0.549881
O O5 0.612818 0.451154 0.679161
O O6 0.500000 0.500000 0.500000
O O7 0.206037 0.544310 0.597721
O O8 0.291757 0.455563 0.460882
O O9 0.878081 0.251449 0.857621
O O10 0.000000 0.449681 0.750000
#
# Coordination Sequence:
#
# PCOD9254575 Si02
#       5
#     8   4   8   8   8
#     4   8  18  28  49  76 106 150 183 227 280 327
#     4  10  16  32  52  76 110 144 188 228 274 326
#     4   9  16  26  46  79 113 148 183 224 278 335
#     4   9  16  28  45  74 107 141 180 227 274 321
#     4   9  16  28  47  77 110 143 184 229 270 326
#
# _framework density 23.047902000000001
#
# number of rings (size 3 to 8) (size 9 to 14) (size 15 to 20)
#    1.333    1.778    1.111    0.667    0.000    0.000 
#    0.000    0.000    2.444    5.333    0.000    3.111 
#    0.000    0.000    0.000    0.889    0.000    1.333 
#
# Total GULP energy -100225.240037 kJ/mol
# GULP energy per Si atom -5568.068891 kJ/mol
# Density = 2.299544 g / cm^3
# Si number density = 23.047902 Si / 1000 Ang^3
#
#
#
# Elastic Constant Matrix: (Units=GPa)
#
#
# Indices 1 2 3 4 5 6 
#
# 1 91.3764 23.3425 78.4399 0.0000 21.0150 0.0000
# 2 23.3425 48.6391 4.3529 0.0000 2.6566 0.0000
# 3 78.4399 4.3529 169.4906 0.0000 -2.5262 0.0000
# 4 0.0000 0.0000 0.0000 32.6584 0.0000 11.7502
# 5 21.0150 2.6566 -2.5262 0.0000 57.4680 0.0000
# 6 0.0000 0.0000 0.0000 11.7502 0.0000 26.9568
#
#
#
# Elastic Compliance Matrix: (Units=1/GPa)
#
#
# Indices 1 2 3 4 5 6 
#
# 1 0.026309 -0.011022 -0.012036 0.000000 -0.009640 0.000000
# 2 -0.011022 0.025280 0.004497 0.000000 0.003060 0.000000
# 3 -0.012036 0.004497 0.011425 0.000000 0.004696 0.000000
# 4 0.000000 0.000000 0.000000 0.036315 0.000000 -0.015829
# 5 -0.009640 0.003060 0.004696 0.000000 0.020991 0.000000
# 6 0.000000 0.000000 0.000000 -0.015829 0.000000 0.043996
#
#
# Mechanical properties :
#
#
# Convention : Reuss Voigt Hill
#
# Bulk Modulus (GPa) = 38.62310 57.97519 48.29914
# Shear Modulus (GPa) = 23.80179 36.97469 30.38824
#
# Velocity S-wave (km/s) = 3.21707 4.00966 3.63503
# Velocity P-wave (km/s) = 5.53114 6.82974 6.21445
#
# Compressibility (1/GPa) = 0.02589124
#
# Stress axis : x y z
#
# Youngs Moduli (GPa) = 38.01028 39.55748 87.52855
#
# Poissons Ratio (x) = 0.43601 1.05351
# Poissons Ratio (y) = 0.41896 -0.39365
# Poissons Ratio (z) = 0.45750 -0.17791
#
# Static dielectric constant tensor:
#      x y z
#    x 1.960900 0.000000 -0.002870 
#    y 0.000000 1.926200 0.000000 
#    z -0.002870 0.000000 1.815350 
# 
# From -- ./inp_files/235681.got.cif
#   From: 2010.05.17/outbox.cif.g08.bks.cpg/sg15_118_cif.got.tgz:235681.got - 2010.06.03 18:47:42.
