data_PCOD9254309
_publ_section_title
;
Structure prediction by ZEFSAII (Michael W. Deem and Ramdas Pophale) SiO2 
 PCOD9254309
Probable space group: C 2/C
;
_chemical_formula_sum "Si O2"
_cell_formula_units_Z 48
_cell_length_a 14.202878
_cell_length_b 29.532696
_cell_length_c 9.069310
_cell_angle_alpha 90.000000
_cell_angle_beta 45.843027
_cell_angle_gamma 90.000000
_cell_volume 2729.201636
_symmetry_space_group_name_H-M "C 2/C"
_symmetry_group_IT_number 15
_symmetry_cell_setting 'monoclinic'
loop_
_space_group_symop_operation_xyz
x,y,z
-x,y,1/2-z
-x,-y,-z
x,-y,1/2+z
1/2+x,1/2+y,z
1/2-x,1/2+y,1/2-z
1/2-x,1/2-y,-z
1/2+x,1/2-y,1/2+z
loop_
_atom_site_type_symbol
_atom_site_label
_atom_site_fract_x
_atom_site_fract_y
_atom_site_fract_z
Si Si1 0.132449 0.251423 0.010961
Si Si2 0.753755 0.561649 0.224342
Si Si3 0.199096 0.001339 0.533407
Si Si4 0.372036 0.347473 0.995993
Si Si5 0.862578 0.350536 0.484623
Si Si6 0.935902 0.939047 0.066980
O O1 0.132554 0.203045 0.929265
O O2 0.250000 0.250000 0.000000
O O3 0.140391 0.301293 0.932791
O O4 0.000000 0.251722 0.250000
O O5 0.785424 0.532404 0.332842
O O6 0.593588 0.565882 0.400542
O O7 0.779091 0.532422 0.050253
O O8 0.826101 0.608974 0.132961
O O9 0.111082 0.970048 0.520003
O O10 0.119192 0.034874 0.729943
O O11 0.248934 0.351698 0.020666
O O12 0.378736 0.389084 0.101193
O O13 0.500000 0.350912 0.750000
O O14 0.000000 0.356227 0.250000
#
# Coordination Sequence:
#
# PCOD9254309 Si02
#       6
#     8   8   8   8   8   8
#     4   8  16  27  44  68  96 121 156 195 239 277
#     4  11  18  31  48  71 100 128 159 195 242 285
#     4  10  20  29  49  75  99 124 159 205 243 277
#     4  10  16  29  50  74  94 123 160 203 238 281
#     4  10  19  31  46  70 101 131 154 195 241 285
#     4  11  17  29  49  76  98 121 157 204 245 277
#
# _framework density 17.587561000000001
#
# number of rings (size 3 to 8) (size 9 to 14) (size 15 to 20)
#    0.000    2.000    3.333    4.000    0.000    0.000 
#    0.000    0.833    0.000    1.000    0.000    0.000 
#    0.000    0.000    0.000    0.000    0.000    0.000 
#
# Total GULP energy -133684.993750 kJ/mol
# GULP energy per Si atom -5570.208073 kJ/mol
# Density = 1.754753 g / cm^3
# Si number density = 17.587561 Si / 1000 Ang^3
#
#
#
# Elastic Constant Matrix: (Units=GPa)
#
#
# Indices 1 2 3 4 5 6 
#
# 1 42.1268 16.4691 25.4832 0.0000 -5.9285 0.0000
# 2 16.4691 183.2173 35.4726 0.0000 11.9522 0.0000
# 3 25.4832 35.4726 47.1911 0.0000 1.6098 0.0000
# 4 0.0000 0.0000 0.0000 27.4592 0.0000 -3.9052
# 5 -5.9285 11.9522 1.6098 0.0000 32.4529 0.0000
# 6 0.0000 0.0000 0.0000 -3.9052 0.0000 17.9152
#
#
#
# Elastic Compliance Matrix: (Units=1/GPa)
#
#
# Indices 1 2 3 4 5 6 
#
# 1 0.037122 0.000105 -0.020389 0.000000 0.007754 0.000000
# 2 0.000105 0.006537 -0.004897 0.000000 -0.002145 0.000000
# 3 -0.020389 -0.004897 0.036008 0.000000 -0.003707 0.000000
# 4 0.000000 0.000000 0.000000 0.037583 0.000000 0.008192
# 5 0.007754 -0.002145 -0.003707 0.000000 0.033204 0.000000
# 6 0.000000 0.000000 0.000000 0.008192 0.000000 0.057604
#
#
# Mechanical properties :
#
#
# Convention : Reuss Voigt Hill
#
# Bulk Modulus (GPa) = 34.12497 47.48724 40.80610
# Shear Modulus (GPa) = 18.64363 28.57280 23.60822
#
# Velocity S-wave (km/s) = 3.25937 4.03501 3.66775
# Velocity P-wave (km/s) = 5.79738 6.98337 6.41783
#
# Compressibility (1/GPa) = 0.02930405
#
# Stress axis : x y z
#
# Youngs Moduli (GPa) = 26.93838 152.98449 27.77171
#
# Poissons Ratio (x) = -0.01604 0.56624
# Poissons Ratio (y) = -0.00282 0.13599
# Poissons Ratio (z) = 0.54925 0.74915
#
# Static dielectric constant tensor:
#      x y z
#    x 1.589490 0.000000 -0.014450 
#    y 0.000000 1.684220 0.000000 
#    z -0.014450 0.000000 1.590830 
# 
# From -- ./inp_files/52744.got.cif
#   From: 2010.05.17/outbox.cif.g08.bks.cpg/sg15_27_cif.got.tgz:52744.got - 2010.06.03 18:47:42.
