data_PCOD9254376
_publ_section_title
;
Structure prediction by ZEFSAII (Michael W. Deem and Ramdas Pophale) SiO2 
 PCOD9254376
Probable space group: C 2/C
;
_chemical_formula_sum "Si O2"
_cell_formula_units_Z 56
_cell_length_a 25.035955
_cell_length_b 23.163125
_cell_length_c 12.241571
_cell_angle_alpha 90.000000
_cell_angle_beta 27.731502
_cell_angle_gamma 90.000000
_cell_volume 3303.378820
_symmetry_space_group_name_H-M "C 2/C"
_symmetry_group_IT_number 15
_symmetry_cell_setting 'monoclinic'
loop_
_space_group_symop_operation_xyz
x,y,z
-x,y,1/2-z
-x,-y,-z
x,-y,1/2+z
1/2+x,1/2+y,z
1/2-x,1/2+y,1/2-z
1/2-x,1/2-y,-z
1/2+x,1/2-y,1/2+z
loop_
_atom_site_type_symbol
_atom_site_label
_atom_site_fract_x
_atom_site_fract_y
_atom_site_fract_z
Si Si1 0.402681 0.777739 0.845596
Si Si2 0.295639 0.775045 0.680149
Si Si3 0.161635 0.594314 0.946056
Si Si4 0.632006 0.351439 0.541342
Si Si5 0.034612 0.444716 0.867678
Si Si6 0.981549 0.669135 0.983530
Si Si7 0.751392 0.316323 0.535709
O O1 0.500000 0.754459 0.750000
O O2 0.455093 0.787135 0.631599
O O3 0.290698 0.738649 0.063988
O O4 0.372143 0.841893 0.947207
O O5 0.332893 0.712697 0.564975
O O6 0.408838 0.807238 0.515061
O O7 0.232842 0.811634 0.698987
O O8 0.286445 0.603056 0.668842
O O9 0.136512 0.551671 0.093197
O O10 0.073837 0.576476 0.009171
O O11 0.500000 0.360584 0.750000
O O12 0.666353 0.349940 0.607912
O O13 0.063403 0.393047 0.897883
O O14 0.000000 0.500000 0.000000
O O15 0.117086 0.664073 0.719730
O O16 0.750000 0.250000 0.500000
#
# Coordination Sequence:
#
# PCOD9254376 Si02
#       7
#     8   8   8   8   8   8   8
#     4  10  16  30  50  68 102 148 174 204 252 319
#     4  10  20  28  44  77 110 141 170 208 260 311
#     4   9  17  35  52  75 102 130 174 220 263 316
#     4  10  18  31  52  76 101 141 178 201 248 328
#     4  10  19  34  55  75  98 132 176 227 275 300
#     4  11  18  32  48  73 107 134 172 215 263 313
#     4  10  18  30  46  68 107 140 165 211 255 306
#
# _framework density 16.95234
#
# number of rings (size 3 to 8) (size 9 to 14) (size 15 to 20)
#    0.000    2.000    4.286    4.286    0.000    0.000 
#    5.143    0.000    0.000    0.857    0.000    1.000 
#    0.000    0.000    0.000    0.000    0.000    0.000 
#
# Total GULP energy -155940.860293 kJ/mol
# GULP energy per Si atom -5569.316439 kJ/mol
# Density = 1.691376 g / cm^3
# Si number density = 16.952340 Si / 1000 Ang^3
#
#
#
# Elastic Constant Matrix: (Units=GPa)
#
#
# Indices 1 2 3 4 5 6 
#
# 1 85.9685 25.9462 28.7769 0.0000 -0.8348 -0.0001
# 2 25.9462 36.8894 18.6649 0.0000 8.2067 0.0000
# 3 28.7769 18.6649 81.3676 0.0000 -2.7938 0.0000
# 4 0.0000 0.0000 0.0000 19.4683 0.0000 6.0859
# 5 -0.8348 8.2067 -2.7938 0.0000 27.8511 0.0000
# 6 -0.0001 0.0000 0.0000 6.0859 0.0000 10.5656
#
#
#
# Elastic Compliance Matrix: (Units=1/GPa)
#
#
# Indices 1 2 3 4 5 6 
#
# 1 0.015800 -0.010235 -0.003131 0.000000 0.003175 0.000000
# 2 -0.010235 0.040202 -0.006040 0.000000 -0.012759 0.000000
# 3 -0.003131 -0.006040 0.014892 0.000000 0.003180 0.000000
# 4 0.000000 0.000000 0.000000 0.062646 0.000000 -0.036085
# 5 0.003175 -0.012759 0.003180 0.000000 0.040079 0.000000
# 6 0.000000 0.000000 0.000000 -0.036085 0.000000 0.115432
#
#
# Mechanical properties :
#
#
# Convention : Reuss Voigt Hill
#
# Bulk Modulus (GPa) = 31.17122 39.00017 35.08570
# Shear Modulus (GPa) = 14.76857 20.29950 17.53404
#
# Velocity S-wave (km/s) = 2.95478 3.46417 3.21956
# Velocity P-wave (km/s) = 5.48347 6.24951 5.87898
#
# Compressibility (1/GPa) = 0.03208087
#
# Stress axis : x y z
#
# Youngs Moduli (GPa) = 63.29021 24.87469 67.15037
#
# Poissons Ratio (x) = 0.25460 0.21025
# Poissons Ratio (y) = 0.64780 0.40559
# Poissons Ratio (z) = 0.19817 0.15024
#
# Static dielectric constant tensor:
#      x y z
#    x 1.607900 0.000000 0.019620 
#    y 0.000000 1.569050 0.000000 
#    z 0.019620 0.000000 1.548550 
# 
# From -- ./inp_files/90341.got.cif
#   From: 2010.05.17/outbox.cif.g08.bks.cpg/sg15_46_cif.got.tgz:90341.got - 2010.06.03 18:47:42.
