data_PCOD9254820
_publ_section_title
;
Structure prediction by ZEFSAII (Michael W. Deem and Ramdas Pophale) SiO2 
 PCOD9254820
Probable space group: C 2/C
;
_chemical_formula_sum "Si O2"
_cell_formula_units_Z 48
_cell_length_a 20.776161
_cell_length_b 19.397583
_cell_length_c 8.832010
_cell_angle_alpha 90.000000
_cell_angle_beta 145.754452
_cell_angle_gamma 90.000000
_cell_volume 2002.999303
_symmetry_space_group_name_H-M "C 2/C"
_symmetry_group_IT_number 15
_symmetry_cell_setting 'monoclinic'
loop_
_space_group_symop_operation_xyz
x,y,z
-x,y,1/2-z
-x,-y,-z
x,-y,1/2+z
1/2+x,1/2+y,z
1/2-x,1/2+y,1/2-z
1/2-x,1/2-y,-z
1/2+x,1/2-y,1/2+z
loop_
_atom_site_type_symbol
_atom_site_label
_atom_site_fract_x
_atom_site_fract_y
_atom_site_fract_z
Si Si1 0.015072 0.903570 0.099499
Si Si2 0.383532 0.261832 0.313507
Si Si3 0.265611 0.589903 0.168506
Si Si4 0.245410 0.032859 0.018740
Si Si5 0.756530 0.251344 0.834551
Si Si6 0.100313 0.355298 0.849046
O O1 0.065186 0.827746 0.167945
O O2 0.109966 0.954310 0.213587
O O3 0.000000 0.916365 0.250000
O O4 0.883136 0.902444 0.799537
O O5 0.369736 0.272244 0.465335
O O6 0.445200 0.193134 0.376752
O O7 0.250000 0.250000 0.000000
O O8 0.257755 0.545248 0.307787
O O9 0.246362 0.666102 0.196015
O O10 0.200830 0.540463 0.924261
O O11 0.313281 0.091494 0.059089
O O12 0.659789 0.200559 0.578450
O O13 0.750000 0.250000 0.000000
O O14 0.000000 0.389123 0.750000
#
# Coordination Sequence:
#
# PCOD9254820 Si02
#       6
#     8   8   8   8   8   8
#     4  10  18  35  62  98 123 161 211 260 321 394
#     4  10  16  35  64  88 126 165 213 263 321 384
#     4  11  24  39  63  93 131 171 210 267 330 397
#     4  11  22  40  64  90 131 171 214 264 323 395
#     4  11  23  40  65  97 132 165 215 283 334 373
#     4  11  21  41  70  92 120 177 228 264 321 400
#
# _framework density 23.964062999999999
#
# number of rings (size 3 to 8) (size 9 to 14) (size 15 to 20)
#    0.000    1.333    5.000    5.000    2.333    0.000 
#    0.000    5.833    0.000    0.000    0.000    0.000 
#    0.000    0.000    0.000    0.000    0.000    0.000 
#
# Total GULP energy -133696.978984 kJ/mol
# GULP energy per Si atom -5570.707458 kJ/mol
# Density = 2.390952 g / cm^3
# Si number density = 23.964063 Si / 1000 Ang^3
#
#
#
# Elastic Constant Matrix: (Units=GPa)
#
#
# Indices 1 2 3 4 5 6 
#
# 1 175.3381 20.3046 25.8552 0.0000 3.5337 0.0000
# 2 20.3046 100.0294 5.9965 0.0000 6.0412 0.0000
# 3 25.8552 5.9965 13.2030 0.0000 -12.2631 0.0000
# 4 0.0000 0.0000 0.0000 14.4308 0.0000 -8.6844
# 5 3.5337 6.0412 -12.2631 0.0000 32.6615 0.0000
# 6 0.0000 0.0000 0.0000 -8.6844 0.0000 47.1744
#
#
#
# Elastic Compliance Matrix: (Units=1/GPa)
#
#
# Indices 1 2 3 4 5 6 
#
# 1 0.011291 0.000804 -0.036464 0.000000 -0.015061 0.000000
# 2 0.000804 0.011050 -0.013162 0.000000 -0.007072 0.000000
# 3 -0.036464 -0.013162 0.244217 0.000000 0.098073 0.000000
# 4 0.000000 0.000000 0.000000 0.077930 0.000000 0.014346
# 5 -0.015061 -0.007072 0.098073 0.000000 0.070377 0.000000
# 6 0.000000 0.000000 0.000000 0.014346 0.000000 0.023839
#
#
# Mechanical properties :
#
#
# Convention : Reuss Voigt Hill
#
# Bulk Modulus (GPa) = 5.92019 43.65367 24.78693
# Shear Modulus (GPa) = 8.43664 34.61429 21.52547
#
# Velocity S-wave (km/s) = 1.87835 3.80468 3.00032
# Velocity P-wave (km/s) = 2.67956 6.12835 4.72952
#
# Compressibility (1/GPa) = 0.16891364
#
# Stress axis : x y z
#
# Youngs Moduli (GPa) = 88.56827 90.49729 4.09471
#
# Poissons Ratio (x) = -0.07273 0.14931
# Poissons Ratio (y) = -0.07118 0.05389
# Poissons Ratio (z) = 3.22959 1.19108
#
# Static dielectric constant tensor:
#      x y z
#    x 1.925640 0.000000 -0.000010 
#    y 0.000000 1.988510 0.000000 
#    z -0.000010 0.000000 2.180640 
# 
# From -- ./inp_files/57982.got.cif
#   From: 2010.05.17/outbox.cif.g08.bks.cpg/sg15_29_cif.got.tgz:57982.got - 2010.06.03 18:47:42.
