data_PCOD9254622
_publ_section_title
;
Structure prediction by ZEFSAII (Michael W. Deem and Ramdas Pophale) SiO2 
 PCOD9254622
Probable space group: C 2/C
;
_chemical_formula_sum "Si O2"
_cell_formula_units_Z 56
_cell_length_a 9.636035
_cell_length_b 16.602979
_cell_length_c 25.856785
_cell_angle_alpha 90.000000
_cell_angle_beta 142.121712
_cell_angle_gamma 90.000000
_cell_volume 2539.905019
_symmetry_space_group_name_H-M "C 2/C"
_symmetry_group_IT_number 15
_symmetry_cell_setting 'monoclinic'
loop_
_space_group_symop_operation_xyz
x,y,z
-x,y,1/2-z
-x,-y,-z
x,-y,1/2+z
1/2+x,1/2+y,z
1/2-x,1/2+y,1/2-z
1/2-x,1/2-y,-z
1/2+x,1/2-y,1/2+z
loop_
_atom_site_type_symbol
_atom_site_label
_atom_site_fract_x
_atom_site_fract_y
_atom_site_fract_z
Si Si1 0.936948 0.185599 0.577495
Si Si2 0.614014 0.057136 0.609023
Si Si3 0.149890 0.146848 0.175815
Si Si4 0.234069 0.599288 0.184087
Si Si5 0.266881 0.775537 0.379385
Si Si6 0.152255 0.003766 0.929768
Si Si7 0.315434 0.215032 0.419780
O O1 0.750000 0.250000 0.500000
O O2 0.924636 0.203722 0.634891
O O3 0.888916 0.090778 0.556101
O O4 0.161871 0.210548 0.612952
O O5 0.696009 0.146251 0.645323
O O6 0.756122 0.026805 0.600527
O O7 0.663256 0.992639 0.667211
O O8 0.353026 0.046623 0.516197
O O9 0.925158 0.196921 0.126412
O O10 0.300403 0.141292 0.271514
O O11 0.253801 0.194800 0.158858
O O12 0.058348 0.057115 0.135902
O O13 0.500000 0.604139 0.250000
O O14 0.125345 0.640102 0.101371
O O15 0.499154 0.774245 0.481304
#
# Coordination Sequence:
#
# PCOD9254622 Si02
#       7
#     8   8   8   8   8   8   8
#     4   9  19  34  55  86 113 144 189 232 282 339
#     4  10  16  32  56  84 106 147 194 233 272 341
#     4  11  21  36  58  89 116 145 193 248 285 331
#     4  10  19  34  55  83 116 150 189 233 293 340
#     4  10  20  34  60  91 112 139 201 246 277 330
#     4  10  18  32  60  82 110 146 194 236 274 337
#     4  10  18  36  59  80 115 153 188 228 284 350
#
# _framework density 22.048068000000001
#
# number of rings (size 3 to 8) (size 9 to 14) (size 15 to 20)
#    0.000    2.000    4.286    3.000    0.000    0.000 
#    2.571    3.571    3.143    0.000    0.000    0.000 
#    0.000    0.000    0.000    0.000    0.000    0.000 
#
# Total GULP energy -156267.666070 kJ/mol
# GULP energy per Si atom -5580.988074 kJ/mol
# Density = 2.199789 g / cm^3
# Si number density = 22.048068 Si / 1000 Ang^3
#
#
#
# Elastic Constant Matrix: (Units=GPa)
#
#
# Indices 1 2 3 4 5 6 
#
# 1 55.3845 33.0063 19.0222 0.0000 -2.2335 0.0000
# 2 33.0063 124.7656 20.7108 0.0000 -4.9653 0.0000
# 3 19.0222 20.7108 56.7781 0.0000 -17.1970 0.0000
# 4 0.0000 0.0000 0.0000 29.0916 0.0000 -5.6211
# 5 -2.2335 -4.9653 -17.1970 0.0000 18.5641 0.0000
# 6 0.0000 0.0000 0.0000 -5.6211 0.0000 32.3512
#
#
#
# Elastic Compliance Matrix: (Units=1/GPa)
#
#
# Indices 1 2 3 4 5 6 
#
# 1 0.023569 -0.005178 -0.007740 0.000000 -0.005719 0.000000
# 2 -0.005178 0.009679 -0.001668 0.000000 0.000420 0.000000
# 3 -0.007740 -0.001668 0.028352 0.000000 0.024886 0.000000
# 4 0.000000 0.000000 0.000000 0.035568 0.000000 0.006180
# 5 -0.005719 0.000420 0.024886 0.000000 0.076345 0.000000
# 6 0.000000 0.000000 0.000000 0.006180 0.000000 0.031985
#
#
# Mechanical properties :
#
#
# Convention : Reuss Voigt Hill
#
# Bulk Modulus (GPa) = 30.83841 42.48964 36.66402
# Shear Modulus (GPa) = 20.36839 26.94730 23.65784
#
# Velocity S-wave (km/s) = 3.04273 3.49980 3.27924
# Velocity P-wave (km/s) = 5.13435 5.97032 5.56804
#
# Compressibility (1/GPa) = 0.03242709
#
# Stress axis : x y z
#
# Youngs Moduli (GPa) = 42.42856 103.32174 35.27134
#
# Poissons Ratio (x) = 0.53499 0.27299
# Poissons Ratio (y) = 0.21969 0.05885
# Poissons Ratio (z) = 0.32839 0.17238
#
# Static dielectric constant tensor:
#      x y z
#    x 1.866460 0.000000 0.038820 
#    y 0.000000 1.867730 0.000000 
#    z 0.038820 0.000000 1.888190 
# 
# From -- ./inp_files/292878.got.cif
#   From: 2010.05.17/outbox.cif.g08.bks.cpg/sg15_147_cif.got.tgz:292878.got - 2010.06.03 18:47:42.
