data_PCOD9254509
_publ_section_title
;
Structure prediction by ZEFSAII (Michael W. Deem and Ramdas Pophale) SiO2 
 PCOD9254509
Probable space group: C 2/C
;
_chemical_formula_sum "Si O2"
_cell_formula_units_Z 56
_cell_length_a 26.215526
_cell_length_b 6.718730
_cell_length_c 15.178713
_cell_angle_alpha 90.000000
_cell_angle_beta 124.435423
_cell_angle_gamma 90.000000
_cell_volume 2205.009360
_symmetry_space_group_name_H-M "C 2/C"
_symmetry_group_IT_number 15
_symmetry_cell_setting 'monoclinic'
loop_
_space_group_symop_operation_xyz
x,y,z
-x,y,1/2-z
-x,-y,-z
x,-y,1/2+z
1/2+x,1/2+y,z
1/2-x,1/2+y,1/2-z
1/2-x,1/2-y,-z
1/2+x,1/2-y,1/2+z
loop_
_atom_site_type_symbol
_atom_site_label
_atom_site_fract_x
_atom_site_fract_y
_atom_site_fract_z
Si Si1 0.373971 0.394539 0.008680
Si Si2 0.769166 0.545729 0.374594
Si Si3 0.640974 0.521161 0.816945
Si Si4 0.637656 0.061161 0.880120
Si Si5 0.767303 0.496820 0.668765
Si Si6 0.946376 0.855489 0.915592
Si Si7 0.035070 0.746920 0.866009
O O1 0.379740 0.349119 0.118887
O O2 0.411738 0.608555 0.040679
O O3 0.300309 0.399683 0.916434
O O4 0.407522 0.279365 0.961261
O O5 0.708261 0.427056 0.344776
O O6 0.822040 0.508045 0.495728
O O7 0.783551 0.519318 0.286856
O O8 0.750699 0.774915 0.366385
O O9 0.645239 0.298053 0.863080
O O10 0.597092 0.487224 0.690839
O O11 0.671421 0.962264 0.829818
O O12 0.567987 0.064087 0.848874
O O13 0.982914 0.701874 0.887925
O O14 0.000000 0.000000 0.000000
O O15 0.000000 0.857172 0.750000
#
# Coordination Sequence:
#
# PCOD9254509 Si02
#       7
#     8   8   8   8   8   8   8
#     4  10  17  29  49  79 116 139 185 240 303 337
#     4  11  20  34  56  83 115 149 200 243 293 341
#     4  10  16  31  53  77 111 149 188 232 287 358
#     4  10  19  33  55  77 109 151 200 234 279 357
#     4  11  20  34  56  86 113 154 191 248 292 349
#     4  10  19  26  46  85 115 136 175 251 297 332
#     4  10  17  29  50  78 107 140 195 236 278 331
#
# _framework density 25.396718
#
# number of rings (size 3 to 8) (size 9 to 14) (size 15 to 20)
#    0.000    1.714    8.571    0.857    0.000    0.000 
#    0.000    0.714    0.000    0.857    0.000    0.000 
#    0.000    0.000    0.000    0.000    0.000    0.000 
#
# Total GULP energy -156303.850721 kJ/mol
# GULP energy per Si atom -5582.280383 kJ/mol
# Density = 2.533891 g / cm^3
# Si number density = 25.396718 Si / 1000 Ang^3
#
#
#
# Elastic Constant Matrix: (Units=GPa)
#
#
# Indices 1 2 3 4 5 6 
#
# 1 258.4986 17.9023 82.3478 0.0000 -42.4615 0.0000
# 2 17.9023 47.6098 0.7998 0.0000 -1.0824 0.0000
# 3 82.3478 0.7998 175.9349 0.0000 -8.3269 0.0000
# 4 0.0000 0.0000 0.0000 21.7219 0.0000 -1.3282
# 5 -42.4615 -1.0824 -8.3269 0.0000 63.2257 0.0000
# 6 0.0000 0.0000 0.0000 -1.3282 0.0000 36.5077
#
#
#
# Elastic Compliance Matrix: (Units=1/GPa)
#
#
# Indices 1 2 3 4 5 6 
#
# 1 0.005255 -0.001865 -0.002300 0.000000 0.003194 0.000000
# 2 -0.001865 0.021675 0.000737 0.000000 -0.000784 0.000000
# 3 -0.002300 0.000737 0.006727 0.000000 -0.000646 0.000000
# 4 0.000000 0.000000 0.000000 0.046139 0.000000 0.001679
# 5 0.003194 -0.000784 -0.000646 0.000000 0.017863 0.000000
# 6 0.000000 0.000000 0.000000 0.001679 0.000000 0.027453
#
#
# Mechanical properties :
#
#
# Convention : Reuss Voigt Hill
#
# Bulk Modulus (GPa) = 37.31141 76.01588 56.66365
# Shear Modulus (GPa) = 35.48607 49.69063 42.58835
#
# Velocity S-wave (km/s) = 3.74206 4.42812 4.09947
# Velocity P-wave (km/s) = 5.77876 7.49271 6.69084
#
# Compressibility (1/GPa) = 0.02680146
#
# Stress axis : x y z
#
# Youngs Moduli (GPa) = 190.29338 46.13599 148.66517
#
# Poissons Ratio (x) = 0.08603 0.34193
# Poissons Ratio (y) = 0.35485 -0.10959
# Poissons Ratio (z) = 0.43768 -0.03401
#
# Static dielectric constant tensor:
#      x y z
#    x 2.070770 0.000000 -0.032020 
#    y 0.000000 2.172600 0.000000 
#    z -0.032020 0.000000 1.959770 
# 
# From -- ./inp_files/122485.got.cif
#   From: 2010.05.17/outbox.cif.g08.bks.cpg/sg15_62_cif.got.tgz:122485.got - 2010.06.03 18:47:42.
