data_PCOD9254972
_publ_section_title
;
Structure prediction by ZEFSAII (Michael W. Deem and Ramdas Pophale) SiO2 
 PCOD9254972
Probable space group: C 2/C
;
_chemical_formula_sum "Si O2"
_cell_formula_units_Z 64
_cell_length_a 26.135955
_cell_length_b 16.210919
_cell_length_c 17.729563
_cell_angle_alpha 90.000000
_cell_angle_beta 152.973270
_cell_angle_gamma 90.000000
_cell_volume 3413.408147
_symmetry_space_group_name_H-M "C 2/C"
_symmetry_group_IT_number 15
_symmetry_cell_setting 'monoclinic'
loop_
_space_group_symop_operation_xyz
x,y,z
-x,y,1/2-z
-x,-y,-z
x,-y,1/2+z
1/2+x,1/2+y,z
1/2-x,1/2+y,1/2-z
1/2-x,1/2-y,-z
1/2+x,1/2-y,1/2+z
loop_
_atom_site_type_symbol
_atom_site_label
_atom_site_fract_x
_atom_site_fract_y
_atom_site_fract_z
Si Si1 0.395358 0.350902 0.764325
Si Si2 0.880019 0.457179 0.551765
Si Si3 0.411306 0.705636 0.064588
Si Si4 0.206272 0.374126 0.634685
Si Si5 0.670622 0.171193 0.808565
Si Si6 0.253327 0.479847 0.492409
Si Si7 0.825158 0.442505 0.749930
Si Si8 0.431520 0.894391 0.467166
O O1 0.527874 0.340312 0.925225
O O2 0.327471 0.365710 0.752753
O O3 0.349675 0.259651 0.680372
O O4 0.354240 0.425691 0.657740
O O5 0.855546 0.545585 0.480375
O O6 0.788872 0.457866 0.498753
O O7 0.880398 0.390982 0.483977
O O8 0.000000 0.455423 0.750000
O O9 0.500000 0.707312 0.250000
O O10 0.371062 0.796238 0.987270
O O11 0.296945 0.663819 0.942580
O O12 0.216650 0.385332 0.737612
O O13 0.659330 0.092555 0.849219
O O14 0.593580 0.170221 0.632422
O O15 0.264711 0.529000 0.429774
O O16 0.875136 0.524331 0.855730
O O17 0.934491 0.405432 0.851758
#
# Coordination Sequence:
#
# PCOD9254972 Si02
#       8
#     8   8   8   8   8   8   8   8
#     4  10  20  31  45  72  97 128 167 200 239 292
#     4  10  17  26  43  71  97 126 154 201 244 289
#     4  11  20  30  47  69  96 133 163 199 242 285
#     4   9  20  28  44  68  99 126 163 191 241 297
#     4  10  20  31  45  68 100 134 160 200 243 298
#     4  10  18  28  46  67 102 124 159 200 244 293
#     4   9  16  29  43  65  94 131 154 194 246 292
#     4   9  17  28  43  65  98 128 160 190 250 293
#
# _framework density 18.749589
#
# number of rings (size 3 to 8) (size 9 to 14) (size 15 to 20)
#    0.000    2.250    2.500    1.500    7.000    0.000 
#    0.000    0.000    0.000   13.500    0.000    3.500 
#    0.000    0.000    0.000    0.000    0.000    0.000 
#
# Total GULP energy -178137.046840 kJ/mol
# GULP energy per Si atom -5566.782714 kJ/mol
# Density = 1.870691 g / cm^3
# Si number density = 18.749589 Si / 1000 Ang^3
#
#
#
# Elastic Constant Matrix: (Units=GPa)
#
#
# Indices 1 2 3 4 5 6 
#
# 1 90.9071 10.4238 26.5011 0.0000 -7.0144 0.0000
# 2 10.4238 19.3698 9.6645 0.0000 -5.5962 0.0000
# 3 26.5011 9.6645 33.7164 0.0000 0.5750 0.0000
# 4 0.0000 0.0000 0.0000 15.6309 0.0000 -5.7069
# 5 -7.0144 -5.5962 0.5750 0.0000 27.4645 0.0000
# 6 0.0000 0.0000 0.0000 -5.7069 0.0000 21.5220
#
#
#
# Elastic Compliance Matrix: (Units=1/GPa)
#
#
# Indices 1 2 3 4 5 6 
#
# 1 0.014718 -0.001206 -0.011287 0.000000 0.003750 0.000000
# 2 -0.001206 0.065073 -0.017932 0.000000 0.013327 0.000000
# 3 -0.011287 -0.017932 0.043798 0.000000 -0.007454 0.000000
# 4 0.000000 0.000000 0.000000 0.070833 0.000000 0.018782
# 5 0.003750 0.013327 -0.007454 0.000000 0.040240 0.000000
# 6 0.000000 0.000000 0.000000 0.018782 0.000000 0.051444
#
#
# Mechanical properties :
#
#
# Convention : Reuss Voigt Hill
#
# Bulk Modulus (GPa) = 15.93889 26.35246 21.14567
# Shear Modulus (GPa) = 13.59177 19.41708 16.50442
#
# Velocity S-wave (km/s) = 2.69534 3.22157 2.97013
# Velocity P-wave (km/s) = 4.26683 5.28426 4.80257
#
# Compressibility (1/GPa) = 0.06273964
#
# Stress axis : x y z
#
# Youngs Moduli (GPa) = 67.94340 15.36727 22.83216
#
# Poissons Ratio (x) = 0.01853 0.25770
# Poissons Ratio (y) = 0.08191 0.40944
# Poissons Ratio (z) = 0.76686 0.27557
#
# Static dielectric constant tensor:
#      x y z
#    x 1.730480 0.000000 -0.014740 
#    y 0.000000 1.656930 0.000000 
#    z -0.014740 0.000000 1.666010 
# 
# From -- ./inp_files/222834.got.cif
#   From: 2010.05.17/outbox.cif.g08.bks.cpg/sg15_112_cif.got.tgz:222834.got - 2010.06.03 18:47:42.
