data_PCOD9254646
_publ_section_title
;
Structure prediction by ZEFSAII (Michael W. Deem and Ramdas Pophale) SiO2 
 PCOD9254646
Probable space group: C 2/C
;
_chemical_formula_sum "Si O2"
_cell_formula_units_Z 40
_cell_length_a 27.554862
_cell_length_b 15.283934
_cell_length_c 15.802411
_cell_angle_alpha 90.000000
_cell_angle_beta 162.500436
_cell_angle_gamma 90.000000
_cell_volume 2001.188827
_symmetry_space_group_name_H-M "C 2/C"
_symmetry_group_IT_number 15
_symmetry_cell_setting 'monoclinic'
loop_
_space_group_symop_operation_xyz
x,y,z
-x,y,1/2-z
-x,-y,-z
x,-y,1/2+z
1/2+x,1/2+y,z
1/2-x,1/2+y,1/2-z
1/2-x,1/2-y,-z
1/2+x,1/2-y,1/2+z
loop_
_atom_site_type_symbol
_atom_site_label
_atom_site_fract_x
_atom_site_fract_y
_atom_site_fract_z
Si Si1 0.106218 0.215265 0.200566
Si Si2 0.500000 0.664828 0.750000
Si Si3 0.392930 0.301597 0.492500
Si Si4 0.985794 0.682582 0.103829
Si Si5 0.000000 0.463585 0.750000
Si Si6 0.770636 0.383959 0.817883
O O1 0.250000 0.250000 0.500000
O O2 0.020410 0.293805 0.005004
O O3 0.182710 0.153036 0.256077
O O4 0.976230 0.170115 0.044707
O O5 0.556078 0.732767 0.769959
O O6 0.359575 0.610055 0.473503
O O7 0.500000 0.331349 0.750000
O O8 0.205493 0.324248 0.190205
O O9 0.390781 0.194983 0.490942
O O10 0.057413 0.597618 0.267454
O O11 0.860758 0.527301 0.485939
#
# Coordination Sequence:
#
# PCOD9254646 Si02
#       6
#     8   4   8   8   4   8
#     4  10  16  32  58  87 107 142 194 226 263 330
#     4   7  16  36  52  77 100 146 190 219 262 314
#     4  10  16  33  59  82 104 145 189 222 265 325
#     4   9  20  33  56  81 114 142 181 231 274 327
#     4  11  20  40  52  81 120 148 174 233 290 320
#     4  10  19  34  58  80 112 149 184 229 273 330
#
# _framework density 19.988119000000001
#
# number of rings (size 3 to 8) (size 9 to 14) (size 15 to 20)
#    0.000    2.800    5.000    0.000    0.000    0.000 
#    1.800   30.000    0.000    0.000    0.000    0.000 
#    0.000    0.000    0.000    0.000    0.000    0.000 
#
# Total GULP energy -111444.030325 kJ/mol
# GULP energy per Si atom -5572.201516 kJ/mol
# Density = 1.994263 g / cm^3
# Si number density = 19.988119 Si / 1000 Ang^3
#
#
#
# Elastic Constant Matrix: (Units=GPa)
#
#
# Indices 1 2 3 4 5 6 
#
# 1 99.0964 1.4677 27.2399 0.0000 -15.7691 0.0000
# 2 1.4677 72.0255 29.7497 0.0000 -20.5881 0.0000
# 3 27.2399 29.7497 120.1949 0.0000 -39.6844 0.0000
# 4 0.0000 0.0000 0.0000 32.4233 0.0000 -8.5930
# 5 -15.7691 -20.5881 -39.6844 0.0000 41.7751 0.0000
# 6 0.0000 0.0000 0.0000 -8.5930 0.0000 11.4880
#
#
#
# Elastic Compliance Matrix: (Units=1/GPa)
#
#
# Indices 1 2 3 4 5 6 
#
# 1 0.011073 0.001428 -0.001822 0.000000 0.003153 0.000000
# 2 0.001428 0.016680 -0.002273 0.000000 0.006600 0.000000
# 3 -0.001822 -0.002273 0.012673 0.000000 0.010231 0.000000
# 4 0.000000 0.000000 0.000000 0.038468 0.000000 0.028774
# 5 0.003153 0.006600 0.010231 0.000000 0.038100 0.000000
# 6 0.000000 0.000000 0.000000 0.028774 0.000000 0.108570
#
#
# Mechanical properties :
#
#
# Convention : Reuss Voigt Hill
#
# Bulk Modulus (GPa) = 28.49607 45.35904 36.92755
# Shear Modulus (GPa) = 20.61046 32.66124 26.63585
#
# Velocity S-wave (km/s) = 3.21461 4.04670 3.65442
# Velocity P-wave (km/s) = 5.29771 6.67658 6.02671
#
# Compressibility (1/GPa) = 0.03509256
#
# Stress axis : x y z
#
# Youngs Moduli (GPa) = 90.31351 59.95047 78.90607
#
# Poissons Ratio (x) = -0.08561 0.14376
# Poissons Ratio (y) = -0.12898 0.17935
# Poissons Ratio (z) = 0.16455 0.13627
#
# Static dielectric constant tensor:
#      x y z
#    x 1.729290 0.000000 -0.004800 
#    y 0.000000 1.722910 0.000000 
#    z -0.004800 0.000000 1.762630 
# 
# From -- ./inp_files/178758.got.cif
#   From: 2010.05.17/outbox.cif.g08.bks.cpg/sg15_90_cif.got.tgz:178758.got - 2010.06.03 18:47:42.
