data_PCOD9254073
_publ_section_title
;
Structure prediction by ZEFSAII (Michael W. Deem and Ramdas Pophale) SiO2 
 PCOD9254073
Probable space group: C 2/C
;
_chemical_formula_sum "Si O2"
_cell_formula_units_Z 44
_cell_length_a 18.175206
_cell_length_b 7.916947
_cell_length_c 17.914796
_cell_angle_alpha 90.000000
_cell_angle_beta 134.277455
_cell_angle_gamma 90.000000
_cell_volume 1845.619847
_symmetry_space_group_name_H-M "C 2/C"
_symmetry_group_IT_number 15
_symmetry_cell_setting 'monoclinic'
loop_
_space_group_symop_operation_xyz
x,y,z
-x,y,1/2-z
-x,-y,-z
x,-y,1/2+z
1/2+x,1/2+y,z
1/2-x,1/2+y,1/2-z
1/2-x,1/2-y,-z
1/2+x,1/2-y,1/2+z
loop_
_atom_site_type_symbol
_atom_site_label
_atom_site_fract_x
_atom_site_fract_y
_atom_site_fract_z
Si Si1 0.024131 0.196400 0.036566
Si Si2 0.000000 0.482252 0.250000
Si Si3 0.733698 0.202699 0.612866
Si Si4 0.713836 0.018263 0.958422
Si Si5 0.055905 0.104267 0.368997
Si Si6 0.946368 0.238515 0.832405
O O1 0.140365 0.243414 0.099378
O O2 0.997292 0.214542 0.103804
O O3 0.955036 0.288228 0.925210
O O4 0.000000 0.000000 0.000000
O O5 0.108514 0.402345 0.352408
O O6 0.028414 0.603516 0.201094
O O7 0.701890 0.054105 0.533779
O O8 0.765594 0.358563 0.581945
O O9 0.835572 0.163459 0.732436
O O10 0.821628 0.115249 0.034742
O O11 0.000000 0.122577 0.250000
O O12 0.029292 0.906201 0.370612
#
# Coordination Sequence:
#
# PCOD9254073 Si02
#       6
#     8   4   8   8   8   8
#     4  10  19  29  42  73 104 130 165 210 252 295
#     4  10  16  24  44  70 100 130 160 188 250 298
#     4  10  16  26  43  66 101 132 160 201 251 299
#     4  10  16  25  43  71 102 131 159 201 254 309
#     4  11  18  30  47  74 104 130 164 215 254 289
#     4  10  16  26  43  67  99 126 162 198 243 301
#
# _framework density 23.840229000000001
#
# number of rings (size 3 to 8) (size 9 to 14) (size 15 to 20)
#    0.000    1.818    8.182    1.091    0.000    0.000 
#    0.000    0.000    0.000    1.091    4.727    6.364 
#    0.000    0.000    0.000    0.000    0.000    0.000 
#
# Total GULP energy -123010.219605 kJ/mol
# GULP energy per Si atom -5591.373618 kJ/mol
# Density = 2.378597 g / cm^3
# Si number density = 23.840229 Si / 1000 Ang^3
#
#
#
# Elastic Constant Matrix: (Units=GPa)
#
#
# Indices 1 2 3 4 5 6 
#
# 1 150.1147 15.5325 73.3693 0.0000 1.8494 0.0000
# 2 15.5325 36.4439 21.3643 0.0000 11.1854 0.0000
# 3 73.3693 21.3643 191.7419 0.0000 19.5068 0.0000
# 4 0.0000 0.0000 0.0000 39.6727 0.0000 7.5774
# 5 1.8494 11.1854 19.5068 0.0000 64.5526 0.0000
# 6 0.0000 0.0000 0.0000 7.5774 0.0000 23.4820
#
#
#
# Elastic Compliance Matrix: (Units=1/GPa)
#
#
# Indices 1 2 3 4 5 6 
#
# 1 0.008368 -0.002086 -0.003077 0.000000 0.001051 0.000000
# 2 -0.002086 0.031040 -0.002187 0.000000 -0.004658 0.000000
# 3 -0.003077 -0.002187 0.006798 0.000000 -0.001587 0.000000
# 4 0.000000 0.000000 0.000000 0.026862 0.000000 -0.008668
# 5 0.001051 -0.004658 -0.001587 0.000000 0.016748 0.000000
# 6 0.000000 0.000000 0.000000 -0.008668 0.000000 0.045383
#
#
# Mechanical properties :
#
#
# Convention : Reuss Voigt Hill
#
# Bulk Modulus (GPa) = 31.73796 66.53696 49.13746
# Shear Modulus (GPa) = 31.17236 43.41041 37.29139
#
# Velocity S-wave (km/s) = 3.61993 4.27182 3.95931
# Velocity P-wave (km/s) = 5.55100 7.23197 6.44651
#
# Compressibility (1/GPa) = 0.03150801
#
# Stress axis : x y z
#
# Youngs Moduli (GPa) = 119.50102 32.21668 147.10864
#
# Poissons Ratio (x) = 0.06719 0.45260
# Poissons Ratio (y) = 0.24923 0.32167
# Poissons Ratio (z) = 0.36766 0.07044
#
# Static dielectric constant tensor:
#      x y z
#    x 1.915600 0.000000 -0.024790 
#    y 0.000000 2.003100 0.000000 
#    z -0.024790 0.000000 1.909230 
# 
# From -- ./inp_files/203818.got.cif
#   From: 2010.05.17/outbox.cif.g08.bks.cpg/sg15_102_cif.got.tgz:203818.got - 2010.06.03 18:47:42.
