data_PCOD9254030
_publ_section_title
;
Structure prediction by ZEFSAII (Michael W. Deem and Ramdas Pophale) SiO2 
 PCOD9254030
Probable space group: C 2/C
;
_chemical_formula_sum "Si O2"
_cell_formula_units_Z 48
_cell_length_a 17.211803
_cell_length_b 18.092694
_cell_length_c 7.262367
_cell_angle_alpha 90.000000
_cell_angle_beta 126.621554
_cell_angle_gamma 90.000000
_cell_volume 1815.111182
_symmetry_space_group_name_H-M "C 2/C"
_symmetry_group_IT_number 15
_symmetry_cell_setting 'monoclinic'
loop_
_space_group_symop_operation_xyz
x,y,z
-x,y,1/2-z
-x,-y,-z
x,-y,1/2+z
1/2+x,1/2+y,z
1/2-x,1/2+y,1/2-z
1/2-x,1/2-y,-z
1/2+x,1/2-y,1/2+z
loop_
_atom_site_type_symbol
_atom_site_label
_atom_site_fract_x
_atom_site_fract_y
_atom_site_fract_z
Si Si1 0.413472 0.812159 0.992088
Si Si2 0.390304 0.353284 0.533926
Si Si3 0.311023 0.896645 0.273608
Si Si4 0.605298 0.405590 0.382080
Si Si5 0.855494 0.256713 0.536200
Si Si6 0.807286 0.550352 0.191095
O O1 0.426959 0.786935 0.797353
O O2 0.350182 0.885582 0.879252
O O3 0.500000 0.831949 0.250000
O O4 0.374297 0.734979 0.017007
O O5 0.500000 0.368500 0.750000
O O6 0.292178 0.387835 0.474148
O O7 0.386403 0.381641 0.318382
O O8 0.350601 0.814261 0.361363
O O9 0.306968 0.919549 0.483798
O O10 0.358728 0.971102 0.264189
O O11 0.500000 0.440090 0.250000
O O12 0.614516 0.324578 0.489455
O O13 0.692991 0.455313 0.574766
O O14 0.750000 0.250000 0.500000
#
# Coordination Sequence:
#
# PCOD9254030 Si02
#       6
#     8   8   8   8   8   8
#     4   9  16  32  58  78  95 138 185 220 258 311
#     4   9  17  32  55  77  99 137 189 215 259 328
#     4  10  19  34  55  76 102 149 178 213 268 318
#     4  10  19  33  55  82 107 138 175 229 271 306
#     4  10  15  36  60  73  99 146 191 207 258 327
#     4  10  20  35  51  76 111 142 174 217 271 325
#
# _framework density 26.444659999999999
#
# number of rings (size 3 to 8) (size 9 to 14) (size 15 to 20)
#    0.000    2.333    6.667    0.000    0.000    2.000 
#    0.000   12.500    0.000   12.000    0.000    0.000 
#    0.000    0.000    0.000    0.000    0.000    0.000 
#
# Total GULP energy -133991.188792 kJ/mol
# GULP energy per Si atom -5582.966200 kJ/mol
# Density = 2.638447 g / cm^3
# Si number density = 26.444660 Si / 1000 Ang^3
#
#
#
# Elastic Constant Matrix: (Units=GPa)
#
#
# Indices 1 2 3 4 5 6 
#
# 1 52.7198 7.7307 12.8055 0.0000 -7.7089 0.0000
# 2 7.7307 145.9099 47.8374 0.0000 -10.5756 0.0000
# 3 12.8055 47.8374 155.2210 0.0000 -6.5669 0.0000
# 4 0.0000 0.0000 0.0000 7.7157 0.0000 -0.3798
# 5 -7.7089 -10.5756 -6.5669 0.0000 13.6559 0.0000
# 6 0.0000 0.0000 0.0000 -0.3798 0.0000 4.2703
#
#
#
# Elastic Compliance Matrix: (Units=1/GPa)
#
#
# Indices 1 2 3 4 5 6 
#
# 1 0.020912 0.000133 -0.001289 0.000000 0.011288 0.000000
# 2 0.000133 0.007956 -0.002245 0.000000 0.005157 0.000000
# 3 -0.001289 -0.002245 0.007284 0.000000 0.001037 0.000000
# 4 0.000000 0.000000 0.000000 0.130177 0.000000 0.011579
# 5 0.011288 0.005157 0.001037 0.000000 0.084094 0.000000
# 6 0.000000 0.000000 0.000000 0.011579 0.000000 0.235207
#
#
# Mechanical properties :
#
#
# Convention : Reuss Voigt Hill
#
# Bulk Modulus (GPa) = 34.06959 54.51087 44.29023
# Shear Modulus (GPa) = 9.95588 24.16017 17.05802
#
# Velocity S-wave (km/s) = 1.94241 3.02588 2.54253
# Velocity P-wave (km/s) = 4.23579 5.73288 5.04023
#
# Compressibility (1/GPa) = 0.02935169
#
# Stress axis : x y z
#
# Youngs Moduli (GPa) = 47.81859 125.68706 137.27908
#
# Poissons Ratio (x) = -0.01667 0.17689
# Poissons Ratio (y) = -0.00634 0.30816
# Poissons Ratio (z) = 0.06162 0.28214
#
# Static dielectric constant tensor:
#      x y z
#    x 2.211580 0.000000 0.058300 
#    y 0.000000 2.052120 0.000000 
#    z 0.058300 0.000000 2.081120 
# 
# From -- ./inp_files/87359.got.cif
#   From: 2010.05.17/outbox.cif.g08.bks.cpg/sg15_44_cif.got.tgz:87359.got - 2010.06.03 18:47:42.
