data_PCOD9254687
_publ_section_title
;
Structure prediction by ZEFSAII (Michael W. Deem and Ramdas Pophale) SiO2 
 PCOD9254687
Probable space group: C 2/C
;
_chemical_formula_sum "Si O2"
_cell_formula_units_Z 52
_cell_length_a 11.574808
_cell_length_b 22.784004
_cell_length_c 16.657199
_cell_angle_alpha 90.000000
_cell_angle_beta 44.858072
_cell_angle_gamma 90.000000
_cell_volume 3098.506100
_symmetry_space_group_name_H-M "C 2/C"
_symmetry_group_IT_number 15
_symmetry_cell_setting 'monoclinic'
loop_
_space_group_symop_operation_xyz
x,y,z
-x,y,1/2-z
-x,-y,-z
x,-y,1/2+z
1/2+x,1/2+y,z
1/2-x,1/2+y,1/2-z
1/2-x,1/2-y,-z
1/2+x,1/2-y,1/2+z
loop_
_atom_site_type_symbol
_atom_site_label
_atom_site_fract_x
_atom_site_fract_y
_atom_site_fract_z
Si Si1 0.444597 0.126227 0.123313
Si Si2 0.822934 0.954057 0.800266
Si Si3 0.259419 0.574240 0.901732
Si Si4 0.000000 0.457086 0.750000
Si Si5 0.830317 0.017841 0.623422
Si Si6 0.944498 0.751530 0.373256
Si Si7 0.053322 0.880397 0.347525
O O1 0.277986 0.104862 0.164360
O O2 0.472614 0.085587 0.188008
O O3 0.469939 0.193427 0.134081
O O4 0.589415 0.106079 0.994269
O O5 0.000000 0.943483 0.750000
O O6 0.742500 0.004795 0.895558
O O7 0.832590 0.986175 0.709324
O O8 0.348733 0.603864 0.781820
O O9 0.376814 0.588284 0.919490
O O10 0.163822 0.496719 0.662997
O O11 0.847760 0.087326 0.631206
O O12 0.000000 0.000000 0.500000
O O13 0.750000 0.750000 0.500000
O O14 0.017418 0.812016 0.371932
O O15 0.000000 0.752566 0.250000
#
# Coordination Sequence:
#
# PCOD9254687 Si02
#       7
#     8   8   8   4   8   8   8
#     4  11  21  33  53  82 111 140 181 228 278 324
#     4  10  20  34  52  80 109 139 184 225 276 334
#     4  10  16  33  53  79 103 137 181 222 269 324
#     4  10  22  32  50  86 108 134 182 226 284 330
#     4  10  20  34  55  77 113 143 173 231 285 328
#     4  12  22  35  56  82 114 147 185 235 275 331
#     4  10  18  33  54  77 106 142 183 212 274 330
#
# _framework density 16.782281000000001
#
# number of rings (size 3 to 8) (size 9 to 14) (size 15 to 20)
#    0.000    1.538    6.923    1.385    0.000    0.000 
#    0.000    0.000    1.692    0.000    0.000    3.231 
#    0.000    0.000    0.000    0.000    0.000    0.000 
#
# Total GULP energy -144748.203055 kJ/mol
# GULP energy per Si atom -5567.238579 kJ/mol
# Density = 1.674408 g / cm^3
# Si number density = 16.782281 Si / 1000 Ang^3
#
#
#
# Elastic Constant Matrix: (Units=GPa)
#
#
# Indices 1 2 3 4 5 6 
#
# 1 66.1416 48.4298 10.9393 0.0000 -14.0582 0.0000
# 2 48.4298 155.5749 29.9883 0.0000 -11.9157 0.0000
# 3 10.9393 29.9883 59.6059 0.0001 -10.7408 0.0001
# 4 0.0000 0.0000 0.0001 9.5170 0.0000 -6.8653
# 5 -14.0582 -11.9157 -10.7408 0.0000 15.1417 0.0000
# 6 0.0000 0.0000 0.0001 -6.8653 0.0000 31.8301
#
#
#
# Elastic Compliance Matrix: (Units=1/GPa)
#
#
# Indices 1 2 3 4 5 6 
#
# 1 0.023193 -0.006245 0.002156 0.000000 0.018147 0.000000
# 2 -0.006245 0.008966 -0.003598 0.000000 -0.001295 0.000000
# 3 0.002156 -0.003598 0.020686 0.000000 0.013844 0.000000
# 4 0.000000 0.000000 0.000000 0.124436 0.000000 0.026839
# 5 0.018147 -0.001295 0.013844 0.000000 0.091692 0.000000
# 6 0.000000 0.000000 0.000000 0.026839 0.000000 0.037206
#
#
# Mechanical properties :
#
#
# Convention : Reuss Voigt Hill
#
# Bulk Modulus (GPa) = 26.68847 51.11523 38.90185
# Shear Modulus (GPa) = 14.96807 24.09544 19.53176
#
# Velocity S-wave (km/s) = 2.98971 3.79326 3.41520
# Velocity P-wave (km/s) = 5.27779 7.05047 6.22753
#
# Compressibility (1/GPa) = 0.03746936
#
# Stress axis : x y z
#
# Youngs Moduli (GPa) = 43.11715 111.52829 48.34176
#
# Poissons Ratio (x) = 0.69654 -0.10421
# Poissons Ratio (y) = 0.26928 0.17394
# Poissons Ratio (z) = -0.09295 0.40130
#
# Static dielectric constant tensor:
#      x y z
#    x 1.585700 0.000000 0.005240 
#    y 0.000000 1.571290 0.000000 
#    z 0.005240 0.000000 1.662820 
# 
# From -- ./inp_files/200323.got.cif
#   From: 2010.05.17/outbox.cif.g08.bks.cpg/sg15_101_cif.got.tgz:200323.got - 2010.06.03 18:47:42.
