data_PCOD9254158
_publ_section_title
;
Structure prediction by ZEFSAII (Michael W. Deem and Ramdas Pophale) SiO2 
 PCOD9254158
Probable space group: C 2/C
;
_chemical_formula_sum "Si O2"
_cell_formula_units_Z 48
_cell_length_a 7.016615
_cell_length_b 20.860433
_cell_length_c 14.294152
_cell_angle_alpha 90.000000
_cell_angle_beta 59.263594
_cell_angle_gamma 90.000000
_cell_volume 1798.329373
_symmetry_space_group_name_H-M "C 2/C"
_symmetry_group_IT_number 15
_symmetry_cell_setting 'monoclinic'
loop_
_space_group_symop_operation_xyz
x,y,z
-x,y,1/2-z
-x,-y,-z
x,-y,1/2+z
1/2+x,1/2+y,z
1/2-x,1/2+y,1/2-z
1/2-x,1/2-y,-z
1/2+x,1/2-y,1/2+z
loop_
_atom_site_type_symbol
_atom_site_label
_atom_site_fract_x
_atom_site_fract_y
_atom_site_fract_z
Si Si1 0.597186 0.058759 0.537800
Si Si2 0.705242 0.556448 0.775735
Si Si3 0.438952 0.575062 0.152800
Si Si4 0.527592 0.188221 0.025496
Si Si5 0.217933 0.203006 0.260346
Si Si6 0.556955 0.687975 0.879176
O O1 0.436336 0.063292 0.665638
O O2 0.572606 0.130381 0.504220
O O3 0.858145 0.051817 0.461009
O O4 0.500000 0.000000 0.500000
O O5 0.500000 0.557702 0.750000
O O6 0.718323 0.485754 0.815964
O O7 0.646898 0.616494 0.856434
O O8 0.500000 0.578539 0.250000
O O9 0.353907 0.646448 0.151307
O O10 0.436034 0.174592 0.153286
O O11 0.421573 0.259506 0.042088
O O12 0.789231 0.187641 0.941912
O O13 0.307251 0.276423 0.239956
O O14 0.000000 0.209926 0.250000
#
# Coordination Sequence:
#
# PCOD9254158 Si02
#       6
#     8   8   8   8   8   8
#     4  12  17  26  46  73  96 119 145 186 243 285
#     4  11  19  26  43  69 102 117 146 194 233 273
#     4  10  16  27  43  66  90 124 142 181 238 287
#     4   9  16  27  45  62  93 121 156 177 225 292
#     4   9  15  28  47  61  85 122 157 180 221 280
#     4   9  18  29  40  66  94 124 155 187 222 281
#
# _framework density 26.69144
#
# number of rings (size 3 to 8) (size 9 to 14) (size 15 to 20)
#    1.000    1.000    8.333    0.000    0.000    0.000 
#    0.000    0.833    0.000    0.000    0.000    1.167 
#    0.000   10.000    0.000    0.000    0.000    0.000 
#
# Total GULP energy -133712.343024 kJ/mol
# GULP energy per Si atom -5571.347626 kJ/mol
# Density = 2.663069 g / cm^3
# Si number density = 26.691440 Si / 1000 Ang^3
#
#
#
# Elastic Constant Matrix: (Units=GPa)
#
#
# Indices 1 2 3 4 5 6 
#
# 1 73.2381 15.6784 22.3223 0.0000 -10.5975 0.0000
# 2 15.6784 145.2077 39.4616 0.0000 1.5340 0.0000
# 3 22.3223 39.4616 143.0329 0.0000 -14.2038 0.0000
# 4 0.0000 0.0000 0.0000 57.9312 0.0000 -23.1564
# 5 -10.5975 1.5340 -14.2038 0.0000 35.7263 0.0000
# 6 0.0000 0.0000 0.0000 -23.1564 0.0000 5.3175
#
#
#
# Elastic Compliance Matrix: (Units=1/GPa)
#
#
# Indices 1 2 3 4 5 6 
#
# 1 0.014964 -0.001217 -0.001618 0.000000 0.003848 0.000000
# 2 -0.001217 0.007592 -0.002054 0.000000 -0.001504 0.000000
# 3 -0.001618 -0.002054 0.008091 0.000000 0.002825 0.000000
# 4 0.000000 0.000000 0.000000 -0.023305 0.000000 -0.101487
# 5 0.003848 -0.001504 0.002825 0.000000 0.030320 0.000000
# 6 0.000000 0.000000 0.000000 -0.101487 0.000000 -0.253894
#
#
# Mechanical properties :
#
#
# Convention : Reuss Voigt Hill
#
# Bulk Modulus (GPa) = 47.91372 57.37815 52.64593
# Shear Modulus (GPa) = -25.06297 38.72942 6.83322
#
# Velocity S-wave (km/s) = -3.06762 3.81334 1.60176
# Velocity P-wave (km/s) = 2.33300 6.39783 4.81535
#
# Compressibility (1/GPa) = 0.02087085
#
# Stress axis : x y z
#
# Youngs Moduli (GPa) = 66.82524 131.71495 123.59283
#
# Poissons Ratio (x) = 0.16027 0.19992
# Poissons Ratio (y) = 0.08131 0.25386
# Poissons Ratio (z) = 0.10809 0.27055
#
# Static dielectric constant tensor:
#      x y z
#    x 1.999830 0.000000 -0.100650 
#    y 0.000000 2.069400 0.000000 
#    z -0.100650 0.000000 1.977710 
# 
# From -- ./inp_files/293590.got.cif
#   From: 2010.05.17/outbox.cif.g08.bks.cpg/sg15_147_cif.got.tgz:293590.got - 2010.06.03 18:47:42.
