data_PCOD9254535
_publ_section_title
;
Structure prediction by ZEFSAII (Michael W. Deem and Ramdas Pophale) SiO2 
 PCOD9254535
Probable space group: C 2/C
;
_chemical_formula_sum "Si O2"
_cell_formula_units_Z 56
_cell_length_a 8.678675
_cell_length_b 19.235843
_cell_length_c 16.055275
_cell_angle_alpha 90.000000
_cell_angle_beta 60.455222
_cell_angle_gamma 90.000000
_cell_volume 2331.776755
_symmetry_space_group_name_H-M "C 2/C"
_symmetry_group_IT_number 15
_symmetry_cell_setting 'monoclinic'
loop_
_space_group_symop_operation_xyz
x,y,z
-x,y,1/2-z
-x,-y,-z
x,-y,1/2+z
1/2+x,1/2+y,z
1/2-x,1/2+y,1/2-z
1/2-x,1/2-y,-z
1/2+x,1/2-y,1/2+z
loop_
_atom_site_type_symbol
_atom_site_label
_atom_site_fract_x
_atom_site_fract_y
_atom_site_fract_z
Si Si1 0.043442 0.425150 0.338600
Si Si2 0.596290 0.069370 0.081068
Si Si3 0.246471 0.828287 0.468302
Si Si4 0.105933 0.315234 0.803413
Si Si5 0.104772 0.106491 0.358151
Si Si6 0.437561 0.474059 0.422878
Si Si7 0.657391 0.657884 0.809160
O O1 0.219979 0.378139 0.292730
O O2 0.000000 0.425760 0.250000
O O3 0.036047 0.507104 0.360130
O O4 0.899053 0.386945 0.436270
O O5 0.487317 0.140543 0.098926
O O6 0.742708 0.085107 0.115174
O O7 0.728297 0.039061 0.976342
O O8 0.250000 0.750000 0.500000
O O9 0.261669 0.822114 0.364859
O O10 0.059013 0.857049 0.551112
O O11 0.303932 0.342553 0.733089
O O12 0.081125 0.233124 0.810670
O O13 0.000000 0.337884 0.750000
O O14 0.020906 0.035417 0.346005
O O15 0.500000 0.500000 0.500000
O O16 0.524914 0.401753 0.374306
#
# Coordination Sequence:
#
# PCOD9254535 Si02
#       7
#     8   8   8   8   8   8   8
#     4  10  18  31  54  81 103 134 185 228 269 317
#     4  10  17  32  55  81 104 136 186 232 267 311
#     4  11  20  32  53  79 113 142 171 225 280 317
#     4  10  22  35  53  79 114 145 174 222 284 331
#     4  10  17  34  52  80 109 137 181 229 269 308
#     4  10  16  31  57  81 103 131 185 239 260 295
#     4  11  21  35  53  83 112 139 184 226 271 328
#
# _framework density 24.016020000000001
#
# number of rings (size 3 to 8) (size 9 to 14) (size 15 to 20)
#    0.000    1.714    4.286    5.571    0.000    0.571 
#    0.000    0.000    0.000    4.286    0.000    0.000 
#    0.000    0.000    0.000    0.000    0.000    0.000 
#
# Total GULP energy -156013.534212 kJ/mol
# GULP energy per Si atom -5571.911936 kJ/mol
# Density = 2.396136 g / cm^3
# Si number density = 24.016020 Si / 1000 Ang^3
#
#
#
# Elastic Constant Matrix: (Units=GPa)
#
#
# Indices 1 2 3 4 5 6 
#
# 1 24.2440 23.3857 32.0659 0.0000 0.8177 0.0000
# 2 23.3857 219.3500 74.6840 0.0000 -28.8891 0.0000
# 3 32.0659 74.6840 79.8821 0.0000 -25.5746 0.0000
# 4 0.0000 0.0000 0.0000 30.2880 0.0000 -7.1737
# 5 0.8177 -28.8891 -25.5746 0.0000 23.9361 0.0000
# 6 0.0000 0.0000 0.0000 -7.1737 0.0000 30.2900
#
#
#
# Elastic Compliance Matrix: (Units=1/GPa)
#
#
# Indices 1 2 3 4 5 6 
#
# 1 0.285145 0.005955 -0.183677 0.000000 -0.198804 0.000000
# 2 0.005955 0.006883 -0.009471 0.000000 -0.002015 0.000000
# 3 -0.183677 -0.009471 0.142041 0.000000 0.146608 0.000000
# 4 0.000000 0.000000 0.000000 0.034978 0.000000 0.008284
# 5 -0.198804 -0.002015 0.146608 0.000000 0.202781 0.000000
# 6 0.000000 0.000000 0.000000 0.008284 0.000000 0.034976
#
#
# Mechanical properties :
#
#
# Convention : Reuss Voigt Hill
#
# Bulk Modulus (GPa) = 16.75504 64.86082 40.80793
# Shear Modulus (GPa) = 4.54098 29.79219 17.16659
#
# Velocity S-wave (km/s) = 1.37656 3.52591 2.67647
# Velocity P-wave (km/s) = 3.08518 6.60621 5.15560
#
# Compressibility (1/GPa) = 0.05968355
#
# Stress axis : x y z
#
# Youngs Moduli (GPa) = 3.50699 145.27908 7.04024
#
# Poissons Ratio (x) = -0.86508 1.29313
# Poissons Ratio (y) = -0.02088 0.06668
# Poissons Ratio (z) = 0.64415 1.37589
#
# Static dielectric constant tensor:
#      x y z
#    x 2.164900 0.000000 0.013140 
#    y 0.000000 1.969860 0.000000 
#    z 0.013140 0.000000 1.985230 
# 
# From -- ./inp_files/270356.got.cif
#   From: 2010.05.17/outbox.cif.g08.bks.cpg/sg15_136_cif.got.tgz:270356.got - 2010.06.03 18:47:42.
