data_PCOD9254208
_publ_section_title
;
Structure prediction by ZEFSAII (Michael W. Deem and Ramdas Pophale) SiO2 
 PCOD9254208
Probable space group: C 2/C
;
_chemical_formula_sum "Si O2"
_cell_formula_units_Z 52
_cell_length_a 13.760182
_cell_length_b 12.814014
_cell_length_c 14.289910
_cell_angle_alpha 90.000000
_cell_angle_beta 119.340865
_cell_angle_gamma 90.000000
_cell_volume 2196.422483
_symmetry_space_group_name_H-M "C 2/C"
_symmetry_group_IT_number 15
_symmetry_cell_setting 'monoclinic'
loop_
_space_group_symop_operation_xyz
x,y,z
-x,y,1/2-z
-x,-y,-z
x,-y,1/2+z
1/2+x,1/2+y,z
1/2-x,1/2+y,1/2-z
1/2-x,1/2-y,-z
1/2+x,1/2-y,1/2+z
loop_
_atom_site_type_symbol
_atom_site_label
_atom_site_fract_x
_atom_site_fract_y
_atom_site_fract_z
Si Si1 0.000000 0.854274 0.750000
Si Si2 0.313181 0.478378 0.210668
Si Si3 0.500000 0.971174 0.250000
Si Si4 0.553789 0.328269 0.475224
Si Si5 0.147837 0.533389 0.980354
Si Si6 0.967381 0.312503 0.382698
Si Si7 0.836230 0.046261 0.935033
Si Si8 0.500000 0.688471 0.750000
O O1 0.106984 0.924467 0.778501
O O2 0.020823 0.779260 0.846470
O O3 0.293080 0.484442 0.311677
O O4 0.392720 0.381046 0.226969
O O5 0.205040 0.477250 0.094044
O O6 0.422008 0.025119 0.135727
O O7 0.571802 0.892883 0.216452
O O8 0.604349 0.248995 0.575174
O O9 0.620980 0.437154 0.498107
O O10 0.436693 0.374271 0.460352
O O11 0.534781 0.269599 0.368220
O O12 0.061621 0.619046 0.978077
O O13 0.244938 0.586639 0.964257
#
# Coordination Sequence:
#
# PCOD9254208 Si02
#       8
#     4   8   4   8   8   8   8   4
#     4  10  16  28  44  76 110 135 171 224 273 325
#     4  10  18  28  49  77 106 141 176 221 280 328
#     4   7  20  35  50  74 107 136 189 232 259 316
#     4  10  17  31  45  79 111 146 169 232 279 331
#     4  10  19  35  50  77 106 149 184 229 268 330
#     4   9  18  32  49  72 111 140 183 225 273 318
#     4  10  19  28  49  77 112 140 184 220 283 327
#     4   9  18  29  48  76 113 137 174 224 276 335
#
# _framework density 23.674862999999998
#
# number of rings (size 3 to 8) (size 9 to 14) (size 15 to 20)
#    0.923    1.538    3.077    0.923    0.000    2.462 
#    0.000    0.769    0.000    0.000    4.000    3.231 
#    0.000    0.000    0.000    0.000    0.000    0.000 
#
# Total GULP energy -144752.519475 kJ/mol
# GULP energy per Si atom -5567.404595 kJ/mol
# Density = 2.362098 g / cm^3
# Si number density = 23.674863 Si / 1000 Ang^3
#
#
#
# Elastic Constant Matrix: (Units=GPa)
#
#
# Indices 1 2 3 4 5 6 
#
# 1 26.3796 9.8893 -0.4804 0.0000 -1.9878 0.0000
# 2 9.8893 60.0234 18.6960 0.0000 2.9287 0.0000
# 3 -0.4804 18.6960 164.0782 0.0000 -14.1490 0.0000
# 4 0.0000 0.0000 0.0000 7.1206 0.0000 -7.1334
# 5 -1.9878 2.9287 -14.1490 0.0000 38.2156 0.0000
# 6 0.0000 0.0000 0.0000 -7.1334 0.0000 9.0690
#
#
#
# Elastic Compliance Matrix: (Units=1/GPa)
#
#
# Indices 1 2 3 4 5 6 
#
# 1 0.040892 -0.007270 0.001218 0.000000 0.003135 0.000000
# 2 -0.007270 0.018734 -0.002389 0.000000 -0.002698 0.000000
# 3 0.001218 -0.002389 0.006602 0.000000 0.002691 0.000000
# 4 0.000000 0.000000 0.000000 0.662453 0.000000 0.521071
# 5 0.003135 -0.002698 0.002691 0.000000 0.027534 0.000000
# 6 0.000000 0.000000 0.000000 0.521071 0.000000 0.520130
#
#
# Mechanical properties :
#
#
# Convention : Reuss Voigt Hill
#
# Bulk Modulus (GPa) = 20.26418 34.07677 27.17048
# Shear Modulus (GPa) = 3.81775 25.70609 14.76192
#
# Velocity S-wave (km/s) = 1.27125 3.29872 2.49976
# Velocity P-wave (km/s) = 3.27608 5.37900 4.45344
#
# Compressibility (1/GPa) = 0.04934815
#
# Stress axis : x y z
#
# Youngs Moduli (GPa) = 24.45471 53.38012 151.45922
#
# Poissons Ratio (x) = 0.38806 -0.18455
# Poissons Ratio (y) = 0.17778 0.36177
# Poissons Ratio (z) = -0.02980 0.12750
#
# Static dielectric constant tensor:
#      x y z
#    x 1.960810 0.000000 0.055630 
#    y 0.000000 1.882150 0.000000 
#    z 0.055630 0.000000 1.976510 
# 
# From -- ./inp_files/154643.got.cif
#   From: 2010.05.17/outbox.cif.g08.bks.cpg/sg15_78_cif.got.tgz:154643.got - 2010.06.03 18:47:42.
