data_PCOD9254252
_publ_section_title
;
Structure prediction by ZEFSAII (Michael W. Deem and Ramdas Pophale) SiO2 
 PCOD9254252
Probable space group: C 2/C
;
_chemical_formula_sum "Si O2"
_cell_formula_units_Z 60
_cell_length_a 20.873746
_cell_length_b 12.739446
_cell_length_c 17.735004
_cell_angle_alpha 90.000000
_cell_angle_beta 139.921077
_cell_angle_gamma 90.000000
_cell_volume 3036.418761
_symmetry_space_group_name_H-M "C 2/C"
_symmetry_group_IT_number 15
_symmetry_cell_setting 'monoclinic'
loop_
_space_group_symop_operation_xyz
x,y,z
-x,y,1/2-z
-x,-y,-z
x,-y,1/2+z
1/2+x,1/2+y,z
1/2-x,1/2+y,1/2-z
1/2-x,1/2-y,-z
1/2+x,1/2-y,1/2+z
loop_
_atom_site_type_symbol
_atom_site_label
_atom_site_fract_x
_atom_site_fract_y
_atom_site_fract_z
Si Si1 0.569403 0.194063 0.084527
Si Si2 0.782771 0.569313 0.172575
Si Si3 0.900865 0.603533 0.128905
Si Si4 0.253033 0.659476 0.794963
Si Si5 0.500000 0.278895 0.750000
Si Si6 0.917615 0.394687 0.059904
Si Si7 0.292430 0.310487 0.611552
Si Si8 0.854798 0.735386 0.950551
O O1 0.637065 0.125726 0.201156
O O2 0.637166 0.290327 0.115323
O O3 0.543365 0.123032 0.988717
O O4 0.471006 0.233584 0.036020
O O5 0.832047 0.562198 0.134453
O O6 0.752169 0.457945 0.179120
O O7 0.690637 0.649071 0.086970
O O8 0.943179 0.504632 0.120070
O O9 0.000000 0.659268 0.250000
O O10 0.841873 0.676470 0.018080
O O11 0.200985 0.731858 0.811727
O O12 0.199907 0.674206 0.666831
O O13 0.539854 0.200101 0.850945
O O14 0.404343 0.343897 0.692003
O O15 0.796509 0.389951 0.948876
O O16 0.250000 0.250000 0.500000
#
# Coordination Sequence:
#
# PCOD9254252 Si02
#       8
#     8   8   8   8   4   8   8   8
#     4  10  22  39  60  91 121 154 199 248 300 357
#     4  11  23  41  61  87 120 158 201 247 297 357
#     4  12  23  38  63  88 116 158 204 249 299 351
#     4  10  22  39  61  90 124 157 199 245 305 359
#     4  10  16  28  50  80 116 160 188 228 292 358
#     4  10  20  33  55  87 119 149 196 247 295 349
#     4   9  18  31  51  84 122 157 191 237 290 355
#     4  11  24  40  62  89 121 158 201 253 294 352
#
# _framework density 19.760120000000001
#
# number of rings (size 3 to 8) (size 9 to 14) (size 15 to 20)
#    0.000    1.600    2.000    3.600    1.867    1.600 
#    0.000    0.000    0.000    9.600   15.600    0.000 
#    0.000    0.000    0.000    0.000    0.000    0.000 
#
# Total GULP energy -167591.125177 kJ/mol
# GULP energy per Si atom -5586.370839 kJ/mol
# Density = 1.971515 g / cm^3
# Si number density = 19.760120 Si / 1000 Ang^3
#
#
#
# Elastic Constant Matrix: (Units=GPa)
#
#
# Indices 1 2 3 4 5 6 
#
# 1 89.6984 38.0632 28.2187 0.0000 3.7671 0.0000
# 2 38.0632 72.5202 25.8919 0.0000 -8.0872 0.0000
# 3 28.2187 25.8919 73.6288 0.0000 -18.5049 0.0000
# 4 0.0000 0.0000 0.0000 14.4622 0.0000 -7.5957
# 5 3.7671 -8.0872 -18.5049 0.0000 36.6247 0.0000
# 6 0.0000 0.0000 0.0000 -7.5957 0.0000 19.0530
#
#
#
# Elastic Compliance Matrix: (Units=1/GPa)
#
#
# Indices 1 2 3 4 5 6 
#
# 1 0.016074 -0.007278 -0.005064 0.000000 -0.005819 0.000000
# 2 -0.007278 0.019084 -0.003063 0.000000 0.003415 0.000000
# 3 -0.005064 -0.003063 0.018969 0.000000 0.009429 0.000000
# 4 0.000000 0.000000 0.000000 0.087458 0.000000 0.034866
# 5 -0.005819 0.003415 0.009429 0.000000 0.033420 0.000000
# 6 0.000000 0.000000 0.000000 0.034866 0.000000 0.066385
#
#
# Mechanical properties :
#
#
# Convention : Reuss Voigt Hill
#
# Bulk Modulus (GPa) = 42.88647 46.68833 44.78740
# Shear Modulus (GPa) = 17.85892 23.60621 20.73256
#
# Velocity S-wave (km/s) = 3.00956 3.46010 3.24267
# Velocity P-wave (km/s) = 5.81612 6.29619 6.06091
#
# Compressibility (1/GPa) = 0.02331738
#
# Stress axis : x y z
#
# Youngs Moduli (GPa) = 62.21171 52.40097 52.71673
#
# Poissons Ratio (x) = 0.38136 0.26694
# Poissons Ratio (y) = 0.45276 0.16149
# Poissons Ratio (z) = 0.31502 0.16053
#
# Static dielectric constant tensor:
#      x y z
#    x 1.708890 0.000000 -0.000100 
#    y 0.000000 1.662730 0.000000 
#    z -0.000100 0.000000 1.782590 
# 
# From -- ./inp_files/215206.got.cif
#   From: 2010.05.17/outbox.cif.g08.bks.cpg/sg15_108_cif.got.tgz:215206.got - 2010.06.03 18:47:42.
