data_PCOD9254500
_publ_section_title
;
Structure prediction by ZEFSAII (Michael W. Deem and Ramdas Pophale) SiO2 
 PCOD9254500
Probable space group: C 2/C
;
_chemical_formula_sum "Si O2"
_cell_formula_units_Z 48
_cell_length_a 22.854208
_cell_length_b 25.969987
_cell_length_c 9.137758
_cell_angle_alpha 90.000000
_cell_angle_beta 30.947282
_cell_angle_gamma 90.000000
_cell_volume 2789.017015
_symmetry_space_group_name_H-M "C 2/C"
_symmetry_group_IT_number 15
_symmetry_cell_setting 'monoclinic'
loop_
_space_group_symop_operation_xyz
x,y,z
-x,y,1/2-z
-x,-y,-z
x,-y,1/2+z
1/2+x,1/2+y,z
1/2-x,1/2+y,1/2-z
1/2-x,1/2-y,-z
1/2+x,1/2-y,1/2+z
loop_
_atom_site_type_symbol
_atom_site_label
_atom_site_fract_x
_atom_site_fract_y
_atom_site_fract_z
Si Si1 0.000000 0.242501 0.750000
Si Si2 0.188358 0.122838 0.091176
Si Si3 0.868429 0.089558 0.591814
Si Si4 0.060303 0.173312 0.864672
Si Si5 0.000000 0.752345 0.750000
Si Si6 0.914550 0.021460 0.059929
Si Si7 0.649934 0.209410 0.680243
O O1 0.082239 0.204757 0.669369
O O2 0.061251 0.277828 0.499511
O O3 0.202320 0.114780 0.886885
O O4 0.161480 0.067593 0.218738
O O5 0.071887 0.155562 0.362939
O O6 0.292968 0.153815 0.931971
O O7 0.869206 0.122941 0.738629
O O8 0.000000 0.091549 0.250000
O O9 0.845367 0.029226 0.660039
O O10 0.065063 0.211094 0.994351
O O11 0.911871 0.720646 0.840428
O O12 0.000000 0.040146 0.750000
O O13 0.000000 0.000000 0.000000
O O14 0.750000 0.250000 0.500000
#
# Coordination Sequence:
#
# PCOD9254500 Si02
#       7
#     4   8   8   8   4   8   8
#     4  10  22  32  54  83 107 152 198 226 270 334
#     4  11  19  32  54  76 110 153 177 217 284 341
#     4   9  16  30  48  77 113 146 165 220 287 339
#     4  10  16  31  52  74 110 148 176 220 280 327
#     4  10  18  34  56  77 113 152 188 230 272 318
#     4  11  19  30  52  82 119 142 172 221 291 355
#     4  11  21  38  57  78 113 154 193 235 279 333
#
# _framework density 17.210364999999999
#
# number of rings (size 3 to 8) (size 9 to 14) (size 15 to 20)
#    0.000    1.667   10.833    0.000    1.167    0.000 
#    0.000    7.500    0.000    0.000    0.000    3.500 
#    0.000    0.000    0.000    0.000    0.000    0.000 
#
# Total GULP energy -133768.905994 kJ/mol
# GULP energy per Si atom -5573.704416 kJ/mol
# Density = 1.717119 g / cm^3
# Si number density = 17.210365 Si / 1000 Ang^3
#
#
#
# Elastic Constant Matrix: (Units=GPa)
#
#
# Indices 1 2 3 4 5 6 
#
# 1 111.1431 54.2674 24.2681 0.0003 7.0041 -0.0002
# 2 54.2674 113.1022 21.3819 0.0001 -3.8771 -0.0001
# 3 24.2681 21.3819 25.8052 0.0006 6.0169 -0.0001
# 4 0.0003 0.0001 0.0006 21.9185 -0.0003 -1.4512
# 5 7.0041 -3.8771 6.0169 -0.0003 21.4847 0.0001
# 6 -0.0002 -0.0001 -0.0001 -1.4512 0.0001 29.7535
#
#
#
# Elastic Compliance Matrix: (Units=1/GPa)
#
#
# Indices 1 2 3 4 5 6 
#
# 1 0.013329 -0.005064 -0.007609 0.000000 -0.003128 0.000000
# 2 -0.005064 0.012856 -0.007292 0.000000 0.006013 0.000000
# 3 -0.007609 -0.007292 0.055289 -0.000002 -0.014319 0.000000
# 4 0.000000 0.000000 -0.000002 0.045771 0.000001 0.002232
# 5 -0.003128 0.006013 -0.014319 0.000001 0.052660 0.000000
# 6 0.000000 0.000000 0.000000 0.002232 0.000000 0.033718
#
#
# Mechanical properties :
#
#
# Convention : Reuss Voigt Hill
#
# Bulk Modulus (GPa) = 24.07170 49.98728 37.02949
# Shear Modulus (GPa) = 18.69851 24.64022 21.66936
#
# Velocity S-wave (km/s) = 3.29974 3.78790 3.55221
# Velocity P-wave (km/s) = 5.34180 6.94542 6.19571
#
# Compressibility (1/GPa) = 0.04154256
#
# Stress axis : x y z
#
# Youngs Moduli (GPa) = 75.02696 77.78522 18.08681
#
# Poissons Ratio (x) = 0.39389 0.13763
# Poissons Ratio (y) = 0.37992 0.13189
# Poissons Ratio (z) = 0.57092 0.56722
#
# Static dielectric constant tensor:
#      x y z
#    x 1.634300 0.000000 0.030590 
#    y 0.000000 1.643740 0.000000 
#    z 0.030590 0.000000 1.597420 
# 
# From -- ./inp_files/58882.got.cif
#   From: 2010.05.17/outbox.cif.g08.bks.cpg/sg15_30_cif.got.tgz:58882.got - 2010.06.03 18:47:42.
