data_PCOD9254129
_publ_section_title
;
Structure prediction by ZEFSAII (Michael W. Deem and Ramdas Pophale) SiO2 
 PCOD9254129
Probable space group: C 2/C
;
_chemical_formula_sum "Si O2"
_cell_formula_units_Z 40
_cell_length_a 8.491685
_cell_length_b 24.180401
_cell_length_c 14.998617
_cell_angle_alpha 90.000000
_cell_angle_beta 27.496523
_cell_angle_gamma 90.000000
_cell_volume 1421.882005
_symmetry_space_group_name_H-M "C 2/C"
_symmetry_group_IT_number 15
_symmetry_cell_setting 'monoclinic'
loop_
_space_group_symop_operation_xyz
x,y,z
-x,y,1/2-z
-x,-y,-z
x,-y,1/2+z
1/2+x,1/2+y,z
1/2-x,1/2+y,1/2-z
1/2-x,1/2-y,-z
1/2+x,1/2-y,1/2+z
loop_
_atom_site_type_symbol
_atom_site_label
_atom_site_fract_x
_atom_site_fract_y
_atom_site_fract_z
Si Si1 0.350192 0.137096 0.655787
Si Si2 0.879837 0.164669 0.155947
Si Si3 0.157759 0.768707 0.360935
Si Si4 0.828282 0.436072 0.651267
Si Si5 0.775539 0.963241 0.178744
O O1 0.736402 0.152836 0.497081
O O2 0.178965 0.196077 0.758993
O O3 0.415737 0.100401 0.535966
O O4 0.121765 0.093552 0.827314
O O5 0.664593 0.204748 0.330034
O O6 0.737705 0.103198 0.230495
O O7 0.903222 0.198207 0.052690
O O8 0.500000 0.772403 0.250000
O O9 0.500000 0.442247 0.750000
O O10 0.888466 0.496281 0.663460
O O11 0.500000 0.940300 0.250000
O O12 0.000000 0.000000 0.000000
#
# Coordination Sequence:
#
# PCOD9254129 Si02
#       5
#     8   8   8   8   8
#     4  10  19  32  50  78 113 150 191 242 294 347
#     4  10  18  30  51  83 121 155 190 240 300 356
#     4  10  16  26  46  77 115 151 183 235 300 351
#     4  10  20  36  56  83 117 156 196 242 292 351
#     4  12  24  40  60  85 117 158 202 249 298 353
#
# _framework density 28.131732
#
# number of rings (size 3 to 8) (size 9 to 14) (size 15 to 20)
#    0.000    1.600    0.000   11.400    0.000    0.000 
#    0.000    0.000    0.000    0.000    0.000   14.000 
#    0.000    0.000    0.000    1.200    0.000    0.000 
#
# Total GULP energy -111661.941455 kJ/mol
# GULP energy per Si atom -5583.097073 kJ/mol
# Density = 2.806770 g / cm^3
# Si number density = 28.131732 Si / 1000 Ang^3
#
#
#
# Elastic Constant Matrix: (Units=GPa)
#
#
# Indices 1 2 3 4 5 6 
#
# 1 125.2177 26.6768 28.3860 -0.0005 2.9207 0.0001
# 2 26.6768 222.7300 30.8355 0.0001 21.4349 -0.0002
# 3 28.3860 30.8355 84.6245 -0.0003 16.3083 -0.0002
# 4 -0.0005 0.0001 -0.0003 46.7185 0.0004 22.7175
# 5 2.9207 21.4349 16.3083 0.0004 28.4620 0.0001
# 6 0.0001 -0.0002 -0.0002 22.7175 0.0001 27.7855
#
#
#
# Elastic Compliance Matrix: (Units=1/GPa)
#
#
# Indices 1 2 3 4 5 6 
#
# 1 0.008783 -0.000778 -0.002925 0.000000 0.001361 0.000000
# 2 -0.000778 0.005019 -0.000961 0.000000 -0.003149 0.000000
# 3 -0.002925 -0.000961 0.014558 0.000000 -0.007318 0.000000
# 4 0.000000 0.000000 0.000000 0.035531 0.000000 -0.029050
# 5 0.001361 -0.003149 -0.007318 0.000000 0.041560 0.000000
# 6 0.000000 0.000000 0.000000 -0.029050 0.000000 0.059741
#
#
# Mechanical properties :
#
#
# Convention : Reuss Voigt Hill
#
# Bulk Modulus (GPa) = 52.54022 67.15211 59.84616
# Shear Modulus (GPa) = 27.64497 43.70478 35.67488
#
# Velocity S-wave (km/s) = 3.13820 3.94582 3.56495
# Velocity P-wave (km/s) = 5.64341 6.68444 6.18586
#
# Compressibility (1/GPa) = 0.01903304
#
# Stress axis : x y z
#
# Youngs Moduli (GPa) = 113.85435 199.24090 68.68863
#
# Poissons Ratio (x) = 0.15500 0.20091
# Poissons Ratio (y) = 0.08858 0.06601
# Poissons Ratio (z) = 0.33301 0.19146
#
# Static dielectric constant tensor:
#      x y z
#    x 2.552660 0.000000 -0.382910 
#    y 0.000000 2.035000 0.000000 
#    z -0.382910 0.000000 2.727630 
# 
# From -- ./inp_files/107570.got.cif
#   From: 2010.05.17/outbox.cif.g08.bks.cpg/sg15_54_cif.got.tgz:107570.got - 2010.06.03 18:47:42.
