data_PCOD9254000
_publ_section_title
;
Structure prediction by ZEFSAII (Michael W. Deem and Ramdas Pophale) SiO2 
 PCOD9254000
Probable space group: C 2/C
;
_chemical_formula_sum "Si O2"
_cell_formula_units_Z 64
_cell_length_a 16.816714
_cell_length_b 12.480748
_cell_length_c 19.803711
_cell_angle_alpha 90.000000
_cell_angle_beta 37.409268
_cell_angle_gamma 90.000000
_cell_volume 2525.094949
_symmetry_space_group_name_H-M "C 2/C"
_symmetry_group_IT_number 15
_symmetry_cell_setting 'monoclinic'
loop_
_space_group_symop_operation_xyz
x,y,z
-x,y,1/2-z
-x,-y,-z
x,-y,1/2+z
1/2+x,1/2+y,z
1/2-x,1/2+y,1/2-z
1/2-x,1/2-y,-z
1/2+x,1/2-y,1/2+z
loop_
_atom_site_type_symbol
_atom_site_label
_atom_site_fract_x
_atom_site_fract_y
_atom_site_fract_z
Si Si1 0.757680 0.889857 0.929171
Si Si2 0.230932 0.855728 0.289415
Si Si3 0.348971 0.847322 0.355906
Si Si4 0.425089 0.851499 0.925979
Si Si5 0.548560 0.645951 0.514334
Si Si6 0.305479 0.821674 0.789353
Si Si7 0.654351 0.615868 0.645837
Si Si8 0.485328 0.861080 0.035664
O O1 0.840431 0.781373 0.871291
O O2 0.831328 0.990562 0.847132
O O3 0.720376 0.900911 0.033294
O O4 0.619979 0.878679 0.982986
O O5 0.273437 0.862572 0.337387
O O6 0.088092 0.911401 0.378249
O O7 0.209385 0.731626 0.275806
O O8 0.356814 0.896038 0.163460
O O9 0.500000 0.879933 0.250000
O O10 0.431291 0.722969 0.934364
O O11 0.552843 0.873966 0.796089
O O12 0.462970 0.901626 0.973992
O O13 0.276043 0.877155 0.009655
O O14 0.688532 0.604573 0.395534
O O15 0.519754 0.731857 0.473650
O O16 0.298488 0.711006 0.836598
O O17 0.500000 0.634993 0.750000
#
# Coordination Sequence:
#
# PCOD9254000 Si02
#       8
#     8   8   8   8   8   8   8   8
#     4  11  22  34  52  89 123 159 201 240 296 348
#     4  10  15  31  54  87 110 152 195 247 281 351
#     4  11  21  33  56  81 120 166 206 231 288 363
#     4   8  17  34  58  87 108 149 192 246 295 357
#     4   7  14  26  50  85 112 135 186 249 275 332
#     4   9  17  35  61  83 112 148 194 251 303 354
#     4  11  23  38  56  87 123 153 191 256 300 351
#     4   9  16  30  52  88 111 148 196 242 281 355
#
# _framework density 25.345582
#
# number of rings (size 3 to 8) (size 9 to 14) (size 15 to 20)
#    0.750    1.750    3.750    0.375    0.000    1.000 
#    0.000    1.250    0.000    6.000    0.000    0.000 
#    0.000    0.000    0.000    0.000    0.000    0.000 
#
# Total GULP energy -178328.109015 kJ/mol
# GULP energy per Si atom -5572.753407 kJ/mol
# Density = 2.528789 g / cm^3
# Si number density = 25.345582 Si / 1000 Ang^3
#
#
#
# Elastic Constant Matrix: (Units=GPa)
#
#
# Indices 1 2 3 4 5 6 
#
# 1 58.3336 24.0453 37.6093 0.0000 -11.5087 0.0000
# 2 24.0453 72.2912 14.7478 0.0000 9.1467 0.0000
# 3 37.6093 14.7478 193.9288 0.0000 -30.1975 0.0000
# 4 0.0000 0.0000 0.0000 19.6062 0.0000 -11.8346
# 5 -11.5087 9.1467 -30.1975 0.0000 41.7172 0.0000
# 6 0.0000 0.0000 0.0000 -11.8346 0.0000 5.0816
#
#
#
# Elastic Compliance Matrix: (Units=1/GPa)
#
#
# Indices 1 2 3 4 5 6 
#
# 1 0.023584 -0.007997 -0.003020 0.000000 0.006074 0.000000
# 2 -0.007997 0.017498 -0.000812 0.000000 -0.006631 0.000000
# 3 -0.003020 -0.000812 0.006426 0.000000 0.003997 0.000000
# 4 0.000000 0.000000 0.000000 -0.125699 0.000000 -0.292742
# 5 0.006074 -0.006631 0.003997 0.000000 0.029993 0.000000
# 6 0.000000 0.000000 0.000000 -0.292742 0.000000 -0.484979
#
#
# Mechanical properties :
#
#
# Convention : Reuss Voigt Hill
#
# Bulk Modulus (GPa) = 41.92867 53.03982 47.48425
# Shear Modulus (GPa) = -9.96872 29.82442 9.92785
#
# Velocity S-wave (km/s) = -1.98536 3.43404 1.98129
# Velocity P-wave (km/s) = 3.36499 6.05769 4.89994
#
# Compressibility (1/GPa) = 0.02385003
#
# Stress axis : x y z
#
# Youngs Moduli (GPa) = 42.40078 57.15094 155.61039
#
# Poissons Ratio (x) = 0.45704 0.46993
# Poissons Ratio (y) = 0.33908 0.12639
# Poissons Ratio (z) = 0.12805 0.04642
#
# Static dielectric constant tensor:
#      x y z
#    x 2.026710 0.000000 0.027240 
#    y 0.000000 2.091210 0.000000 
#    z 0.027240 0.000000 2.049560 
# 
# From -- ./inp_files/300831.got.cif
#   From: 2010.05.17/outbox.cif.g08.bks.cpg/sg15_151_cif.got.tgz:300831.got - 2010.06.03 18:47:42.
