data_PCOD9254034
_publ_section_title
;
Structure prediction by ZEFSAII (Michael W. Deem and Ramdas Pophale) SiO2 
 PCOD9254034
Probable space group: C 2/C
;
_chemical_formula_sum "Si O2"
_cell_formula_units_Z 48
_cell_length_a 19.095471
_cell_length_b 6.794067
_cell_length_c 15.559737
_cell_angle_alpha 90.000000
_cell_angle_beta 124.726379
_cell_angle_gamma 90.000000
_cell_volume 1659.097260
_symmetry_space_group_name_H-M "C 2/C"
_symmetry_group_IT_number 15
_symmetry_cell_setting 'monoclinic'
loop_
_space_group_symop_operation_xyz
x,y,z
-x,y,1/2-z
-x,-y,-z
x,-y,1/2+z
1/2+x,1/2+y,z
1/2-x,1/2+y,1/2-z
1/2-x,1/2-y,-z
1/2+x,1/2-y,1/2+z
loop_
_atom_site_type_symbol
_atom_site_label
_atom_site_fract_x
_atom_site_fract_y
_atom_site_fract_z
Si Si1 0.292177 0.576669 0.685146
Si Si2 0.621134 0.511811 0.936424
Si Si3 0.286491 0.965089 0.134728
Si Si4 0.959523 0.506617 0.818474
Si Si5 0.047045 0.057588 0.620709
Si Si6 0.630700 0.975971 0.992758
O O1 0.339360 0.509227 0.630557
O O2 0.282043 0.809564 0.663762
O O3 0.353406 0.507273 0.803413
O O4 0.196815 0.494649 0.615756
O O5 0.688695 0.403542 0.046585
O O6 0.521780 0.459554 0.862924
O O7 0.620642 0.739782 0.969256
O O8 0.367598 0.888752 0.246975
O O9 0.325581 0.960567 0.065878
O O10 0.946612 0.283967 0.843610
O O11 0.000000 0.495082 0.750000
O O12 0.037902 0.571672 0.934051
O O13 0.000000 0.000000 0.500000
#
# Coordination Sequence:
#
# PCOD9254034 Si02
#       6
#     8   8   8   8   8   8
#     4   8  12  19  28  38  53  76  98 115 135 164
#     4   8  12  19  28  38  53  76  98 115 135 164
#     4   7  10  16  29  44  54  66  90 117 143 168
#     4   8  12  20  32  46  61  75  90 115 144 171
#     4  10  16  18  22  36  60  87 102 109 126 161
#     4   7  10  16  29  44  54  66  90 117 143 168
#
# _framework density 28.931397
#
# number of rings (size 3 to 8) (size 9 to 14) (size 15 to 20)
#    0.000    4.000    0.000    5.500    0.000    0.000 
#    0.000    0.000    0.000    0.000    0.000    1.167 
#    0.000    0.000    0.000  216.000    0.000    0.000 
#
# Total GULP energy -133963.310463 kJ/mol
# GULP energy per Si atom -5581.804603 kJ/mol
# Density = 2.886555 g / cm^3
# Si number density = 28.931397 Si / 1000 Ang^3
#
#
#
# Elastic Constant Matrix: (Units=GPa)
#
#
# Indices 1 2 3 4 5 6 
#
# 1 57.6768 -4.9386 81.8310 0.0000 -3.3107 0.0000
# 2 -4.9386 137.1646 2.4902 0.0000 -4.4946 0.0001
# 3 81.8310 2.4902 242.6537 0.0000 69.8390 0.0000
# 4 0.0000 0.0000 0.0000 -21.0168 0.0000 -21.7777
# 5 -3.3107 -4.4946 69.8390 0.0000 85.2836 0.0000
# 6 0.0000 0.0001 0.0000 -21.7777 0.0000 -9.5475
#
#
#
# Elastic Compliance Matrix: (Units=1/GPa)
#
#
# Indices 1 2 3 4 5 6 
#
# 1 0.053906 0.003125 -0.024677 0.000000 0.022465 0.000000
# 2 0.003125 0.007495 -0.001674 0.000000 0.001887 0.000000
# 3 -0.024677 -0.001674 0.016697 0.000000 -0.014719 0.000000
# 4 0.000000 0.000000 0.000000 0.034894 0.000000 -0.079594
# 5 0.022465 0.001887 -0.014719 0.000000 0.024751 0.000000
# 6 0.000000 0.000000 0.000000 -0.079594 0.000000 0.076813
#
#
# Mechanical properties :
#
#
# Convention : Reuss Voigt Hill
#
# Bulk Modulus (GPa) = 31.59909 66.25114 48.92512
# Shear Modulus (GPa) = 18.41238 34.81802 26.61520
#
# Velocity S-wave (km/s) = 2.52546 3.47287 3.03634
# Velocity P-wave (km/s) = 4.41019 6.24741 5.40740
#
# Compressibility (1/GPa) = 0.03164648
#
# Stress axis : x y z
#
# Youngs Moduli (GPa) = 18.55068 133.41779 59.89279
#
# Poissons Ratio (x) = -0.41694 1.47797
# Poissons Ratio (y) = -0.05797 0.10026
# Poissons Ratio (z) = 0.45777 0.22333
#
# Static dielectric constant tensor:
#      x y z
#    x 2.340850 0.000000 0.082490 
#    y 0.000000 2.272180 0.000000 
#    z 0.082490 0.000000 2.321700 
# 
# From -- ./inp_files/218898.got.cif
#   From: 2010.05.17/outbox.cif.g08.bks.cpg/sg15_110_cif.got.tgz:218898.got - 2010.06.03 18:47:42.
