data_PCOD9254306
_publ_section_title
;
Structure prediction by ZEFSAII (Michael W. Deem and Ramdas Pophale) SiO2 
 PCOD9254306
Probable space group: C 2/C
;
_chemical_formula_sum "Si O2"
_cell_formula_units_Z 48
_cell_length_a 7.511999
_cell_length_b 25.255350
_cell_length_c 10.170310
_cell_angle_alpha 90.000000
_cell_angle_beta 72.580903
_cell_angle_gamma 90.000000
_cell_volume 1841.007177
_symmetry_space_group_name_H-M "C 2/C"
_symmetry_group_IT_number 15
_symmetry_cell_setting 'monoclinic'
loop_
_space_group_symop_operation_xyz
x,y,z
-x,y,1/2-z
-x,-y,-z
x,-y,1/2+z
1/2+x,1/2+y,z
1/2-x,1/2+y,1/2-z
1/2-x,1/2-y,-z
1/2+x,1/2-y,1/2+z
loop_
_atom_site_type_symbol
_atom_site_label
_atom_site_fract_x
_atom_site_fract_y
_atom_site_fract_z
Si Si1 0.398681 0.854999 0.152024
Si Si2 0.157290 0.538545 0.577542
Si Si3 0.598081 0.798760 0.904207
Si Si4 0.209672 0.522943 0.289114
Si Si5 0.614215 0.322899 0.413056
Si Si6 0.658580 0.633028 0.327491
O O1 0.500000 0.822803 0.250000
O O2 0.200295 0.853726 0.268458
O O3 0.527820 0.908463 0.107973
O O4 0.418195 0.826282 0.009489
O O5 0.282835 0.533498 0.420977
O O6 0.270664 0.526540 0.686132
O O7 0.004416 0.491308 0.624187
O O8 0.565159 0.737225 0.889056
O O9 0.691608 0.824312 0.756078
O O10 0.745652 0.812315 0.991399
O O11 0.245562 0.576239 0.202955
O O12 0.446948 0.355231 0.514936
O O13 0.500000 0.633249 0.250000
#
# Coordination Sequence:
#
# PCOD9254306 Si02
#       6
#     8   8   8   8   8   8
#     4  10  16  29  49  70 105 141 178 219 266 320
#     4  10  20  35  58  79 103 149 198 232 263 324
#     4   9  16  29  46  71 110 146 177 210 276 339
#     4  10  20  35  55  79 108 144 191 233 271 322
#     4   9  18  26  46  76 110 143 169 219 284 339
#     4  10  19  31  49  78 117 142 172 229 285 327
#
# _framework density 26.072683000000001
#
# number of rings (size 3 to 8) (size 9 to 14) (size 15 to 20)
#    0.000    2.333    3.333    1.000    0.000    4.000 
#    0.000    3.333    0.000    0.000    0.000    4.667 
#    0.000    0.333    0.000    0.000    0.000    3.833 
#
# Total GULP energy -133796.432447 kJ/mol
# GULP energy per Si atom -5574.851352 kJ/mol
# Density = 2.601334 g / cm^3
# Si number density = 26.072683 Si / 1000 Ang^3
#
#
#
# Elastic Constant Matrix: (Units=GPa)
#
#
# Indices 1 2 3 4 5 6 
#
# 1 58.4794 14.6802 21.0172 0.0000 -4.5439 0.0000
# 2 14.6802 193.4845 116.8091 0.0000 -23.2694 0.0000
# 3 21.0172 116.8091 275.9486 0.0000 -11.8566 0.0000
# 4 0.0000 0.0000 0.0000 29.9199 0.0000 -8.8402
# 5 -4.5439 -23.2694 -11.8566 0.0000 28.4655 0.0000
# 6 0.0000 0.0000 0.0000 -8.8402 0.0000 0.6104
#
#
#
# Elastic Compliance Matrix: (Units=1/GPa)
#
#
# Indices 1 2 3 4 5 6 
#
# 1 0.017757 -0.000458 -0.001072 0.000000 0.002014 0.000000
# 2 -0.000458 0.007580 -0.002964 0.000000 0.004889 0.000000
# 3 -0.001072 -0.002964 0.004937 0.000000 -0.000538 0.000000
# 4 0.000000 0.000000 0.000000 -0.010192 0.000000 -0.147615
# 5 0.002014 0.004889 -0.000538 0.000000 0.039224 0.000000
# 6 0.000000 0.000000 0.000000 -0.147615 0.000000 -0.499605
#
#
# Mechanical properties :
#
#
# Convention : Reuss Voigt Hill
#
# Bulk Modulus (GPa) = 46.97792 92.54728 69.76260
# Shear Modulus (GPa) = -11.78645 36.82622 12.51989
#
# Velocity S-wave (km/s) = -2.12848 3.76233 2.19371
# Velocity P-wave (km/s) = 3.46650 7.37878 5.76468
#
# Compressibility (1/GPa) = 0.02128660
#
# Stress axis : x y z
#
# Youngs Moduli (GPa) = 56.31662 131.91908 202.55142
#
# Poissons Ratio (x) = 0.06040 0.21715
# Poissons Ratio (y) = 0.02578 0.60033
# Poissons Ratio (z) = 0.06038 0.39099
#
# Static dielectric constant tensor:
#      x y z
#    x 2.519020 0.000000 0.184990 
#    y 0.000000 2.019230 0.000000 
#    z 0.184990 0.000000 2.196730 
# 
# From -- ./inp_files/91692.got.cif
#   From: 2010.05.17/outbox.cif.g08.bks.cpg/sg15_46_cif.got.tgz:91692.got - 2010.06.03 18:47:42.
