data_PCOD9254255
_publ_section_title
;
Structure prediction by ZEFSAII (Michael W. Deem and Ramdas Pophale) SiO2 
 PCOD9254255
Probable space group: C 2/C
;
_chemical_formula_sum "Si O2"
_cell_formula_units_Z 48
_cell_length_a 31.426169
_cell_length_b 8.206706
_cell_length_c 15.275838
_cell_angle_alpha 90.000000
_cell_angle_beta 26.468154
_cell_angle_gamma 90.000000
_cell_volume 1755.934496
_symmetry_space_group_name_H-M "C 2/C"
_symmetry_group_IT_number 15
_symmetry_cell_setting 'monoclinic'
loop_
_space_group_symop_operation_xyz
x,y,z
-x,y,1/2-z
-x,-y,-z
x,-y,1/2+z
1/2+x,1/2+y,z
1/2-x,1/2+y,1/2-z
1/2-x,1/2-y,-z
1/2+x,1/2-y,1/2+z
loop_
_atom_site_type_symbol
_atom_site_label
_atom_site_fract_x
_atom_site_fract_y
_atom_site_fract_z
Si Si1 0.130089 0.733668 0.860006
Si Si2 0.500000 0.751736 0.750000
Si Si3 0.148315 0.371352 0.769097
Si Si4 0.545741 0.302963 0.843909
Si Si5 0.299643 0.814766 0.647985
Si Si6 0.357676 0.968936 0.904653
Si Si7 0.500000 0.651741 0.250000
O O1 0.104432 0.546928 0.882169
O O2 0.108403 0.840952 0.814193
O O3 0.238439 0.714564 0.691611
O O4 0.081397 0.815380 0.035104
O O5 0.439994 0.856256 0.791133
O O6 0.222579 0.324888 0.708591
O O7 0.188275 0.400785 0.598777
O O8 0.059357 0.246603 0.927509
O O9 0.594156 0.138941 0.715633
O O10 0.537936 0.419979 0.773073
O O11 0.295430 0.986793 0.604196
O O12 0.409723 0.757627 0.447726
#
# Coordination Sequence:
#
# PCOD9254255 Si02
#       7
#     8   4   8   8   8   8   4
#     4  11  20  29  54  82 109 134 180 221 263 313
#     4  12  17  32  54  81 100 142 173 226 268 301
#     4  10  17  31  51  75 109 139 170 217 272 306
#     4   9  15  28  49  80 103 133 168 217 268 300
#     4  10  20  32  49  84 109 136 177 222 258 317
#     4  10  16  28  51  73 105 139 167 213 272 304
#     4   8  17  30  50  67 114 136 161 212 268 303
#
# _framework density 27.335872999999999
#
# number of rings (size 3 to 8) (size 9 to 14) (size 15 to 20)
#    0.000    2.000    5.000    3.000    0.000    6.000 
#    0.000    0.833    0.000    1.000    0.000    5.833 
#    0.000    0.000    0.000    0.000    0.000    0.000 
#
# Total GULP energy -133902.726966 kJ/mol
# GULP energy per Si atom -5579.280290 kJ/mol
# Density = 2.727366 g / cm^3
# Si number density = 27.335873 Si / 1000 Ang^3
#
#
#
# Elastic Constant Matrix: (Units=GPa)
#
#
# Indices 1 2 3 4 5 6 
#
# 1 267.6520 6.5194 52.4697 0.0000 27.3694 0.0000
# 2 6.5194 50.1957 6.0637 0.0002 -8.5968 0.0001
# 3 52.4697 6.0637 51.1081 0.0001 9.0270 0.0000
# 4 0.0000 0.0002 0.0001 12.5498 0.0000 -13.8060
# 5 27.3694 -8.5968 9.0270 0.0000 35.3178 0.0000
# 6 0.0000 0.0001 0.0000 -13.8060 0.0000 22.0324
#
#
#
# Elastic Compliance Matrix: (Units=1/GPa)
#
#
# Indices 1 2 3 4 5 6 
#
# 1 0.004916 -0.000577 -0.004483 0.000000 -0.002804 0.000000
# 2 -0.000577 0.021479 -0.003098 -0.000001 0.006467 -0.000001
# 3 -0.004483 -0.003098 0.025193 -0.000001 -0.003719 -0.000001
# 4 0.000000 -0.000001 -0.000001 0.256502 0.000000 0.160730
# 5 -0.002804 0.006467 -0.003719 0.000000 0.033012 0.000000
# 6 0.000000 -0.000001 -0.000001 0.160730 0.000000 0.146105
#
#
# Mechanical properties :
#
#
# Convention : Reuss Voigt Hill
#
# Bulk Modulus (GPa) = 28.35157 55.45126 41.90142
# Shear Modulus (GPa) = 9.70346 34.24022 21.97184
#
# Velocity S-wave (km/s) = 1.88611 3.54301 2.83816
# Velocity P-wave (km/s) = 3.89067 6.08822 5.10900
#
# Compressibility (1/GPa) = 0.03527141
#
# Stress axis : x y z
#
# Youngs Moduli (GPa) = 203.42407 46.55740 39.69307
#
# Poissons Ratio (x) = 0.02687 0.17795
# Poissons Ratio (y) = 0.11741 0.12297
# Poissons Ratio (z) = 0.91196 0.14424
#
# Static dielectric constant tensor:
#      x y z
#    x 2.140890 0.000000 0.007370 
#    y 0.000000 2.287010 0.000000 
#    z 0.007370 0.000000 2.183400 
# 
# From -- ./inp_files/143481.got.cif
#   From: 2010.05.17/outbox.cif.g08.bks.cpg/sg15_72_cif.got.tgz:143481.got - 2010.06.03 18:47:42.
