data_PCOD9254633
_publ_section_title
;
Structure prediction by ZEFSAII (Michael W. Deem and Ramdas Pophale) SiO2 
 PCOD9254633
Probable space group: C 2/C
;
_chemical_formula_sum "Si O2"
_cell_formula_units_Z 52
_cell_length_a 9.029378
_cell_length_b 13.684404
_cell_length_c 18.710441
_cell_angle_alpha 90.000000
_cell_angle_beta 78.140399
_cell_angle_gamma 90.000000
_cell_volume 2262.543726
_symmetry_space_group_name_H-M "C 2/C"
_symmetry_group_IT_number 15
_symmetry_cell_setting 'monoclinic'
loop_
_space_group_symop_operation_xyz
x,y,z
-x,y,1/2-z
-x,-y,-z
x,-y,1/2+z
1/2+x,1/2+y,z
1/2-x,1/2+y,1/2-z
1/2-x,1/2-y,-z
1/2+x,1/2-y,1/2+z
loop_
_atom_site_type_symbol
_atom_site_label
_atom_site_fract_x
_atom_site_fract_y
_atom_site_fract_z
Si Si1 0.500000 0.198003 0.250000
Si Si2 0.557035 0.115007 0.044246
Si Si3 0.316196 0.942536 0.678121
Si Si4 0.520034 0.868117 0.382958
Si Si5 0.811969 0.789545 0.392217
Si Si6 0.278987 0.446261 0.067888
Si Si7 0.087778 0.006998 0.095136
O O1 0.634866 0.125291 0.261762
O O2 0.430046 0.265091 0.317974
O O3 0.402811 0.107488 0.102904
O O4 0.631212 0.219101 0.051121
O O5 0.671108 0.039572 0.069185
O O6 0.522656 0.097217 0.965613
O O7 0.147147 0.951014 0.664487
O O8 0.397104 0.049722 0.674068
O O9 0.641097 0.779822 0.377220
O O10 0.338157 0.864208 0.390006
O O11 0.830813 0.900804 0.415961
O O12 0.412805 0.479411 0.106558
O O13 0.358646 0.433160 0.981477
#
# Coordination Sequence:
#
# PCOD9254633 Si02
#       7
#     4   8   8   8   8   8   8
#     4  10  22  38  56  78 108 166 222 246 284 346
#     4  10  16  32  57  87 116 144 185 241 299 357
#     4   9  17  34  58  79 112 152 196 234 280 350
#     4  10  17  33  59  89 111 149 186 247 294 360
#     4  10  21  34  56  82 117 155 193 242 298 337
#     4  10  18  31  56  92 124 137 185 223 311 377
#     4  10  19  34  56  88 118 153 173 244 295 359
#
# _framework density 22.982982
#
# number of rings (size 3 to 8) (size 9 to 14) (size 15 to 20)
#    0.000    2.154    4.615    1.385    0.000    0.000 
#    0.000   13.077    0.000    9.231    0.000    0.000 
#    0.000    0.000    0.000    0.000    0.000    0.000 
#
# Total GULP energy -144801.392167 kJ/mol
# GULP energy per Si atom -5569.284314 kJ/mol
# Density = 2.293067 g / cm^3
# Si number density = 22.982982 Si / 1000 Ang^3
#
#
#
# Elastic Constant Matrix: (Units=GPa)
#
#
# Indices 1 2 3 4 5 6 
#
# 1 175.1589 0.5939 7.2802 0.0000 12.9529 0.0000
# 2 0.5939 24.9041 1.7157 0.0000 3.2204 0.0000
# 3 7.2802 1.7157 23.4422 0.0000 5.3289 0.0000
# 4 0.0000 0.0000 0.0000 14.0237 0.0000 4.0496
# 5 12.9529 3.2204 5.3289 0.0000 17.3027 0.0000
# 6 0.0000 0.0000 0.0000 4.0496 0.0000 27.8684
#
#
#
# Elastic Compliance Matrix: (Units=1/GPa)
#
#
# Indices 1 2 3 4 5 6 
#
# 1 0.006067 0.000481 -0.000932 0.000000 -0.004345 0.000000
# 2 0.000481 0.041223 -0.001441 0.000000 -0.007589 0.000000
# 3 -0.000932 -0.001441 0.046058 0.000000 -0.013219 0.000000
# 4 0.000000 0.000000 0.000000 0.074431 0.000000 -0.010816
# 5 -0.004345 -0.007589 -0.013219 0.000000 0.066530 0.000000
# 6 0.000000 0.000000 0.000000 -0.010816 0.000000 0.037455
#
#
# Mechanical properties :
#
#
# Convention : Reuss Voigt Hill
#
# Bulk Modulus (GPa) = 11.16513 26.96499 19.06506
# Shear Modulus (GPa) = 16.37176 26.09998 21.23587
#
# Velocity S-wave (km/s) = 2.67187 3.37356 3.04301
# Velocity P-wave (km/s) = 3.79303 5.18966 4.54531
#
# Compressibility (1/GPa) = 0.08956460
#
# Stress axis : x y z
#
# Youngs Moduli (GPa) = 164.81271 24.25819 21.71175
#
# Poissons Ratio (x) = -0.01168 0.02023
# Poissons Ratio (y) = -0.07933 0.03130
# Poissons Ratio (z) = 0.15359 0.03497
#
# Static dielectric constant tensor:
#      x y z
#    x 2.000410 0.000000 -0.032340 
#    y 0.000000 1.897970 0.000000 
#    z -0.032340 0.000000 1.898410 
# 
# From -- ./inp_files/231169.got.cif
#   From: 2010.05.17/outbox.cif.g08.bks.cpg/sg15_116_cif.got.tgz:231169.got - 2010.06.03 18:47:42.
