data_PCOD9254546
_publ_section_title
;
Structure prediction by ZEFSAII (Michael W. Deem and Ramdas Pophale) SiO2 
 PCOD9254546
Probable space group: C 2/C
;
_chemical_formula_sum "Si O2"
_cell_formula_units_Z 40
_cell_length_a 18.760027
_cell_length_b 9.780526
_cell_length_c 10.893446
_cell_angle_alpha 90.000000
_cell_angle_beta 44.112444
_cell_angle_gamma 90.000000
_cell_volume 1391.275354
_symmetry_space_group_name_H-M "C 2/C"
_symmetry_group_IT_number 15
_symmetry_cell_setting 'monoclinic'
loop_
_space_group_symop_operation_xyz
x,y,z
-x,y,1/2-z
-x,-y,-z
x,-y,1/2+z
1/2+x,1/2+y,z
1/2-x,1/2+y,1/2-z
1/2-x,1/2-y,-z
1/2+x,1/2-y,1/2+z
loop_
_atom_site_type_symbol
_atom_site_label
_atom_site_fract_x
_atom_site_fract_y
_atom_site_fract_z
Si Si1 0.895688 0.955122 0.920573
Si Si2 0.674223 0.331915 0.186583
Si Si3 0.958786 0.201098 0.008011
Si Si4 0.871152 0.466104 0.034281
Si Si5 0.662193 0.113139 0.674159
O O1 0.887226 0.072998 0.828531
O O2 0.000000 0.880548 0.750000
O O3 0.917429 0.055375 0.011241
O O4 0.785311 0.883547 0.036945
O O5 0.579557 0.286224 0.389404
O O6 0.755539 0.412710 0.164920
O O7 0.750000 0.250000 0.000000
O O8 0.937482 0.327373 0.940012
O O9 0.887041 0.251831 0.207608
O O10 0.876767 0.498603 0.173767
O O11 0.877155 0.568234 0.911523
#
# Coordination Sequence:
#
# PCOD9254546 Si02
#       5
#     8   8   8   8   8
#     4   9  17  33  59  87 113 162 214 251 294 368
#     4  10  16  31  60  84 117 159 213 251 291 360
#     4   9  19  33  59  92 122 158 213 258 306 359
#     4   9  19  35  61  90 128 156 209 256 316 366
#     4   9  19  36  59  96 125 160 204 264 313 372
#
# _framework density 28.750601
#
# number of rings (size 3 to 8) (size 9 to 14) (size 15 to 20)
#    1.200    1.600    2.000    0.000    0.000    0.000 
#    0.000   14.000    0.000    0.000   15.600    0.000 
#    0.000    0.000    0.000    0.000    0.000    0.000 
#
# Total GULP energy -111541.556904 kJ/mol
# GULP energy per Si atom -5577.077845 kJ/mol
# Density = 2.868516 g / cm^3
# Si number density = 28.750601 Si / 1000 Ang^3
#
#
#
# Elastic Constant Matrix: (Units=GPa)
#
#
# Indices 1 2 3 4 5 6 
#
# 1 90.0854 41.3112 39.8506 0.0000 -1.6468 0.0000
# 2 41.3112 85.4880 65.2531 0.0000 -15.1677 0.0000
# 3 39.8506 65.2531 228.3620 0.0000 -14.9847 0.0000
# 4 0.0000 0.0000 0.0000 27.3385 0.0000 6.8990
# 5 -1.6468 -15.1677 -14.9847 0.0000 82.6401 0.0000
# 6 0.0000 0.0000 0.0000 6.8990 0.0000 52.0729
#
#
#
# Elastic Compliance Matrix: (Units=1/GPa)
#
#
# Indices 1 2 3 4 5 6 
#
# 1 0.014428 -0.006631 -0.000692 0.000000 -0.001055 0.000000
# 2 -0.006631 0.018340 -0.003918 0.000000 0.002524 0.000000
# 3 -0.000692 -0.003918 0.005638 0.000000 0.000289 0.000000
# 4 0.000000 0.000000 0.000000 0.037844 0.000000 -0.005014
# 5 -0.001055 0.002524 0.000289 0.000000 0.012595 0.000000
# 6 0.000000 0.000000 0.000000 -0.005014 0.000000 0.019868
#
#
# Mechanical properties :
#
#
# Convention : Reuss Voigt Hill
#
# Bulk Modulus (GPa) = 62.79663 77.41834 70.10749
# Shear Modulus (GPa) = 36.62873 49.57834 43.10353
#
# Velocity S-wave (km/s) = 3.57321 4.15713 3.87618
# Velocity P-wave (km/s) = 6.23803 7.07307 6.66863
#
# Compressibility (1/GPa) = 0.01592442
#
# Stress axis : x y z
#
# Youngs Moduli (GPa) = 69.30757 54.52493 177.35807
#
# Poissons Ratio (x) = 0.36156 0.12278
# Poissons Ratio (y) = 0.45959 0.69486
# Poissons Ratio (z) = 0.04798 0.21362
#
# Static dielectric constant tensor:
#      x y z
#    x 2.302650 0.000000 0.040530 
#    y 0.000000 2.407250 0.000000 
#    z 0.040530 0.000000 2.447340 
# 
# From -- ./inp_files/111374.got.cif
#   From: 2010.05.17/outbox.cif.g08.bks.cpg/sg15_56_cif.got.tgz:111374.got - 2010.06.03 18:47:42.
