data_PCOD9254142
_publ_section_title
;
Structure prediction by ZEFSAII (Michael W. Deem and Ramdas Pophale) SiO2 
 PCOD9254142
Probable space group: C 2/C
;
_chemical_formula_sum "Si O2"
_cell_formula_units_Z 64
_cell_length_a 11.771328
_cell_length_b 16.528294
_cell_length_c 15.863645
_cell_angle_alpha 90.000000
_cell_angle_beta 78.434431
_cell_angle_gamma 90.000000
_cell_volume 3023.763128
_symmetry_space_group_name_H-M "C 2/C"
_symmetry_group_IT_number 15
_symmetry_cell_setting 'monoclinic'
loop_
_space_group_symop_operation_xyz
x,y,z
-x,y,1/2-z
-x,-y,-z
x,-y,1/2+z
1/2+x,1/2+y,z
1/2-x,1/2+y,1/2-z
1/2-x,1/2-y,-z
1/2+x,1/2-y,1/2+z
loop_
_atom_site_type_symbol
_atom_site_label
_atom_site_fract_x
_atom_site_fract_y
_atom_site_fract_z
Si Si1 0.057268 0.687350 0.033126
Si Si2 0.866151 0.908137 0.070694
Si Si3 0.882473 0.778792 0.309955
Si Si4 0.702681 0.233798 0.413196
Si Si5 0.758786 0.436907 0.955961
Si Si6 0.354704 0.708001 0.133553
Si Si7 0.585963 0.371939 0.636438
Si Si8 0.402845 0.450802 0.361492
O O1 0.103537 0.753438 0.093926
O O2 0.115003 0.602078 0.049320
O O3 0.919012 0.687459 0.060815
O O4 0.099888 0.721976 0.937094
O O5 0.825658 0.823283 0.116262
O O6 0.977720 0.939607 0.104244
O O7 0.766109 0.976122 0.082306
O O8 0.904971 0.889706 0.967556
O O9 0.759574 0.741528 0.303144
O O10 0.884615 0.875345 0.303160
O O11 0.000000 0.745875 0.250000
O O12 0.750000 0.250000 0.500000
O O13 0.803526 0.181724 0.357327
O O14 0.689703 0.368925 0.913817
O O15 0.700191 0.444551 0.055745
O O16 0.465814 0.674894 0.166340
O O17 0.596830 0.459887 0.675904
#
# Coordination Sequence:
#
# PCOD9254142 Si02
#       8
#     8   8   8   8   8   8   8   8
#     4  11  18  32  53  79 112 142 170 223 268 314
#     4  10  16  27  48  80 109 130 170 211 259 313
#     4  11  22  33  54  80 106 135 179 223 270 313
#     4  10  18  30  47  81 113 137 164 215 269 315
#     4  10  16  26  49  81 101 130 173 214 262 300
#     4  11  16  32  54  82 107 133 175 225 266 308
#     4  10  18  28  52  80 108 133 170 211 268 318
#     4  11  16  31  51  76 102 134 175 221 251 308
#
# _framework density 21.165679000000001
#
# number of rings (size 3 to 8) (size 9 to 14) (size 15 to 20)
#    0.000    1.500    8.750    1.500    0.000    0.000 
#    0.000    6.875    2.750    0.000    0.000    0.000 
#    0.000    0.000    0.000    0.000    0.000    0.000 
#
# Total GULP energy -178780.905830 kJ/mol
# GULP energy per Si atom -5586.903307 kJ/mol
# Density = 2.111751 g / cm^3
# Si number density = 21.165679 Si / 1000 Ang^3
#
#
#
# Elastic Constant Matrix: (Units=GPa)
#
#
# Indices 1 2 3 4 5 6 
#
# 1 165.8405 72.0150 35.0726 0.0000 -39.6404 0.0000
# 2 72.0150 123.2798 35.8694 0.0000 -37.1776 0.0000
# 3 35.0726 35.8694 63.4628 0.0000 -17.3166 0.0000
# 4 0.0000 0.0000 0.0000 9.0524 0.0000 -5.2582
# 5 -39.6404 -37.1776 -17.3166 0.0000 41.0385 0.0000
# 6 0.0000 0.0000 0.0000 -5.2582 0.0000 41.0704
#
#
#
# Elastic Compliance Matrix: (Units=1/GPa)
#
#
# Indices 1 2 3 4 5 6 
#
# 1 0.009011 -0.003229 -0.001783 0.000000 0.005026 0.000000
# 2 -0.003229 0.013301 -0.003725 0.000000 0.007359 0.000000
# 3 -0.001783 -0.003725 0.019729 0.000000 0.003228 0.000000
# 4 0.000000 0.000000 0.000000 0.119343 0.000000 0.015279
# 5 0.005026 0.007359 0.003228 0.000000 0.037250 0.000000
# 6 0.000000 0.000000 0.000000 0.015279 0.000000 0.026305
#
#
# Mechanical properties :
#
#
# Convention : Reuss Voigt Hill
#
# Bulk Modulus (GPa) = 40.70787 70.94412 55.82599
# Shear Modulus (GPa) = 19.95199 32.20733 26.07966
#
# Velocity S-wave (km/s) = 3.07360 3.90510 3.51403
# Velocity P-wave (km/s) = 5.64542 7.34332 6.54962
#
# Compressibility (1/GPa) = 0.02456528
#
# Stress axis : x y z
#
# Youngs Moduli (GPa) = 110.98121 75.18237 50.68686
#
# Poissons Ratio (x) = 0.24277 0.09038
# Poissons Ratio (y) = 0.35837 0.18882
# Poissons Ratio (z) = 0.19790 0.28008
#
# Static dielectric constant tensor:
#      x y z
#    x 1.753320 0.000000 0.012510 
#    y 0.000000 1.775720 0.000000 
#    z 0.012510 0.000000 1.827630 
# 
# From -- ./inp_files/239562.got.cif
#   From: 2010.05.17/outbox.cif.g08.bks.cpg/sg15_120_cif.got.tgz:239562.got - 2010.06.03 18:47:42.
