data_PCOD9254299
_publ_section_title
;
Structure prediction by ZEFSAII (Michael W. Deem and Ramdas Pophale) SiO2 
 PCOD9254299
Probable space group: C 2/C
;
_chemical_formula_sum "Si O2"
_cell_formula_units_Z 56
_cell_length_a 9.148065
_cell_length_b 21.818504
_cell_length_c 11.805408
_cell_angle_alpha 90.000000
_cell_angle_beta 88.022673
_cell_angle_gamma 90.000000
_cell_volume 2354.922064
_symmetry_space_group_name_H-M "C 2/C"
_symmetry_group_IT_number 15
_symmetry_cell_setting 'monoclinic'
loop_
_space_group_symop_operation_xyz
x,y,z
-x,y,1/2-z
-x,-y,-z
x,-y,1/2+z
1/2+x,1/2+y,z
1/2-x,1/2+y,1/2-z
1/2-x,1/2-y,-z
1/2+x,1/2-y,1/2+z
loop_
_atom_site_type_symbol
_atom_site_label
_atom_site_fract_x
_atom_site_fract_y
_atom_site_fract_z
Si Si1 0.977659 0.789814 0.940970
Si Si2 0.954183 0.557935 0.130235
Si Si3 0.212379 0.754741 0.737863
Si Si4 0.674327 0.610972 0.527032
Si Si5 0.322021 0.111002 0.768437
Si Si6 0.734711 0.010203 0.538017
Si Si7 0.566159 0.812303 0.605112
O O1 0.094850 0.769028 0.840925
O O2 0.832403 0.793434 0.870881
O O3 0.029326 0.849468 0.007670
O O4 0.982635 0.734839 0.028667
O O5 0.090367 0.533250 0.054491
O O6 0.965810 0.630276 0.134864
O O7 0.000000 0.532333 0.250000
O O8 0.799517 0.540056 0.082641
O O9 0.206757 0.683009 0.705400
O O10 0.359327 0.775683 0.794590
O O11 0.733466 0.600517 0.653108
O O12 0.649096 0.544425 0.469836
O O13 0.798569 0.655169 0.467201
O O14 0.500000 0.105456 0.750000
O O15 0.269738 0.062585 0.866019
#
# Coordination Sequence:
#
# PCOD9254299 Si02
#       7
#     8   8   8   8   8   8   8
#     4  10  16  29  46  74 103 127 165 211 256 296
#     4  10  19  32  45  69 105 132 163 207 252 307
#     4  10  17  26  48  77 100 130 162 210 256 302
#     4  10  18  29  44  70 107 130 161 209 247 302
#     4  12  17  27  46  71 104 132 163 203 253 304
#     4  10  20  28  45  71 100 140 165 194 252 308
#     4  10  17  30  47  73 103 130 164 208 261 300
#
# _framework density 23.779979999999998
#
# number of rings (size 3 to 8) (size 9 to 14) (size 15 to 20)
#    0.000    1.714    4.286    5.571    0.000    0.000 
#    0.000    0.000    0.000    3.429    0.000   40.000 
#   12.857    0.000    0.000    0.000    0.000    0.000 
#
# Total GULP energy -156290.498437 kJ/mol
# GULP energy per Si atom -5581.803516 kJ/mol
# Density = 2.372586 g / cm^3
# Si number density = 23.779980 Si / 1000 Ang^3
#
#
#
# Elastic Constant Matrix: (Units=GPa)
#
#
# Indices 1 2 3 4 5 6 
#
# 1 48.0654 23.9007 32.5963 0.0000 10.7600 0.0000
# 2 23.9007 152.9077 74.4173 0.0000 19.1108 0.0000
# 3 32.5963 74.4173 144.6268 0.0000 40.5151 0.0000
# 4 0.0000 0.0000 0.0000 -378.0335 0.0000 -132.1539
# 5 10.7600 19.1108 40.5151 0.0000 17.3864 0.0000
# 6 0.0000 0.0000 0.0000 -132.1539 0.0000 -25.2189
#
#
#
# Elastic Compliance Matrix: (Units=1/GPa)
#
#
# Indices 1 2 3 4 5 6 
#
# 1 0.025142 -0.001674 -0.002770 0.000000 -0.007265 0.000000
# 2 -0.001674 0.008874 -0.005031 0.000000 0.003004 0.000000
# 3 -0.002770 -0.005031 0.023323 0.000000 -0.047105 0.000000
# 4 0.000000 0.000000 0.000000 0.003180 0.000000 -0.016663
# 5 -0.007265 0.003004 -0.047105 0.000000 0.168479 0.000000
# 6 0.000000 0.000000 0.000000 -0.016663 0.000000 0.047665
#
#
# Mechanical properties :
#
#
# Convention : Reuss Voigt Hill
#
# Bulk Modulus (GPa) = 26.04816 67.49207 46.77011
# Shear Modulus (GPa) = 16.21222 -62.86083 -23.32430
#
# Velocity S-wave (km/s) = 2.61388 -5.14701 -3.13523
# Velocity P-wave (km/s) = 4.48190 2.62275 2.56989
#
# Compressibility (1/GPa) = 0.03839043
#
# Stress axis : x y z
#
# Youngs Moduli (GPa) = 39.77369 112.68437 42.87602
#
# Poissons Ratio (x) = 0.18860 0.11878
# Poissons Ratio (y) = 0.06657 0.21569
# Poissons Ratio (z) = 0.11019 0.56686
#
# Static dielectric constant tensor:
#      x y z
#    x 2.051650 0.000000 -0.126230 
#    y 0.000000 1.919050 0.000000 
#    z -0.126230 0.000000 2.041770 
# 
# From -- ./inp_files/99457.got.cif
#   From: 2010.05.17/outbox.cif.g08.bks.cpg/sg15_50_cif.got.tgz:99457.got - 2010.06.03 18:47:42.
