data_PCOD9254090
_publ_section_title
;
Structure prediction by ZEFSAII (Michael W. Deem and Ramdas Pophale) SiO2 
 PCOD9254090
Probable space group: C 2/C
;
_chemical_formula_sum "Si O2"
_cell_formula_units_Z 56
_cell_length_a 18.601738
_cell_length_b 7.902731
_cell_length_c 16.869981
_cell_angle_alpha 90.000000
_cell_angle_beta 75.936174
_cell_angle_gamma 90.000000
_cell_volume 2405.628305
_symmetry_space_group_name_H-M "C 2/C"
_symmetry_group_IT_number 15
_symmetry_cell_setting 'monoclinic'
loop_
_space_group_symop_operation_xyz
x,y,z
-x,y,1/2-z
-x,-y,-z
x,-y,1/2+z
1/2+x,1/2+y,z
1/2-x,1/2+y,1/2-z
1/2-x,1/2-y,-z
1/2+x,1/2-y,1/2+z
loop_
_atom_site_type_symbol
_atom_site_label
_atom_site_fract_x
_atom_site_fract_y
_atom_site_fract_z
Si Si1 0.797585 0.561763 0.847713
Si Si2 0.244115 0.764258 0.224058
Si Si3 0.397524 0.542017 0.786934
Si Si4 0.501778 0.587878 0.122222
Si Si5 0.193224 0.173329 0.451757
Si Si6 0.450454 0.919340 0.833544
Si Si7 0.477131 0.738075 0.975142
O O1 0.796361 0.414131 0.780202
O O2 0.781364 0.723554 0.799520
O O3 0.728278 0.510578 0.921844
O O4 0.876251 0.528423 0.865952
O O5 0.181696 0.906187 0.225591
O O6 0.299721 0.769100 0.134598
O O7 0.417277 0.434597 0.860045
O O8 0.442190 0.438230 0.707816
O O9 0.429374 0.729208 0.805364
O O10 0.482690 0.423199 0.074184
O O11 0.497658 0.741213 0.062036
O O12 0.250000 0.250000 0.500000
O O13 0.110582 0.194853 0.502998
O O14 0.500000 0.997181 0.750000
O O15 0.488931 0.884385 0.907657
#
# Coordination Sequence:
#
# PCOD9254090 Si02
#       7
#     8   8   8   8   8   8   8
#     4   9  19  32  53  76 103 133 171 212 254 307
#     4   9  19  31  52  77 102 134 174 207 254 311
#     4   9  14  28  43  69 102 134 162 210 255 298
#     4   9  16  23  43  69 108 127 163 208 266 286
#     4  10  17  29  50  78 101 133 168 217 257 300
#     4  10  16  29  48  70  97 130 175 204 248 308
#     4  10  16  25  41  75 100 129 162 211 250 302
#
# _framework density 23.278742999999999
#
# number of rings (size 3 to 8) (size 9 to 14) (size 15 to 20)
#    0.857    1.714    4.286    1.714    0.000    0.000 
#    0.000    0.000    0.000    3.429    0.000    0.000 
#    0.000    0.000    0.000    0.000    0.000    0.000 
#
# Total GULP energy -155870.505057 kJ/mol
# GULP energy per Si atom -5566.803752 kJ/mol
# Density = 2.322576 g / cm^3
# Si number density = 23.278743 Si / 1000 Ang^3
#
#
#
# Elastic Constant Matrix: (Units=GPa)
#
#
# Indices 1 2 3 4 5 6 
#
# 1 49.2722 -7.0095 -1.5127 0.0000 7.9754 0.0000
# 2 -7.0095 55.0432 -11.2783 0.0000 7.3984 0.0000
# 3 -1.5127 -11.2783 68.0704 0.0000 -4.0982 0.0000
# 4 0.0000 0.0000 0.0000 4.5097 0.0000 5.6482
# 5 7.9754 7.3984 -4.0982 0.0000 36.1468 0.0000
# 6 0.0000 0.0000 0.0000 5.6482 0.0000 13.2763
#
#
#
# Elastic Compliance Matrix: (Units=1/GPa)
#
#
# Indices 1 2 3 4 5 6 
#
# 1 0.021722 0.003655 0.000760 0.000000 -0.005455 0.000000
# 2 0.003655 0.019877 0.003102 0.000000 -0.004523 0.000000
# 3 0.000760 0.003102 0.015278 0.000000 0.000930 0.000000
# 4 0.000000 0.000000 0.000000 0.474660 0.000000 -0.201935
# 5 -0.005455 -0.004523 0.000930 0.000000 0.029900 0.000000
# 6 0.000000 0.000000 0.000000 -0.201935 0.000000 0.161232
#
#
# Mechanical properties :
#
#
# Convention : Reuss Voigt Hill
#
# Bulk Modulus (GPa) = 13.90631 14.75389 14.33010
# Shear Modulus (GPa) = 6.83431 23.59896 15.21663
#
# Velocity S-wave (km/s) = 1.71529 3.18741 2.55947
# Velocity P-wave (km/s) = 3.14798 4.46069 3.86054
#
# Compressibility (1/GPa) = 0.07190979
#
# Stress axis : x y z
#
# Youngs Moduli (GPa) = 46.03705 50.31049 65.45573
#
# Poissons Ratio (x) = -0.18388 -0.04974
# Poissons Ratio (y) = -0.16827 -0.20305
# Poissons Ratio (z) = -0.03498 -0.15607
#
# Static dielectric constant tensor:
#      x y z
#    x 1.916440 0.000000 0.017130 
#    y 0.000000 1.956140 0.000000 
#    z 0.017130 0.000000 1.904570 
# 
# From -- ./inp_files/214431.got.cif
#   From: 2010.05.17/outbox.cif.g08.bks.cpg/sg15_108_cif.got.tgz:214431.got - 2010.06.03 18:47:42.
