data_PCOD9254850
_publ_section_title
;
Structure prediction by ZEFSAII (Michael W. Deem and Ramdas Pophale) SiO2 
 PCOD9254850
Probable space group: C 2/C
;
_chemical_formula_sum "Si O2"
_cell_formula_units_Z 28
_cell_length_a 11.477109
_cell_length_b 9.346342
_cell_length_c 18.172359
_cell_angle_alpha 90.000000
_cell_angle_beta 148.067338
_cell_angle_gamma 90.000000
_cell_volume 1031.044213
_symmetry_space_group_name_H-M "C 2/C"
_symmetry_group_IT_number 15
_symmetry_cell_setting 'monoclinic'
loop_
_space_group_symop_operation_xyz
x,y,z
-x,y,1/2-z
-x,-y,-z
x,-y,1/2+z
1/2+x,1/2+y,z
1/2-x,1/2+y,1/2-z
1/2-x,1/2-y,-z
1/2+x,1/2-y,1/2+z
loop_
_atom_site_type_symbol
_atom_site_label
_atom_site_fract_x
_atom_site_fract_y
_atom_site_fract_z
Si Si1 0.720360 0.736926 0.728826
Si Si2 0.822313 0.887372 0.934109
Si Si3 0.856474 0.411912 0.045762
Si Si4 0.500000 0.397385 0.750000
O O1 0.475165 0.710182 0.568846
O O2 0.851083 0.810108 0.729903
O O3 0.886592 0.603474 0.833707
O O4 0.727052 0.811345 0.811526
O O5 0.000000 0.000000 0.000000
O O6 0.666592 0.989613 0.896759
O O7 0.750000 0.250000 0.000000
O O8 0.688173 0.477748 0.896245
#
# Coordination Sequence:
#
# PCOD9254850 Si02
#       4
#     8   8   8   4
#     4  11  22  40  73 112 149 191 250 305 376 437
#     4  12  22  42  74 112 150 197 252 307 370 454
#     4  10  20  38  70 106 144 195 249 303 372 438
#     4  10  16  36  62 106 134 184 246 284 358 440
#
# _framework density 27.156934
#
# number of rings (size 3 to 8) (size 9 to 14) (size 15 to 20)
#    0.000    1.143    8.571    1.714    0.000    0.000 
#    0.000    5.714    0.000   12.000    0.000    0.000 
#    0.000    0.000    0.000    0.000    0.000    0.000 
#
# Total GULP energy -78338.207837 kJ/mol
# GULP energy per Si atom -5595.586274 kJ/mol
# Density = 2.709512 g / cm^3
# Si number density = 27.156934 Si / 1000 Ang^3
#
#
#
# Elastic Constant Matrix: (Units=GPa)
#
#
# Indices 1 2 3 4 5 6 
#
# 1 136.4856 88.5414 70.7537 0.0001 -18.7810 0.0001
# 2 88.5414 92.0685 79.2893 -0.0001 -15.1096 0.0000
# 3 70.7537 79.2893 237.1968 0.0000 -38.5355 0.0001
# 4 0.0001 -0.0001 0.0000 27.8198 0.0001 -19.1447
# 5 -18.7810 -15.1096 -38.5355 0.0001 52.6992 0.0001
# 6 0.0001 0.0000 0.0001 -19.1447 0.0001 67.5656
#
#
#
# Elastic Compliance Matrix: (Units=1/GPa)
#
#
# Indices 1 2 3 4 5 6 
#
# 1 0.019763 -0.019486 0.000971 0.000000 0.002166 0.000000
# 2 -0.019486 0.034490 -0.005945 0.000000 -0.001403 0.000000
# 3 0.000971 -0.005945 0.006460 0.000000 0.003365 0.000000
# 4 0.000000 0.000000 0.000000 0.044653 0.000000 0.012652
# 5 0.002166 -0.001403 0.003365 0.000000 0.021806 0.000000
# 6 0.000000 0.000000 0.000000 0.012652 0.000000 0.018385
#
#
# Mechanical properties :
#
#
# Convention : Reuss Voigt Hill
#
# Bulk Modulus (GPa) = 84.79516 104.76888 94.78202
# Shear Modulus (GPa) = 25.20048 44.76135 34.98091
#
# Velocity S-wave (km/s) = 3.04954 4.06427 3.59291
# Velocity P-wave (km/s) = 6.60996 7.79020 7.22422
#
# Compressibility (1/GPa) = 0.01179313
#
# Stress axis : x y z
#
# Youngs Moduli (GPa) = 50.60036 28.99363 154.79082
#
# Poissons Ratio (x) = 0.56497 -0.15023
# Poissons Ratio (y) = 0.98600 0.92018
# Poissons Ratio (z) = -0.04911 0.17236
#
# Static dielectric constant tensor:
#      x y z
#    x 2.228540 0.000000 0.123510 
#    y 0.000000 2.251060 0.000000 
#    z 0.123510 0.000000 2.206620 
# 
# From -- ./inp_files/195809.got.cif
#   From: 2010.05.17/outbox.cif.g08.bks.cpg/sg15_98_cif.got.tgz:195809.got - 2010.06.03 18:47:42.
