data_PCOD9254615
_publ_section_title
;
Structure prediction by ZEFSAII (Michael W. Deem and Ramdas Pophale) SiO2 
 PCOD9254615
Probable space group: C 2/C
;
_chemical_formula_sum "Si O2"
_cell_formula_units_Z 44
_cell_length_a 20.862277
_cell_length_b 7.807169
_cell_length_c 15.318004
_cell_angle_alpha 90.000000
_cell_angle_beta 138.074190
_cell_angle_gamma 90.000000
_cell_volume 1667.028384
_symmetry_space_group_name_H-M "C 2/C"
_symmetry_group_IT_number 15
_symmetry_cell_setting 'monoclinic'
loop_
_space_group_symop_operation_xyz
x,y,z
-x,y,1/2-z
-x,-y,-z
x,-y,1/2+z
1/2+x,1/2+y,z
1/2-x,1/2+y,1/2-z
1/2-x,1/2-y,-z
1/2+x,1/2-y,1/2+z
loop_
_atom_site_type_symbol
_atom_site_label
_atom_site_fract_x
_atom_site_fract_y
_atom_site_fract_z
Si Si1 0.774913 0.057383 0.557584
Si Si2 0.131855 0.068343 0.012790
Si Si3 0.420975 0.008321 0.812199
Si Si4 0.142464 0.432008 0.080294
Si Si5 0.039135 0.111651 0.191237
Si Si6 0.500000 0.204912 0.250000
O O1 0.750000 0.250000 0.500000
O O2 0.794746 0.977956 0.480917
O O3 0.698742 0.999751 0.553083
O O4 0.874529 0.025262 0.712222
O O5 0.059878 0.175613 0.875301
O O6 0.165210 0.226651 0.105999
O O7 0.052158 0.933492 0.963482
O O8 0.346348 0.976088 0.814875
O O9 0.417847 0.209774 0.794928
O O10 0.422148 0.910462 0.721881
O O11 0.529514 0.957366 0.949637
O O12 0.000000 0.143724 0.250000
#
# Coordination Sequence:
#
# PCOD9254615 Si02
#       6
#     8   8   8   8   8   4
#     4   9  17  34  58  80 109 139 184 228 273 328
#     4   9  17  33  59  77 102 150 189 219 280 340
#     4  10  20  34  54  77 114 143 186 227 280 335
#     4   9  20  36  52  79 112 148 177 229 285 334
#     4  10  18  34  57  84 104 142 190 231 263 335
#     4  10  16  32  56  74  98 154 184 216 272 346
#
# _framework density 26.394272000000001
#
# number of rings (size 3 to 8) (size 9 to 14) (size 15 to 20)
#    0.000    2.545    3.636    0.000    0.000    0.727 
#    3.273    3.636    4.000    0.000    0.000    0.000 
#    0.000    0.000    0.000    0.000    0.000    0.000 
#
# Total GULP energy -122554.565772 kJ/mol
# GULP energy per Si atom -5570.662081 kJ/mol
# Density = 2.633420 g / cm^3
# Si number density = 26.394272 Si / 1000 Ang^3
#
#
#
# Elastic Constant Matrix: (Units=GPa)
#
#
# Indices 1 2 3 4 5 6 
#
# 1 205.5504 16.6070 43.0278 0.0000 -6.3627 0.0000
# 2 16.6070 73.7342 11.2331 0.0000 6.4440 0.0000
# 3 43.0278 11.2331 39.5001 0.0000 6.3999 0.0000
# 4 0.0000 0.0000 0.0000 13.2268 0.0000 14.2471
# 5 -6.3627 6.4440 6.3999 0.0000 30.6430 0.0000
# 6 0.0000 0.0000 0.0000 14.2471 0.0000 24.4528
#
#
#
# Elastic Compliance Matrix: (Units=1/GPa)
#
#
# Indices 1 2 3 4 5 6 
#
# 1 0.006576 -0.000608 -0.007485 0.000000 0.003056 0.000000
# 2 -0.000608 0.014379 -0.003019 0.000000 -0.002520 0.000000
# 3 -0.007485 -0.003019 0.035685 0.000000 -0.008372 0.000000
# 4 0.000000 0.000000 0.000000 0.203010 0.000000 -0.118281
# 5 0.003056 -0.002520 -0.008372 0.000000 0.035547 0.000000
# 6 0.000000 0.000000 0.000000 -0.118281 0.000000 0.109810
#
#
# Mechanical properties :
#
#
# Convention : Reuss Voigt Hill
#
# Bulk Modulus (GPa) = 29.05613 51.16895 40.11254
# Shear Modulus (GPa) = 11.39722 30.19229 20.79476
#
# Velocity S-wave (km/s) = 2.08025 3.38582 2.80991
# Velocity P-wave (km/s) = 4.09906 5.89182 5.07523
#
# Compressibility (1/GPa) = 0.03441614
#
# Stress axis : x y z
#
# Youngs Moduli (GPa) = 152.07781 69.54475 28.02290
#
# Poissons Ratio (x) = 0.04227 0.20976
# Poissons Ratio (y) = 0.09243 0.08460
# Poissons Ratio (z) = 1.13833 0.20995
#
# Static dielectric constant tensor:
#      x y z
#    x 2.236910 0.000000 -0.049900 
#    y 0.000000 2.143060 0.000000 
#    z -0.049900 0.000000 2.496300 
# 
# From -- ./inp_files/213589.got.cif
#   From: 2010.05.17/outbox.cif.g08.bks.cpg/sg15_107_cif.got.tgz:213589.got - 2010.06.03 18:47:42.
