data_PCOD9254903
_publ_section_title
;
Structure prediction by ZEFSAII (Michael W. Deem and Ramdas Pophale) SiO2 
 PCOD9254903
Probable space group: C 2/C
;
_chemical_formula_sum "Si O2"
_cell_formula_units_Z 52
_cell_length_a 22.582677
_cell_length_b 6.976824
_cell_length_c 14.470961
_cell_angle_alpha 90.000000
_cell_angle_beta 108.149931
_cell_angle_gamma 90.000000
_cell_volume 2166.536384
_symmetry_space_group_name_H-M "C 2/C"
_symmetry_group_IT_number 15
_symmetry_cell_setting 'monoclinic'
loop_
_space_group_symop_operation_xyz
x,y,z
-x,y,1/2-z
-x,-y,-z
x,-y,1/2+z
1/2+x,1/2+y,z
1/2-x,1/2+y,1/2-z
1/2-x,1/2-y,-z
1/2+x,1/2-y,1/2+z
loop_
_atom_site_type_symbol
_atom_site_label
_atom_site_fract_x
_atom_site_fract_y
_atom_site_fract_z
Si Si1 0.796516 0.884244 0.316653
Si Si2 0.111958 0.287947 0.347168
Si Si3 0.582586 0.523815 0.062932
Si Si4 0.162716 0.488816 0.194563
Si Si5 0.932998 0.570695 0.499798
Si Si6 0.974848 0.057331 0.647604
Si Si7 0.250000 0.750000 0.000000
O O1 0.847476 0.046210 0.364925
O O2 0.833248 0.716272 0.281981
O O3 0.735833 0.936668 0.228282
O O4 0.772522 0.810211 0.404335
O O5 0.127143 0.378393 0.256915
O O6 0.076364 0.437617 0.395720
O O7 0.069948 0.099825 0.327857
O O8 0.177511 0.243467 0.428867
O O9 0.575428 0.297716 0.030301
O O10 0.532075 0.542070 0.119335
O O11 0.564355 0.635595 0.959928
O O12 0.123376 0.471436 0.082449
O O13 0.000000 0.500000 0.500000
O O14 0.000000 0.171050 0.750000
#
# Coordination Sequence:
#
# PCOD9254903 Si02
#       7
#     8   8   8   8   8   8   4
#     4  10  20  41  62  91 123 166 205 259 315 368
#     4  10  21  37  64  89 117 164 206 247 319 372
#     4   9  20  40  57  86 129 152 198 264 308 351
#     4  10  22  38  65  91 123 163 214 251 313 379
#     4  10  21  41  59  84 128 162 199 257 315 369
#     4  10  20  36  60  90 116 156 209 243 305 374
#     4  10  16  38  64  78 120 166 190 248 320 358
#
# _framework density 24.001442999999998
#
# number of rings (size 3 to 8) (size 9 to 14) (size 15 to 20)
#    0.000    2.154    4.615    0.000    4.308    2.462 
#    8.308    0.769    0.000    0.000    0.000    0.000 
#    0.000    0.000    0.000    0.000    0.000    0.000 
#
# Total GULP energy -144741.639378 kJ/mol
# GULP energy per Si atom -5566.986130 kJ/mol
# Density = 2.394681 g / cm^3
# Si number density = 24.001443 Si / 1000 Ang^3
#
#
#
# Elastic Constant Matrix: (Units=GPa)
#
#
# Indices 1 2 3 4 5 6 
#
# 1 141.6021 20.5003 32.2375 0.0000 16.0961 0.0000
# 2 20.5003 53.8360 26.4816 0.0000 2.8348 0.0000
# 3 32.2375 26.4816 120.2572 0.0000 18.9199 0.0000
# 4 0.0000 0.0000 0.0000 26.0662 0.0000 3.2807
# 5 16.0961 2.8348 18.9199 0.0000 39.7712 0.0000
# 6 0.0000 0.0000 0.0000 3.2807 0.0000 32.3248
#
#
#
# Elastic Compliance Matrix: (Units=1/GPa)
#
#
# Indices 1 2 3 4 5 6 
#
# 1 0.007956 -0.002290 -0.001241 0.000000 -0.002467 0.000000
# 2 -0.002290 0.021511 -0.004354 0.000000 0.001464 0.000000
# 3 -0.001241 -0.004354 0.010246 0.000000 -0.004062 0.000000
# 4 0.000000 0.000000 0.000000 0.038860 0.000000 -0.003944
# 5 -0.002467 0.001464 -0.004062 0.000000 0.027970 0.000000
# 6 0.000000 0.000000 0.000000 -0.003944 0.000000 0.031336
#
#
# Mechanical properties :
#
#
# Convention : Reuss Voigt Hill
#
# Bulk Modulus (GPa) = 41.76094 52.68157 47.22126
# Shear Modulus (GPa) = 30.93501 35.39751 33.16626
#
# Velocity S-wave (km/s) = 3.59399 3.84449 3.72135
# Velocity P-wave (km/s) = 5.88723 6.45785 6.17913
#
# Compressibility (1/GPa) = 0.02394582
#
# Stress axis : x y z
#
# Youngs Moduli (GPa) = 125.68585 46.48748 97.60105
#
# Poissons Ratio (x) = 0.10644 0.12108
# Poissons Ratio (y) = 0.28777 0.42491
# Poissons Ratio (z) = 0.15593 0.20239
#
# Static dielectric constant tensor:
#      x y z
#    x 1.914220 0.000000 0.048340 
#    y 0.000000 2.034660 0.000000 
#    z 0.048340 0.000000 1.937790 
# 
# From -- ./inp_files/166329.got.cif
#   From: 2010.05.17/outbox.cif.g08.bks.cpg/sg15_84_cif.got.tgz:166329.got - 2010.06.03 18:47:42.
