data_PCOD9254419
_publ_section_title
;
Structure prediction by ZEFSAII (Michael W. Deem and Ramdas Pophale) SiO2 
 PCOD9254419
Probable space group: C 2/C
;
_chemical_formula_sum "Si O2"
_cell_formula_units_Z 44
_cell_length_a 33.226957
_cell_length_b 14.343676
_cell_length_c 5.349680
_cell_angle_alpha 90.000000
_cell_angle_beta 99.265078
_cell_angle_gamma 90.000000
_cell_volume 2516.377342
_symmetry_space_group_name_H-M "C 2/C"
_symmetry_group_IT_number 15
_symmetry_cell_setting 'monoclinic'
loop_
_space_group_symop_operation_xyz
x,y,z
-x,y,1/2-z
-x,-y,-z
x,-y,1/2+z
1/2+x,1/2+y,z
1/2-x,1/2+y,1/2-z
1/2-x,1/2-y,-z
1/2+x,1/2-y,1/2+z
loop_
_atom_site_type_symbol
_atom_site_label
_atom_site_fract_x
_atom_site_fract_y
_atom_site_fract_z
Si Si1 0.636463 0.944498 0.386460
Si Si2 0.000000 0.062138 0.250000
Si Si3 0.275157 0.981107 0.525162
Si Si4 0.652422 0.734952 0.402425
Si Si5 0.702146 0.229836 0.452147
Si Si6 0.409561 0.563910 0.159563
O O1 0.628023 0.834282 0.378025
O O2 0.623300 0.000001 0.623295
O O3 0.686261 0.949226 0.436256
O O4 0.044592 0.108359 0.294591
O O5 0.000000 0.000000 0.500000
O O6 0.297077 0.882112 0.547081
O O7 0.250688 0.000000 0.250694
O O8 0.679988 0.735079 0.680323
O O9 0.623029 0.646423 0.373029
O O10 0.679989 0.735080 0.179661
O O11 0.750000 0.250000 0.500000
O O12 0.405619 0.500000 0.405621
#
# Coordination Sequence:
#
# PCOD9254419 Si02
#       6
#     8   4   8   8   8   8
#     4  10  16  30  54  74  94 121 173 223 250 300
#     4   8  16  34  60  84 104 146 180 218 270 326
#     4  10  16  32  51  67  92 122 171 227 247 300
#     4  12  21  36  57  77 105 140 179 231 276 312
#     4  12  23  35  50  76 105 140 185 227 273 325
#     4  10  21  38  59  83 118 144 181 224 272 349
#
# _framework density 17.485455000000002
#
# number of rings (size 3 to 8) (size 9 to 14) (size 15 to 20)
#    0.000    1.455    7.273    1.636    0.000    0.000 
#    0.000    5.455    0.000    0.000    0.000    1.273 
#    0.000    0.000    0.000    0.000    0.000    0.000 
#
# Total GULP energy -122529.049504 kJ/mol
# GULP energy per Si atom -5569.502250 kJ/mol
# Density = 1.744566 g / cm^3
# Si number density = 17.485455 Si / 1000 Ang^3
#
#
#
# Elastic Constant Matrix: (Units=GPa)
#
#
# Indices 1 2 3 4 5 6 
#
# 1 90.5797 58.7757 65.3719 0.0000 0.3972 0.0000
# 2 58.7757 96.1562 52.6306 0.0000 1.2647 0.0000
# 3 65.3719 52.6306 196.3446 0.0000 -22.1647 0.0000
# 4 0.0000 0.0000 0.0000 15.3348 0.0000 -5.8913
# 5 0.3972 1.2647 -22.1647 0.0000 16.2785 0.0000
# 6 0.0000 0.0000 0.0000 -5.8913 0.0000 -13.2888
#
#
#
# Elastic Compliance Matrix: (Units=1/GPa)
#
#
# Indices 1 2 3 4 5 6 
#
# 1 0.021386 -0.010159 -0.005160 0.000000 -0.006759 0.000000
# 2 -0.010159 0.017600 -0.001727 0.000000 -0.003472 0.000000
# 3 -0.005160 -0.001727 0.008630 0.000000 0.012011 0.000000
# 4 0.000000 0.000000 0.000000 0.055721 0.000000 -0.024703
# 5 -0.006759 -0.003472 0.012011 0.000000 0.078219 0.000000
# 6 0.000000 0.000000 0.000000 -0.024703 0.000000 -0.064300
#
#
# Mechanical properties :
#
#
# Convention : Reuss Voigt Hill
#
# Bulk Modulus (GPa) = 73.94538 81.84853 77.89695
# Shear Modulus (GPa) = 32.08094 17.41841 24.74968
#
# Velocity S-wave (km/s) = 4.28801 3.15963 3.76632
# Velocity P-wave (km/s) = 8.17909 7.76029 7.97244
#
# Compressibility (1/GPa) = 0.01352350
#
# Stress axis : x y z
#
# Youngs Moduli (GPa) = 46.76062 56.81679 115.87500
#
# Poissons Ratio (x) = 0.57719 0.59792
# Poissons Ratio (y) = 0.47503 0.20017
# Poissons Ratio (z) = 0.24129 0.09815
#
# Static dielectric constant tensor:
#      x y z
#    x 1.590950 0.000000 -0.022380 
#    y 0.000000 4.599860 0.000000 
#    z -0.022380 0.000000 1.699700 
# 
# From -- ./inp_files/16884.got.cif
#   From: 2010.05.17/outbox.cif.g08.bks.cpg/sg15_9_cif.got.tgz:16884.got - 2010.06.03 18:47:42.
