data_PCOD9254318
_publ_section_title
;
Structure prediction by ZEFSAII (Michael W. Deem and Ramdas Pophale) SiO2 
 PCOD9254318
Probable space group: C 2/C
;
_chemical_formula_sum "Si O2"
_cell_formula_units_Z 32
_cell_length_a 6.436155
_cell_length_b 12.680602
_cell_length_c 22.095067
_cell_angle_alpha 90.000000
_cell_angle_beta 136.357912
_cell_angle_gamma 90.000000
_cell_volume 1244.531832
_symmetry_space_group_name_H-M "C 2/C"
_symmetry_group_IT_number 15
_symmetry_cell_setting 'monoclinic'
loop_
_space_group_symop_operation_xyz
x,y,z
-x,y,1/2-z
-x,-y,-z
x,-y,1/2+z
1/2+x,1/2+y,z
1/2-x,1/2+y,1/2-z
1/2-x,1/2-y,-z
1/2+x,1/2-y,1/2+z
loop_
_atom_site_type_symbol
_atom_site_label
_atom_site_fract_x
_atom_site_fract_y
_atom_site_fract_z
Si Si1 0.704626 0.570910 0.953987
Si Si2 0.799813 0.674815 0.853403
Si Si3 0.390431 0.602585 0.323605
Si Si4 0.017720 0.445294 0.632684
O O1 0.715020 0.662167 0.906085
O O2 0.427977 0.494894 0.878211
O O3 0.000000 0.500000 0.000000
O O4 0.748587 0.597469 0.033481
O O5 0.500000 0.665700 0.750000
O O6 0.939334 0.786420 0.866568
O O7 0.989323 0.572844 0.872802
O O8 0.678696 0.585645 0.340679
O O9 0.106285 0.598523 0.217459
#
# Coordination Sequence:
#
# PCOD9254318 Si02
#       4
#     8   8   8   8
#     4   8  16  28  48  75 101 125 168 205 242 293
#     4  10  16  29  52  70  99 139 159 198 256 288
#     4   9  16  29  51  73  99 131 166 200 247 295
#     4   9  17  32  49  75 101 127 168 207 241 292
#
# _framework density 25.712478999999998
#
# number of rings (size 3 to 8) (size 9 to 14) (size 15 to 20)
#    0.000    3.500    5.000    0.000    0.000    9.000 
#    0.000    1.250    5.500    1.500    0.000    0.000 
#    0.000    0.000    0.000    0.000    0.000    0.000 
#
# Total GULP energy -89409.963768 kJ/mol
# GULP energy per Si atom -5588.122736 kJ/mol
# Density = 2.565396 g / cm^3
# Si number density = 25.712479 Si / 1000 Ang^3
#
#
#
# Elastic Constant Matrix: (Units=GPa)
#
#
# Indices 1 2 3 4 5 6 
#
# 1 61.2868 57.8350 51.0407 0.0000 -28.9640 0.0000
# 2 57.8350 183.8867 53.8282 0.0000 -37.3101 0.0000
# 3 51.0407 53.8282 206.7362 0.0000 -56.7074 0.0000
# 4 0.0000 0.0000 0.0000 13.4276 0.0000 -14.9240
# 5 -28.9640 -37.3101 -56.7074 0.0000 65.8027 0.0001
# 6 0.0000 0.0000 0.0000 -14.9240 0.0001 -0.8233
#
#
#
# Elastic Compliance Matrix: (Units=1/GPa)
#
#
# Indices 1 2 3 4 5 6 
#
# 1 0.028352 -0.006714 -0.003762 0.000000 0.005431 0.000000
# 2 -0.006714 0.007850 0.000031 0.000000 0.001522 0.000000
# 3 -0.003762 0.000031 0.006952 0.000000 0.004353 0.000000
# 4 0.000000 0.000000 0.000000 0.003522 0.000000 -0.063838
# 5 0.005431 0.001522 0.004353 0.000000 0.022202 0.000000
# 6 0.000000 0.000000 0.000000 -0.063838 0.000000 -0.057437
#
#
# Mechanical properties :
#
#
# Convention : Reuss Voigt Hill
#
# Bulk Modulus (GPa) = 44.91543 86.36862 65.64202
# Shear Modulus (GPa) = 125.78442 34.96178 80.37310
#
# Velocity S-wave (km/s) = 7.00184 3.69144 5.59699
# Velocity P-wave (km/s) = 9.10352 7.19945 8.20689
#
# Compressibility (1/GPa) = 0.02226406
#
# Stress axis : x y z
#
# Youngs Moduli (GPa) = 35.27053 127.39655 143.85115
#
# Poissons Ratio (x) = 0.85535 0.54117
# Poissons Ratio (y) = 0.23681 -0.00452
# Poissons Ratio (z) = 0.13269 -0.00401
#
# Static dielectric constant tensor:
#      x y z
#    x 2.229330 0.000000 -0.035910 
#    y 0.000000 1.981730 0.000000 
#    z -0.035910 0.000000 2.084260 
# 
# From -- ./inp_files/187397.got.cif
#   From: 2010.05.17/outbox.cif.g08.bks.cpg/sg15_94_cif.got.tgz:187397.got - 2010.06.03 18:47:42.
