data_PCOD9254539
_publ_section_title
;
Structure prediction by ZEFSAII (Michael W. Deem and Ramdas Pophale) SiO2 
 PCOD9254539
Probable space group: C 2/C
;
_chemical_formula_sum "Si O2"
_cell_formula_units_Z 60
_cell_length_a 8.023338
_cell_length_b 21.836802
_cell_length_c 19.010200
_cell_angle_alpha 90.000000
_cell_angle_beta 52.477462
_cell_angle_gamma 90.000000
_cell_volume 2641.595556
_symmetry_space_group_name_H-M "C 2/C"
_symmetry_group_IT_number 15
_symmetry_cell_setting 'monoclinic'
loop_
_space_group_symop_operation_xyz
x,y,z
-x,y,1/2-z
-x,-y,-z
x,-y,1/2+z
1/2+x,1/2+y,z
1/2-x,1/2+y,1/2-z
1/2-x,1/2-y,-z
1/2+x,1/2-y,1/2+z
loop_
_atom_site_type_symbol
_atom_site_label
_atom_site_fract_x
_atom_site_fract_y
_atom_site_fract_z
Si Si1 0.798158 0.457998 0.534097
Si Si2 0.350601 0.421590 0.471773
Si Si3 0.879550 0.614577 0.136028
Si Si4 0.869332 0.173233 0.855004
Si Si5 0.698223 0.347621 0.470161
Si Si6 0.000000 0.645894 0.250000
Si Si7 0.611580 0.731915 0.359873
Si Si8 0.774877 0.754062 0.160304
O O1 0.639540 0.505452 0.538762
O O2 0.737073 0.429204 0.625058
O O3 0.836213 0.399746 0.473573
O O4 0.000000 0.500000 0.500000
O O5 0.361053 0.392588 0.391569
O O6 0.524910 0.389047 0.474146
O O7 0.121516 0.400854 0.557148
O O8 0.823409 0.683917 0.129647
O O9 0.879827 0.609253 0.220165
O O10 0.650923 0.206155 0.893513
O O11 0.000000 0.171160 0.750000
O O12 0.005383 0.215344 0.872196
O O13 0.579593 0.306396 0.559050
O O14 0.786598 0.300157 0.388296
O O15 0.181892 0.690574 0.174776
O O16 0.641838 0.745329 0.268131
#
# Coordination Sequence:
#
# PCOD9254539 Si02
#       8
#     8   8   8   8   8   4   8   8
#     4  10  24  40  56  81 121 167 212 262 305 367
#     4  10  19  34  59  85 115 161 214 248 298 381
#     4  10  18  35  58  83 119 160 194 258 322 364
#     4   9  15  29  53  86 125 150 193 253 310 370
#     4  11  20  35  63  91 119 169 208 254 324 377
#     4  10  16  32  56  88 122 154 200 256 314 376
#     4  10  16  31  57  94 127 154 201 259 320 392
#     4   9  18  31  55  94 122 153 199 262 321 384
#
# _framework density 22.713545
#
# number of rings (size 3 to 8) (size 9 to 14) (size 15 to 20)
#    0.000    2.133    4.667    1.200    0.000    2.667 
#    0.000    5.333   11.733    3.200    0.000    0.000 
#    0.000    0.000    0.000    0.000    0.000    0.000 
#
# Total GULP energy -167349.009283 kJ/mol
# GULP energy per Si atom -5578.300309 kJ/mol
# Density = 2.266185 g / cm^3
# Si number density = 22.713545 Si / 1000 Ang^3
#
#
#
# Elastic Constant Matrix: (Units=GPa)
#
#
# Indices 1 2 3 4 5 6 
#
# 1 85.3077 45.2786 35.3983 0.0000 29.9770 0.0000
# 2 45.2786 166.5383 59.6642 0.0000 18.9164 0.0000
# 3 35.3983 59.6642 51.5642 0.0000 20.0926 0.0000
# 4 0.0000 0.0000 0.0000 25.4414 0.0000 20.9825
# 5 29.9770 18.9164 20.0926 0.0000 40.6735 0.0000
# 6 0.0000 0.0000 0.0000 20.9825 0.0000 47.7476
#
#
#
# Elastic Compliance Matrix: (Units=1/GPa)
#
#
# Indices 1 2 3 4 5 6 
#
# 1 0.019010 -0.001266 -0.007871 0.000000 -0.009534 0.000000
# 2 -0.001266 0.010401 -0.011943 0.000000 0.001996 0.000000
# 3 -0.007871 -0.011943 0.042342 0.000000 -0.009561 0.000000
# 4 0.000000 0.000000 0.000000 0.061650 0.000000 -0.027092
# 5 -0.009534 0.001996 -0.009561 0.000000 0.035408 0.000000
# 6 0.000000 0.000000 0.000000 -0.027092 0.000000 0.032849
#
#
# Mechanical properties :
#
#
# Convention : Reuss Voigt Hill
#
# Bulk Modulus (GPa) = 33.79168 64.89915 49.34541
# Shear Modulus (GPa) = 19.70960 33.64378 26.67669
#
# Velocity S-wave (km/s) = 2.94895 3.85284 3.43079
# Velocity P-wave (km/s) = 5.14827 6.95898 6.12095
#
# Compressibility (1/GPa) = 0.02959308
#
# Stress axis : x y z
#
# Youngs Moduli (GPa) = 52.60295 96.14471 23.61739
#
# Poissons Ratio (x) = 0.12171 0.18588
# Poissons Ratio (y) = 0.06659 0.28207
# Poissons Ratio (z) = 0.41402 1.14830
#
# Static dielectric constant tensor:
#      x y z
#    x 1.984560 0.000000 0.032590 
#    y 0.000000 1.821360 0.000000 
#    z 0.032590 0.000000 1.879330 
# 
# From -- ./inp_files/193249.got.cif
#   From: 2010.05.17/outbox.cif.g08.bks.cpg/sg15_97_cif.got.tgz:193249.got - 2010.06.03 18:47:42.
