data_PCOD9254264
_publ_section_title
;
Structure prediction by ZEFSAII (Michael W. Deem and Ramdas Pophale) SiO2 
 PCOD9254264
Probable space group: C 2/C
;
_chemical_formula_sum "Si O2"
_cell_formula_units_Z 52
_cell_length_a 14.777027
_cell_length_b 18.244341
_cell_length_c 11.128396
_cell_angle_alpha 90.000000
_cell_angle_beta 67.113263
_cell_angle_gamma 90.000000
_cell_volume 2763.995430
_symmetry_space_group_name_H-M "C 2/C"
_symmetry_group_IT_number 15
_symmetry_cell_setting 'monoclinic'
loop_
_space_group_symop_operation_xyz
x,y,z
-x,y,1/2-z
-x,-y,-z
x,-y,1/2+z
1/2+x,1/2+y,z
1/2-x,1/2+y,1/2-z
1/2-x,1/2-y,-z
1/2+x,1/2-y,1/2+z
loop_
_atom_site_type_symbol
_atom_site_label
_atom_site_fract_x
_atom_site_fract_y
_atom_site_fract_z
Si Si1 0.220114 0.291956 0.342295
Si Si2 0.916809 0.088933 0.972375
Si Si3 0.811614 0.808936 0.042484
Si Si4 0.018309 0.756775 0.032763
Si Si5 0.788339 0.363136 0.897764
Si Si6 0.569210 0.566521 0.108382
Si Si7 0.000000 0.638929 0.250000
O O1 0.259143 0.322653 0.197319
O O2 0.223662 0.347717 0.452918
O O3 0.282493 0.218806 0.343878
O O4 0.107396 0.264308 0.398072
O O5 0.942939 0.170939 0.915543
O O6 0.911286 0.020130 0.886564
O O7 0.809754 0.094494 0.089464
O O8 0.003327 0.074523 0.022667
O O9 0.918472 0.775244 0.017003
O O10 0.750000 0.750000 0.000000
O O11 0.835203 0.883680 0.958946
O O12 0.002268 0.691002 0.132518
O O13 0.892910 0.398663 0.811400
O O14 0.500000 0.594298 0.250000
#
# Coordination Sequence:
#
# PCOD9254264 Si02
#       7
#     8   8   8   8   8   8   4
#     4   9  18  33  49  80 102 137 180 218 276 317
#     4   9  20  35  52  77 109 144 174 232 275 324
#     4  11  23  33  53  74 111 149 175 222 276 327
#     4   9  19  31  54  80 109 135 181 223 276 322
#     4   9  17  30  55  78 106 135 174 230 275 320
#     4  10  23  37  52  81 108 146 190 218 277 340
#     4  10  16  28  52  88 104 130 172 226 278 322
#
# _framework density 18.813345000000002
#
# number of rings (size 3 to 8) (size 9 to 14) (size 15 to 20)
#    0.000    2.462    1.538    0.923    7.538    2.462 
#    0.000    0.000    0.000    1.846    0.000    5.385 
#    0.000    0.000    0.000    0.000    0.000    0.000 
#
# Total GULP energy -144820.836504 kJ/mol
# GULP energy per Si atom -5570.032173 kJ/mol
# Density = 1.877052 g / cm^3
# Si number density = 18.813345 Si / 1000 Ang^3
#
#
#
# Elastic Constant Matrix: (Units=GPa)
#
#
# Indices 1 2 3 4 5 6 
#
# 1 79.1333 12.2308 -2.4248 0.0000 -30.5423 0.0000
# 2 12.2308 52.7309 20.4827 0.0000 -6.6201 0.0000
# 3 -2.4248 20.4827 87.1416 0.0000 -18.1756 0.0000
# 4 0.0000 0.0000 0.0000 13.7897 0.0000 -4.1479
# 5 -30.5423 -6.6201 -18.1756 0.0000 28.5793 0.0000
# 6 0.0000 0.0000 0.0000 -4.1479 0.0000 -6.2127
#
#
#
# Elastic Compliance Matrix: (Units=1/GPa)
#
#
# Indices 1 2 3 4 5 6 
#
# 1 0.026220 -0.005421 0.008746 0.000000 0.032328 0.000000
# 2 -0.005421 0.022088 -0.006322 0.000000 -0.004697 0.000000
# 3 0.008746 -0.006322 0.017120 0.000000 0.018771 0.000000
# 4 0.000000 0.000000 0.000000 0.060390 0.000000 -0.040319
# 5 0.032328 -0.004697 0.018771 0.000000 0.080388 0.000000
# 6 0.000000 0.000000 0.000000 -0.040319 0.000000 -0.134041
#
#
# Mechanical properties :
#
#
# Convention : Reuss Voigt Hill
#
# Bulk Modulus (GPa) = 16.82512 31.06479 23.94495
# Shear Modulus (GPa) = 51.03686 19.81240 35.42463
#
# Velocity S-wave (km/s) = 5.21411 3.24868 4.34401
# Velocity P-wave (km/s) = 6.72397 5.53352 6.15758
#
# Compressibility (1/GPa) = 0.05943495
#
# Stress axis : x y z
#
# Youngs Moduli (GPa) = 38.13893 45.27426 58.41092
#
# Poissons Ratio (x) = 0.24541 -0.51089
# Poissons Ratio (y) = 0.20673 0.36929
# Poissons Ratio (z) = -0.33358 0.28624
#
# Static dielectric constant tensor:
#      x y z
#    x 1.700490 0.000000 -0.007120 
#    y 0.000000 1.700400 0.000000 
#    z -0.007120 0.000000 1.670940 
# 
# From -- ./inp_files/99350.got.cif
#   From: 2010.05.17/outbox.cif.g08.bks.cpg/sg15_50_cif.got.tgz:99350.got - 2010.06.03 18:47:42.
