data_PCOD9254922
_publ_section_title
;
Structure prediction by ZEFSAII (Michael W. Deem and Ramdas Pophale) SiO2 
 PCOD9254922
Probable space group: C 2/C
;
_chemical_formula_sum "Si O2"
_cell_formula_units_Z 48
_cell_length_a 14.777716
_cell_length_b 27.635871
_cell_length_c 5.539783
_cell_angle_alpha 90.000000
_cell_angle_beta 59.842497
_cell_angle_gamma 90.000000
_cell_volume 1956.196136
_symmetry_space_group_name_H-M "C 2/C"
_symmetry_group_IT_number 15
_symmetry_cell_setting 'monoclinic'
loop_
_space_group_symop_operation_xyz
x,y,z
-x,y,1/2-z
-x,-y,-z
x,-y,1/2+z
1/2+x,1/2+y,z
1/2-x,1/2+y,1/2-z
1/2-x,1/2-y,-z
1/2+x,1/2-y,1/2+z
loop_
_atom_site_type_symbol
_atom_site_label
_atom_site_fract_x
_atom_site_fract_y
_atom_site_fract_z
Si Si1 0.174655 0.811447 0.702742
Si Si2 0.500000 0.653977 0.750000
Si Si3 0.180546 0.374814 0.707525
Si Si4 0.381057 0.979709 0.623845
Si Si5 0.640902 0.602077 0.890657
Si Si6 0.000000 0.739830 0.750000
Si Si7 0.000000 0.027434 0.250000
Si Si8 0.000000 0.319642 0.750000
O O1 0.283679 0.827006 0.688406
O O2 0.174822 0.855876 0.520462
O O3 0.110576 0.770623 0.633121
O O4 0.096047 0.814357 0.035447
O O5 0.530851 0.619834 0.926772
O O6 0.126881 0.421572 0.903681
O O7 0.281196 0.397705 0.438781
O O8 0.100957 0.354061 0.617573
O O9 0.500000 0.000000 0.500000
O O10 0.334694 0.005582 0.448409
O O11 0.610221 0.555979 0.083030
O O12 0.001863 0.710303 0.496736
O O13 0.000000 0.000000 0.500000
#
# Coordination Sequence:
#
# PCOD9254922 Si02
#       8
#     8   4   8   8   8   4   4   4
#     4  11  23  44  79 106 144 207 249 311 385 474
#     4  10  16  40  72 101 136 192 257 294 370 456
#     4  11  29  47  78 110 157 205 266 310 391 459
#     4  10  23  46  76 105 144 199 253 311 365 435
#     4  11  23  43  72 103 143 205 252 303 385 464
#     4  12  27  50  80 108 160 195 261 320 407 456
#     4  12  26  42  67 108 160 192 243 324 387 457
#     4  12  31  52  73 117 156 205 255 340 376 459
#
# _framework density 24.537417999999999
#
# number of rings (size 3 to 8) (size 9 to 14) (size 15 to 20)
#    0.000    1.000    3.333    2.000    9.333    4.000 
#    0.000    0.000    0.000    0.000    0.000    0.000 
#    0.000    0.000    0.000    0.000    0.000    0.000 
#
# Total GULP energy -133676.606487 kJ/mol
# GULP energy per Si atom -5569.858604 kJ/mol
# Density = 2.448157 g / cm^3
# Si number density = 24.537418 Si / 1000 Ang^3
#
#
#
# Elastic Constant Matrix: (Units=GPa)
#
#
# Indices 1 2 3 4 5 6 
#
# 1 120.6916 43.6246 22.3350 0.0000 13.8885 0.0000
# 2 43.6246 105.4082 31.2859 0.0000 -1.1509 0.0000
# 3 22.3350 31.2859 81.1636 0.0000 29.6406 0.0000
# 4 0.0000 0.0000 0.0000 27.6457 0.0000 52.1525
# 5 13.8885 -1.1509 29.6406 0.0000 39.2389 0.0000
# 6 0.0000 0.0000 0.0000 52.1525 0.0000 -75.2123
#
#
#
# Elastic Compliance Matrix: (Units=1/GPa)
#
#
# Indices 1 2 3 4 5 6 
#
# 1 0.010275 -0.004395 0.000334 0.000000 -0.004018 0.000000
# 2 -0.004395 0.013272 -0.006376 0.000000 0.006761 0.000000
# 3 0.000334 -0.006376 0.020435 0.000000 -0.015742 0.000000
# 4 0.000000 0.000000 0.000000 0.015672 0.000000 0.010867
# 5 -0.004018 0.006761 -0.015742 0.000000 0.038997 0.000000
# 6 0.000000 0.000000 0.000000 0.010867 0.000000 -0.005760
#
#
# Mechanical properties :
#
#
# Convention : Reuss Voigt Hill
#
# Bulk Modulus (GPa) = 43.27366 55.75049 49.51208
# Shear Modulus (GPa) = 41.16353 12.33564 26.74958
#
# Velocity S-wave (km/s) = 4.10027 2.24459 3.30533
# Velocity P-wave (km/s) = 6.33170 5.43024 5.89822
#
# Compressibility (1/GPa) = 0.02310875
#
# Stress axis : x y z
#
# Youngs Moduli (GPa) = 97.32468 75.34556 48.93513
#
# Poissons Ratio (x) = 0.33118 -0.01636
# Poissons Ratio (y) = 0.42779 0.31199
# Poissons Ratio (z) = -0.03253 0.48037
#
# Static dielectric constant tensor:
#      x y z
#    x 1.987790 0.000000 -0.147110 
#    y 0.000000 2.072010 0.000000 
#    z -0.147110 0.000000 2.024040 
# 
# From -- ./inp_files/8986.got.cif
#   From: 2010.05.17/outbox.cif.g08.bks.cpg/sg15_5_cif.got.tgz:8986.got - 2010.06.03 18:47:42.
