data_PCOD9254676
_publ_section_title
;
Structure prediction by ZEFSAII (Michael W. Deem and Ramdas Pophale) SiO2 
 PCOD9254676
Probable space group: C 2/C
;
_chemical_formula_sum "Si O2"
_cell_formula_units_Z 52
_cell_length_a 19.229330
_cell_length_b 13.514544
_cell_length_c 11.818362
_cell_angle_alpha 90.000000
_cell_angle_beta 131.024526
_cell_angle_gamma 90.000000
_cell_volume 2317.079991
_symmetry_space_group_name_H-M "C 2/C"
_symmetry_group_IT_number 15
_symmetry_cell_setting 'monoclinic'
loop_
_space_group_symop_operation_xyz
x,y,z
-x,y,1/2-z
-x,-y,-z
x,-y,1/2+z
1/2+x,1/2+y,z
1/2-x,1/2+y,1/2-z
1/2-x,1/2-y,-z
1/2+x,1/2-y,1/2+z
loop_
_atom_site_type_symbol
_atom_site_label
_atom_site_fract_x
_atom_site_fract_y
_atom_site_fract_z
Si Si1 0.599088 0.395004 0.638866
Si Si2 0.381649 0.784870 0.936278
Si Si3 0.791011 0.469209 0.748052
Si Si4 0.749262 0.364714 0.469876
Si Si5 0.500000 0.325399 0.750000
Si Si6 0.814585 0.319642 0.305718
Si Si7 0.547791 0.341683 0.185000
O O1 0.689602 0.458365 0.700623
O O2 0.560272 0.390947 0.725885
O O3 0.626011 0.278229 0.646660
O O4 0.518605 0.410868 0.460442
O O5 0.356331 0.899771 0.895136
O O6 0.286826 0.722244 0.831038
O O7 0.431436 0.750342 0.874493
O O8 0.437182 0.744934 0.103376
O O9 0.777760 0.419022 0.612533
O O10 0.827729 0.578042 0.755309
O O11 0.750000 0.250000 0.500000
O O12 0.814860 0.365962 0.431961
O O13 0.645207 0.389680 0.322142
O O14 0.500000 0.312572 0.250000
#
# Coordination Sequence:
#
# PCOD9254676 Si02
#       7
#     8   8   8   8   4   8   8
#     4  10  21  38  61  89 119 168 204 248 315 364
#     4   9  21  38  58  83 116 163 203 242 301 367
#     4  11  21  37  64  90 120 158 208 257 303 365
#     4  11  18  37  62  89 120 158 207 253 300 365
#     4  10  22  40  60  78 132 166 196 248 320 368
#     4  10  22  37  62  94 116 158 216 249 304 368
#     4  10  16  32  63  85 113 153 198 256 300 349
#
# _framework density 22.442039000000001
#
# number of rings (size 3 to 8) (size 9 to 14) (size 15 to 20)
#    0.000    1.846    6.154    0.000    0.000    4.923 
#    0.000   11.538   13.538    0.000    0.000    0.000 
#    0.000    0.000    0.000    0.000    0.000    0.000 
#
# Total GULP energy -145106.781973 kJ/mol
# GULP energy per Si atom -5581.030076 kJ/mol
# Density = 2.239096 g / cm^3
# Si number density = 22.442039 Si / 1000 Ang^3
#
#
#
# Elastic Constant Matrix: (Units=GPa)
#
#
# Indices 1 2 3 4 5 6 
#
# 1 71.3211 -5.7541 34.8935 0.0000 -18.5014 0.0000
# 2 -5.7541 103.4186 24.9365 0.0000 6.1052 0.0000
# 3 34.8935 24.9365 109.9917 0.0000 -16.5767 0.0000
# 4 0.0000 0.0000 0.0000 1.8155 0.0000 -21.7413
# 5 -18.5014 6.1052 -16.5767 0.0000 30.6476 0.0000
# 6 0.0000 0.0000 0.0000 -21.7413 0.0000 8.5289
#
#
#
# Elastic Compliance Matrix: (Units=1/GPa)
#
#
# Indices 1 2 3 4 5 6 
#
# 1 0.018812 0.001800 -0.005137 0.000000 0.008219 0.000000
# 2 0.001800 0.010776 -0.003455 0.000000 -0.002929 0.000000
# 3 -0.005137 -0.003455 0.012130 0.000000 0.004148 0.000000
# 4 0.000000 0.000000 0.000000 -0.018655 0.000000 -0.047553
# 5 0.008219 -0.002929 0.004148 0.000000 0.040418 0.000000
# 6 0.000000 0.000000 0.000000 -0.047553 0.000000 -0.003971
#
#
# Mechanical properties :
#
#
# Convention : Reuss Voigt Hill
#
# Bulk Modulus (GPa) = 35.54640 43.65370 39.60005
# Shear Modulus (GPa) = 60.62666 23.57544 42.10105
#
# Velocity S-wave (km/s) = 5.20321 3.24466 4.33597
# Velocity P-wave (km/s) = 7.20912 5.79060 6.53845
#
# Compressibility (1/GPa) = 0.02813224
#
# Stress axis : x y z
#
# Youngs Moduli (GPa) = 53.15809 92.80148 82.44129
#
# Poissons Ratio (x) = -0.16706 0.42352
# Poissons Ratio (y) = -0.09569 0.28487
# Poissons Ratio (z) = 0.27309 0.32067
#
# Static dielectric constant tensor:
#      x y z
#    x 1.882690 0.000000 0.079230 
#    y 0.000000 2.166520 0.000000 
#    z 0.079230 0.000000 1.783560 
# 
# From -- ./inp_files/105237.got.cif
#   From: 2010.05.17/outbox.cif.g08.bks.cpg/sg15_53_cif.got.tgz:105237.got - 2010.06.03 18:47:42.
