data_PCOD9254996
_publ_section_title
;
Structure prediction by ZEFSAII (Michael W. Deem and Ramdas Pophale) SiO2 
 PCOD9254996
Probable space group: C 2/C
;
_chemical_formula_sum "Si O2"
_cell_formula_units_Z 64
_cell_length_a 17.586318
_cell_length_b 22.750167
_cell_length_c 13.246046
_cell_angle_alpha 90.000000
_cell_angle_beta 48.960361
_cell_angle_gamma 90.000000
_cell_volume 3997.277193
_symmetry_space_group_name_H-M "C 2/C"
_symmetry_group_IT_number 15
_symmetry_cell_setting 'monoclinic'
loop_
_space_group_symop_operation_xyz
x,y,z
-x,y,1/2-z
-x,-y,-z
x,-y,1/2+z
1/2+x,1/2+y,z
1/2-x,1/2+y,1/2-z
1/2-x,1/2-y,-z
1/2+x,1/2-y,1/2+z
loop_
_atom_site_type_symbol
_atom_site_label
_atom_site_fract_x
_atom_site_fract_y
_atom_site_fract_z
Si Si1 0.554311 0.472505 0.805455
Si Si2 0.473260 0.658456 0.887616
Si Si3 0.902975 0.738987 0.116201
Si Si4 0.607989 0.341220 0.710159
Si Si5 0.726287 0.276991 0.911047
Si Si6 0.895924 0.275687 0.154153
Si Si7 0.722841 0.668049 0.905540
Si Si8 0.897289 0.931527 0.100673
O O1 0.500000 0.491411 0.750000
O O2 0.606043 0.408532 0.749514
O O3 0.627239 0.520415 0.792643
O O4 0.456832 0.463920 0.960811
O O5 0.500000 0.643885 0.750000
O O6 0.533894 0.717364 0.866034
O O7 0.644603 0.671526 0.496180
O O8 0.519179 0.610280 0.920968
O O9 0.824346 0.706623 0.258677
O O10 0.839712 0.778745 0.092634
O O11 0.990504 0.707885 0.975209
O O12 0.500000 0.333677 0.750000
O O13 0.610006 0.290507 0.793114
O O14 0.691401 0.334113 0.549960
O O15 0.670123 0.228084 0.890634
O O16 0.750000 0.250000 0.000000
O O17 0.838755 0.317485 0.282106
O O18 0.686284 0.609794 0.877612
#
# Coordination Sequence:
#
# PCOD9254996 Si02
#       8
#     8   8   8   8   8   8   8   8
#     4  10  18  30  47  66  93 134 160 200 245 286
#     4  10  17  27  43  62  91 126 162 200 239 281
#     4   9  17  29  41  64  91 128 164 195 232 292
#     4  11  17  32  50  68 100 133 162 197 247 296
#     4  10  18  28  42  61  90 130 169 196 234 282
#     4  10  20  29  47  69  94 137 161 196 248 296
#     4  10  18  31  48  67 101 132 158 196 246 300
#     4  10  19  30  45  68  97 126 162 200 241 294
#
# _framework density 16.010898000000001
#
# number of rings (size 3 to 8) (size 9 to 14) (size 15 to 20)
#    0.000    2.000    5.000    2.250    0.000    0.000 
#    0.000    0.000    0.000    0.000    0.000    0.000 
#    0.000   16.000   20.750    0.000    0.000    0.250 
#
# Total GULP energy -178162.584858 kJ/mol
# GULP energy per Si atom -5567.580777 kJ/mol
# Density = 1.597446 g / cm^3
# Si number density = 16.010898 Si / 1000 Ang^3
#
#
#
# Elastic Constant Matrix: (Units=GPa)
#
#
# Indices 1 2 3 4 5 6 
#
# 1 35.1158 14.0146 26.4577 0.0000 -2.0573 0.0000
# 2 14.0146 43.8790 24.5278 0.0000 -2.3096 0.0000
# 3 26.4577 24.5278 122.2830 0.0000 -11.2969 0.0000
# 4 0.0000 0.0000 0.0000 17.9021 0.0000 0.8568
# 5 -2.0573 -2.3096 -11.2969 0.0000 31.0606 0.0000
# 6 0.0000 0.0000 0.0000 0.8568 0.0000 12.4979
#
#
#
# Elastic Compliance Matrix: (Units=1/GPa)
#
#
# Indices 1 2 3 4 5 6 
#
# 1 0.036443 -0.008146 -0.006296 0.000000 -0.000482 0.000000
# 2 -0.008146 0.027489 -0.003738 0.000000 0.000145 0.000000
# 3 -0.006296 -0.003738 0.010581 0.000000 0.003153 0.000000
# 4 0.000000 0.000000 0.000000 0.056043 0.000000 -0.003842
# 5 -0.000482 0.000145 0.003153 0.000000 0.033321 0.000000
# 6 0.000000 0.000000 0.000000 -0.003842 0.000000 0.080277
#
#
# Mechanical properties :
#
#
# Convention : Reuss Voigt Hill
#
# Bulk Modulus (GPa) = 26.20939 36.80868 31.50903
# Shear Modulus (GPa) = 17.05143 21.37732 19.21438
#
# Velocity S-wave (km/s) = 3.26696 3.65797 3.46798
# Velocity P-wave (km/s) = 5.53497 6.39380 5.97982
#
# Compressibility (1/GPa) = 0.03815426
#
# Stress axis : x y z
#
# Youngs Moduli (GPa) = 27.43988 36.37858 94.50925
#
# Poissons Ratio (x) = 0.29634 0.59499
# Poissons Ratio (y) = 0.22352 0.35326
# Poissons Ratio (z) = 0.17275 0.13598
#
# Static dielectric constant tensor:
#      x y z
#    x 1.559490 0.000000 0.017790 
#    y 0.000000 1.549220 0.000000 
#    z 0.017790 0.000000 1.597500 
# 
# From -- ./inp_files/107948.got.cif
#   From: 2010.05.17/outbox.cif.g08.bks.cpg/sg15_54_cif.got.tgz:107948.got - 2010.06.03 18:47:42.
