data_PCOD9254551
_publ_section_title
;
Structure prediction by ZEFSAII (Michael W. Deem and Ramdas Pophale) SiO2 
 PCOD9254551
Probable space group: C 2/C
;
_chemical_formula_sum "Si O2"
_cell_formula_units_Z 48
_cell_length_a 22.538680
_cell_length_b 27.741572
_cell_length_c 5.154093
_cell_angle_alpha 90.000000
_cell_angle_beta 122.376790
_cell_angle_gamma 90.000000
_cell_volume 2721.664237
_symmetry_space_group_name_H-M "C 2/C"
_symmetry_group_IT_number 15
_symmetry_cell_setting 'monoclinic'
loop_
_space_group_symop_operation_xyz
x,y,z
-x,y,1/2-z
-x,-y,-z
x,-y,1/2+z
1/2+x,1/2+y,z
1/2-x,1/2+y,1/2-z
1/2-x,1/2-y,-z
1/2+x,1/2-y,1/2+z
loop_
_atom_site_type_symbol
_atom_site_label
_atom_site_fract_x
_atom_site_fract_y
_atom_site_fract_z
Si Si1 0.241835 0.691315 0.744278
Si Si2 0.341325 0.466526 0.888508
Si Si3 0.500000 0.750710 0.250000
Si Si4 0.430881 0.324475 0.189972
Si Si5 0.134540 0.253850 0.318922
Si Si6 0.500000 0.534069 0.750000
Si Si7 0.215112 0.133926 0.134538
O O1 0.300694 0.734082 0.854820
O O2 0.265231 0.659625 0.049008
O O3 0.170412 0.716512 0.671545
O O4 0.238706 0.657790 0.484779
O O5 0.333716 0.493766 0.597094
O O6 0.421063 0.444596 0.071470
O O7 0.288033 0.422965 0.821392
O O8 0.539805 0.715393 0.544209
O O9 0.566355 0.778899 0.284290
O O10 0.500000 0.352077 0.250000
O O11 0.364593 0.352710 0.142315
O O12 0.399334 0.294495 0.877537
O O13 0.500000 0.500000 0.500000
#
# Coordination Sequence:
#
# PCOD9254551 Si02
#       7
#     8   8   4   8   8   4   8
#     4  10  21  33  50  72  96 132 166 209 242 289
#     4  10  20  35  50  67  93 125 162 206 258 297
#     4  10  16  32  47  70  96 136 168 202 240 283
#     4   9  19  30  45  71  96 129 171 205 239 281
#     4   9  19  31  49  67 102 130 169 200 246 287
#     4   8  16  30  45  64  84 116 156 192 244 295
#     4  11  21  34  50  71  95 128 171 210 247 284
#
# _framework density 17.636268000000001
#
# number of rings (size 3 to 8) (size 9 to 14) (size 15 to 20)
#    0.000    2.333    1.667    1.000    3.500    2.000 
#    0.000    0.833    0.000    0.000    0.000    0.000 
#    0.000    0.000    0.000   15.000    0.000    0.000 
#
# Total GULP energy -133608.232164 kJ/mol
# GULP energy per Si atom -5567.009674 kJ/mol
# Density = 1.759613 g / cm^3
# Si number density = 17.636268 Si / 1000 Ang^3
#
#
#
# Elastic Constant Matrix: (Units=GPa)
#
#
# Indices 1 2 3 4 5 6 
#
# 1 117.1682 31.4828 9.5869 0.0000 -0.8430 0.0000
# 2 31.4828 46.1622 -4.9391 0.0000 -0.6239 0.0000
# 3 9.5869 -4.9391 42.8454 0.0000 -11.5065 0.0000
# 4 0.0000 0.0000 0.0000 7.1343 0.0000 -3.6278
# 5 -0.8430 -0.6239 -11.5065 0.0000 27.2842 0.0000
# 6 0.0000 0.0000 0.0000 -3.6278 0.0000 17.2977
#
#
#
# Elastic Compliance Matrix: (Units=1/GPa)
#
#
# Indices 1 2 3 4 5 6 
#
# 1 0.010950 -0.007887 -0.003741 0.000000 -0.001420 0.000000
# 2 -0.007887 0.027690 0.005708 0.000000 0.002797 0.000000
# 3 -0.003741 0.005708 0.028011 0.000000 0.011828 0.000000
# 4 0.000000 0.000000 0.000000 0.156900 0.000000 0.032907
# 5 -0.001420 0.002797 0.011828 0.000000 0.041660 0.000000
# 6 0.000000 0.000000 0.000000 0.032907 0.000000 0.064713
#
#
# Mechanical properties :
#
#
# Convention : Reuss Voigt Hill
#
# Bulk Modulus (GPa) = 18.24424 30.93746 24.59085
# Shear Modulus (GPa) = 13.88756 21.67960 17.78358
#
# Velocity S-wave (km/s) = 2.80919 3.50989 3.17890
# Velocity P-wave (km/s) = 4.57047 5.83145 5.23904
#
# Compressibility (1/GPa) = 0.05481181
#
# Stress axis : x y z
#
# Youngs Moduli (GPa) = 91.32530 36.11362 35.69997
#
# Poissons Ratio (x) = 0.28484 0.13354
# Poissons Ratio (y) = 0.72031 -0.20377
# Poissons Ratio (z) = 0.34161 -0.20613
#
# Static dielectric constant tensor:
#      x y z
#    x 1.712650 0.000000 -0.008850 
#    y 0.000000 1.604240 0.000000 
#    z -0.008850 0.000000 1.662050 
# 
# From -- ./inp_files/10685.got.cif
#   From: 2010.05.17/outbox.cif.g08.bks.cpg/sg15_6_cif.got.tgz:10685.got - 2010.06.03 18:47:42.
