data_PCOD9254657
_publ_section_title
;
Structure prediction by ZEFSAII (Michael W. Deem and Ramdas Pophale) SiO2 
 PCOD9254657
Probable space group: C 2/C
;
_chemical_formula_sum "Si O2"
_cell_formula_units_Z 52
_cell_length_a 9.096763
_cell_length_b 18.150430
_cell_length_c 17.494957
_cell_angle_alpha 90.000000
_cell_angle_beta 70.850962
_cell_angle_gamma 90.000000
_cell_volume 2728.764873
_symmetry_space_group_name_H-M "C 2/C"
_symmetry_group_IT_number 15
_symmetry_cell_setting 'monoclinic'
loop_
_space_group_symop_operation_xyz
x,y,z
-x,y,1/2-z
-x,-y,-z
x,-y,1/2+z
1/2+x,1/2+y,z
1/2-x,1/2+y,1/2-z
1/2-x,1/2-y,-z
1/2+x,1/2-y,1/2+z
loop_
_atom_site_type_symbol
_atom_site_label
_atom_site_fract_x
_atom_site_fract_y
_atom_site_fract_z
Si Si1 0.628948 0.671975 0.952534
Si Si2 0.268149 0.828229 0.596442
Si Si3 0.661364 0.995911 0.891470
Si Si4 0.600993 0.934153 0.157564
Si Si5 0.500000 0.349723 0.750000
Si Si6 0.163361 0.018458 0.296400
Si Si7 0.925338 0.950161 0.445263
O O1 0.625286 0.756955 0.929865
O O2 0.771374 0.627146 0.887101
O O3 0.467145 0.631904 0.962420
O O4 0.672874 0.665471 0.033845
O O5 0.349267 0.907150 0.597381
O O6 0.140793 0.810855 0.683561
O O7 0.768547 0.003610 0.797157
O O8 0.508828 0.041456 0.893739
O O9 0.753158 0.028079 0.948801
O O10 0.500000 0.911584 0.250000
O O11 0.695214 0.007108 0.169062
O O12 0.416838 0.403035 0.702027
O O13 0.029997 0.967069 0.352976
O O14 0.000000 0.000000 0.500000
#
# Coordination Sequence:
#
# PCOD9254657 Si02
#       7
#     8   8   8   8   4   8   8
#     4  10  21  34  52  79 114 133 177 223 274 308
#     4  10  20  34  54  77 106 145 175 221 265 325
#     4  10  18  34  56  76 104 140 184 213 267 317
#     4   9  20  33  54  80 111 138 176 227 271 311
#     4  10  16  32  60  76  98 144 190 212 260 334
#     4   9  16  31  52  78  99 136 180 225 248 317
#     4  11  17  31  54  80 102 138 181 220 259 317
#
# _framework density 19.056242000000001
#
# number of rings (size 3 to 8) (size 9 to 14) (size 15 to 20)
#    0.000    2.154    4.615    0.000    1.077    0.615 
#    0.000    0.000    3.385   14.769    0.000    0.000 
#    0.000    0.000    0.000    0.000    0.000    0.000 
#
# Total GULP energy -144813.354407 kJ/mol
# GULP energy per Si atom -5569.744400 kJ/mol
# Density = 1.901287 g / cm^3
# Si number density = 19.056242 Si / 1000 Ang^3
#
#
#
# Elastic Constant Matrix: (Units=GPa)
#
#
# Indices 1 2 3 4 5 6 
#
# 1 85.5109 30.5388 10.2872 0.0000 31.3548 0.0000
# 2 30.5388 81.2640 27.3208 0.0000 17.6017 0.0000
# 3 10.2872 27.3208 49.5316 0.0000 5.3909 0.0000
# 4 0.0000 0.0000 0.0000 13.7472 0.0000 -3.9301
# 5 31.3548 17.6017 5.3909 0.0000 32.7293 0.0000
# 6 0.0000 0.0000 0.0000 -3.9301 0.0000 15.8521
#
#
#
# Elastic Compliance Matrix: (Units=1/GPa)
#
#
# Indices 1 2 3 4 5 6 
#
# 1 0.018917 -0.003528 -0.000221 0.000000 -0.016189 0.000000
# 2 -0.003528 0.017454 -0.008391 0.000000 -0.004625 0.000000
# 3 -0.000221 -0.008391 0.024794 0.000000 0.000641 0.000000
# 4 0.000000 0.000000 0.000000 0.078291 0.000000 0.019410
# 5 -0.016189 -0.004625 0.000641 0.000000 0.048444 0.000000
# 6 0.000000 0.000000 0.000000 0.019410 0.000000 0.067895
#
#
# Mechanical properties :
#
#
# Convention : Reuss Voigt Hill
#
# Bulk Modulus (GPa) = 27.11182 39.17781 33.14482
# Shear Modulus (GPa) = 17.10150 22.34303 19.72226
#
# Velocity S-wave (km/s) = 2.99895 3.42786 3.22055
# Velocity P-wave (km/s) = 5.12345 6.02251 5.59108
#
# Compressibility (1/GPa) = 0.03688428
#
# Stress axis : x y z
#
# Youngs Moduli (GPa) = 52.86225 57.29229 40.33259
#
# Poissons Ratio (x) = 0.20214 0.00891
# Poissons Ratio (y) = 0.18651 0.33845
# Poissons Ratio (z) = 0.01167 0.48076
#
# Static dielectric constant tensor:
#      x y z
#    x 1.701850 0.000000 -0.019730 
#    y 0.000000 1.662110 0.000000 
#    z -0.019730 0.000000 1.680710 
# 
# From -- ./inp_files/190415.got.cif
#   From: 2010.05.17/outbox.cif.g08.bks.cpg/sg15_96_cif.got.tgz:190415.got - 2010.06.03 18:47:42.
