data_PCOD9254783
_publ_section_title
;
Structure prediction by ZEFSAII (Michael W. Deem and Ramdas Pophale) SiO2 
 PCOD9254783
Probable space group: C 2/C
;
_chemical_formula_sum "Si O2"
_cell_formula_units_Z 28
_cell_length_a 26.810721
_cell_length_b 6.790700
_cell_length_c 11.737918
_cell_angle_alpha 90.000000
_cell_angle_beta 148.850180
_cell_angle_gamma 90.000000
_cell_volume 1105.446799
_symmetry_space_group_name_H-M "C 2/C"
_symmetry_group_IT_number 15
_symmetry_cell_setting 'monoclinic'
loop_
_space_group_symop_operation_xyz
x,y,z
-x,y,1/2-z
-x,-y,-z
x,-y,1/2+z
1/2+x,1/2+y,z
1/2-x,1/2+y,1/2-z
1/2-x,1/2-y,-z
1/2+x,1/2-y,1/2+z
loop_
_atom_site_type_symbol
_atom_site_label
_atom_site_fract_x
_atom_site_fract_y
_atom_site_fract_z
Si Si1 0.663293 0.663068 0.998821
Si Si2 0.188169 0.371576 0.286862
Si Si3 0.500000 0.348519 0.750000
Si Si4 0.016267 0.240025 0.527607
O O1 0.757142 0.576456 0.121877
O O2 0.690657 0.780035 0.164965
O O3 0.591692 0.486892 0.900193
O O4 0.600891 0.778140 0.782955
O O5 0.250000 0.250000 0.500000
O O6 0.079273 0.346508 0.115575
O O7 0.472990 0.225340 0.585806
O O8 0.000000 0.000000 0.500000
#
# Coordination Sequence:
#
# PCOD9254783 Si02
#       4
#     8   8   4   8
#     4  11  21  37  67  94 131 171 216 273 331 387
#     4  12  21  38  67 100 130 170 227 268 326 402
#     4  10  16  34  62  92 114 170 212 250 322 384
#     4  10  18  35  65  92 121 171 212 267 324 382
#
# _framework density 25.329125000000001
#
# number of rings (size 3 to 8) (size 9 to 14) (size 15 to 20)
#    0.000    1.143   11.429    0.000    0.000    0.000 
#    0.000    5.714    6.286    8.571    0.000    0.000 
#    0.000    0.000    0.000    0.000    0.000    0.000 
#
# Total GULP energy -78492.539115 kJ/mol
# GULP energy per Si atom -5606.609937 kJ/mol
# Density = 2.527147 g / cm^3
# Si number density = 25.329125 Si / 1000 Ang^3
#
#
#
# Elastic Constant Matrix: (Units=GPa)
#
#
# Indices 1 2 3 4 5 6 
#
# 1 193.2158 48.9640 116.7460 0.0000 -12.2207 0.0000
# 2 48.9640 80.1522 60.0038 0.0000 -2.2601 0.0000
# 3 116.7460 60.0038 244.1808 0.0000 -27.4318 0.0000
# 4 0.0000 0.0000 0.0000 45.4184 0.0000 -6.7655
# 5 -12.2207 -2.2601 -27.4318 0.0000 79.6125 0.0000
# 6 0.0000 0.0000 0.0000 -6.7655 0.0000 41.8915
#
#
#
# Elastic Compliance Matrix: (Units=1/GPa)
#
#
# Indices 1 2 3 4 5 6 
#
# 1 0.007627 -0.002368 -0.003059 0.000000 0.000049 0.000000
# 2 -0.002368 0.016085 -0.002923 0.000000 -0.000914 0.000000
# 3 -0.003059 -0.002923 0.006465 0.000000 0.001675 0.000000
# 4 0.000000 0.000000 0.000000 0.022560 0.000000 0.003643
# 5 0.000049 -0.000914 0.001675 0.000000 0.013120 0.000000
# 6 0.000000 0.000000 0.000000 0.003643 0.000000 0.024460
#
#
# Mechanical properties :
#
#
# Convention : Reuss Voigt Hill
#
# Bulk Modulus (GPa) = 74.20395 107.66403 90.93399
# Shear Modulus (GPa) = 44.83920 52.84015 48.83968
#
# Velocity S-wave (km/s) = 4.21201 4.57239 4.39589
# Velocity P-wave (km/s) = 7.28109 8.39487 7.85774
#
# Compressibility (1/GPa) = 0.01347637
#
# Stress axis : x y z
#
# Youngs Moduli (GPa) = 131.10977 62.16802 154.68989
#
# Poissons Ratio (x) = 0.14720 0.47324
# Poissons Ratio (y) = 0.31043 0.45222
# Poissons Ratio (z) = 0.40110 0.18174
#
# Static dielectric constant tensor:
#      x y z
#    x 1.973940 0.000000 0.035200 
#    y 0.000000 2.179600 0.000000 
#    z 0.035200 0.000000 1.992260 
# 
# From -- ./inp_files/83628.got.cif
#   From: 2010.05.17/outbox.cif.g08.bks.cpg/sg15_42_cif.got.tgz:83628.got - 2010.06.03 18:47:42.
