data_PCOD9254557
_publ_section_title
;
Structure prediction by ZEFSAII (Michael W. Deem and Ramdas Pophale) SiO2 
 PCOD9254557
Probable space group: C 2/C
;
_chemical_formula_sum "Si O2"
_cell_formula_units_Z 32
_cell_length_a 18.289108
_cell_length_b 5.351051
_cell_length_c 38.895887
_cell_angle_alpha 90.000000
_cell_angle_beta 159.427677
_cell_angle_gamma 90.000000
_cell_volume 1337.593038
_symmetry_space_group_name_H-M "C 2/C"
_symmetry_group_IT_number 15
_symmetry_cell_setting 'monoclinic'
loop_
_space_group_symop_operation_xyz
x,y,z
-x,y,1/2-z
-x,-y,-z
x,-y,1/2+z
1/2+x,1/2+y,z
1/2-x,1/2+y,1/2-z
1/2-x,1/2-y,-z
1/2+x,1/2-y,1/2+z
loop_
_atom_site_type_symbol
_atom_site_label
_atom_site_fract_x
_atom_site_fract_y
_atom_site_fract_z
Si Si1 0.358504 0.846021 0.720759
Si Si2 0.543304 0.949830 0.447765
Si Si3 0.109972 0.474503 0.691491
Si Si4 0.544124 0.445953 0.479600
O O1 0.500000 0.823543 0.750000
O O2 0.203627 0.609525 0.655514
O O3 0.469000 0.911899 0.804940
O O4 0.186308 0.059388 0.638912
O O5 0.641299 0.689943 0.504106
O O6 0.551638 0.014265 0.411220
O O7 0.627109 0.173677 0.507636
O O8 0.230328 0.741498 0.744744
O O9 0.500000 0.500000 0.500000
#
# Coordination Sequence:
#
# PCOD9254557 Si02
#       4
#     8   8   8   8
#     4   9  20  31  52  79 102 125 163 215 255 281
#     4   9  18  32  51  72  95 132 168 200 242 294
#     4  10  16  32  49  73  97 130 166 203 240 299
#     4  10  19  32  52  73  99 133 170 199 239 301
#
# _framework density 23.923569000000001
#
# number of rings (size 3 to 8) (size 9 to 14) (size 15 to 20)
#    1.500    1.000    2.500    0.750    0.000    1.000 
#    0.000    0.000    0.000    3.000    0.000    0.000 
#    0.000    0.000    0.000    0.000    0.000    0.000 
#
# Total GULP energy -89193.661410 kJ/mol
# GULP energy per Si atom -5574.603838 kJ/mol
# Density = 2.386912 g / cm^3
# Si number density = 23.923569 Si / 1000 Ang^3
#
#
#
# Elastic Constant Matrix: (Units=GPa)
#
#
# Indices 1 2 3 4 5 6 
#
# 1 123.8512 42.1541 9.5861 0.0140 -32.4366 0.0249
# 2 42.1541 188.7823 33.3951 0.0342 -13.7408 0.0320
# 3 9.5861 33.3951 49.1063 0.0402 -13.5469 0.0181
# 4 0.0140 0.0342 0.0402 36.3335 -0.0086 -9.0553
# 5 -32.4366 -13.7408 -13.5469 -0.0086 40.9996 -0.0103
# 6 0.0249 0.0320 0.0181 -9.0553 -0.0103 14.1408
#
#
#
# Elastic Compliance Matrix: (Units=1/GPa)
#
#
# Indices 1 2 3 4 5 6 
#
# 1 0.010873 -0.002103 0.001635 -0.000005 0.008438 -0.000014
# 2 -0.002103 0.006448 -0.004222 -0.000003 -0.000898 -0.000008
# 3 0.001635 -0.004222 0.025178 -0.000033 0.008198 -0.000041
# 4 -0.000005 -0.000003 -0.000033 0.032750 -0.000004 0.020972
# 5 0.008438 -0.000898 0.008198 -0.000004 0.033474 -0.000001
# 6 -0.000014 -0.000008 -0.000041 0.020972 -0.000001 0.084147
#
#
# Mechanical properties :
#
#
# Convention : Reuss Voigt Hill
#
# Bulk Modulus (GPa) = 30.19393 59.11227 44.65310
# Shear Modulus (GPa) = 23.44227 36.73507 30.08867
#
# Velocity S-wave (km/s) = 3.13370 3.92282 3.55025
# Velocity P-wave (km/s) = 5.07364 6.72908 5.95912
#
# Compressibility (1/GPa) = 0.03311924
#
# Stress axis : x y z
#
# Youngs Moduli (GPa) = 91.96823 155.07988 39.71761
#
# Poissons Ratio (x) = 0.32615 -0.06495
# Poissons Ratio (y) = 0.19342 0.16770
# Poissons Ratio (z) = -0.15040 0.65480
#
# Static dielectric constant tensor:
#      x y z
#    x 1.956220 0.000050 0.019680 
#    y 0.000050 2.059530 0.000200 
#    z 0.019680 0.000200 1.943070 
# 
# From -- ./inp_files/201864.got.cif
#   From: 2010.05.17/outbox.cif.g08.bks.cpg/sg15_101_cif.got.tgz:201864.got - 2010.06.03 18:47:42.
