data_PCOD9254923
_publ_section_title
;
Structure prediction by ZEFSAII (Michael W. Deem and Ramdas Pophale) SiO2 
 PCOD9254923
Probable space group: C 2/C
;
_chemical_formula_sum "Si O2"
_cell_formula_units_Z 56
_cell_length_a 22.204410
_cell_length_b 8.530127
_cell_length_c 11.725141
_cell_angle_alpha 90.000000
_cell_angle_beta 60.492076
_cell_angle_gamma 90.000000
_cell_volume 1932.749624
_symmetry_space_group_name_H-M "C 2/C"
_symmetry_group_IT_number 15
_symmetry_cell_setting 'monoclinic'
loop_
_space_group_symop_operation_xyz
x,y,z
-x,y,1/2-z
-x,-y,-z
x,-y,1/2+z
1/2+x,1/2+y,z
1/2-x,1/2+y,1/2-z
1/2-x,1/2-y,-z
1/2+x,1/2-y,1/2+z
loop_
_atom_site_type_symbol
_atom_site_label
_atom_site_fract_x
_atom_site_fract_y
_atom_site_fract_z
Si Si1 0.770602 0.988723 0.499146
Si Si2 0.267115 0.768699 0.669322
Si Si3 0.124279 0.226568 0.356570
Si Si4 0.616035 0.018785 0.181760
Si Si5 0.412058 0.777118 0.481583
Si Si6 0.503858 0.843712 0.575635
Si Si7 0.418721 0.494902 0.297183
O O1 0.757326 0.116462 0.409412
O O2 0.775895 0.096131 0.608163
O O3 0.693136 0.920287 0.584845
O O4 0.843843 0.912518 0.395076
O O5 0.205130 0.779705 0.814925
O O6 0.345197 0.812307 0.622481
O O7 0.121566 0.374691 0.269545
O O8 0.079564 0.273050 0.507391
O O9 0.096140 0.075138 0.313693
O O10 0.583040 0.930743 0.102352
O O11 0.555593 0.134964 0.276739
O O12 0.470675 0.727962 0.512596
O O13 0.409343 0.641183 0.392376
O O14 0.500000 0.000000 0.500000
O O15 0.500000 0.444435 0.250000
#
# Coordination Sequence:
#
# PCOD9254923 Si02
#       7
#     8   8   8   8   8   8   8
#     4   7  11  19  29  44  62  91 119 140 170 204
#     4   7  11  20  32  41  60  92 120 139 166 215
#     4   8  13  20  29  46  67  91 117 144 173 203
#     4   8  15  23  31  43  72 101 121 139 163 216
#     4   9  15  23  32  46  70 103 122 131 175 213
#     4  10  17  21  31  50  74  99 121 143 169 212
#     4   9  12  17  32  48  68  92 116 143 173 217
#
# _framework density 28.974264999999999
#
# number of rings (size 3 to 8) (size 9 to 14) (size 15 to 20)
#    0.000    3.714    1.429    3.429    0.000    0.000 
#    0.000    0.000    0.000    0.000    0.000    0.000 
#    0.000   38.857    0.000    0.000    0.000    0.000 
#
# Total GULP energy -156296.246649 kJ/mol
# GULP energy per Si atom -5582.008809 kJ/mol
# Density = 2.890832 g / cm^3
# Si number density = 28.974265 Si / 1000 Ang^3
#
#
#
# Elastic Constant Matrix: (Units=GPa)
#
#
# Indices 1 2 3 4 5 6 
#
# 1 141.7770 27.1341 79.9041 0.0000 -49.5474 0.0000
# 2 27.1341 88.3333 46.8756 0.0000 -8.2737 0.0000
# 3 79.9041 46.8756 166.8159 0.0000 -81.3749 0.0000
# 4 0.0000 0.0000 0.0000 12.5348 0.0000 -2.2828
# 5 -49.5474 -8.2737 -81.3749 0.0000 66.2519 0.0000
# 6 0.0000 0.0000 0.0000 -2.2828 0.0000 22.3103
#
#
#
# Elastic Compliance Matrix: (Units=1/GPa)
#
#
# Indices 1 2 3 4 5 6 
#
# 1 0.010240 -0.001600 -0.002039 0.000000 0.004954 0.000000
# 2 -0.001600 0.015144 -0.007859 0.000000 -0.008958 0.000000
# 3 -0.002039 -0.007859 0.019851 0.000000 0.021876 0.000000
# 4 0.000000 0.000000 0.000000 0.081293 0.000000 0.008318
# 5 0.004954 -0.008958 0.021876 0.000000 0.044550 0.000000
# 6 0.000000 0.000000 0.000000 0.008318 0.000000 0.045673
#
#
# Mechanical properties :
#
#
# Convention : Reuss Voigt Hill
#
# Bulk Modulus (GPa) = 44.96396 78.30598 61.63497
# Shear Modulus (GPa) = 20.22990 36.42023 28.32506
#
# Velocity S-wave (km/s) = 2.64522 3.54925 3.13004
# Velocity P-wave (km/s) = 4.98817 6.62427 5.86356
#
# Compressibility (1/GPa) = 0.02224003
#
# Stress axis : x y z
#
# Youngs Moduli (GPa) = 97.65834 66.03436 50.37513
#
# Poissons Ratio (x) = 0.10563 0.10269
# Poissons Ratio (y) = 0.15622 0.39590
# Poissons Ratio (z) = 0.19908 0.51897
#
# Static dielectric constant tensor:
#      x y z
#    x 2.467880 0.000000 -0.064420 
#    y 0.000000 2.289650 0.000000 
#    z -0.064420 0.000000 2.235910 
# 
# From -- ./inp_files/106072.got.cif
#   From: 2010.05.17/outbox.cif.g08.bks.cpg/sg15_54_cif.got.tgz:106072.got - 2010.06.03 18:47:42.
