data_PCOD9254658
_publ_section_title
;
Structure prediction by ZEFSAII (Michael W. Deem and Ramdas Pophale) SiO2 
 PCOD9254658
Probable space group: C 2/C
;
_chemical_formula_sum "Si O2"
_cell_formula_units_Z 64
_cell_length_a 31.011794
_cell_length_b 24.014053
_cell_length_c 5.342456
_cell_angle_alpha 90.000000
_cell_angle_beta 68.591602
_cell_angle_gamma 90.000000
_cell_volume 3704.111701
_symmetry_space_group_name_H-M "C 2/C"
_symmetry_group_IT_number 15
_symmetry_cell_setting 'monoclinic'
loop_
_space_group_symop_operation_xyz
x,y,z
-x,y,1/2-z
-x,-y,-z
x,-y,1/2+z
1/2+x,1/2+y,z
1/2-x,1/2+y,1/2-z
1/2-x,1/2-y,-z
1/2+x,1/2-y,1/2+z
loop_
_atom_site_type_symbol
_atom_site_label
_atom_site_fract_x
_atom_site_fract_y
_atom_site_fract_z
Si Si1 0.530224 0.155015 0.935677
Si Si2 0.052740 0.475054 0.389311
Si Si3 0.322084 0.981009 0.091810
Si Si4 0.716105 0.478657 0.914184
Si Si5 0.796844 0.212540 0.407845
Si Si6 0.629183 0.807103 0.230525
Si Si7 0.775822 0.849719 0.454607
Si Si8 0.331530 0.140930 0.345407
O O1 0.500000 0.161315 0.750000
O O2 0.549187 0.091161 0.895575
O O3 0.573906 0.195834 0.843491
O O4 0.500000 0.161155 0.250000
O O5 0.074298 0.498709 0.596211
O O6 0.000000 0.500000 0.500000
O O7 0.339438 0.976321 0.340674
O O8 0.267905 0.996570 0.254776
O O9 0.327763 0.923279 0.933264
O O10 0.693910 0.486721 0.688337
O O11 0.718479 0.414879 0.995313
O O12 0.750000 0.250000 0.500000
O O13 0.840921 0.251415 0.365781
O O14 0.799247 0.184070 0.130757
O O15 0.792074 0.168650 0.645010
O O16 0.644067 0.830458 0.469850
O O17 0.643176 0.846918 0.968478
O O18 0.720805 0.837364 0.575505
#
# Coordination Sequence:
#
# PCOD9254658 Si02
#       8
#     8   8   8   8   8   8   8   8
#     4  12  23  42  64  77 101 138 173 233 296 343
#     4  10  16  32  60  77  98 123 169 216 285 361
#     4  10  19  30  50  68 103 141 168 229 261 317
#     4  10  19  30  50  74 101 141 186 226 246 327
#     4  12  23  37  55  77 109 145 186 228 272 325
#     4  12  27  39  56  83 106 136 193 236 275 339
#     4  12  21  34  58  74 104 156 180 216 285 310
#     4  12  21  37  54  77 110 139 181 230 274 323
#
# _framework density 17.278095
#
# number of rings (size 3 to 8) (size 9 to 14) (size 15 to 20)
#    0.000    0.750    7.500    3.375    3.500    0.000 
#    0.000    3.750    0.000    0.000    0.000    0.000 
#    0.000    0.000    0.000    0.000    0.000   43.750 
#
# Total GULP energy -178718.177224 kJ/mol
# GULP energy per Si atom -5584.943038 kJ/mol
# Density = 1.723877 g / cm^3
# Si number density = 17.278095 Si / 1000 Ang^3
#
#
#
# Elastic Constant Matrix: (Units=GPa)
#
#
# Indices 1 2 3 4 5 6 
#
# 1 66.7756 29.8915 49.3459 0.0000 5.1939 0.0000
# 2 29.8915 58.6556 26.0225 0.0000 3.1685 0.0000
# 3 49.3459 26.0225 129.8213 0.0000 32.5557 0.0000
# 4 0.0000 0.0000 0.0000 27.6239 0.0000 3.3803
# 5 5.1939 3.1685 32.5557 0.0000 32.7412 0.0000
# 6 0.0000 0.0000 0.0000 3.3803 0.0000 14.3407
#
#
#
# Elastic Compliance Matrix: (Units=1/GPa)
#
#
# Indices 1 2 3 4 5 6 
#
# 1 0.025580 -0.009183 -0.009442 0.000000 0.006219 0.000000
# 2 -0.009183 0.022171 -0.001040 0.000000 0.000346 0.000000
# 3 -0.009442 -0.001040 0.014787 0.000000 -0.013104 0.000000
# 4 0.000000 0.000000 0.000000 0.037276 0.000000 -0.008786
# 5 0.006219 0.000346 -0.013104 0.000000 0.042553 0.000000
# 6 0.000000 0.000000 0.000000 -0.008786 0.000000 0.071803
#
#
# Mechanical properties :
#
#
# Convention : Reuss Voigt Hill
#
# Bulk Modulus (GPa) = 43.09000 51.75247 47.42124
# Shear Modulus (GPa) = 19.13987 24.94067 22.04027
#
# Velocity S-wave (km/s) = 3.33190 3.80344 3.57546
# Velocity P-wave (km/s) = 6.30836 7.02182 6.67463
#
# Compressibility (1/GPa) = 0.02320724
#
# Stress axis : x y z
#
# Youngs Moduli (GPa) = 39.09334 45.10356 67.62856
#
# Poissons Ratio (x) = 0.41417 0.63855
# Poissons Ratio (y) = 0.35898 0.07036
# Poissons Ratio (z) = 0.36912 0.04693
#
# Static dielectric constant tensor:
#      x y z
#    x 1.568900 0.000000 0.044360 
#    y 0.000000 1.608400 0.000000 
#    z 0.044360 0.000000 1.643810 
# 
# From -- ./inp_files/18595.got.cif
#   From: 2010.05.17/outbox.cif.g08.bks.cpg/sg15_10_cif.got.tgz:18595.got - 2010.06.03 18:47:42.
