data_PCOD9254356
_publ_section_title
;
Structure prediction by ZEFSAII (Michael W. Deem and Ramdas Pophale) SiO2 
 PCOD9254356
Probable space group: C 2/C
;
_chemical_formula_sum "Si O2"
_cell_formula_units_Z 52
_cell_length_a 10.364465
_cell_length_b 31.434042
_cell_length_c 8.464777
_cell_angle_alpha 90.000000
_cell_angle_beta 60.654310
_cell_angle_gamma 90.000000
_cell_volume 2403.914928
_symmetry_space_group_name_H-M "C 2/C"
_symmetry_group_IT_number 15
_symmetry_cell_setting 'monoclinic'
loop_
_space_group_symop_operation_xyz
x,y,z
-x,y,1/2-z
-x,-y,-z
x,-y,1/2+z
1/2+x,1/2+y,z
1/2-x,1/2+y,1/2-z
1/2-x,1/2-y,-z
1/2+x,1/2-y,1/2+z
loop_
_atom_site_type_symbol
_atom_site_label
_atom_site_fract_x
_atom_site_fract_y
_atom_site_fract_z
Si Si1 0.917447 0.711440 0.966871
Si Si2 0.000000 0.917943 0.250000
Si Si3 0.793312 0.299094 0.019652
Si Si4 0.680422 0.439645 0.661097
Si Si5 0.652158 0.691484 0.938578
Si Si6 0.162912 0.981546 0.355914
Si Si7 0.638889 0.361086 0.887263
O O1 0.777766 0.683657 0.995376
O O2 0.000000 0.717840 0.750000
O O3 0.038589 0.697601 0.021140
O O4 0.866276 0.757756 0.051127
O O5 0.128899 0.948494 0.237597
O O6 0.932871 0.891048 0.433111
O O7 0.700669 0.316471 0.227926
O O8 0.750000 0.250000 0.000000
O O9 0.754380 0.328913 0.896673
O O10 0.500000 0.440892 0.750000
O O11 0.731787 0.455029 0.457971
O O12 0.737964 0.476067 0.745384
O O13 0.704666 0.393522 0.719892
O O14 0.502279 0.667846 0.072566
O O15 0.000000 0.000000 0.500000
#
# Coordination Sequence:
#
# PCOD9254356 Si02
#       7
#     8   4   8   8   8   8   8
#     4   9  20  37  53  70  97 140 183 226 278 327
#     4  12  18  30  48  74 114 146 172 218 272 330
#     4  11  21  35  53  73 103 143 185 228 280 324
#     4  10  18  30  48  75 112 145 172 211 277 336
#     4  10  20  36  52  73 101 135 186 232 273 321
#     4  10  16  30  48  72 114 151 164 207 281 341
#     4  12  21  31  51  79 109 140 184 230 266 323
#
# _framework density 21.631383
#
# number of rings (size 3 to 8) (size 9 to 14) (size 15 to 20)
#    0.000    1.538    8.462    0.000    0.000    0.615 
#    2.769    0.000    0.000    0.000    0.000    0.000 
#    0.000   14.769    0.000    1.846    0.000    0.154 
#
# Total GULP energy -145137.968762 kJ/mol
# GULP energy per Si atom -5582.229568 kJ/mol
# Density = 2.158215 g / cm^3
# Si number density = 21.631383 Si / 1000 Ang^3
#
#
#
# Elastic Constant Matrix: (Units=GPa)
#
#
# Indices 1 2 3 4 5 6 
#
# 1 118.7570 30.2202 42.1825 0.0000 28.9420 0.0000
# 2 30.2202 98.6723 45.6384 0.0000 29.2196 0.0000
# 3 42.1825 45.6384 67.9074 0.0000 27.3996 0.0000
# 4 0.0000 0.0000 0.0000 19.1309 0.0000 19.1526
# 5 28.9420 29.2196 27.3996 0.0000 29.2810 0.0000
# 6 0.0000 0.0000 0.0000 19.1526 0.0000 29.0505
#
#
#
# Elastic Compliance Matrix: (Units=1/GPa)
#
#
# Indices 1 2 3 4 5 6 
#
# 1 0.011860 0.001001 -0.004670 0.000000 -0.008351 0.000000
# 2 0.001001 0.016320 -0.007422 0.000000 -0.010330 0.000000
# 3 -0.004670 -0.007422 0.028539 0.000000 -0.014683 0.000000
# 4 0.000000 0.000000 0.000000 0.153755 0.000000 -0.101369
# 5 -0.008351 -0.010330 -0.014683 0.000000 0.066455 0.000000
# 6 0.000000 0.000000 0.000000 -0.101369 0.000000 0.101254
#
#
# Mechanical properties :
#
#
# Convention : Reuss Voigt Hill
#
# Bulk Modulus (GPa) = 28.95447 57.93545 43.44496
# Shear Modulus (GPa) = 12.13954 26.64552 19.39253
#
# Velocity S-wave (km/s) = 2.37154 3.51351 2.99741
# Velocity P-wave (km/s) = 4.57311 6.58034 5.66631
#
# Compressibility (1/GPa) = 0.03453698
#
# Stress axis : x y z
#
# Youngs Moduli (GPa) = 84.31701 61.27565 35.03933
#
# Poissons Ratio (x) = -0.06132 0.16364
# Poissons Ratio (y) = -0.08438 0.26005
# Poissons Ratio (z) = 0.39377 0.45477
#
# Static dielectric constant tensor:
#      x y z
#    x 1.806460 0.000000 0.000380 
#    y 0.000000 1.808600 0.000000 
#    z 0.000380 0.000000 1.941910 
# 
# From -- ./inp_files/35094.got.cif
#   From: 2010.05.17/outbox.cif.g08.bks.cpg/sg15_18_cif.got.tgz:35094.got - 2010.06.03 18:47:42.
