data_PCOD9254329
_publ_section_title
;
Structure prediction by ZEFSAII (Michael W. Deem and Ramdas Pophale) SiO2 
 PCOD9254329
Probable space group: C 2/C
;
_chemical_formula_sum "Si O2"
_cell_formula_units_Z 56
_cell_length_a 18.399399
_cell_length_b 20.258399
_cell_length_c 10.040882
_cell_angle_alpha 90.000000
_cell_angle_beta 123.108982
_cell_angle_gamma 90.000000
_cell_volume 3134.977657
_symmetry_space_group_name_H-M "C 2/C"
_symmetry_group_IT_number 15
_symmetry_cell_setting 'monoclinic'
loop_
_space_group_symop_operation_xyz
x,y,z
-x,y,1/2-z
-x,-y,-z
x,-y,1/2+z
1/2+x,1/2+y,z
1/2-x,1/2+y,1/2-z
1/2-x,1/2-y,-z
1/2+x,1/2-y,1/2+z
loop_
_atom_site_type_symbol
_atom_site_label
_atom_site_fract_x
_atom_site_fract_y
_atom_site_fract_z
Si Si1 0.000000 0.438697 0.750000
Si Si2 0.180102 0.568471 0.080632
Si Si3 0.403516 0.152070 0.983822
Si Si4 0.079285 0.701991 0.063301
Si Si5 0.112975 0.530979 0.721732
Si Si6 0.321290 0.340170 0.624285
Si Si7 0.500000 0.710997 0.250000
Si Si8 0.259594 0.718347 0.792089
O O1 0.028462 0.485873 0.660142
O O2 0.919127 0.393252 0.628092
O O3 0.120051 0.630743 0.066560
O O4 0.173572 0.511204 0.183710
O O5 0.275038 0.598333 0.147363
O O6 0.148094 0.542209 0.905630
O O7 0.405651 0.101641 0.861042
O O8 0.313093 0.189298 0.878252
O O9 0.491650 0.194317 0.060139
O O10 0.157378 0.747959 0.194836
O O11 0.048376 0.740421 0.900334
O O12 0.424493 0.334183 0.734829
O O13 0.290650 0.333056 0.438547
O O14 0.285473 0.276231 0.667024
#
# Coordination Sequence:
#
# PCOD9254329 Si02
#       8
#     4   8   8   8   8   8   4   8
#     4  12  24  35  48  80 104 157 184 204 262 352
#     4  11  21  35  53  79 115 142 176 221 267 326
#     4  12  20  36  53  76 115 140 177 223 268 320
#     4  10  19  31  53  81 109 136 172 225 274 313
#     4  12  22  35  52  79 111 149 177 214 269 322
#     4   9  17  31  51  81 107 132 179 223 275 311
#     4  10  16  29  56  84 102 133 176 228 280 304
#     4   9  18  31  50  79 107 137 173 221 275 312
#
# _framework density 17.862966
#
# number of rings (size 3 to 8) (size 9 to 14) (size 15 to 20)
#    0.000    1.429    5.714    3.000    0.000    0.000 
#    0.000    0.714    0.000    0.857    0.000    0.000 
#    0.000    0.000    0.000    0.000    0.000    0.000 
#
# Total GULP energy -156136.466050 kJ/mol
# GULP energy per Si atom -5576.302359 kJ/mol
# Density = 1.782231 g / cm^3
# Si number density = 17.862966 Si / 1000 Ang^3
#
#
#
# Elastic Constant Matrix: (Units=GPa)
#
#
# Indices 1 2 3 4 5 6 
#
# 1 65.2901 27.9714 8.4497 0.0000 21.6825 0.0000
# 2 27.9714 52.1904 25.9376 0.0000 11.5695 0.0000
# 3 8.4497 25.9376 61.9192 0.0000 7.9400 0.0000
# 4 0.0000 0.0000 0.0000 20.2490 0.0000 0.2558
# 5 21.6825 11.5695 7.9400 0.0000 32.7288 0.0000
# 6 0.0000 0.0000 0.0000 0.2558 0.0000 27.4031
#
#
#
# Elastic Compliance Matrix: (Units=1/GPa)
#
#
# Indices 1 2 3 4 5 6 
#
# 1 0.024115 -0.011741 0.003245 0.000000 -0.012613 0.000000
# 2 -0.011741 0.031238 -0.011420 0.000000 -0.000494 0.000000
# 3 0.003245 -0.011420 0.020899 0.000000 -0.003183 0.000000
# 4 0.000000 0.000000 0.000000 0.049391 0.000000 -0.000461
# 5 -0.012613 -0.000494 -0.003183 0.000000 0.039857 0.000000
# 6 0.000000 0.000000 0.000000 -0.000461 0.000000 0.036497
#
#
# Mechanical properties :
#
#
# Convention : Reuss Voigt Hill
#
# Bulk Modulus (GPa) = 27.45751 33.79081 30.62416
# Shear Modulus (GPa) = 19.68743 23.87890 21.78317
#
# Velocity S-wave (km/s) = 3.32345 3.66017 3.49586
# Velocity P-wave (km/s) = 5.48923 6.06797 5.78584
#
# Compressibility (1/GPa) = 0.03641991
#
# Stress axis : x y z
#
# Youngs Moduli (GPa) = 41.46799 32.01205 47.84875
#
# Poissons Ratio (x) = 0.37586 -0.15526
# Poissons Ratio (y) = 0.48688 0.54643
# Poissons Ratio (z) = -0.13455 0.36558
#
# Static dielectric constant tensor:
#      x y z
#    x 1.642880 0.000000 0.005890 
#    y 0.000000 1.638260 0.000000 
#    z 0.005890 0.000000 1.640350 
# 
# From -- ./inp_files/113520.got.cif
#   From: 2010.05.17/outbox.cif.g08.bks.cpg/sg15_57_cif.got.tgz:113520.got - 2010.06.03 18:47:42.
