data_PCOD9254166
_publ_section_title
;
Structure prediction by ZEFSAII (Michael W. Deem and Ramdas Pophale) SiO2 
 PCOD9254166
Probable space group: C 2/C
;
_chemical_formula_sum "Si O2"
_cell_formula_units_Z 32
_cell_length_a 9.513833
_cell_length_b 35.166114
_cell_length_c 5.474384
_cell_angle_alpha 90.000000
_cell_angle_beta 59.767621
_cell_angle_gamma 90.000000
_cell_volume 1582.428429
_symmetry_space_group_name_H-M "C 2/C"
_symmetry_group_IT_number 15
_symmetry_cell_setting 'monoclinic'
loop_
_space_group_symop_operation_xyz
x,y,z
-x,y,1/2-z
-x,-y,-z
x,-y,1/2+z
1/2+x,1/2+y,z
1/2-x,1/2+y,1/2-z
1/2-x,1/2-y,-z
1/2+x,1/2-y,1/2+z
loop_
_atom_site_type_symbol
_atom_site_label
_atom_site_fract_x
_atom_site_fract_y
_atom_site_fract_z
Si Si1 0.813716 0.098215 0.416514
Si Si2 0.500000 0.523943 0.250000
Si Si3 0.699795 0.365877 0.069913
Si Si4 0.500000 0.253832 0.750000
Si Si5 0.783506 0.714914 0.296676
O O1 0.846491 0.053023 0.398395
O O2 0.741401 0.115979 0.726099
O O3 0.000000 0.113859 0.250000
O O4 0.744695 0.110008 0.215564
O O5 0.500000 0.500000 0.500000
O O6 0.500000 0.365582 0.250000
O O7 0.763753 0.323806 0.959270
O O8 0.355453 0.281324 0.790498
O O9 0.553189 0.225686 0.487271
O O10 0.750000 0.750000 0.500000
#
# Coordination Sequence:
#
# PCOD9254166 Si02
#       5
#     8   4   8   4   8
#     4   8  18  28  42  72  97 133 185 199 267 329
#     4  10  16  27  46  68 106 144 172 216 256 334
#     4  10  18  31  50  68 102 138 180 228 261 331
#     4  10  24  37  52  78 102 132 202 236 298 336
#     4  11  23  37  55  75 104 144 192 247 288 330
#
# _framework density 20.222085
#
# number of rings (size 3 to 8) (size 9 to 14) (size 15 to 20)
#    0.750    1.500    0.000    3.750   12.250    0.000 
#    0.000    0.000    0.000    0.000    0.000    0.000 
#    0.000    0.000    0.000   22.500    0.000    0.250 
#
# Total GULP energy -89149.451885 kJ/mol
# GULP energy per Si atom -5571.840743 kJ/mol
# Density = 2.017606 g / cm^3
# Si number density = 20.222085 Si / 1000 Ang^3
#
#
#
# Elastic Constant Matrix: (Units=GPa)
#
#
# Indices 1 2 3 4 5 6 
#
# 1 34.4216 20.3377 23.1925 0.0000 11.9828 0.0000
# 2 20.3377 164.5338 89.1196 0.0000 36.9758 0.0000
# 3 23.1925 89.1196 168.9377 0.0000 50.1051 0.0000
# 4 0.0000 0.0000 0.0000 44.0885 0.0000 13.5495
# 5 11.9828 36.9758 50.1051 0.0000 35.2106 0.0000
# 6 0.0000 0.0000 0.0000 13.5495 0.0000 19.8374
#
#
#
# Elastic Compliance Matrix: (Units=1/GPa)
#
#
# Indices 1 2 3 4 5 6 
#
# 1 0.033680 -0.001641 -0.001505 0.000000 -0.007597 0.000000
# 2 -0.001641 0.009004 -0.003263 0.000000 -0.004254 0.000000
# 3 -0.001505 -0.003263 0.011557 0.000000 -0.012506 0.000000
# 4 0.000000 0.000000 0.000000 0.028708 0.000000 -0.019608
# 5 -0.007597 -0.004254 -0.012506 0.000000 0.053250 0.000000
# 6 0.000000 0.000000 0.000000 -0.019608 0.000000 0.063803
#
#
# Mechanical properties :
#
#
# Convention : Reuss Voigt Hill
#
# Bulk Modulus (GPa) = 24.14112 70.35475 47.24793
# Shear Modulus (GPa) = 22.06284 35.51017 28.78651
#
# Velocity S-wave (km/s) = 3.30665 4.19502 3.77705
# Velocity P-wave (km/s) = 5.15194 7.63746 6.51434
#
# Compressibility (1/GPa) = 0.04142310
#
# Stress axis : x y z
#
# Youngs Moduli (GPa) = 29.69154 111.06298 86.53115
#
# Poissons Ratio (x) = 0.18220 0.13022
# Poissons Ratio (y) = 0.04871 0.28235
# Poissons Ratio (z) = 0.04468 0.36240
#
# Static dielectric constant tensor:
#      x y z
#    x 1.816210 0.000000 -0.003660 
#    y 0.000000 1.689040 0.000000 
#    z -0.003660 0.000000 1.732520 
# 
# From -- ./inp_files/5409.got.cif
#   From: 2010.05.17/outbox.cif.g08.bks.cpg/sg15_3_cif.got.tgz:5409.got - 2010.06.03 18:47:42.
