data_PCOD9254184
_publ_section_title
;
Structure prediction by ZEFSAII (Michael W. Deem and Ramdas Pophale) SiO2 
 PCOD9254184
Probable space group: C 2/C
;
_chemical_formula_sum "Si O2"
_cell_formula_units_Z 64
_cell_length_a 8.851625
_cell_length_b 19.327434
_cell_length_c 20.417641
_cell_angle_alpha 90.000000
_cell_angle_beta 56.491359
_cell_angle_gamma 90.000000
_cell_volume 2912.500442
_symmetry_space_group_name_H-M "C 2/C"
_symmetry_group_IT_number 15
_symmetry_cell_setting 'monoclinic'
loop_
_space_group_symop_operation_xyz
x,y,z
-x,y,1/2-z
-x,-y,-z
x,-y,1/2+z
1/2+x,1/2+y,z
1/2-x,1/2+y,1/2-z
1/2-x,1/2-y,-z
1/2+x,1/2-y,1/2+z
loop_
_atom_site_type_symbol
_atom_site_label
_atom_site_fract_x
_atom_site_fract_y
_atom_site_fract_z
Si Si1 0.762122 0.875687 0.033824
Si Si2 0.154251 0.628444 0.815647
Si Si3 0.726052 0.159699 0.391873
Si Si4 0.731260 0.023885 0.007693
Si Si5 0.817786 0.513066 0.133091
Si Si6 0.202636 0.326946 0.534386
Si Si7 0.371353 0.749222 0.835641
Si Si8 0.698261 0.302506 0.345263
O O1 0.550357 0.875191 0.107935
O O2 0.846767 0.833382 0.072929
O O3 0.825196 0.955479 0.013660
O O4 0.776117 0.844817 0.956958
O O5 0.238060 0.552404 0.809759
O O6 0.247297 0.689504 0.835614
O O7 0.187156 0.650335 0.732388
O O8 0.774307 0.088441 0.342791
O O9 0.505311 0.163430 0.440838
O O10 0.791192 0.228847 0.340131
O O11 0.533754 0.024553 0.090081
O O12 0.800369 0.101833 0.994519
O O13 0.703648 0.009339 0.937412
O O14 0.250000 0.250000 0.500000
O O15 0.220585 0.313558 0.607405
O O16 0.500000 0.779665 0.750000
O O17 0.514011 0.712726 0.850257
#
# Coordination Sequence:
#
# PCOD9254184 Si02
#       8
#     8   8   8   8   8   8   8   8
#     4  10  18  32  52  73  98 129 164 206 245 287
#     4  10  18  32  53  72  94 128 171 205 239 293
#     4   9  18  31  50  73 100 131 166 201 244 297
#     4   8  15  26  45  74  97 115 157 204 239 278
#     4   8  14  28  49  70  90 123 162 199 233 280
#     4  10  16  27  49  75  97 124 164 205 240 285
#     4   9  19  32  46  67  98 132 160 196 247 300
#     4  10  20  32  48  74 103 129 158 202 255 297
#
# _framework density 21.974246999999998
#
# number of rings (size 3 to 8) (size 9 to 14) (size 15 to 20)
#    0.000    2.750    0.000    4.500    0.000    0.000 
#    0.000    6.250    0.000   19.500    0.000    0.000 
#    0.000    0.000    0.000    0.000    0.000    0.000 
#
# Total GULP energy -178256.931321 kJ/mol
# GULP energy per Si atom -5570.529104 kJ/mol
# Density = 2.192423 g / cm^3
# Si number density = 21.974247 Si / 1000 Ang^3
#
#
#
# Elastic Constant Matrix: (Units=GPa)
#
#
# Indices 1 2 3 4 5 6 
#
# 1 35.8716 8.3921 1.4404 0.0000 12.9454 0.0000
# 2 8.3921 147.9114 36.0621 0.0000 22.7323 0.0000
# 3 1.4404 36.0621 55.8169 0.0000 14.8897 0.0000
# 4 0.0000 0.0000 0.0000 35.0835 0.0000 1.4317
# 5 12.9454 22.7323 14.8897 0.0000 25.0905 0.0000
# 6 0.0000 0.0000 0.0000 1.4317 0.0000 1.2539
#
#
#
# Elastic Compliance Matrix: (Units=1/GPa)
#
#
# Indices 1 2 3 4 5 6 
#
# 1 0.035258 0.000102 0.004635 0.000000 -0.021035 -0.000001
# 2 0.000102 0.008586 -0.004112 0.000000 -0.005392 0.000000
# 3 0.004635 -0.004112 0.023877 0.000000 -0.012836 0.000000
# 4 0.000000 0.000000 0.000000 0.029896 0.000000 -0.034135
# 5 -0.021035 -0.005392 -0.012836 0.000000 0.063211 0.000001
# 6 -0.000001 0.000000 0.000000 -0.034135 0.000001 0.836504
#
#
# Mechanical properties :
#
#
# Convention : Reuss Voigt Hill
#
# Bulk Modulus (GPa) = 14.49848 36.82100 25.65974
# Shear Modulus (GPa) = 4.90643 25.19927 15.05285
#
# Velocity S-wave (km/s) = 1.49588 3.39006 2.62013
# Velocity P-wave (km/s) = 3.09771 5.66711 4.56684
#
# Compressibility (1/GPa) = 0.06897273
#
# Stress axis : x y z
#
# Youngs Moduli (GPa) = 28.36216 116.46708 41.88212
#
# Poissons Ratio (x) = -0.01190 -0.19414
# Poissons Ratio (y) = -0.00290 0.17220
# Poissons Ratio (z) = -0.13147 0.47887
#
# Static dielectric constant tensor:
#      x y z
#    x 1.886810 0.000000 0.070570 
#    y 0.000000 1.845740 0.000000 
#    z 0.070570 0.000000 4.224090 
# 
# From -- ./inp_files/239561.got.cif
#   From: 2010.05.17/outbox.cif.g08.bks.cpg/sg15_120_cif.got.tgz:239561.got - 2010.06.03 18:47:42.
