data_PCOD9254520
_publ_section_title
;
Structure prediction by ZEFSAII (Michael W. Deem and Ramdas Pophale) SiO2 
 PCOD9254520
Probable space group: C 2/C
;
_chemical_formula_sum "Si O2"
_cell_formula_units_Z 48
_cell_length_a 22.706693
_cell_length_b 18.398581
_cell_length_c 11.376838
_cell_angle_alpha 90.000000
_cell_angle_beta 33.453152
_cell_angle_gamma 90.000000
_cell_volume 2620.066483
_symmetry_space_group_name_H-M "C 2/C"
_symmetry_group_IT_number 15
_symmetry_cell_setting 'monoclinic'
loop_
_space_group_symop_operation_xyz
x,y,z
-x,y,1/2-z
-x,-y,-z
x,-y,1/2+z
1/2+x,1/2+y,z
1/2-x,1/2+y,1/2-z
1/2-x,1/2-y,-z
1/2+x,1/2-y,1/2+z
loop_
_atom_site_type_symbol
_atom_site_label
_atom_site_fract_x
_atom_site_fract_y
_atom_site_fract_z
Si Si1 0.435663 0.510781 0.980794
Si Si2 0.390941 0.200936 0.365120
Si Si3 0.830312 0.254665 0.474472
Si Si4 0.679238 0.365106 0.322138
Si Si5 0.510362 0.743501 0.005805
Si Si6 0.344571 0.327466 0.601698
O O1 0.500000 0.498395 0.750000
O O2 0.500000 0.500000 0.000000
O O3 0.344728 0.449430 0.133498
O O4 0.383942 0.590626 0.050871
O O5 0.500000 0.179010 0.250000
O O6 0.290699 0.155275 0.575915
O O7 0.415207 0.199967 0.186728
O O8 0.364630 0.285307 0.445622
O O9 0.750000 0.250000 0.500000
O O10 0.826415 0.176175 0.543507
O O11 0.776341 0.311143 0.654893
O O12 0.945358 0.270139 0.226930
O O13 0.582053 0.325499 0.417414
O O14 0.421436 0.718422 0.060578
#
# Coordination Sequence:
#
# PCOD9254520 Si02
#       6
#     8   8   8   8   8   8
#     4  12  24  38  59  89 126 156 193 244 304 363
#     4   9  19  35  55  78 109 150 193 239 290 348
#     4   9  19  33  54  79 111 150 194 239 286 345
#     4  11  21  33  55  85 113 150 195 244 297 350
#     4  10  16  31  54  81 109 139 192 246 287 339
#     4   9  19  35  53  79 118 154 183 233 303 348
#
# _framework density 18.320145
#
# number of rings (size 3 to 8) (size 9 to 14) (size 15 to 20)
#    0.000    2.000    1.667    4.500    2.333    0.000 
#    0.000    0.000    0.000    5.000    0.000    0.000 
#    0.000    0.000    0.000    0.000    0.000    0.000 
#
# Total GULP energy -133663.439874 kJ/mol
# GULP energy per Si atom -5569.309995 kJ/mol
# Density = 1.827845 g / cm^3
# Si number density = 18.320145 Si / 1000 Ang^3
#
#
#
# Elastic Constant Matrix: (Units=GPa)
#
#
# Indices 1 2 3 4 5 6 
#
# 1 64.4717 20.3550 31.4015 0.0000 15.9197 0.0000
# 2 20.3550 88.8331 47.7894 0.0000 -3.5839 0.0000
# 3 31.4015 47.7894 178.8279 0.0000 10.4937 0.0000
# 4 0.0000 0.0000 0.0000 11.9932 0.0000 -9.6517
# 5 15.9197 -3.5839 10.4937 0.0000 20.3563 0.0000
# 6 0.0000 0.0000 0.0000 -9.6517 0.0000 20.0379
#
#
#
# Elastic Compliance Matrix: (Units=1/GPa)
#
#
# Indices 1 2 3 4 5 6 
#
# 1 0.022108 -0.004936 -0.001544 0.000000 -0.017363 0.000000
# 2 -0.004936 0.014616 -0.003523 0.000000 0.008250 0.000000
# 3 -0.001544 -0.003523 0.006981 0.000000 -0.003012 0.000000
# 4 0.000000 0.000000 0.000000 0.136162 0.000000 0.065586
# 5 -0.017363 0.008250 -0.003012 0.000000 0.065708 0.000000
# 6 0.000000 0.000000 0.000000 0.065586 0.000000 0.081496
#
#
# Mechanical properties :
#
#
# Convention : Reuss Voigt Hill
#
# Bulk Modulus (GPa) = 42.19495 59.02493 50.60994
# Shear Modulus (GPa) = 14.08534 25.98327 20.03431
#
# Velocity S-wave (km/s) = 2.77581 3.77010 3.31050
# Velocity P-wave (km/s) = 5.77542 7.15822 6.50368
#
# Compressibility (1/GPa) = 0.02369952
#
# Stress axis : x y z
#
# Youngs Moduli (GPa) = 45.23169 68.41670 143.23649
#
# Poissons Ratio (x) = 0.33767 0.22120
# Poissons Ratio (y) = 0.22324 0.50469
# Poissons Ratio (z) = 0.06985 0.24106
#
# Static dielectric constant tensor:
#      x y z
#    x 1.738070 0.000000 0.030590 
#    y 0.000000 1.591370 0.000000 
#    z 0.030590 0.000000 1.711230 
# 
# From -- ./inp_files/87250.got.cif
#   From: 2010.05.17/outbox.cif.g08.bks.cpg/sg15_44_cif.got.tgz:87250.got - 2010.06.03 18:47:42.
