data_PCOD9254424
_publ_section_title
;
Structure prediction by ZEFSAII (Michael W. Deem and Ramdas Pophale) SiO2 
 PCOD9254424
Probable space group: C 2/C
;
_chemical_formula_sum "Si O2"
_cell_formula_units_Z 36
_cell_length_a 16.695274
_cell_length_b 7.863091
_cell_length_c 10.938947
_cell_angle_alpha 90.000000
_cell_angle_beta 99.888885
_cell_angle_gamma 90.000000
_cell_volume 1414.690696
_symmetry_space_group_name_H-M "C 2/C"
_symmetry_group_IT_number 15
_symmetry_cell_setting 'monoclinic'
loop_
_space_group_symop_operation_xyz
x,y,z
-x,y,1/2-z
-x,-y,-z
x,-y,1/2+z
1/2+x,1/2+y,z
1/2-x,1/2+y,1/2-z
1/2-x,1/2-y,-z
1/2+x,1/2-y,1/2+z
loop_
_atom_site_type_symbol
_atom_site_label
_atom_site_fract_x
_atom_site_fract_y
_atom_site_fract_z
Si Si1 0.000000 0.625914 0.250000
Si Si2 0.835284 0.185721 0.068797
Si Si3 0.671191 0.651666 0.156588
Si Si4 0.836482 0.836460 0.181673
Si Si5 0.494001 0.793761 0.387745
O O1 0.989108 0.493761 0.359221
O O2 0.920006 0.736322 0.211653
O O3 0.836713 0.244722 0.211014
O O4 0.834435 0.981419 0.076655
O O5 0.919261 0.247608 0.031967
O O6 0.750000 0.250000 0.000000
O O7 0.670765 0.454447 0.197818
O O8 0.587451 0.719153 0.075271
O O9 0.759836 0.714498 0.140997
O O10 0.500000 0.712429 0.250000
#
# Coordination Sequence:
#
# PCOD9254424 Si02
#       5
#     4   8   8   8   8
#     4  10  16  30  54  78  96 134 184 210 238 304
#     4   9  19  34  53  78 109 134 164 219 271 297
#     4   9  18  31  53  78  99 134 182 208 244 309
#     4  10  18  29  55  75 101 135 177 213 248 307
#     4   8  16  31  52  72 101 135 175 207 246 312
#
# _framework density 25.447261000000001
#
# number of rings (size 3 to 8) (size 9 to 14) (size 15 to 20)
#    2.000    0.889    0.000    2.667    0.000    0.000 
#    0.000    2.222    0.000    2.667    0.000    0.000 
#    0.000    0.000    0.000    0.000    0.000    0.000 
#
# Total GULP energy -100554.461606 kJ/mol
# GULP energy per Si atom -5586.358978 kJ/mol
# Density = 2.538934 g / cm^3
# Si number density = 25.447261 Si / 1000 Ang^3
#
#
#
# Elastic Constant Matrix: (Units=GPa)
#
#
# Indices 1 2 3 4 5 6 
#
# 1 223.2579 111.0620 75.6474 0.0000 84.3115 0.0000
# 2 111.0620 169.6659 46.9616 0.0000 40.2423 0.0000
# 3 75.6474 46.9616 87.2291 0.0000 35.7288 0.0000
# 4 0.0000 0.0000 0.0000 37.7301 0.0000 14.4519
# 5 84.3115 40.2423 35.7288 0.0000 63.6392 0.0000
# 6 0.0000 0.0000 0.0000 14.4519 0.0000 65.8163
#
#
#
# Elastic Compliance Matrix: (Units=1/GPa)
#
#
# Indices 1 2 3 4 5 6 
#
# 1 0.012052 -0.004226 -0.003547 0.000000 -0.011303 0.000000
# 2 -0.004226 0.008869 -0.001436 0.000000 0.000797 0.000000
# 3 -0.003547 -0.001436 0.016903 0.000000 -0.003883 0.000000
# 4 0.000000 0.000000 0.000000 0.028938 0.000000 -0.006354
# 5 -0.011303 0.000797 -0.003883 0.000000 0.032364 0.000000
# 6 0.000000 0.000000 0.000000 -0.006354 0.000000 0.016589
#
#
# Mechanical properties :
#
#
# Convention : Reuss Voigt Hill
#
# Bulk Modulus (GPa) = 51.53057 105.27721 78.40389
# Shear Modulus (GPa) = 35.56135 49.86922 42.71528
#
# Velocity S-wave (km/s) = 3.74231 4.43166 4.10149
# Velocity P-wave (km/s) = 6.24236 8.22476 7.30116
#
# Compressibility (1/GPa) = 0.01940596
#
# Stress axis : x y z
#
# Youngs Moduli (GPa) = 82.97541 112.75346 59.15935
#
# Poissons Ratio (x) = 0.47655 0.20981
# Poissons Ratio (y) = 0.35069 0.08496
# Poissons Ratio (z) = 0.29428 0.16192
#
# Static dielectric constant tensor:
#      x y z
#    x 2.040930 0.000000 -0.179950 
#    y 0.000000 1.959070 0.000000 
#    z -0.179950 0.000000 2.306780 
# 
# From -- ./inp_files/241694.got.cif
#   From: 2010.05.17/outbox.cif.g08.bks.cpg/sg15_121_cif.got.tgz:241694.got - 2010.06.03 18:47:42.
