data_PCOD9254718
_publ_section_title
;
Structure prediction by ZEFSAII (Michael W. Deem and Ramdas Pophale) SiO2 
 PCOD9254718
Probable space group: C 2/C
;
_chemical_formula_sum "Si O2"
_cell_formula_units_Z 36
_cell_length_a 13.900810
_cell_length_b 20.977237
_cell_length_c 5.478467
_cell_angle_alpha 90.000000
_cell_angle_beta 77.012470
_cell_angle_gamma 90.000000
_cell_volume 1556.657922
_symmetry_space_group_name_H-M "C 2/C"
_symmetry_group_IT_number 15
_symmetry_cell_setting 'monoclinic'
loop_
_space_group_symop_operation_xyz
x,y,z
-x,y,1/2-z
-x,-y,-z
x,-y,1/2+z
1/2+x,1/2+y,z
1/2-x,1/2+y,1/2-z
1/2-x,1/2-y,-z
1/2+x,1/2-y,1/2+z
loop_
_atom_site_type_symbol
_atom_site_label
_atom_site_fract_x
_atom_site_fract_y
_atom_site_fract_z
Si Si1 0.666938 0.258137 0.343017
Si Si2 0.000000 0.247947 0.250000
Si Si3 0.661296 0.831102 0.449163
Si Si4 0.457321 0.572390 0.527905
Si Si5 0.773180 0.539103 0.796553
O O1 0.750000 0.250000 0.500000
O O2 0.568729 0.286247 0.513822
O O3 0.640292 0.189635 0.240053
O O4 0.724728 0.305599 0.131731
O O5 0.080483 0.290155 0.348589
O O6 0.662888 0.900626 0.331908
O O7 0.500000 0.602163 0.750000
O O8 0.500000 0.500000 0.500000
O O9 0.339997 0.563592 0.620837
O O10 0.500000 0.598843 0.250000
O O11 0.788692 0.489279 0.561366
#
# Coordination Sequence:
#
# PCOD9254718 Si02
#       5
#     8   4   8   8   8
#     4   9  20  42  68  94 125 164 225 285 347 392
#     4  10  20  42  70  94 134 168 222 298 342 398
#     4  10  23  41  68  98 132 177 224 280 344 406
#     4  10  16  34  54  78 118 175 217 265 316 378
#     4  12  24  39  63  96 142 184 226 272 330 410
#
# _framework density 23.126467000000002
#
# number of rings (size 3 to 8) (size 9 to 14) (size 15 to 20)
#    0.000    1.778    4.444    0.667    6.222    0.000 
#    2.000    5.556    0.000    0.000    0.000    0.000 
#    0.000    0.000    0.000    0.000    0.000    0.000 
#
# Total GULP energy -100287.382396 kJ/mol
# GULP energy per Si atom -5571.521244 kJ/mol
# Density = 2.307383 g / cm^3
# Si number density = 23.126467 Si / 1000 Ang^3
#
#
#
# Elastic Constant Matrix: (Units=GPa)
#
#
# Indices 1 2 3 4 5 6 
#
# 1 76.3556 11.6262 29.9694 0.0000 -10.3509 0.0000
# 2 11.6262 57.3794 37.1968 0.0000 -9.6851 0.0000
# 3 29.9694 37.1968 171.0025 0.0000 1.3529 0.0000
# 4 0.0000 0.0000 0.0000 40.9796 0.0000 -6.6139
# 5 -10.3509 -9.6851 1.3529 0.0000 41.1276 0.0000
# 6 0.0000 0.0000 0.0000 -6.6139 0.0000 24.3876
#
#
#
# Elastic Compliance Matrix: (Units=1/GPa)
#
#
# Indices 1 2 3 4 5 6 
#
# 1 0.014654 -0.000793 -0.002424 0.000000 0.003581 0.000000
# 2 -0.000793 0.021380 -0.004551 0.000000 0.004985 0.000000
# 3 -0.002424 -0.004551 0.007278 0.000000 -0.001921 0.000000
# 4 0.000000 0.000000 0.000000 0.025519 0.000000 0.006921
# 5 0.003581 0.004985 -0.001921 0.000000 0.026453 0.000000
# 6 0.000000 0.000000 0.000000 0.006921 0.000000 0.042881
#
#
# Mechanical properties :
#
#
# Convention : Reuss Voigt Hill
#
# Bulk Modulus (GPa) = 36.00303 51.36914 43.68608
# Shear Modulus (GPa) = 30.68208 36.36197 33.52202
#
# Velocity S-wave (km/s) = 3.64635 3.96954 3.81137
# Velocity P-wave (km/s) = 5.77317 6.57800 6.18869
#
# Compressibility (1/GPa) = 0.02777544
#
# Stress axis : x y z
#
# Youngs Moduli (GPa) = 68.23937 46.77201 137.40317
#
# Poissons Ratio (x) = 0.03711 0.33307
# Poissons Ratio (y) = 0.05414 0.62533
# Poissons Ratio (z) = 0.16541 0.21286
#
# Static dielectric constant tensor:
#      x y z
#    x 1.824370 0.000000 -0.000220 
#    y 0.000000 1.975020 0.000000 
#    z -0.000220 0.000000 1.824930 
# 
# From -- ./inp_files/10037.got.cif
#   From: 2010.05.17/outbox.cif.g08.bks.cpg/sg15_6_cif.got.tgz:10037.got - 2010.06.03 18:47:42.
