data_PCOD9254238
_publ_section_title
;
Structure prediction by ZEFSAII (Michael W. Deem and Ramdas Pophale) SiO2 
 PCOD9254238
Probable space group: C 2/C
;
_chemical_formula_sum "Si O2"
_cell_formula_units_Z 60
_cell_length_a 20.182716
_cell_length_b 16.909217
_cell_length_c 20.198406
_cell_angle_alpha 90.000000
_cell_angle_beta 152.314239
_cell_angle_gamma 90.000000
_cell_volume 3202.727361
_symmetry_space_group_name_H-M "C 2/C"
_symmetry_group_IT_number 15
_symmetry_cell_setting 'monoclinic'
loop_
_space_group_symop_operation_xyz
x,y,z
-x,y,1/2-z
-x,-y,-z
x,-y,1/2+z
1/2+x,1/2+y,z
1/2-x,1/2+y,1/2-z
1/2-x,1/2-y,-z
1/2+x,1/2-y,1/2+z
loop_
_atom_site_type_symbol
_atom_site_label
_atom_site_fract_x
_atom_site_fract_y
_atom_site_fract_z
Si Si1 0.218089 0.535181 0.780351
Si Si2 0.000000 0.093101 0.250000
Si Si3 0.565926 0.820993 0.191241
Si Si4 0.757090 0.309168 0.919121
Si Si5 0.857503 0.151955 0.797662
Si Si6 0.268774 0.598607 0.239506
Si Si7 0.103647 0.246715 0.079337
Si Si8 0.980235 0.996291 0.099445
O O1 0.099992 0.586645 0.713097
O O2 0.304869 0.601399 0.814907
O O3 0.169761 0.466988 0.686520
O O4 0.329566 0.495350 0.929102
O O5 0.137336 0.146351 0.355099
O O6 0.031304 0.038555 0.340695
O O7 0.692967 0.774983 0.340505
O O8 0.560441 0.782016 0.112793
O O9 0.413030 0.804253 0.088382
O O10 0.778302 0.361417 0.870630
O O11 0.712955 0.191699 0.642912
O O12 0.943489 0.088882 0.830088
O O13 0.965585 0.219953 0.917124
O O14 0.308976 0.667631 0.325504
O O15 0.413699 0.551373 0.350079
#
# Coordination Sequence:
#
# PCOD9254238 Si02
#       8
#     8   4   8   8   8   8   8   8
#     4  10  17  31  55  80 107 145 168 215 265 319
#     4  10  24  38  58  68 100 144 190 226 250 292
#     4  10  21  32  53  80 115 138 170 213 264 311
#     4  10  22  37  50  78 109 144 179 215 254 308
#     4  10  18  29  54  80 111 133 174 204 272 320
#     4   9  16  29  54  77 110 134 173 208 259 313
#     4  10  16  28  48  84 108 136 155 212 262 325
#     4  10  18  35  54  75  99 146 185 216 254 318
#
# _framework density 18.734033
#
# number of rings (size 3 to 8) (size 9 to 14) (size 15 to 20)
#    0.000    2.133    2.667    3.200    3.733    1.067 
#    0.000    2.667    0.000    0.800    0.000    0.000 
#    0.000    0.000    0.000    0.000    0.000    0.000 
#
# Total GULP energy -167395.795371 kJ/mol
# GULP energy per Si atom -5579.859846 kJ/mol
# Density = 1.869139 g / cm^3
# Si number density = 18.734033 Si / 1000 Ang^3
#
#
#
# Elastic Constant Matrix: (Units=GPa)
#
#
# Indices 1 2 3 4 5 6 
#
# 1 55.7317 29.6399 13.9419 0.0007 7.1118 0.0003
# 2 29.6399 70.1174 20.1980 -0.0001 10.1560 -0.0001
# 3 13.9419 20.1980 44.3030 0.0003 20.1290 0.0003
# 4 0.0007 -0.0001 0.0003 25.3436 -0.0007 10.7852
# 5 7.1118 10.1560 20.1290 -0.0007 20.1990 -0.0001
# 6 0.0003 -0.0001 0.0003 10.7852 -0.0001 25.4943
#
#
#
# Elastic Compliance Matrix: (Units=1/GPa)
#
#
# Indices 1 2 3 4 5 6 
#
# 1 0.023569 -0.008996 -0.002925 -0.000001 -0.000861 0.000000
# 2 -0.008996 0.019875 -0.005718 0.000000 -0.001128 0.000000
# 3 -0.002925 -0.005718 0.044451 -0.000002 -0.040393 0.000000
# 4 -0.000001 0.000000 -0.000002 0.048121 0.000003 -0.020357
# 5 -0.000861 -0.001128 -0.040393 0.000003 0.090630 -0.000001
# 6 0.000000 0.000000 0.000000 -0.020357 -0.000001 0.047837
#
#
# Mechanical properties :
#
#
# Convention : Reuss Voigt Hill
#
# Bulk Modulus (GPa) = 19.00469 33.07909 26.04189
# Shear Modulus (GPa) = 15.27655 21.29885 18.28770
#
# Velocity S-wave (km/s) = 2.85870 3.37546 3.12777
# Velocity P-wave (km/s) = 4.58941 5.73474 5.19374
#
# Compressibility (1/GPa) = 0.05261859
#
# Stress axis : x y z
#
# Youngs Moduli (GPa) = 42.42882 50.31468 22.49650
#
# Poissons Ratio (x) = 0.45262 0.06579
# Poissons Ratio (y) = 0.38168 0.12863
# Poissons Ratio (z) = 0.12409 0.28769
#
# Static dielectric constant tensor:
#      x y z
#    x 1.658350 0.000000 0.010480 
#    y 0.000000 1.678890 0.000000 
#    z 0.010480 0.000000 1.681350 
# 
# From -- ./inp_files/61567.got.cif
#   From: 2010.05.17/outbox.cif.g08.bks.cpg/sg15_31_cif.got.tgz:61567.got - 2010.06.03 18:47:42.
