data_PCOD9254921
_publ_section_title
;
Structure prediction by ZEFSAII (Michael W. Deem and Ramdas Pophale) SiO2 
 PCOD9254921
Probable space group: C 2/C
;
_chemical_formula_sum "Si O2"
_cell_formula_units_Z 44
_cell_length_a 9.803515
_cell_length_b 23.823496
_cell_length_c 13.291694
_cell_angle_alpha 90.000000
_cell_angle_beta 141.946796
_cell_angle_gamma 90.000000
_cell_volume 1913.486066
_symmetry_space_group_name_H-M "C 2/C"
_symmetry_group_IT_number 15
_symmetry_cell_setting 'monoclinic'
loop_
_space_group_symop_operation_xyz
x,y,z
-x,y,1/2-z
-x,-y,-z
x,-y,1/2+z
1/2+x,1/2+y,z
1/2-x,1/2+y,1/2-z
1/2-x,1/2-y,-z
1/2+x,1/2-y,1/2+z
loop_
_atom_site_type_symbol
_atom_site_label
_atom_site_fract_x
_atom_site_fract_y
_atom_site_fract_z
Si Si1 0.960510 0.173633 0.491760
Si Si2 0.312159 0.356775 0.567670
Si Si3 0.370312 0.120730 0.052486
Si Si4 0.812726 0.456673 0.856162
Si Si5 0.116552 0.297445 0.128616
Si Si6 0.000000 0.038299 0.750000
O O1 0.070575 0.134395 0.470780
O O2 0.153632 0.186120 0.685071
O O3 0.742458 0.150378 0.418562
O O4 0.899032 0.231815 0.401948
O O5 0.500000 0.330873 0.750000
O O6 0.236524 0.412877 0.581982
O O7 0.097532 0.317728 0.432921
O O8 0.404540 0.168899 0.988625
O O9 0.182530 0.078574 0.902356
O O10 0.586669 0.080698 0.174739
O O11 0.601920 0.496960 0.724519
O O12 0.000000 0.500000 0.000000
#
# Coordination Sequence:
#
# PCOD9254921 Si02
#       6
#     8   8   8   8   8   4
#     4  12  23  41  67  98 134 172 221 266 328 396
#     4  11  23  42  66  95 132 176 221 266 320 391
#     4  10  21  38  66  97 130 171 215 271 327 391
#     4   9  20  38  68  91 127 177 211 269 327 381
#     4  11  23  41  64  98 137 176 211 266 335 394
#     4  10  16  40  68  86 134 172 216 260 344 376
#
# _framework density 22.994681
#
# number of rings (size 3 to 8) (size 9 to 14) (size 15 to 20)
#    0.000    1.455    2.727    2.727    0.000    0.000 
#    0.000   10.909    4.000    0.000    0.000    0.000 
#    0.000    0.000    0.000    0.000    0.000    0.000 
#
# Total GULP energy -122977.044125 kJ/mol
# GULP energy per Si atom -5589.865642 kJ/mol
# Density = 2.294234 g / cm^3
# Si number density = 22.994681 Si / 1000 Ang^3
#
#
#
# Elastic Constant Matrix: (Units=GPa)
#
#
# Indices 1 2 3 4 5 6 
#
# 1 153.2571 46.5521 0.8545 0.0000 15.0165 0.0000
# 2 46.5521 103.0956 5.5504 0.0000 8.7419 0.0000
# 3 0.8545 5.5504 39.7290 0.0000 11.9199 0.0000
# 4 0.0000 0.0000 0.0000 25.8942 0.0000 16.4566
# 5 15.0165 8.7419 11.9199 0.0000 31.9679 0.0000
# 6 0.0000 0.0000 0.0000 16.4566 0.0000 42.9475
#
#
#
# Elastic Compliance Matrix: (Units=1/GPa)
#
#
# Indices 1 2 3 4 5 6 
#
# 1 0.007850 -0.003338 0.001272 0.000000 -0.003249 0.000000
# 2 -0.003338 0.011364 -0.001187 0.000000 -0.001097 0.000000
# 3 0.001272 -0.001187 0.028589 0.000000 -0.010933 0.000000
# 4 0.000000 0.000000 0.000000 0.051051 0.000000 -0.019562
# 5 -0.003249 -0.001097 -0.010933 0.000000 0.037184 0.000000
# 6 0.000000 0.000000 0.000000 -0.019562 0.000000 0.030780
#
#
# Mechanical properties :
#
#
# Convention : Reuss Voigt Hill
#
# Bulk Modulus (GPa) = 24.21353 44.66619 34.43986
# Shear Modulus (GPa) = 26.72536 36.37023 31.54779
#
# Velocity S-wave (km/s) = 3.41286 3.98135 3.70802
# Velocity P-wave (km/s) = 5.10716 6.37194 5.77428
#
# Compressibility (1/GPa) = 0.04129922
#
# Stress axis : x y z
#
# Youngs Moduli (GPa) = 127.38757 87.99914 34.97817
#
# Poissons Ratio (x) = 0.29371 -0.04450
# Poissons Ratio (y) = 0.42517 0.04150
# Poissons Ratio (z) = -0.16208 0.10442
#
# Static dielectric constant tensor:
#      x y z
#    x 2.141920 0.000000 -0.165640 
#    y 0.000000 1.821900 0.000000 
#    z -0.165640 0.000000 2.004060 
# 
# From -- ./inp_files/81562.got.cif
#   From: 2010.05.17/outbox.cif.g08.bks.cpg/sg15_41_cif.got.tgz:81562.got - 2010.06.03 18:47:42.
