data_PCOD9254333
_publ_section_title
;
Structure prediction by ZEFSAII (Michael W. Deem and Ramdas Pophale) SiO2 
 PCOD9254333
Probable space group: C 2/C
;
_chemical_formula_sum "Si O2"
_cell_formula_units_Z 60
_cell_length_a 10.492616
_cell_length_b 8.969349
_cell_length_c 31.221716
_cell_angle_alpha 90.000000
_cell_angle_beta 113.181367
_cell_angle_gamma 90.000000
_cell_volume 2701.104845
_symmetry_space_group_name_H-M "C 2/C"
_symmetry_group_IT_number 15
_symmetry_cell_setting 'monoclinic'
loop_
_space_group_symop_operation_xyz
x,y,z
-x,y,1/2-z
-x,-y,-z
x,-y,1/2+z
1/2+x,1/2+y,z
1/2-x,1/2+y,1/2-z
1/2-x,1/2-y,-z
1/2+x,1/2-y,1/2+z
loop_
_atom_site_type_symbol
_atom_site_label
_atom_site_fract_x
_atom_site_fract_y
_atom_site_fract_z
Si Si1 0.788618 0.075354 0.679846
Si Si2 0.876861 0.656122 0.396987
Si Si3 0.705499 0.264183 0.544060
Si Si4 0.486719 0.732833 0.342059
Si Si5 0.146664 0.447597 0.421749
Si Si6 0.087753 0.650974 0.002703
Si Si7 0.945801 0.094744 0.621896
Si Si8 0.000000 0.896129 0.750000
O O1 0.661199 0.186187 0.669775
O O2 0.908221 0.143877 0.665446
O O3 0.864811 0.003285 0.730419
O O4 0.735972 0.932718 0.645045
O O5 0.846068 0.686279 0.442710
O O6 0.006036 0.541784 0.412093
O O7 0.935668 0.804502 0.383140
O O8 0.750000 0.250000 0.500000
O O9 0.745847 0.420430 0.570902
O O10 0.540578 0.257192 0.525482
O O11 0.800194 0.134990 0.578391
O O12 0.604683 0.840897 0.377388
O O13 0.504708 0.575676 0.369174
O O14 0.498083 0.699537 0.293065
O O15 0.177341 0.374652 0.472204
O O16 0.000000 0.500000 0.000000
#
# Coordination Sequence:
#
# PCOD9254333 Si02
#       8
#     8   8   8   8   8   8   8   4
#     4  10  22  42  67  89 120 157 203 260 319 375
#     4   9  18  33  60  89 125 167 204 241 305 359
#     4  11  17  30  59  88 124 171 211 237 286 354
#     4  10  22  44  65  91 126 155 208 266 315 375
#     4   9  19  33  55  86 127 164 204 243 299 354
#     4  10  16  29  56  85 120 171 207 234 283 350
#     4  10  20  37  62  89 123 169 203 245 300 358
#     4  10  24  44  70  92 112 156 208 262 336 380
#
# _framework density 22.213134
#
# number of rings (size 3 to 8) (size 9 to 14) (size 15 to 20)
#    0.000    2.133    4.000    2.400    0.000    2.133 
#    0.000   17.333    0.000    4.000    0.000    0.000 
#    0.000    0.000    0.000    0.000    0.000    0.000 
#
# Total GULP energy -167487.504594 kJ/mol
# GULP energy per Si atom -5582.916820 kJ/mol
# Density = 2.216258 g / cm^3
# Si number density = 22.213134 Si / 1000 Ang^3
#
#
#
# Elastic Constant Matrix: (Units=GPa)
#
#
# Indices 1 2 3 4 5 6 
#
# 1 66.2311 41.9063 34.0678 0.0000 10.1781 0.0000
# 2 41.9063 129.3864 80.6761 0.0000 3.8927 0.0000
# 3 34.0678 80.6761 141.2905 0.0000 5.0103 0.0000
# 4 0.0000 0.0000 0.0000 42.0229 0.0000 4.7987
# 5 10.1781 3.8927 5.0103 0.0000 33.2769 0.0000
# 6 0.0000 0.0000 0.0000 4.7987 0.0000 32.9516
#
#
#
# Elastic Compliance Matrix: (Units=1/GPa)
#
#
# Indices 1 2 3 4 5 6 
#
# 1 0.020128 -0.005359 -0.001606 0.000000 -0.005288 0.000000
# 2 -0.005359 0.013433 -0.006415 0.000000 0.001033 0.000000
# 3 -0.001606 -0.006415 0.011143 0.000000 -0.000436 0.000000
# 4 0.000000 0.000000 0.000000 0.024199 0.000000 -0.003524
# 5 -0.005288 0.001033 -0.000436 0.000000 0.031613 0.000000
# 6 0.000000 0.000000 0.000000 -0.003524 0.000000 0.030861
#
#
# Mechanical properties :
#
#
# Convention : Reuss Voigt Hill
#
# Bulk Modulus (GPa) = 55.72497 72.24538 63.98517
# Shear Modulus (GPa) = 30.46602 33.66747 32.06674
#
# Velocity S-wave (km/s) = 3.70744 3.89737 3.80359
# Velocity P-wave (km/s) = 6.59301 7.26959 6.93955
#
# Compressibility (1/GPa) = 0.01794528
#
# Stress axis : x y z
#
# Youngs Moduli (GPa) = 49.68237 74.44306 89.74154
#
# Poissons Ratio (x) = 0.39892 0.14412
# Poissons Ratio (y) = 0.26623 0.57567
# Poissons Ratio (z) = 0.07979 0.47754
#
# Static dielectric constant tensor:
#      x y z
#    x 1.957790 0.000000 0.073560 
#    y 0.000000 1.922250 0.000000 
#    z 0.073560 0.000000 1.889840 
# 
# From -- ./inp_files/310334.got.cif
#   From: 2010.05.17/outbox.cif.g08.bks.cpg/sg15_156_cif.got.tgz:310334.got - 2010.06.03 18:47:42.
