data_PCOD9254043
_publ_section_title
;
Structure prediction by ZEFSAII (Michael W. Deem and Ramdas Pophale) SiO2 
 PCOD9254043
Probable space group: C 2/C
;
_chemical_formula_sum "Si O2"
_cell_formula_units_Z 60
_cell_length_a 18.535212
_cell_length_b 8.874499
_cell_length_c 17.871511
_cell_angle_alpha 90.000000
_cell_angle_beta 56.205823
_cell_angle_gamma 90.000000
_cell_volume 2443.009336
_symmetry_space_group_name_H-M "C 2/C"
_symmetry_group_IT_number 15
_symmetry_cell_setting 'monoclinic'
loop_
_space_group_symop_operation_xyz
x,y,z
-x,y,1/2-z
-x,-y,-z
x,-y,1/2+z
1/2+x,1/2+y,z
1/2-x,1/2+y,1/2-z
1/2-x,1/2-y,-z
1/2+x,1/2-y,1/2+z
loop_
_atom_site_type_symbol
_atom_site_label
_atom_site_fract_x
_atom_site_fract_y
_atom_site_fract_z
Si Si1 0.629108 0.640710 0.774039
Si Si2 0.119129 0.130607 0.947279
Si Si3 0.584893 0.711917 0.446805
Si Si4 0.128637 0.606000 0.058365
Si Si5 0.390163 0.711875 0.386755
Si Si6 0.694561 0.584784 0.589213
Si Si7 0.907291 0.213894 0.217259
Si Si8 0.500000 0.848444 0.750000
O O1 0.651274 0.682628 0.846523
O O2 0.706035 0.632345 0.668880
O O3 0.596820 0.467475 0.793821
O O4 0.556721 0.746149 0.775198
O O5 0.130869 0.947279 0.944526
O O6 0.148317 0.215539 0.006533
O O7 0.015656 0.163450 0.003886
O O8 0.586573 0.847377 0.504923
O O9 0.621535 0.771438 0.346781
O O10 0.163533 0.765984 0.067227
O O11 0.063633 0.557064 0.160102
O O12 0.217103 0.517151 0.994438
O O13 0.382185 0.532718 0.375842
O O14 0.359426 0.764950 0.321265
O O15 0.491163 0.750883 0.334257
#
# Coordination Sequence:
#
# PCOD9254043 Si02
#       8
#     8   8   8   8   8   8   8   4
#     4   9  14  21  31  47  63  95 118 144 168 206
#     4   9  14  19  33  48  66  89 121 152 169 208
#     4   9  14  20  30  48  64  90 126 145 170 202
#     4  10  16  24  31  46  68 101 122 144 167 214
#     4   9  13  22  31  50  72  95 115 147 182 209
#     4   9  17  22  31  44  72  97 120 141 175 214
#     4   8  14  19  33  48  70  93 119 146 167 207
#     4  10  16  22  34  44  68  94 130 138 166 212
#
# _framework density 24.559875000000002
#
# number of rings (size 3 to 8) (size 9 to 14) (size 15 to 20)
#    0.000    2.933    2.667    3.200    0.000    0.000 
#    0.000    0.000    0.000    0.000    0.000    0.933 
#    0.000    1.067    0.267    0.000    0.000    0.000 
#
# Total GULP energy -167046.477505 kJ/mol
# GULP energy per Si atom -5568.215917 kJ/mol
# Density = 2.450398 g / cm^3
# Si number density = 24.559875 Si / 1000 Ang^3
#
#
#
# Elastic Constant Matrix: (Units=GPa)
#
#
# Indices 1 2 3 4 5 6 
#
# 1 61.9874 25.3240 56.2308 0.0000 26.5314 0.0001
# 2 25.3240 51.8818 -6.4287 0.0000 6.6237 0.0001
# 3 56.2308 -6.4287 172.3774 0.0000 50.6228 0.0000
# 4 0.0000 0.0000 0.0000 -23.2652 0.0000 10.7920
# 5 26.5314 6.6237 50.6228 0.0000 53.4678 0.0000
# 6 0.0001 0.0001 0.0000 10.7920 0.0000 5.4735
#
#
#
# Elastic Compliance Matrix: (Units=1/GPa)
#
#
# Indices 1 2 3 4 5 6 
#
# 1 0.035371 -0.017920 -0.010671 0.000000 -0.005228 0.000000
# 2 -0.017920 0.029173 0.007457 0.000000 -0.001782 0.000000
# 3 -0.010671 0.007457 0.011464 0.000000 -0.006483 0.000000
# 4 0.000000 0.000000 0.000000 -0.022450 0.000000 0.044264
# 5 -0.005228 -0.001782 -0.006483 0.000000 0.027656 0.000000
# 6 0.000000 0.000000 0.000000 0.044264 0.000000 0.095424
#
#
# Mechanical properties :
#
#
# Convention : Reuss Voigt Hill
#
# Bulk Modulus (GPa) = 29.63837 48.49985 39.06911
# Shear Modulus (GPa) = 21.72468 21.20991 21.46729
#
# Velocity S-wave (km/s) = 2.97738 2.94190 2.95969
# Velocity P-wave (km/s) = 4.89017 5.59733 5.25566
#
# Compressibility (1/GPa) = 0.03374004
#
# Stress axis : x y z
#
# Youngs Moduli (GPa) = 28.27153 34.27825 87.22803
#
# Poissons Ratio (x) = 0.61426 0.93084
# Poissons Ratio (y) = 0.50662 -0.65046
# Poissons Ratio (z) = 0.30169 -0.25561
#
# Static dielectric constant tensor:
#      x y z
#    x 1.966820 0.000000 0.042010 
#    y 0.000000 1.910390 0.000000 
#    z 0.042010 0.000000 2.136220 
# 
# From -- ./inp_files/215332.got.cif
#   From: 2010.05.17/outbox.cif.g08.bks.cpg/sg15_108_cif.got.tgz:215332.got - 2010.06.03 18:47:42.
