data_PCOD9254711
_publ_section_title
;
Structure prediction by ZEFSAII (Michael W. Deem and Ramdas Pophale) SiO2 
 PCOD9254711
Probable space group: C 2/C
;
_chemical_formula_sum "Si O2"
_cell_formula_units_Z 28
_cell_length_a 6.342325
_cell_length_b 22.752958
_cell_length_c 11.853740
_cell_angle_alpha 90.000000
_cell_angle_beta 42.754628
_cell_angle_gamma 90.000000
_cell_volume 1161.240066
_symmetry_space_group_name_H-M "C 2/C"
_symmetry_group_IT_number 15
_symmetry_cell_setting 'monoclinic'
loop_
_space_group_symop_operation_xyz
x,y,z
-x,y,1/2-z
-x,-y,-z
x,-y,1/2+z
1/2+x,1/2+y,z
1/2-x,1/2+y,1/2-z
1/2-x,1/2-y,-z
1/2+x,1/2-y,1/2+z
loop_
_atom_site_type_symbol
_atom_site_label
_atom_site_fract_x
_atom_site_fract_y
_atom_site_fract_z
Si Si1 0.000000 0.868253 0.750000
Si Si2 0.631310 0.435763 0.922329
Si Si3 0.524772 0.223251 0.490235
Si Si4 0.663476 0.660843 0.819933
O O1 0.971336 0.907150 0.873551
O O2 0.280646 0.822744 0.660168
O O3 0.000000 0.436949 0.750000
O O4 0.500000 0.500000 0.000000
O O5 0.533798 0.395889 0.067835
O O6 0.750000 0.250000 0.500000
O O7 0.472196 0.283951 0.445750
O O8 0.286982 0.182380 0.650621
O O9 0.000000 0.653022 0.750000
#
# Coordination Sequence:
#
# PCOD9254711 Si02
#       4
#     4   8   8   8
#     4  12  22  44  76  98 140 180 222 282 350 398
#     4  12  28  47  67  99 135 183 238 281 332 409
#     4  10  16  33  74 104 129 185 214 268 361 397
#     4  10  17  37  67  97 139 172 222 273 331 407
#
# _framework density 24.112155999999999
#
# number of rings (size 3 to 8) (size 9 to 14) (size 15 to 20)
#    0.000    1.143   10.000    0.857    0.000    1.143 
#    0.000    5.714    0.000    0.000    0.000    0.000 
#    0.000    0.000    0.000    0.000    0.000    0.000 
#
# Total GULP energy -78227.802606 kJ/mol
# GULP energy per Si atom -5587.700186 kJ/mol
# Density = 2.405728 g / cm^3
# Si number density = 24.112156 Si / 1000 Ang^3
#
#
#
# Elastic Constant Matrix: (Units=GPa)
#
#
# Indices 1 2 3 4 5 6 
#
# 1 38.6137 33.9364 19.2249 0.0000 12.9045 0.0000
# 2 33.9364 250.5820 109.6139 0.0000 8.9110 0.0000
# 3 19.2249 109.6139 179.2043 0.0000 -10.5798 0.0000
# 4 0.0000 0.0000 0.0000 71.6035 0.0000 3.6033
# 5 12.9045 8.9110 -10.5798 0.0000 62.7621 0.0000
# 6 0.0000 0.0000 0.0000 3.6033 0.0000 24.0378
#
#
#
# Elastic Compliance Matrix: (Units=1/GPa)
#
#
# Indices 1 2 3 4 5 6 
#
# 1 0.031813 -0.003310 -0.001764 0.000000 -0.006368 0.000000
# 2 -0.003310 0.005908 -0.003301 0.000000 -0.000715 0.000000
# 3 -0.001764 -0.003301 0.007917 0.000000 0.002166 0.000000
# 4 0.000000 0.000000 0.000000 0.014072 0.000000 -0.002109
# 5 -0.006368 -0.000715 0.002166 0.000000 0.017709 0.000000
# 6 0.000000 0.000000 0.000000 -0.002109 0.000000 0.041917
#
#
# Mechanical properties :
#
#
# Convention : Reuss Voigt Hill
#
# Bulk Modulus (GPa) = 34.61711 88.21668 61.41689
# Shear Modulus (GPa) = 34.31304 52.05567 43.18436
#
# Velocity S-wave (km/s) = 3.77644 4.65143 4.23659
# Velocity P-wave (km/s) = 5.77955 8.09402 7.03265
#
# Compressibility (1/GPa) = 0.02888745
#
# Stress axis : x y z
#
# Youngs Moduli (GPa) = 31.43320 169.24845 126.31816
#
# Poissons Ratio (x) = 0.56028 0.22283
# Poissons Ratio (y) = 0.10406 0.41699
# Poissons Ratio (z) = 0.05545 0.55871
#
# Static dielectric constant tensor:
#      x y z
#    x 2.568460 0.000000 -0.110990 
#    y 0.000000 1.818630 0.000000 
#    z -0.110990 0.000000 1.956380 
# 
# From -- ./inp_files/21970.got.cif
#   From: 2010.05.17/outbox.cif.g08.bks.cpg/sg15_11_cif.got.tgz:21970.got - 2010.06.03 18:47:42.
