data_PCOD9254084
_publ_section_title
;
Structure prediction by ZEFSAII (Michael W. Deem and Ramdas Pophale) SiO2 
 PCOD9254084
Probable space group: C 2/C
;
_chemical_formula_sum "Si O2"
_cell_formula_units_Z 40
_cell_length_a 14.397660
_cell_length_b 24.189669
_cell_length_c 8.635337
_cell_angle_alpha 90.000000
_cell_angle_beta 36.251669
_cell_angle_gamma 90.000000
_cell_volume 1778.415965
_symmetry_space_group_name_H-M "C 2/C"
_symmetry_group_IT_number 15
_symmetry_cell_setting 'monoclinic'
loop_
_space_group_symop_operation_xyz
x,y,z
-x,y,1/2-z
-x,-y,-z
x,-y,1/2+z
1/2+x,1/2+y,z
1/2-x,1/2+y,1/2-z
1/2-x,1/2-y,-z
1/2+x,1/2-y,1/2+z
loop_
_atom_site_type_symbol
_atom_site_label
_atom_site_fract_x
_atom_site_fract_y
_atom_site_fract_z
Si Si1 0.928825 0.750037 0.583493
Si Si2 0.301435 0.056025 0.693508
Si Si3 0.331973 0.328461 0.112576
Si Si4 0.238589 0.679623 0.101331
Si Si5 0.669491 0.940115 0.716771
O O1 0.788357 0.709465 0.822506
O O2 0.859457 0.782809 0.530859
O O3 0.001436 0.797979 0.593491
O O4 0.070366 0.708184 0.353416
O O5 0.192734 0.107110 0.893439
O O6 0.311901 0.055600 0.493416
O O7 0.482793 0.063866 0.505136
O O8 0.257290 0.994853 0.808366
O O9 0.271571 0.324871 0.374450
O O10 0.243185 0.618148 0.164192
#
# Coordination Sequence:
#
# PCOD9254084 Si02
#       5
#     8   8   8   8   8
#     4  10  17  24  40  64  93 118 141 180 233 272
#     4   9  17  29  45  66  90 118 152 186 219 263
#     4  10  16  25  40  64  91 116 144 182 226 270
#     4  10  16  25  40  64  91 116 144 182 226 270
#     4   9  17  29  45  66  90 118 152 186 219 263
#
# _framework density 22.491925999999999
#
# number of rings (size 3 to 8) (size 9 to 14) (size 15 to 20)
#    0.000    2.400    2.000    4.800    0.000    0.000 
#    0.000    1.000    0.000    0.000    0.000    8.400 
#    0.000    0.000    0.000    0.000    0.000    0.000 
#
# Total GULP energy -111675.515029 kJ/mol
# GULP energy per Si atom -5583.775751 kJ/mol
# Density = 2.244073 g / cm^3
# Si number density = 22.491926 Si / 1000 Ang^3
#
#
#
# Elastic Constant Matrix: (Units=GPa)
#
#
# Indices 1 2 3 4 5 6 
#
# 1 59.6512 48.9273 24.2554 0.0000 -20.5270 0.0000
# 2 48.9273 243.5842 35.2013 0.0000 -14.7005 0.0000
# 3 24.2554 35.2013 61.9340 0.0000 -19.3878 0.0000
# 4 0.0000 0.0000 0.0000 11.9045 0.0000 2.8418
# 5 -20.5270 -14.7005 -19.3878 0.0000 22.8164 0.0000
# 6 0.0000 0.0000 0.0000 2.8418 0.0000 44.1525
#
#
#
# Elastic Compliance Matrix: (Units=1/GPa)
#
#
# Indices 1 2 3 4 5 6 
#
# 1 0.028185 -0.004086 -0.002183 0.000000 0.020869 0.000000
# 2 -0.004086 0.005081 -0.001926 0.000000 -0.002039 0.000000
# 3 -0.002183 -0.001926 0.023287 0.000000 0.016583 0.000000
# 4 0.000000 0.000000 0.000000 0.085312 0.000000 -0.005491
# 5 0.020869 -0.002039 0.016583 0.000000 0.075381 0.000000
# 6 0.000000 0.000000 0.000000 -0.005491 0.000000 0.023002
#
#
# Mechanical properties :
#
#
# Convention : Reuss Voigt Hill
#
# Bulk Modulus (GPa) = 24.89858 64.65970 44.77914
# Shear Modulus (GPa) = 18.51671 32.89371 25.70521
#
# Velocity S-wave (km/s) = 2.87236 3.82837 3.38429
# Velocity P-wave (km/s) = 4.70050 6.95358 5.93494
#
# Compressibility (1/GPa) = 0.04016293
#
# Stress axis : x y z
#
# Youngs Moduli (GPa) = 35.47994 196.79403 42.94275
#
# Poissons Ratio (x) = 0.80418 0.09373
# Poissons Ratio (y) = 0.14499 0.08271
# Poissons Ratio (z) = 0.07744 0.37904
#
# Static dielectric constant tensor:
#      x y z
#    x 1.819470 0.000000 0.018730 
#    y 0.000000 1.841790 0.000000 
#    z 0.018730 0.000000 1.906530 
# 
# From -- ./inp_files/113586.got.cif
#   From: 2010.05.17/outbox.cif.g08.bks.cpg/sg15_57_cif.got.tgz:113586.got - 2010.06.03 18:47:42.
