data_PCOD9254151
_publ_section_title
;
Structure prediction by ZEFSAII (Michael W. Deem and Ramdas Pophale) SiO2 
 PCOD9254151
Probable space group: C 2/C
;
_chemical_formula_sum "Si O2"
_cell_formula_units_Z 48
_cell_length_a 13.759598
_cell_length_b 11.909667
_cell_length_c 23.005273
_cell_angle_alpha 90.000000
_cell_angle_beta 28.845433
_cell_angle_gamma 90.000000
_cell_volume 1818.794454
_symmetry_space_group_name_H-M "C 2/C"
_symmetry_group_IT_number 15
_symmetry_cell_setting 'monoclinic'
loop_
_space_group_symop_operation_xyz
x,y,z
-x,y,1/2-z
-x,-y,-z
x,-y,1/2+z
1/2+x,1/2+y,z
1/2-x,1/2+y,1/2-z
1/2-x,1/2-y,-z
1/2+x,1/2-y,1/2+z
loop_
_atom_site_type_symbol
_atom_site_label
_atom_site_fract_x
_atom_site_fract_y
_atom_site_fract_z
Si Si1 0.402782 0.077996 0.463743
Si Si2 0.778416 0.562324 0.938778
Si Si3 0.724938 0.710475 0.240256
Si Si4 0.685507 0.180048 0.871032
Si Si5 0.981585 0.910394 0.132773
Si Si6 0.000000 0.749128 0.750000
Si Si7 0.000000 0.367083 0.750000
O O1 0.361214 0.952033 0.462044
O O2 0.611098 0.119813 0.327585
O O3 0.421187 0.117204 0.520579
O O4 0.193048 0.132269 0.549832
O O5 0.848180 0.668231 0.865869
O O6 0.884089 0.455271 0.852219
O O7 0.545920 0.524025 0.067053
O O8 0.594374 0.756986 0.362320
O O9 0.607038 0.682245 0.244289
O O10 0.870719 0.819892 0.150362
O O11 0.827414 0.280015 0.820530
O O12 0.830515 0.086138 0.765840
#
# Coordination Sequence:
#
# PCOD9254151 Si02
#       7
#     8   8   8   8   8   4   4
#     4  10  16  32  56  86 103 139 192 244 271 322
#     4   9  19  30  53  80 111 144 181 229 282 325
#     4  10  20  33  52  81 116 152 181 229 286 333
#     4  10  16  26  54  86 107 129 183 248 275 312
#     4   8  16  29  52  81 107 130 193 233 283 304
#     4  11  24  38  46  78 133 156 174 217 288 354
#     4  11  12  24  48  84 111 116 176 239 272 302
#
# _framework density 26.391107999999999
#
# number of rings (size 3 to 8) (size 9 to 14) (size 15 to 20)
#    2.000    0.333    3.333    1.500    0.000    0.667 
#    0.000    1.667    0.000    0.000    0.000    0.000 
#    0.000    0.000    0.000    0.000    0.000    0.000 
#
# Total GULP energy -133690.423681 kJ/mol
# GULP energy per Si atom -5570.434320 kJ/mol
# Density = 2.633104 g / cm^3
# Si number density = 26.391108 Si / 1000 Ang^3
#
#
#
# Elastic Constant Matrix: (Units=GPa)
#
#
# Indices 1 2 3 4 5 6 
#
# 1 103.1562 8.1902 -6.7525 -0.0069 13.0075 -0.0014
# 2 8.1902 79.2269 12.9405 -0.0057 -13.6343 0.0011
# 3 -6.7525 12.9405 98.1171 -0.0378 21.4461 0.0113
# 4 -0.0069 -0.0057 -0.0378 17.1592 0.0095 -5.8846
# 5 13.0075 -13.6343 21.4461 0.0095 28.2239 -0.0002
# 6 -0.0014 0.0011 0.0113 -5.8846 -0.0002 12.4054
#
#
#
# Elastic Compliance Matrix: (Units=1/GPa)
#
#
# Indices 1 2 3 4 5 6 
#
# 1 0.011340 -0.003300 0.003246 0.000018 -0.009287 0.000007
# 2 -0.003300 0.016111 -0.005259 -0.000017 0.013300 -0.000005
# 3 0.003246 -0.005259 0.014379 0.000042 -0.014963 0.000008
# 4 0.000018 -0.000017 0.000042 0.069600 -0.000072 0.033016
# 5 -0.009287 0.013300 -0.014963 -0.000072 0.057505 -0.000022
# 6 0.000007 -0.000005 0.000008 0.033016 -0.000022 0.096271
#
#
# Mechanical properties :
#
#
# Convention : Reuss Voigt Hill
#
# Bulk Modulus (GPa) = 32.04946 34.36182 33.20564
# Shear Modulus (GPa) = 17.46816 29.29919 23.38367
#
# Velocity S-wave (km/s) = 2.57552 3.33557 2.97988
# Velocity P-wave (km/s) = 4.58419 5.28045 4.94459
#
# Compressibility (1/GPa) = 0.03120177
#
# Stress axis : x y z
#
# Youngs Moduli (GPa) = 88.18724 62.06943 69.54418
#
# Poissons Ratio (x) = 0.20486 -0.22571
# Poissons Ratio (y) = 0.29106 0.36574
# Poissons Ratio (z) = -0.28621 0.32643
#
# Static dielectric constant tensor:
#      x y z
#    x 2.174320 0.000000 0.067750 
#    y 0.000000 2.087640 0.000000 
#    z 0.067750 0.000000 2.129980 
# 
# From -- ./inp_files/274557.got.cif
#   From: 2010.05.17/outbox.cif.g08.bks.cpg/sg15_138_cif.got.tgz:274557.got - 2010.06.03 18:47:42.
