data_PCOD9254501
_publ_section_title
;
Structure prediction by ZEFSAII (Michael W. Deem and Ramdas Pophale) SiO2 
 PCOD9254501
Probable space group: C 2/C
;
_chemical_formula_sum "Si O2"
_cell_formula_units_Z 64
_cell_length_a 18.247623
_cell_length_b 20.961082
_cell_length_c 17.564581
_cell_angle_alpha 90.000000
_cell_angle_beta 27.513883
_cell_angle_gamma 90.000000
_cell_volume 3103.598108
_symmetry_space_group_name_H-M "C 2/C"
_symmetry_group_IT_number 15
_symmetry_cell_setting 'monoclinic'
loop_
_space_group_symop_operation_xyz
x,y,z
-x,y,1/2-z
-x,-y,-z
x,-y,1/2+z
1/2+x,1/2+y,z
1/2-x,1/2+y,1/2-z
1/2-x,1/2-y,-z
1/2+x,1/2-y,1/2+z
loop_
_atom_site_type_symbol
_atom_site_label
_atom_site_fract_x
_atom_site_fract_y
_atom_site_fract_z
Si Si1 0.668357 0.044011 0.281715
Si Si2 0.386427 0.446988 0.019434
Si Si3 0.120173 0.522622 0.500690
Si Si4 0.874944 0.668579 0.976945
Si Si5 0.847783 0.158072 0.445240
Si Si6 0.067120 0.939055 0.271164
Si Si7 0.918216 0.231613 0.162584
Si Si8 0.067109 0.137658 0.472871
O O1 0.534536 0.020704 0.347368
O O2 0.759525 0.107613 0.172461
O O3 0.784517 0.983028 0.175652
O O4 0.612982 0.047312 0.419265
O O5 0.299542 0.402589 0.039327
O O6 0.461314 0.503880 0.902836
O O7 0.509473 0.404081 0.952743
O O8 0.129399 0.591835 0.529877
O O9 0.263702 0.474634 0.386494
O O10 0.800811 0.686431 0.962917
O O11 0.738652 0.696308 0.160448
O O12 0.044450 0.694390 0.852245
O O13 0.000000 0.140952 0.250000
O O14 0.932830 0.204815 0.426137
O O15 0.000000 0.921715 0.250000
O O16 0.043046 0.881336 0.354187
O O17 0.933398 0.208776 0.061149
#
# Coordination Sequence:
#
# PCOD9254501 Si02
#       8
#     8   8   8   8   8   8   8   8
#     4  10  19  32  53  77 111 142 179 235 280 326
#     4  10  16  31  52  78 104 150 188 217 272 337
#     4  11  20  34  52  82 114 141 179 234 290 320
#     4  11  21  36  51  79 110 149 189 229 272 321
#     4   9  18  32  53  74 111 152 187 227 263 314
#     4  11  19  32  55  83 113 146 181 225 284 346
#     4  10  21  36  53  75 110 150 198 227 262 316
#     4  10  18  36  54  77 107 149 190 228 273 335
#
# _framework density 20.621227000000001
#
# number of rings (size 3 to 8) (size 9 to 14) (size 15 to 20)
#    0.000    1.750    3.750    3.750    0.000    2.000 
#    0.000    6.875    0.000    0.000    0.000    0.875 
#    0.000    0.000    0.000    0.000    0.000    0.000 
#
# Total GULP energy -178216.417339 kJ/mol
# GULP energy per Si atom -5569.263042 kJ/mol
# Density = 2.057429 g / cm^3
# Si number density = 20.621227 Si / 1000 Ang^3
#
#
#
# Elastic Constant Matrix: (Units=GPa)
#
#
# Indices 1 2 3 4 5 6 
#
# 1 72.5648 36.7939 18.9696 -0.0008 0.8895 -0.0038
# 2 36.7939 56.8020 19.7653 0.0041 -6.0476 -0.0099
# 3 18.9696 19.7653 33.2359 -0.0009 -13.7905 -0.0021
# 4 -0.0008 0.0041 -0.0009 11.0228 -0.0028 -2.4450
# 5 0.8895 -6.0476 -13.7905 -0.0028 25.8784 -0.0002
# 6 -0.0038 -0.0099 -0.0021 -2.4450 -0.0002 36.3548
#
#
#
# Elastic Compliance Matrix: (Units=1/GPa)
#
#
# Indices 1 2 3 4 5 6 
#
# 1 0.022496 -0.012336 -0.009013 0.000003 -0.008459 -0.000001
# 2 -0.012336 0.029078 -0.009316 -0.000011 0.002255 0.000005
# 3 -0.009013 -0.009316 0.051352 0.000014 0.025498 0.000001
# 4 0.000003 -0.000011 0.000014 0.092094 0.000015 0.006194
# 5 -0.008459 0.002255 0.025498 0.000015 0.053048 0.000003
# 6 -0.000001 0.000005 0.000001 0.006194 0.000003 0.027923
#
#
# Mechanical properties :
#
#
# Convention : Reuss Voigt Hill
#
# Bulk Modulus (GPa) = 24.04126 34.85116 29.44621
# Shear Modulus (GPa) = 14.23745 20.45614 17.34679
#
# Velocity S-wave (km/s) = 2.63045 3.15301 2.90351
# Velocity P-wave (km/s) = 4.57269 5.49478 5.05480
#
# Compressibility (1/GPa) = 0.04159516
#
# Stress axis : x y z
#
# Youngs Moduli (GPa) = 44.45306 34.39084 19.47329
#
# Poissons Ratio (x) = 0.42425 0.17552
# Poissons Ratio (y) = 0.54837 0.18141
# Poissons Ratio (z) = 0.40067 0.32038
#
# Static dielectric constant tensor:
#      x y z
#    x 1.758030 0.000000 -0.020730 
#    y 0.000000 1.870060 0.000030 
#    z -0.020730 0.000030 1.879790 
# 
# From -- ./inp_files/211959.got.cif
#   From: 2010.05.17/outbox.cif.g08.bks.cpg/sg15_106_cif.got.tgz:211959.got - 2010.06.03 18:47:42.
