data_PCOD9254675
_publ_section_title
;
Structure prediction by ZEFSAII (Michael W. Deem and Ramdas Pophale) SiO2 
 PCOD9254675
Probable space group: C 2/C
;
_chemical_formula_sum "Si O2"
_cell_formula_units_Z 56
_cell_length_a 8.790183
_cell_length_b 21.281180
_cell_length_c 15.693927
_cell_angle_alpha 90.000000
_cell_angle_beta 115.184797
_cell_angle_gamma 90.000000
_cell_volume 2656.715405
_symmetry_space_group_name_H-M "C 2/C"
_symmetry_group_IT_number 15
_symmetry_cell_setting 'monoclinic'
loop_
_space_group_symop_operation_xyz
x,y,z
-x,y,1/2-z
-x,-y,-z
x,-y,1/2+z
1/2+x,1/2+y,z
1/2-x,1/2+y,1/2-z
1/2-x,1/2-y,-z
1/2+x,1/2-y,1/2+z
loop_
_atom_site_type_symbol
_atom_site_label
_atom_site_fract_x
_atom_site_fract_y
_atom_site_fract_z
Si Si1 0.500000 0.419141 0.250000
Si Si2 0.595901 0.788008 0.691693
Si Si3 0.951341 0.099256 0.458619
Si Si4 0.500000 0.099941 0.750000
Si Si5 0.090729 0.712051 0.649506
Si Si6 0.371387 0.325215 0.642587
Si Si7 0.316185 0.521896 0.855866
Si Si8 0.838736 0.179708 0.579669
O O1 0.622374 0.462798 0.224580
O O2 0.598114 0.373732 0.338688
O O3 0.500000 0.818585 0.750000
O O4 0.755241 0.750155 0.769993
O O5 0.686261 0.827491 0.639001
O O6 0.469266 0.736431 0.623666
O O7 0.851514 0.151617 0.488482
O O8 0.081474 0.130253 0.424149
O O9 0.056776 0.058953 0.551655
O O10 0.829576 0.051075 0.381292
O O11 0.569864 0.147331 0.695123
O O12 0.638944 0.055173 0.823325
O O13 0.156209 0.699706 0.570103
O O14 0.926148 0.754997 0.623966
O O15 0.500000 0.340992 0.750000
#
# Coordination Sequence:
#
# PCOD9254675 Si02
#       8
#     4   8   8   4   8   8   8   8
#     4  10  16  32  63  83 102 168 204 250 294 364
#     4   9  16  31  57  92 119 159 206 247 299 387
#     4  10  23  40  57  92 126 163 208 261 315 373
#     4  12  18  38  67  95 114 162 224 260 294 362
#     4  10  17  31  58  93 118 156 206 257 301 372
#     4  10  21  35  60  87 130 162 201 248 322 382
#     4  10  23  39  66  87 118 162 227 258 294 368
#     4  10  17  33  59  86 121 152 206 250 311 366
#
# _framework density 21.078659999999999
#
# number of rings (size 3 to 8) (size 9 to 14) (size 15 to 20)
#    0.000    2.000    5.714    0.857    1.000    1.143 
#    0.000    0.714   12.571    0.000    0.000    0.000 
#    0.000    0.000    0.000    0.000    0.000    0.000 
#
# Total GULP energy -156376.524935 kJ/mol
# GULP energy per Si atom -5584.875891 kJ/mol
# Density = 2.103068 g / cm^3
# Si number density = 21.078660 Si / 1000 Ang^3
#
#
#
# Elastic Constant Matrix: (Units=GPa)
#
#
# Indices 1 2 3 4 5 6 
#
# 1 112.9001 24.5752 28.5428 0.0000 -39.0801 0.0000
# 2 24.5752 57.6857 28.7908 0.0000 -18.2252 0.0000
# 3 28.5428 28.7908 55.1492 0.0000 -24.0298 0.0000
# 4 0.0000 0.0000 0.0000 10.8121 0.0000 4.7195
# 5 -39.0801 -18.2252 -24.0298 0.0000 42.0309 0.0000
# 6 0.0000 0.0000 0.0000 4.7195 0.0000 3.4427
#
#
#
# Elastic Compliance Matrix: (Units=1/GPa)
#
#
# Indices 1 2 3 4 5 6 
#
# 1 0.013322 -0.001561 -0.001302 0.000000 0.010965 0.000000
# 2 -0.001561 0.024202 -0.010503 0.000000 0.003038 0.000000
# 3 -0.001302 -0.010503 0.029003 0.000000 0.010816 0.000000
# 4 0.000000 0.000000 0.000000 0.230290 0.000000 -0.315695
# 5 0.010965 0.003038 0.010816 0.000000 0.041489 0.000000
# 6 0.000000 0.000000 0.000000 -0.315695 0.000000 0.723238
#
#
# Mechanical properties :
#
#
# Convention : Reuss Voigt Hill
#
# Bulk Modulus (GPa) = 25.12914 43.28362 34.20638
# Shear Modulus (GPa) = 4.53909 20.84557 12.69233
#
# Velocity S-wave (km/s) = 1.46904 3.14816 2.45652
# Velocity P-wave (km/s) = 3.85032 5.81321 4.93043
#
# Compressibility (1/GPa) = 0.03979443
#
# Stress axis : x y z
#
# Youngs Moduli (GPa) = 75.06366 41.31829 34.47966
#
# Poissons Ratio (x) = 0.06451 0.04489
# Poissons Ratio (y) = 0.11719 0.36214
# Poissons Ratio (z) = 0.09773 0.43397
#
# Static dielectric constant tensor:
#      x y z
#    x 1.788950 0.000000 -0.019030 
#    y 0.000000 1.760140 0.000000 
#    z -0.019030 0.000000 1.793330 
# 
# From -- ./inp_files/137502.got.cif
#   From: 2010.05.17/outbox.cif.g08.bks.cpg/sg15_69_cif.got.tgz:137502.got - 2010.06.03 18:47:42.
