data_PCOD9254699
_publ_section_title
;
Structure prediction by ZEFSAII (Michael W. Deem and Ramdas Pophale) SiO2 
 PCOD9254699
Probable space group: C 2/C
;
_chemical_formula_sum "Si O2"
_cell_formula_units_Z 44
_cell_length_a 15.883252
_cell_length_b 24.274501
_cell_length_c 5.237167
_cell_angle_alpha 90.000000
_cell_angle_beta 86.278646
_cell_angle_gamma 90.000000
_cell_volume 2014.974167
_symmetry_space_group_name_H-M "C 2/C"
_symmetry_group_IT_number 15
_symmetry_cell_setting 'monoclinic'
loop_
_space_group_symop_operation_xyz
x,y,z
-x,y,1/2-z
-x,-y,-z
x,-y,1/2+z
1/2+x,1/2+y,z
1/2-x,1/2+y,1/2-z
1/2-x,1/2-y,-z
1/2+x,1/2-y,1/2+z
loop_
_atom_site_type_symbol
_atom_site_label
_atom_site_fract_x
_atom_site_fract_y
_atom_site_fract_z
Si Si1 0.052773 0.141094 0.485092
Si Si2 0.205883 0.796169 0.843817
Si Si3 0.902174 0.020830 0.040659
Si Si4 0.407062 0.209974 0.845045
Si Si5 0.128592 0.358361 0.661432
Si Si6 0.000000 0.540239 0.250000
O O1 0.127657 0.182126 0.523058
O O2 0.093660 0.083756 0.390287
O O3 0.000000 0.157840 0.250000
O O4 0.000000 0.131305 0.750000
O O5 0.159394 0.760600 0.631645
O O6 0.272096 0.845936 0.787254
O O7 0.250000 0.750000 0.000000
O O8 0.861307 0.987110 0.275327
O O9 0.000000 0.000000 0.000000
O O10 0.500000 0.228648 0.750000
O O11 0.382236 0.166145 0.623961
O O12 0.413150 0.180395 0.115221
O O13 0.081319 0.417517 0.704388
O O14 0.000000 0.500000 0.500000
#
# Coordination Sequence:
#
# PCOD9254699 Si02
#       6
#     8   8   8   8   8   4
#     4  12  23  39  64  95 128 171 221 258 314 402
#     4  10  26  42  63  95 140 172 213 273 333 391
#     4  10  16  33  58  83 116 152 198 252 298 357
#     4  11  20  40  69  98 129 176 213 262 331 418
#     4  11  23  44  66  98 132 170 219 279 339 386
#     4  12  24  44  76  96 128 176 236 288 334 396
#
# _framework density 21.836507000000001
#
# number of rings (size 3 to 8) (size 9 to 14) (size 15 to 20)
#    0.000    1.091    5.455    2.182    0.000    8.727 
#    0.000    1.818    0.000    0.000    0.000    0.000 
#    0.000    0.000    0.000    0.000    0.000    0.000 
#
# Total GULP energy -122598.433602 kJ/mol
# GULP energy per Si atom -5572.656073 kJ/mol
# Density = 2.178681 g / cm^3
# Si number density = 21.836507 Si / 1000 Ang^3
#
#
#
# Elastic Constant Matrix: (Units=GPa)
#
#
# Indices 1 2 3 4 5 6 
#
# 1 103.5455 45.5630 18.3967 0.0000 -3.0745 0.0000
# 2 45.5630 108.2484 8.6499 0.0000 7.9609 0.0000
# 3 18.3967 8.6499 99.9658 0.0000 10.8128 0.0000
# 4 0.0000 0.0000 0.0000 43.2008 0.0000 6.9861
# 5 -3.0745 7.9609 10.8128 0.0000 22.2717 0.0000
# 6 0.0000 0.0000 0.0000 6.9861 0.0000 37.9287
#
#
#
# Elastic Compliance Matrix: (Units=1/GPa)
#
#
# Indices 1 2 3 4 5 6 
#
# 1 0.012639 -0.005487 -0.002377 0.000000 0.004860 0.000000
# 2 -0.005487 0.011892 0.000552 0.000000 -0.005276 0.000000
# 3 -0.002377 0.000552 0.011029 0.000000 -0.005880 0.000000
# 4 0.000000 0.000000 0.000000 0.023858 0.000000 -0.004395
# 5 0.004860 -0.005276 -0.005880 0.000000 0.050311 0.000000
# 6 0.000000 0.000000 0.000000 -0.004395 0.000000 0.027175
#
#
# Mechanical properties :
#
#
# Convention : Reuss Voigt Hill
#
# Bulk Modulus (GPa) = 47.76843 50.77543 49.27193
# Shear Modulus (GPa) = 31.54432 36.62358 34.08395
#
# Velocity S-wave (km/s) = 3.80487 4.09977 3.95507
# Velocity P-wave (km/s) = 6.42072 6.76120 6.59316
#
# Compressibility (1/GPa) = 0.02093433
#
# Stress axis : x y z
#
# Youngs Moduli (GPa) = 79.12181 84.09289 90.66935
#
# Poissons Ratio (x) = 0.46144 0.21550
# Poissons Ratio (y) = 0.43416 -0.05001
# Poissons Ratio (z) = 0.18806 -0.04638
#
# Static dielectric constant tensor:
#      x y z
#    x 1.890330 0.000000 -0.009640 
#    y 0.000000 1.812980 0.000000 
#    z -0.009640 0.000000 1.794550 
# 
# From -- ./inp_files/7579.got.cif
#   From: 2010.05.17/outbox.cif.g08.bks.cpg/sg15_4_cif.got.tgz:7579.got - 2010.06.03 18:47:42.
