data_PCOD9254250
_publ_section_title
;
Structure prediction by ZEFSAII (Michael W. Deem and Ramdas Pophale) SiO2 
 PCOD9254250
Probable space group: C 2/C
;
_chemical_formula_sum "Si O2"
_cell_formula_units_Z 44
_cell_length_a 18.277518
_cell_length_b 7.063802
_cell_length_c 13.687184
_cell_angle_alpha 90.000000
_cell_angle_beta 69.077599
_cell_angle_gamma 90.000000
_cell_volume 1650.619263
_symmetry_space_group_name_H-M "C 2/C"
_symmetry_group_IT_number 15
_symmetry_cell_setting 'monoclinic'
loop_
_space_group_symop_operation_xyz
x,y,z
-x,y,1/2-z
-x,-y,-z
x,-y,1/2+z
1/2+x,1/2+y,z
1/2-x,1/2+y,1/2-z
1/2-x,1/2-y,-z
1/2+x,1/2-y,1/2+z
loop_
_atom_site_type_symbol
_atom_site_label
_atom_site_fract_x
_atom_site_fract_y
_atom_site_fract_z
Si Si1 0.777795 0.343534 0.128320
Si Si2 0.917887 0.168339 0.449462
Si Si3 0.126061 0.035931 0.217628
Si Si4 0.446651 0.783981 0.975918
Si Si5 0.789072 0.052017 0.638955
Si Si6 0.000000 0.713059 0.250000
O O1 0.709703 0.485835 0.129395
O O2 0.751028 0.131941 0.109329
O O3 0.766521 0.357946 0.252773
O O4 0.864950 0.372458 0.049497
O O5 0.910792 0.191476 0.335986
O O6 0.986254 0.273103 0.474469
O O7 0.933400 0.939154 0.452720
O O8 0.835710 0.189400 0.546109
O O9 0.143886 0.050157 0.323973
O O10 0.072320 0.849855 0.242688
O O11 0.476136 0.882346 0.862301
#
# Coordination Sequence:
#
# PCOD9254250 Si02
#       6
#     8   8   8   8   8   4
#     4   9  19  33  52  79 112 137 186 217 281 312
#     4   9  16  29  49  75 110 135 185 217 276 303
#     4   9  19  30  51  82 102 141 177 231 259 327
#     4   9  16  27  48  79 108 139 174 238 258 322
#     4   9  18  34  50  78 107 146 172 231 260 334
#     4  10  16  28  50  76 110 132 188 222 276 294
#
# _framework density 26.656663000000002
#
# number of rings (size 3 to 8) (size 9 to 14) (size 15 to 20)
#    1.091    1.818    1.818    0.000    2.545    6.545 
#    0.000    0.909    0.000    4.364    4.727    0.000 
#    0.000    0.000    0.000    0.000    0.000    0.000 
#
# Total GULP energy -122811.085782 kJ/mol
# GULP energy per Si atom -5582.322081 kJ/mol
# Density = 2.659599 g / cm^3
# Si number density = 26.656663 Si / 1000 Ang^3
#
#
#
# Elastic Constant Matrix: (Units=GPa)
#
#
# Indices 1 2 3 4 5 6 
#
# 1 71.8709 18.7796 34.1578 0.0000 -27.9144 0.0000
# 2 18.7796 68.2519 10.3553 0.0000 -8.6650 0.0000
# 3 34.1578 10.3553 161.4882 0.0000 -38.4545 0.0000
# 4 0.0000 0.0000 0.0000 17.5186 0.0000 -0.3671
# 5 -27.9144 -8.6650 -38.4545 0.0000 49.6720 0.0000
# 6 0.0000 0.0000 0.0000 -0.3671 0.0000 25.4559
#
#
#
# Elastic Compliance Matrix: (Units=1/GPa)
#
#
# Indices 1 2 3 4 5 6 
#
# 1 0.019147 -0.003897 -0.001716 0.000000 0.008752 0.000000
# 2 -0.003897 0.015799 -0.000066 0.000000 0.000515 0.000000
# 3 -0.001716 -0.000066 0.007757 0.000000 0.005030 0.000000
# 4 0.000000 0.000000 0.000000 0.057100 0.000000 0.000823
# 5 0.008752 0.000515 0.005030 0.000000 0.029034 0.000000
# 6 0.000000 0.000000 0.000000 0.000823 0.000000 0.039296
#
#
# Mechanical properties :
#
#
# Convention : Reuss Voigt Hill
#
# Bulk Modulus (GPa) = 31.90285 47.57737 39.74011
# Shear Modulus (GPa) = 26.32428 34.41718 30.37073
#
# Velocity S-wave (km/s) = 3.14591 3.59713 3.37906
# Velocity P-wave (km/s) = 5.01893 5.92785 5.49223
#
# Compressibility (1/GPa) = 0.03134516
#
# Stress axis : x y z
#
# Youngs Moduli (GPa) = 52.22816 63.29417 128.91108
#
# Poissons Ratio (x) = 0.24664 0.22121
# Poissons Ratio (y) = 0.20352 0.00854
# Poissons Ratio (z) = 0.08962 0.00419
#
# Static dielectric constant tensor:
#      x y z
#    x 2.116120 0.000000 0.032950 
#    y 0.000000 2.120930 0.000000 
#    z 0.032950 0.000000 2.121890 
# 
# From -- ./inp_files/160265.got.cif
#   From: 2010.05.17/outbox.cif.g08.bks.cpg/sg15_81_cif.got.tgz:160265.got - 2010.06.03 18:47:42.
