data_PCOD9254537
_publ_section_title
;
Structure prediction by ZEFSAII (Michael W. Deem and Ramdas Pophale) SiO2 
 PCOD9254537
Probable space group: C 2/C
;
_chemical_formula_sum "Si O2"
_cell_formula_units_Z 56
_cell_length_a 20.579507
_cell_length_b 12.738207
_cell_length_c 28.285843
_cell_angle_alpha 90.000000
_cell_angle_beta 27.918750
_cell_angle_gamma 90.000000
_cell_volume 3471.853803
_symmetry_space_group_name_H-M "C 2/C"
_symmetry_group_IT_number 15
_symmetry_cell_setting 'monoclinic'
loop_
_space_group_symop_operation_xyz
x,y,z
-x,y,1/2-z
-x,-y,-z
x,-y,1/2+z
1/2+x,1/2+y,z
1/2-x,1/2+y,1/2-z
1/2-x,1/2-y,-z
1/2+x,1/2-y,1/2+z
loop_
_atom_site_type_symbol
_atom_site_label
_atom_site_fract_x
_atom_site_fract_y
_atom_site_fract_z
Si Si1 0.100348 0.032529 0.729938
Si Si2 0.613151 0.371061 0.801022
Si Si3 0.086188 0.463774 0.990790
Si Si4 0.505598 0.727022 0.031650
Si Si5 0.185651 0.229076 0.732648
Si Si6 0.633913 0.048526 0.298248
Si Si7 0.770784 0.836383 0.187076
O O1 0.113702 0.147261 0.744598
O O2 0.000000 0.030789 0.750000
O O3 0.055459 0.949395 0.799148
O O4 0.256052 0.998694 0.615439
O O5 0.752418 0.422682 0.734129
O O6 0.664287 0.259939 0.746792
O O7 0.515379 0.344613 0.908440
O O8 0.072749 0.338272 0.002198
O O9 0.000000 0.500000 0.000000
O O10 0.006896 0.514937 0.085833
O O11 0.599035 0.675558 0.931197
O O12 0.348695 0.753997 0.115807
O O13 0.120759 0.344859 0.777165
O O14 0.186164 0.180968 0.785616
O O15 0.697260 0.948680 0.230611
#
# Coordination Sequence:
#
# PCOD9254537 Si02
#       7
#     8   8   8   8   8   8   8
#     4  12  24  39  56  81 118 151 186 231 275 340
#     4  10  19  33  52  87 117 133 193 230 279 327
#     4  12  16  34  61  83 104 148 196 219 281 331
#     4  10  18  29  60  90 109 143 180 242 286 322
#     4  10  21  33  51  88 116 140 190 226 278 339
#     4  10  18  32  57  85 111 140 180 247 271 323
#     4  10  16  31  57  90 114 132 181 251 282 309
#
# _framework density 16.129712000000001
#
# number of rings (size 3 to 8) (size 9 to 14) (size 15 to 20)
#    0.000    1.714    8.571    0.857    0.000    2.286 
#    0.000    1.429    0.000    0.857    0.000    0.000 
#    0.000    0.000    0.000    0.000    0.000    0.000 
#
# Total GULP energy -156138.276126 kJ/mol
# GULP energy per Si atom -5576.367004 kJ/mol
# Density = 1.609300 g / cm^3
# Si number density = 16.129712 Si / 1000 Ang^3
#
#
#
# Elastic Constant Matrix: (Units=GPa)
#
#
# Indices 1 2 3 4 5 6 
#
# 1 71.8794 35.8832 21.7981 0.0001 -1.9485 -0.0002
# 2 35.8832 111.5297 24.4165 0.0003 1.4795 -0.0003
# 3 21.7981 24.4165 105.0710 0.0009 7.6493 -0.0008
# 4 0.0001 0.0003 0.0009 24.0144 -0.0004 8.1064
# 5 -1.9485 1.4795 7.6493 -0.0004 12.1714 0.0002
# 6 -0.0002 -0.0003 -0.0008 8.1064 0.0002 17.1242
#
#
#
# Elastic Compliance Matrix: (Units=1/GPa)
#
#
# Indices 1 2 3 4 5 6 
#
# 1 0.017433 -0.005061 -0.002818 0.000000 0.005177 0.000000
# 2 -0.005061 0.010917 -0.001395 0.000000 -0.001260 0.000000
# 3 -0.002818 -0.001395 0.010947 -0.000001 -0.007162 0.000001
# 4 0.000000 0.000000 -0.000001 0.049562 0.000003 -0.023462
# 5 0.005177 -0.001260 -0.007162 0.000003 0.087642 -0.000003
# 6 0.000000 0.000000 0.000001 -0.023462 -0.000003 0.069504
#
#
# Mechanical properties :
#
#
# Convention : Reuss Voigt Hill
#
# Bulk Modulus (GPa) = 48.19175 50.29730 49.24452
# Shear Modulus (GPa) = 18.41830 24.42081 21.41956
#
# Velocity S-wave (km/s) = 3.38285 3.89527 3.64807
# Velocity P-wave (km/s) = 6.72315 7.17506 6.95278
#
# Compressibility (1/GPa) = 0.02075044
#
# Stress axis : x y z
#
# Youngs Moduli (GPa) = 57.36107 91.60344 91.34508
#
# Poissons Ratio (x) = 0.46359 0.25737
# Poissons Ratio (y) = 0.29029 0.12744
# Poissons Ratio (z) = 0.16162 0.12780
#
# Static dielectric constant tensor:
#      x y z
#    x 1.511190 0.000000 0.020370 
#    y 0.000000 1.572730 0.000000 
#    z 0.020370 0.000000 1.552200 
# 
# From -- ./inp_files/300714.got.cif
#   From: 2010.05.17/outbox.cif.g08.bks.cpg/sg15_151_cif.got.tgz:300714.got - 2010.06.03 18:47:42.
