data_PCOD9254202
_publ_section_title
;
Structure prediction by ZEFSAII (Michael W. Deem and Ramdas Pophale) SiO2 
 PCOD9254202
Probable space group: C 2/C
;
_chemical_formula_sum "Si O2"
_cell_formula_units_Z 48
_cell_length_a 18.921249
_cell_length_b 19.387945
_cell_length_c 6.955740
_cell_angle_alpha 90.000000
_cell_angle_beta 45.563941
_cell_angle_gamma 90.000000
_cell_volume 1821.976290
_symmetry_space_group_name_H-M "C 2/C"
_symmetry_group_IT_number 15
_symmetry_cell_setting 'monoclinic'
loop_
_space_group_symop_operation_xyz
x,y,z
-x,y,1/2-z
-x,-y,-z
x,-y,1/2+z
1/2+x,1/2+y,z
1/2-x,1/2+y,1/2-z
1/2-x,1/2-y,-z
1/2+x,1/2-y,1/2+z
loop_
_atom_site_type_symbol
_atom_site_label
_atom_site_fract_x
_atom_site_fract_y
_atom_site_fract_z
Si Si1 0.733369 0.589580 0.928553
Si Si2 0.119297 0.692449 0.372381
Si Si3 0.914055 0.149591 0.571027
Si Si4 0.429192 0.837017 0.087477
Si Si5 0.309023 0.708710 0.219345
Si Si6 0.925125 0.019835 0.769059
O O1 0.682708 0.634047 0.197673
O O2 0.683987 0.514827 0.024195
O O3 0.687980 0.627979 0.831773
O O4 0.850192 0.602110 0.697979
O O5 0.082736 0.769983 0.406844
O O6 0.092348 0.674396 0.643723
O O7 0.238447 0.696693 0.169534
O O8 0.047832 0.648777 0.365648
O O9 0.949216 0.996070 0.470433
O O10 0.924618 0.101975 0.735087
O O11 0.396873 0.764939 0.042879
O O12 0.250000 0.750000 0.500000
O O13 0.000000 0.867184 0.750000
#
# Coordination Sequence:
#
# PCOD9254202 Si02
#       6
#     8   8   8   8   8   8
#     4  10  16  28  40  66  97 121 157 191 230 283
#     4   9  14  24  44  76 100 112 147 206 249 268
#     4  12  17  29  48  66 102 125 148 193 237 289
#     4   9  14  22  43  72  98 118 150 196 258 266
#     4   8  13  22  40  68  96 116 148 192 257 267
#     4  12  23  31  44  65  98 138 162 181 230 291
#
# _framework density 26.345020000000002
#
# number of rings (size 3 to 8) (size 9 to 14) (size 15 to 20)
#    0.000    2.333   10.000    0.000    0.000    0.000 
#    0.000    0.000    0.000    0.000    0.000   29.167 
#    0.000    0.000    0.000    0.000    0.000    0.000 
#
# Total GULP energy -133711.123632 kJ/mol
# GULP energy per Si atom -5571.296818 kJ/mol
# Density = 2.628506 g / cm^3
# Si number density = 26.345020 Si / 1000 Ang^3
#
#
#
# Elastic Constant Matrix: (Units=GPa)
#
#
# Indices 1 2 3 4 5 6 
#
# 1 209.1851 34.3970 51.9363 0.0000 -46.9705 0.0000
# 2 34.3970 75.4727 2.2552 0.0000 -2.5533 0.0000
# 3 51.9363 2.2552 104.7124 0.0000 16.4975 0.0000
# 4 0.0000 0.0000 0.0000 33.7639 0.0000 0.1537
# 5 -46.9705 -2.5533 16.4975 0.0000 45.8825 0.0000
# 6 0.0000 0.0000 0.0000 0.1537 0.0000 42.5254
#
#
#
# Elastic Compliance Matrix: (Units=1/GPa)
#
#
# Indices 1 2 3 4 5 6 
#
# 1 0.009850 -0.003872 -0.006739 0.000000 0.012291 0.000000
# 2 -0.003872 0.014815 0.002222 0.000000 -0.003938 0.000000
# 3 -0.006739 0.002222 0.014747 0.000000 -0.012077 0.000000
# 4 0.000000 0.000000 0.000000 0.029618 0.000000 -0.000107
# 5 0.012291 -0.003938 -0.012077 0.000000 0.038501 0.000000
# 6 0.000000 0.000000 0.000000 -0.000107 0.000000 0.023516
#
#
# Mechanical properties :
#
#
# Convention : Reuss Voigt Hill
#
# Bulk Modulus (GPa) = 44.18004 62.94967 53.56485
# Shear Modulus (GPa) = 32.18157 44.48650 38.33403
#
# Velocity S-wave (km/s) = 3.49885 4.11373 3.81869
# Velocity P-wave (km/s) = 5.75576 6.81982 6.31026
#
# Compressibility (1/GPa) = 0.02263466
#
# Stress axis : x y z
#
# Youngs Moduli (GPa) = 101.52266 67.49969 67.80976
#
# Poissons Ratio (x) = 0.26136 0.45694
# Poissons Ratio (y) = 0.39310 -0.15067
# Poissons Ratio (z) = 0.68412 -0.14998
#
# Static dielectric constant tensor:
#      x y z
#    x 2.309860 0.000000 0.122670 
#    y 0.000000 2.001020 0.000000 
#    z 0.122670 0.000000 2.341090 
# 
# From -- ./inp_files/106012.got.cif
#   From: 2010.05.17/outbox.cif.g08.bks.cpg/sg15_54_cif.got.tgz:106012.got - 2010.06.03 18:47:42.
