data_PCOD9254692
_publ_section_title
;
Structure prediction by ZEFSAII (Michael W. Deem and Ramdas Pophale) SiO2 
 PCOD9254692
Probable space group: C 2/C
;
_chemical_formula_sum "Si O2"
_cell_formula_units_Z 56
_cell_length_a 16.809514
_cell_length_b 20.056983
_cell_length_c 20.108715
_cell_angle_alpha 90.000000
_cell_angle_beta 156.394173
_cell_angle_gamma 90.000000
_cell_volume 2714.844431
_symmetry_space_group_name_H-M "C 2/C"
_symmetry_group_IT_number 15
_symmetry_cell_setting 'monoclinic'
loop_
_space_group_symop_operation_xyz
x,y,z
-x,y,1/2-z
-x,-y,-z
x,-y,1/2+z
1/2+x,1/2+y,z
1/2-x,1/2+y,1/2-z
1/2-x,1/2-y,-z
1/2+x,1/2-y,1/2+z
loop_
_atom_site_type_symbol
_atom_site_label
_atom_site_fract_x
_atom_site_fract_y
_atom_site_fract_z
Si Si1 0.391666 0.029731 0.508492
Si Si2 0.466078 0.896757 0.943081
Si Si3 0.274211 0.971702 0.061025
Si Si4 0.586700 0.817370 0.711138
Si Si5 0.726406 0.630039 0.013912
Si Si6 0.146448 0.937781 0.099591
Si Si7 0.649971 0.668358 0.719242
O O1 0.342287 0.077894 0.410221
O O2 0.254046 0.038972 0.466793
O O3 0.624642 0.041872 0.706155
O O4 0.397798 0.956640 0.481044
O O5 0.620585 0.842038 0.087142
O O6 0.337815 0.870686 0.784295
O O7 0.500000 0.952069 0.250000
O O8 0.147634 0.933694 0.019861
O O9 0.265596 0.052568 0.060616
O O10 0.705713 0.825882 0.870430
O O11 0.363325 0.841307 0.560099
O O12 0.602574 0.746320 0.688740
O O13 0.491731 0.638034 0.831759
O O14 0.109266 0.874395 0.120220
O O15 0.000000 0.000000 0.000000
#
# Coordination Sequence:
#
# PCOD9254692 Si02
#       7
#     8   8   8   8   8   8   8
#     4   9  19  35  55  78 107 146 184 228 289 326
#     4  10  20  36  54  76 110 144 183 227 283 326
#     4  10  16  33  55  77 104 138 187 221 271 327
#     4  11  21  36  51  75 111 152 178 212 279 342
#     4  11  20  34  53  76 108 151 180 213 270 335
#     4  10  19  32  55  81 105 139 189 233 263 321
#     4  11  23  33  49  81 110 139 187 224 261 332
#
# _framework density 20.627331999999999
#
# number of rings (size 3 to 8) (size 9 to 14) (size 15 to 20)
#    0.000    1.714    4.286    2.143    0.000    1.714 
#    0.000    0.000    0.000    0.857    0.000    2.000 
#    0.000    0.000    0.000    0.000    0.000    0.000 
#
# Total GULP energy -156104.922841 kJ/mol
# GULP energy per Si atom -5575.175816 kJ/mol
# Density = 2.058038 g / cm^3
# Si number density = 20.627332 Si / 1000 Ang^3
#
#
#
# Elastic Constant Matrix: (Units=GPa)
#
#
# Indices 1 2 3 4 5 6 
#
# 1 145.1815 56.2765 10.3125 -0.0045 -30.0703 0.0005
# 2 56.2765 87.1954 12.9398 0.0451 -15.0841 0.0131
# 3 10.3125 12.9398 41.0647 -0.0226 -2.4734 -0.0032
# 4 -0.0045 0.0451 -0.0226 6.3190 0.0040 3.8960
# 5 -30.0703 -15.0841 -2.4734 0.0040 28.1263 0.0043
# 6 0.0005 0.0131 -0.0032 3.8960 0.0043 27.7656
#
#
#
# Elastic Compliance Matrix: (Units=1/GPa)
#
#
# Indices 1 2 3 4 5 6 
#
# 1 0.010802 -0.005411 -0.000490 0.000042 0.008604 -0.000005
# 2 -0.005411 0.015902 -0.003506 -0.000138 0.002435 0.000011
# 3 -0.000490 -0.003506 0.025570 0.000124 -0.000155 -0.000013
# 4 0.000042 -0.000138 0.000124 0.173242 -0.000039 -0.024309
# 5 0.008604 0.002435 -0.000155 -0.000039 0.046045 -0.000003
# 6 -0.000005 0.000011 -0.000013 -0.024309 -0.000003 0.039427
#
#
# Mechanical properties :
#
#
# Convention : Reuss Voigt Hill
#
# Bulk Modulus (GPa) = 29.88381 48.05548 38.96964
# Shear Modulus (GPa) = 14.66472 25.36969 20.01721
#
# Velocity S-wave (km/s) = 2.66923 3.51081 3.11854
# Velocity P-wave (km/s) = 4.90088 6.30729 5.64803
#
# Compressibility (1/GPa) = 0.03346294
#
# Stress axis : x y z
#
# Youngs Moduli (GPa) = 92.57444 62.88433 39.10811
#
# Poissons Ratio (x) = 0.34025 0.01914
# Poissons Ratio (y) = 0.50090 0.13709
# Poissons Ratio (z) = 0.04532 0.22044
#
# Static dielectric constant tensor:
#      x y z
#    x 1.801620 0.000000 -0.008290 
#    y 0.000000 1.727980 -0.000030 
#    z -0.008290 -0.000030 1.808460 
# 
# From -- ./inp_files/249546.got.cif
#   From: 2010.05.17/outbox.cif.g08.bks.cpg/sg15_125_cif.got.tgz:249546.got - 2010.06.03 18:47:42.
