data_PCOD9254343
_publ_section_title
;
Structure prediction by ZEFSAII (Michael W. Deem and Ramdas Pophale) SiO2 
 PCOD9254343
Probable space group: C 2/C
;
_chemical_formula_sum "Si O2"
_cell_formula_units_Z 56
_cell_length_a 18.292336
_cell_length_b 29.130102
_cell_length_c 9.626200
_cell_angle_alpha 90.000000
_cell_angle_beta 43.410974
_cell_angle_gamma 90.000000
_cell_volume 3525.056282
_symmetry_space_group_name_H-M "C 2/C"
_symmetry_group_IT_number 15
_symmetry_cell_setting 'monoclinic'
loop_
_space_group_symop_operation_xyz
x,y,z
-x,y,1/2-z
-x,-y,-z
x,-y,1/2+z
1/2+x,1/2+y,z
1/2-x,1/2+y,1/2-z
1/2-x,1/2-y,-z
1/2+x,1/2-y,1/2+z
loop_
_atom_site_type_symbol
_atom_site_label
_atom_site_fract_x
_atom_site_fract_y
_atom_site_fract_z
Si Si1 0.663487 0.196742 0.227877
Si Si2 0.789023 0.834078 0.280495
Si Si3 0.480163 0.716368 0.620062
Si Si4 0.078852 0.516140 0.512303
Si Si5 0.340936 0.078944 0.559156
Si Si6 0.938207 0.398411 0.621865
Si Si7 0.709357 0.750114 0.213998
O O1 0.594581 0.238678 0.263582
O O2 0.589705 0.153940 0.367354
O O3 0.724178 0.215937 0.277785
O O4 0.740677 0.179433 0.998577
O O5 0.912444 0.820075 0.123737
O O6 0.758125 0.886634 0.291086
O O7 0.730888 0.800212 0.251824
O O8 0.500000 0.699471 0.750000
O O9 0.587992 0.733472 0.398674
O O10 0.166043 0.476067 0.411323
O O11 0.110997 0.567095 0.423437
O O12 0.000000 0.517799 0.750000
O O13 0.000000 0.500000 0.500000
O O14 0.435321 0.095145 0.532623
O O15 0.387417 0.087343 0.340274
O O16 0.750000 0.750000 0.000000
#
# Coordination Sequence:
#
# PCOD9254343 Si02
#       7
#     8   8   8   8   8   8   8
#     4  10  19  32  51  73  96 134 177 203 247 307
#     4  10  19  32  53  73  94 136 178 205 246 307
#     4  11  18  33  55  70  97 136 174 213 247 300
#     4  10  16  30  45  68 100 134 162 201 259 313
#     4   9  16  29  48  70  96 128 168 204 244 309
#     4   9  17  28  46  69  99 131 165 207 249 304
#     4  11  22  35  47  74 107 129 169 217 260 298
#
# _framework density 15.88627
#
# number of rings (size 3 to 8) (size 9 to 14) (size 15 to 20)
#    0.000    2.000    5.714    1.714    2.000    2.286 
#    7.714    0.000    0.000    0.000    0.000    1.000 
#    0.000    0.286    0.000    0.429    0.000    0.000 
#
# Total GULP energy -155910.971023 kJ/mol
# GULP energy per Si atom -5568.248965 kJ/mol
# Density = 1.585011 g / cm^3
# Si number density = 15.886270 Si / 1000 Ang^3
#
#
#
# Elastic Constant Matrix: (Units=GPa)
#
#
# Indices 1 2 3 4 5 6 
#
# 1 63.2974 28.7130 27.1665 0.0000 -1.7589 0.0000
# 2 28.7130 98.1125 0.2942 0.0000 -2.0994 0.0000
# 3 27.1665 0.2942 51.4152 0.0000 4.7371 0.0000
# 4 0.0000 0.0000 0.0000 15.4284 0.0000 -4.6519
# 5 -1.7589 -2.0994 4.7371 0.0000 27.3879 0.0000
# 6 0.0000 0.0000 0.0000 -4.6519 0.0000 22.3961
#
#
#
# Elastic Compliance Matrix: (Units=1/GPa)
#
#
# Indices 1 2 3 4 5 6 
#
# 1 0.024914 -0.007179 -0.013434 0.000000 0.003373 0.000000
# 2 -0.007179 0.012279 0.003738 0.000000 -0.000166 0.000000
# 3 -0.013434 0.003738 0.027010 0.000000 -0.005248 0.000000
# 4 0.000000 0.000000 0.000000 0.069146 0.000000 0.014362
# 5 0.003373 -0.000166 -0.005248 0.000000 0.037624 0.000000
# 6 0.000000 0.000000 0.000000 0.014362 0.000000 0.047634
#
#
# Mechanical properties :
#
#
# Convention : Reuss Voigt Hill
#
# Bulk Modulus (GPa) = 32.83679 36.13026 34.48352
# Shear Modulus (GPa) = 19.04716 23.48590 21.26653
#
# Velocity S-wave (km/s) = 3.46637 3.84914 3.66276
# Velocity P-wave (km/s) = 6.06100 6.52280 6.29614
#
# Compressibility (1/GPa) = 0.03045365
#
# Stress axis : x y z
#
# Youngs Moduli (GPa) = 40.13763 81.44302 37.02375
#
# Poissons Ratio (x) = 0.58466 0.49737
# Poissons Ratio (y) = 0.28814 -0.13840
# Poissons Ratio (z) = 0.53920 -0.30445
#
# Static dielectric constant tensor:
#      x y z
#    x 1.543850 0.000000 -0.005900 
#    y 0.000000 1.573280 0.000000 
#    z -0.005900 0.000000 1.529380 
# 
# From -- ./inp_files/44318.got.cif
#   From: 2010.05.17/outbox.cif.g08.bks.cpg/sg15_23_cif.got.tgz:44318.got - 2010.06.03 18:47:42.
