data_PCOD9254690
_publ_section_title
;
Structure prediction by ZEFSAII (Michael W. Deem and Ramdas Pophale) SiO2 
 PCOD9254690
Probable space group: C 2/C
;
_chemical_formula_sum "Si O2"
_cell_formula_units_Z 52
_cell_length_a 18.820554
_cell_length_b 7.355322
_cell_length_c 17.082288
_cell_angle_alpha 90.000000
_cell_angle_beta 57.063938
_cell_angle_gamma 90.000000
_cell_volume 1984.658921
_symmetry_space_group_name_H-M "C 2/C"
_symmetry_group_IT_number 15
_symmetry_cell_setting 'monoclinic'
loop_
_space_group_symop_operation_xyz
x,y,z
-x,y,1/2-z
-x,-y,-z
x,-y,1/2+z
1/2+x,1/2+y,z
1/2-x,1/2+y,1/2-z
1/2-x,1/2-y,-z
1/2+x,1/2-y,1/2+z
loop_
_atom_site_type_symbol
_atom_site_label
_atom_site_fract_x
_atom_site_fract_y
_atom_site_fract_z
Si Si1 0.326447 0.874862 0.787641
Si Si2 0.872300 0.218169 0.310113
Si Si3 0.516757 0.414760 0.888312
Si Si4 0.696975 0.874949 0.883854
Si Si5 0.646766 0.528516 0.444200
Si Si6 0.931168 0.575757 0.926388
Si Si7 0.500000 0.177597 0.250000
O O1 0.315657 0.853469 0.700933
O O2 0.404617 0.763111 0.779521
O O3 0.351544 0.089076 0.780536
O O4 0.233679 0.856673 0.884500
O O5 0.948675 0.126797 0.217837
O O6 0.793115 0.086295 0.347363
O O7 0.888447 0.289305 0.387464
O O8 0.595526 0.473235 0.893221
O O9 0.492335 0.213757 0.935174
O O10 0.433658 0.542539 0.947499
O O11 0.680964 0.676419 0.930785
O O12 0.632949 0.000052 0.971055
O O13 0.975922 0.433750 0.843433
#
# Coordination Sequence:
#
# PCOD9254690 Si02
#       7
#     8   8   8   8   8   8   4
#     4  10  19  35  53  77 110 143 178 225 269 322
#     4  10  18  33  55  82 109 141 178 225 271 311
#     4  10  16  33  54  78 109 133 174 225 270 314
#     4  10  20  32  54  82 110 141 179 218 272 333
#     4   9  20  31  53  83 100 141 181 215 270 322
#     4  10  18  32  52  83 104 137 179 230 267 306
#     4  10  20  34  52  74 108 146 178 220 274 310
#
# _framework density 26.200975
#
# number of rings (size 3 to 8) (size 9 to 14) (size 15 to 20)
#    0.000    2.154    4.615    0.462    0.000    1.846 
#    0.000    0.000    3.385    0.000    0.000   22.615 
#    0.000    0.000    0.000    0.000    0.000    0.000 
#
# Total GULP energy -144985.782975 kJ/mol
# GULP energy per Si atom -5576.376268 kJ/mol
# Density = 2.614134 g / cm^3
# Si number density = 26.200975 Si / 1000 Ang^3
#
#
#
# Elastic Constant Matrix: (Units=GPa)
#
#
# Indices 1 2 3 4 5 6 
#
# 1 154.1209 22.8217 73.5447 0.0000 -47.0604 0.0001
# 2 22.8217 61.3672 39.6195 -0.0001 -12.2133 -0.0002
# 3 73.5447 39.6195 134.1196 -0.0001 -36.6078 0.0000
# 4 0.0000 -0.0001 -0.0001 18.2116 0.0000 6.3910
# 5 -47.0604 -12.2133 -36.6078 0.0000 40.2539 0.0001
# 6 0.0001 -0.0002 0.0000 6.3910 0.0001 29.7871
#
#
#
# Elastic Compliance Matrix: (Units=1/GPa)
#
#
# Indices 1 2 3 4 5 6 
#
# 1 0.011145 0.000034 -0.003408 0.000000 0.009940 0.000000
# 2 0.000034 0.020162 -0.005712 0.000000 0.000963 0.000000
# 3 -0.003408 -0.005712 0.012572 0.000000 0.005716 0.000000
# 4 0.000000 0.000000 0.000000 0.059381 0.000000 -0.012741
# 5 0.009940 0.000963 0.005716 0.000000 0.041954 0.000000
# 6 0.000000 0.000000 0.000000 -0.012741 0.000000 0.036305
#
#
# Mechanical properties :
#
#
# Convention : Reuss Voigt Hill
#
# Bulk Modulus (GPa) = 38.89948 69.06440 53.98194
# Shear Modulus (GPa) = 24.00835 31.89195 27.95015
#
# Velocity S-wave (km/s) = 3.03035 3.49263 3.26967
# Velocity P-wave (km/s) = 5.20796 6.53309 5.90780
#
# Compressibility (1/GPa) = 0.02570729
#
# Stress axis : x y z
#
# Youngs Moduli (GPa) = 89.72644 49.59846 79.53887
#
# Poissons Ratio (x) = -0.00169 0.27109
# Poissons Ratio (y) = -0.00306 0.45431
# Poissons Ratio (z) = 0.30581 0.28330
#
# Static dielectric constant tensor:
#      x y z
#    x 2.121170 0.000000 -0.078790 
#    y 0.000000 2.131090 0.000000 
#    z -0.078790 0.000000 2.132380 
# 
# From -- ./inp_files/177336.got.cif
#   From: 2010.05.17/outbox.cif.g08.bks.cpg/sg15_89_cif.got.tgz:177336.got - 2010.06.03 18:47:42.
