data_PCOD9254982
_publ_section_title
;
Structure prediction by ZEFSAII (Michael W. Deem and Ramdas Pophale) SiO2 
 PCOD9254982
Probable space group: C 2/C
;
_chemical_formula_sum "Si O2"
_cell_formula_units_Z 56
_cell_length_a 26.882327
_cell_length_b 6.962788
_cell_length_c 11.763848
_cell_angle_alpha 90.000000
_cell_angle_beta 103.322154
_cell_angle_gamma 90.000000
_cell_volume 2142.655639
_symmetry_space_group_name_H-M "C 2/C"
_symmetry_group_IT_number 15
_symmetry_cell_setting 'monoclinic'
loop_
_space_group_symop_operation_xyz
x,y,z
-x,y,1/2-z
-x,-y,-z
x,-y,1/2+z
1/2+x,1/2+y,z
1/2-x,1/2+y,1/2-z
1/2-x,1/2-y,-z
1/2+x,1/2-y,1/2+z
loop_
_atom_site_type_symbol
_atom_site_label
_atom_site_fract_x
_atom_site_fract_y
_atom_site_fract_z
Si Si1 0.246939 0.651470 0.120131
Si Si2 0.914125 0.699557 0.433041
Si Si3 0.675879 0.648970 0.759957
Si Si4 0.558088 0.809790 0.307551
Si Si5 0.977203 0.268523 0.628021
Si Si6 0.307646 0.196881 0.998475
Si Si7 0.604757 0.254053 0.594079
O O1 0.223899 0.779848 0.208312
O O2 0.250000 0.750000 0.000000
O O3 0.300721 0.451082 0.677743
O O4 0.202769 0.497799 0.072718
O O5 0.876185 0.830364 0.338754
O O6 0.916993 0.765122 0.564371
O O7 0.896723 0.478461 0.420697
O O8 0.972078 0.687926 0.417839
O O9 0.666933 0.789841 0.864194
O O10 0.500000 0.753914 0.250000
O O11 0.590362 0.734947 0.217840
O O12 0.550286 0.040601 0.331964
O O13 0.938694 0.177149 0.517113
O O14 0.000000 0.161473 0.750000
O O15 0.250000 0.250000 0.000000
O O16 0.341080 0.320541 0.928958
#
# Coordination Sequence:
#
# PCOD9254982 Si02
#       7
#     8   8   8   8   8   8   8
#     4  11  24  46  73 100 139 191 246 317 392 460
#     4  11  19  30  54  93 141 196 241 313 369 433
#     4  11  24  43  68 102 145 189 253 315 378 459
#     4  10  17  29  48  86 144 203 248 307 359 431
#     4  10  17  26  47  86 139 192 243 308 371 426
#     4  10  23  40  61  96 145 195 252 306 372 439
#     4  11  18  31  54  86 143 210 247 314 362 431
#
# _framework density 26.135791999999999
#
# number of rings (size 3 to 8) (size 9 to 14) (size 15 to 20)
#    0.000    1.429    5.714    2.571    2.000    0.000 
#    5.143    0.000    0.000    0.000    0.000    0.000 
#    0.000   96.000    0.000    0.571    0.000    6.429 
#
# Total GULP energy -156507.001631 kJ/mol
# GULP energy per Si atom -5589.535773 kJ/mol
# Density = 2.607631 g / cm^3
# Si number density = 26.135792 Si / 1000 Ang^3
#
#
#
# Elastic Constant Matrix: (Units=GPa)
#
#
# Indices 1 2 3 4 5 6 
#
# 1 153.1274 9.9845 70.1670 0.0000 1.2032 0.0000
# 2 9.9845 72.9092 24.6437 0.0000 11.0514 0.0000
# 3 70.1670 24.6437 249.1927 0.0000 17.5198 0.0000
# 4 0.0000 0.0000 0.0000 27.0142 0.0000 -1.9995
# 5 1.2032 11.0514 17.5198 0.0000 54.9243 0.0000
# 6 0.0000 0.0000 0.0000 -1.9995 0.0000 8.9669
#
#
#
# Elastic Compliance Matrix: (Units=1/GPa)
#
#
# Indices 1 2 3 4 5 6 
#
# 1 0.007524 -0.000404 -0.002120 0.000000 0.000593 0.000000
# 2 -0.000404 0.014545 -0.001145 0.000000 -0.002552 0.000000
# 3 -0.002120 -0.001145 0.004812 0.000000 -0.001258 0.000000
# 4 0.000000 0.000000 0.000000 0.037639 0.000000 0.008393
# 5 0.000593 -0.002552 -0.001258 0.000000 0.019109 0.000000
# 6 0.000000 0.000000 0.000000 0.008393 0.000000 0.113392
#
#
# Mechanical properties :
#
#
# Convention : Reuss Voigt Hill
#
# Bulk Modulus (GPa) = 51.17149 76.09106 63.63128
# Shear Modulus (GPa) = 23.71102 42.87670 33.29386
#
# Velocity S-wave (km/s) = 3.01528 4.05475 3.57302
# Velocity P-wave (km/s) = 5.63420 7.14830 6.43593
#
# Compressibility (1/GPa) = 0.01954213
#
# Stress axis : x y z
#
# Youngs Moduli (GPa) = 132.91279 68.75233 207.82723
#
# Poissons Ratio (x) = 0.02774 0.44065
# Poissons Ratio (y) = 0.05363 0.23803
# Poissons Ratio (z) = 0.28181 0.07875
#
# Static dielectric constant tensor:
#      x y z
#    x 2.084480 0.000000 0.008990 
#    y 0.000000 2.039910 0.000000 
#    z 0.008990 0.000000 2.038460 
# 
# From -- ./inp_files/122258.got.cif
#   From: 2010.05.17/outbox.cif.g08.bks.cpg/sg15_62_cif.got.tgz:122258.got - 2010.06.03 18:47:42.
