data_PCOD9254207
_publ_section_title
;
Structure prediction by ZEFSAII (Michael W. Deem and Ramdas Pophale) SiO2 
 PCOD9254207
Probable space group: C 2/C
;
_chemical_formula_sum "Si O2"
_cell_formula_units_Z 60
_cell_length_a 24.193923
_cell_length_b 13.332255
_cell_length_c 11.575322
_cell_angle_alpha 90.000000
_cell_angle_beta 124.614390
_cell_angle_gamma 90.000000
_cell_volume 3072.836916
_symmetry_space_group_name_H-M "C 2/C"
_symmetry_group_IT_number 15
_symmetry_cell_setting 'monoclinic'
loop_
_space_group_symop_operation_xyz
x,y,z
-x,y,1/2-z
-x,-y,-z
x,-y,1/2+z
1/2+x,1/2+y,z
1/2-x,1/2+y,1/2-z
1/2-x,1/2-y,-z
1/2+x,1/2-y,1/2+z
loop_
_atom_site_type_symbol
_atom_site_label
_atom_site_fract_x
_atom_site_fract_y
_atom_site_fract_z
Si Si1 0.591657 0.603622 0.106438
Si Si2 0.653930 0.681323 0.410770
Si Si3 0.485136 0.119009 0.482937
Si Si4 0.500000 0.923105 0.250000
Si Si5 0.199054 0.379591 0.344322
Si Si6 0.879659 0.429731 0.685540
Si Si7 0.960440 0.912863 0.587957
Si Si8 0.120537 0.697482 0.532511
O O1 0.638111 0.617318 0.275118
O O2 0.517407 0.628994 0.069716
O O3 0.619803 0.683601 0.048714
O O4 0.580006 0.498163 0.029964
O O5 0.722714 0.642297 0.547886
O O6 0.662829 0.797027 0.383947
O O7 0.592847 0.664379 0.424692
O O8 0.489920 0.142613 0.623608
O O9 0.414006 0.125352 0.335345
O O10 0.544767 0.166869 0.479954
O O11 0.500000 0.000000 0.500000
O O12 0.563340 0.996820 0.303205
O O13 0.178320 0.492814 0.349165
O O14 0.169838 0.352799 0.184277
O O15 0.862561 0.346960 0.570987
O O16 0.000000 0.953208 0.750000
#
# Coordination Sequence:
#
# PCOD9254207 Si02
#       8
#     8   8   8   4   8   8   8   8
#     4   9  20  35  58  81 101 132 185 230 280 320
#     4   9  20  37  55  76 105 139 186 230 267 319
#     4  10  17  29  43  71 110 146 172 208 256 314
#     4  10  16  28  44  66 106 146 172 212 244 302
#     4  10  20  34  51  78 109 147 185 215 262 328
#     4  11  18  30  49  75 116 149 173 211 266 325
#     4   9  18  38  58  79  99 131 178 240 283 312
#     4  11  19  32  50  81 111 146 177 219 266 331
#
# _framework density 19.525929999999999
#
# number of rings (size 3 to 8) (size 9 to 14) (size 15 to 20)
#    0.000    2.133    5.333    0.000    0.000    3.200 
#    2.400    0.000    0.000    0.800    0.000    0.000 
#    0.000    0.000    0.000    0.000    0.000    0.000 
#
# Total GULP energy -167325.044684 kJ/mol
# GULP energy per Si atom -5577.501489 kJ/mol
# Density = 1.948149 g / cm^3
# Si number density = 19.525930 Si / 1000 Ang^3
#
#
#
# Elastic Constant Matrix: (Units=GPa)
#
#
# Indices 1 2 3 4 5 6 
#
# 1 32.5287 12.4093 38.5898 0.0000 -2.0895 0.0000
# 2 12.4093 46.4886 48.0367 0.0000 0.1122 0.0000
# 3 38.5898 48.0367 105.7683 0.0000 -9.6705 0.0000
# 4 0.0000 0.0000 0.0000 17.8974 0.0000 -8.3337
# 5 -2.0895 0.1122 -9.6705 0.0000 21.3567 0.0000
# 6 0.0000 0.0000 0.0000 -8.3337 0.0000 15.8310
#
#
#
# Elastic Compliance Matrix: (Units=1/GPa)
#
#
# Indices 1 2 3 4 5 6 
#
# 1 0.058475 0.013417 -0.028074 0.000000 -0.007061 0.000000
# 2 0.013417 0.045307 -0.026470 0.000000 -0.010911 0.000000
# 3 -0.028074 -0.026470 0.032840 0.000000 0.012263 0.000000
# 4 0.000000 0.000000 0.000000 0.074017 0.000000 0.038964
# 5 -0.007061 -0.010911 0.012263 0.000000 0.051743 0.000000
# 6 0.000000 0.000000 0.000000 0.038964 0.000000 0.083679
#
#
# Mechanical properties :
#
#
# Convention : Reuss Voigt Hill
#
# Bulk Modulus (GPa) = 18.39295 42.53970 30.46633
# Shear Modulus (GPa) = 11.19977 16.73366 13.96672
#
# Velocity S-wave (km/s) = 2.39756 2.93063 2.67739
# Velocity P-wave (km/s) = 4.13577 5.76931 5.01944
#
# Compressibility (1/GPa) = 0.05436866
#
# Stress axis : x y z
#
# Youngs Moduli (GPa) = 17.10135 22.07175 30.45026
#
# Poissons Ratio (x) = -0.29614 0.85486
# Poissons Ratio (y) = -0.22945 0.80601
# Poissons Ratio (z) = 0.48010 0.58423
#
# Static dielectric constant tensor:
#      x y z
#    x 1.675600 0.000000 -0.014330 
#    y 0.000000 1.692580 0.000000 
#    z -0.014330 0.000000 1.715790 
# 
# From -- ./inp_files/123151.got.cif
#   From: 2010.05.17/outbox.cif.g08.bks.cpg/sg15_62_cif.got.tgz:123151.got - 2010.06.03 18:47:42.
