data_PCOD9254471
_publ_section_title
;
Structure prediction by ZEFSAII (Michael W. Deem and Ramdas Pophale) SiO2 
 PCOD9254471
Probable space group: C 2/C
;
_chemical_formula_sum "Si O2"
_cell_formula_units_Z 52
_cell_length_a 19.050823
_cell_length_b 12.153810
_cell_length_c 12.271011
_cell_angle_alpha 90.000000
_cell_angle_beta 45.153903
_cell_angle_gamma 90.000000
_cell_volume 2014.442934
_symmetry_space_group_name_H-M "C 2/C"
_symmetry_group_IT_number 15
_symmetry_cell_setting 'monoclinic'
loop_
_space_group_symop_operation_xyz
x,y,z
-x,y,1/2-z
-x,-y,-z
x,-y,1/2+z
1/2+x,1/2+y,z
1/2-x,1/2+y,1/2-z
1/2-x,1/2-y,-z
1/2+x,1/2-y,1/2+z
loop_
_atom_site_type_symbol
_atom_site_label
_atom_site_fract_x
_atom_site_fract_y
_atom_site_fract_z
Si Si1 0.769114 0.776432 0.186795
Si Si2 0.000000 0.771951 0.750000
Si Si3 0.575393 0.352723 0.339594
Si Si4 0.148149 0.569796 0.974873
Si Si5 0.854131 0.597222 0.842073
Si Si6 0.500000 0.788127 0.750000
Si Si7 0.000000 0.500000 0.000000
Si Si8 0.393549 0.602162 0.173156
O O1 0.878289 0.779576 0.115206
O O2 0.714553 0.837090 0.349825
O O3 0.741304 0.856804 0.116740
O O4 0.708044 0.667504 0.226823
O O5 0.903862 0.691257 0.863090
O O6 0.960909 0.851060 0.696806
O O7 0.580028 0.288154 0.221241
O O8 0.622571 0.473481 0.291876
O O9 0.460123 0.375924 0.493244
O O10 0.171864 0.511614 0.061736
O O11 0.041942 0.632697 0.109876
O O12 0.111159 0.479545 0.930566
O O13 0.942600 0.573222 0.659599
#
# Coordination Sequence:
#
# PCOD9254471 Si02
#       8
#     8   4   8   8   8   4   4   8
#     4  10  24  44  66  97 125 176 222 267 326 393
#     4  10  18  38  66  90 128 178 216 256 316 406
#     4  11  25  46  66  94 133 172 216 274 328 392
#     4  11  20  36  61 103 131 165 220 273 326 388
#     4  10  19  34  60  98 133 163 218 271 325 371
#     4  12  22  38  68  94 122 182 212 262 340 388
#     4  10  16  30  58  88 140 170 200 268 332 380
#     4  10  23  47  67  91 133 177 214 265 329 393
#
# _framework density 25.813589
#
# number of rings (size 3 to 8) (size 9 to 14) (size 15 to 20)
#    0.000    1.538    4.615    0.462    0.000    1.846 
#   11.077    1.538    0.000    0.000    0.000    0.000 
#    0.000    0.000    0.000    0.000    0.000    0.000 
#
# Total GULP energy -144887.270587 kJ/mol
# GULP energy per Si atom -5572.587330 kJ/mol
# Density = 2.575484 g / cm^3
# Si number density = 25.813589 Si / 1000 Ang^3
#
#
#
# Elastic Constant Matrix: (Units=GPa)
#
#
# Indices 1 2 3 4 5 6 
#
# 1 141.5782 48.2033 -1.7831 0.0000 7.7557 0.0000
# 2 48.2033 124.6323 4.7555 0.0000 5.0578 0.0000
# 3 -1.7831 4.7555 37.2605 0.0000 -9.0624 0.0000
# 4 0.0000 0.0000 0.0000 20.7944 0.0000 -6.4577
# 5 7.7557 5.0578 -9.0624 0.0000 28.9962 0.0000
# 6 0.0000 0.0000 0.0000 -6.4577 0.0000 26.6151
#
#
#
# Elastic Compliance Matrix: (Units=1/GPa)
#
#
# Indices 1 2 3 4 5 6 
#
# 1 0.008219 -0.003133 0.000424 0.000000 -0.001519 0.000000
# 2 -0.003133 0.009352 -0.001663 0.000000 -0.001313 0.000000
# 3 0.000424 -0.001663 0.029344 0.000000 0.009348 0.000000
# 4 0.000000 0.000000 0.000000 0.052009 0.000000 0.012619
# 5 -0.001519 -0.001313 0.009348 0.000000 0.038044 0.000000
# 6 0.000000 0.000000 0.000000 0.012619 0.000000 0.040634
#
#
# Mechanical properties :
#
#
# Convention : Reuss Voigt Hill
#
# Bulk Modulus (GPa) = 26.19855 45.09139 35.64497
# Shear Modulus (GPa) = 25.11675 32.10080 28.60877
#
# Velocity S-wave (km/s) = 3.12269 3.53024 3.33270
# Velocity P-wave (km/s) = 4.81381 5.84147 5.35236
#
# Compressibility (1/GPa) = 0.03817006
#
# Stress axis : x y z
#
# Youngs Moduli (GPa) = 121.67597 106.92753 34.07836
#
# Poissons Ratio (x) = 0.33502 -0.01444
# Poissons Ratio (y) = 0.38123 0.05667
# Poissons Ratio (z) = -0.05155 0.17781
#
# Static dielectric constant tensor:
#      x y z
#    x 1.797510 0.000000 -0.105550 
#    y 0.000000 0.279900 0.000000 
#    z -0.105550 0.000000 2.156910 
# 
# From -- ./inp_files/167583.got.cif
#   From: 2010.05.17/outbox.cif.g08.bks.cpg/sg15_84_cif.got.tgz:167583.got - 2010.06.03 18:47:42.
