data_PCOD9254353
_publ_section_title
;
Structure prediction by ZEFSAII (Michael W. Deem and Ramdas Pophale) SiO2 
 PCOD9254353
Probable space group: C 2/C
;
_chemical_formula_sum "Si O2"
_cell_formula_units_Z 48
_cell_length_a 26.714461
_cell_length_b 17.174256
_cell_length_c 5.263154
_cell_angle_alpha 90.000000
_cell_angle_beta 83.024853
_cell_angle_gamma 90.000000
_cell_volume 2396.868594
_symmetry_space_group_name_H-M "C 2/C"
_symmetry_group_IT_number 15
_symmetry_cell_setting 'monoclinic'
loop_
_space_group_symop_operation_xyz
x,y,z
-x,y,1/2-z
-x,-y,-z
x,-y,1/2+z
1/2+x,1/2+y,z
1/2-x,1/2+y,1/2-z
1/2-x,1/2-y,-z
1/2+x,1/2-y,1/2+z
loop_
_atom_site_type_symbol
_atom_site_label
_atom_site_fract_x
_atom_site_fract_y
_atom_site_fract_z
Si Si1 0.129955 0.446377 0.890522
Si Si2 0.500000 0.403355 0.250000
Si Si3 0.757883 0.446251 0.704182
Si Si4 0.891499 0.076294 0.666224
Si Si5 0.150010 0.902346 0.810091
Si Si6 0.968408 0.344897 0.505376
Si Si7 0.000000 0.804641 0.750000
O O1 0.126303 0.497314 0.148971
O O2 0.186316 0.410299 0.846342
O O3 0.084102 0.386771 0.916709
O O4 0.551035 0.445753 0.304376
O O5 0.485383 0.355116 0.513167
O O6 0.754240 0.505994 0.470094
O O7 0.708976 0.391531 0.724476
O O8 0.884048 0.120030 0.406855
O O9 0.860422 0.996053 0.658407
O O10 0.868890 0.126831 0.908199
O O11 0.961367 0.257643 0.399536
O O12 0.000000 0.343102 0.750000
O O13 0.000000 0.383610 0.250000
#
# Coordination Sequence:
#
# PCOD9254353 Si02
#       7
#     8   4   8   8   8   8   4
#     4  10  21  30  51  87 110 132 164 203 238 310
#     4  12  22  36  51  79  94 128 188 226 240 294
#     4  10  16  30  48  70 112 137 166 187 230 307
#     4  10  20  29  51  72 104 135 167 202 258 300
#     4  10  17  32  47  74 109 140 155 192 262 323
#     4  10  20  37  55  72 105 142 164 202 269 299
#     4  10  22  40  53  65 100 136 182 222 250 290
#
# _framework density 20.026129000000001
#
# number of rings (size 3 to 8) (size 9 to 14) (size 15 to 20)
#    0.500    1.333    4.167    2.000    0.000    4.667 
#    0.000    0.000    0.000    0.000    0.000    7.000 
#    0.000    0.000    0.000    0.000    0.000    0.000 
#
# Total GULP energy -133659.822633 kJ/mol
# GULP energy per Si atom -5569.159276 kJ/mol
# Density = 1.998055 g / cm^3
# Si number density = 20.026129 Si / 1000 Ang^3
#
#
#
# Elastic Constant Matrix: (Units=GPa)
#
#
# Indices 1 2 3 4 5 6 
#
# 1 135.6983 30.0412 26.2468 0.0000 -8.0132 0.0000
# 2 30.0412 25.3273 19.1392 0.0000 -0.5236 0.0000
# 3 26.2468 19.1392 185.3741 0.0000 10.3414 0.0000
# 4 0.0000 0.0000 0.0000 -222.6574 0.0000 273.0853
# 5 -8.0132 -0.5236 10.3414 0.0000 33.0285 0.0000
# 6 0.0000 0.0000 0.0000 273.0853 0.0000 -286.4726
#
#
#
# Elastic Compliance Matrix: (Units=1/GPa)
#
#
# Indices 1 2 3 4 5 6 
#
# 1 0.010183 -0.011756 -0.000362 0.000000 0.002398 0.000000
# 2 -0.011756 0.056539 -0.004136 0.000000 -0.000661 0.000000
# 3 -0.000362 -0.004136 0.005986 0.000000 -0.002028 0.000000
# 4 0.000000 0.000000 0.000000 0.026549 0.000000 0.025308
# 5 0.002398 -0.000661 -0.002028 0.000000 0.031483 0.000000
# 6 0.000000 0.000000 0.000000 0.025308 0.000000 0.020635
#
#
# Mechanical properties :
#
#
# Convention : Reuss Voigt Hill
#
# Bulk Modulus (GPa) = 24.87523 55.25045 40.06284
# Shear Modulus (GPa) = 25.34442 -77.15548 -25.90553
#
# Velocity S-wave (km/s) = 3.56134 -6.21378 -3.60055
# Velocity P-wave (km/s) = 5.41841 4.88184 1.66236
#
# Compressibility (1/GPa) = 0.04020064
#
# Stress axis : x y z
#
# Youngs Moduli (GPa) = 98.19940 17.68702 167.05985
#
# Poissons Ratio (x) = 0.20792 0.06045
# Poissons Ratio (y) = 1.15440 0.69097
# Poissons Ratio (z) = 0.03554 0.07315
#
# Static dielectric constant tensor:
#      x y z
#    x 1.738100 0.000000 -0.009190 
#    y 0.000000 1.697510 0.000000 
#    z -0.009190 0.000000 1.800590 
# 
# From -- ./inp_files/17273.got.cif
#   From: 2010.05.17/outbox.cif.g08.bks.cpg/sg15_9_cif.got.tgz:17273.got - 2010.06.03 18:47:42.
