data_PCOD9254665
_publ_section_title
;
Structure prediction by ZEFSAII (Michael W. Deem and Ramdas Pophale) SiO2 
 PCOD9254665
Probable space group: C 2/C
;
_chemical_formula_sum "Si O2"
_cell_formula_units_Z 56
_cell_length_a 9.833124
_cell_length_b 20.279108
_cell_length_c 14.088769
_cell_angle_alpha 90.000000
_cell_angle_beta 77.221193
_cell_angle_gamma 90.000000
_cell_volume 2739.813589
_symmetry_space_group_name_H-M "C 2/C"
_symmetry_group_IT_number 15
_symmetry_cell_setting 'monoclinic'
loop_
_space_group_symop_operation_xyz
x,y,z
-x,y,1/2-z
-x,-y,-z
x,-y,1/2+z
1/2+x,1/2+y,z
1/2-x,1/2+y,1/2-z
1/2-x,1/2-y,-z
1/2+x,1/2-y,1/2+z
loop_
_atom_site_type_symbol
_atom_site_label
_atom_site_fract_x
_atom_site_fract_y
_atom_site_fract_z
Si Si1 0.772388 0.342116 0.914736
Si Si2 0.408665 0.802933 0.400796
Si Si3 0.576478 0.179703 0.377143
Si Si4 0.995786 0.922672 0.515130
Si Si5 0.280105 0.806172 0.135932
Si Si6 0.125177 0.832271 0.338873
Si Si7 0.125065 0.847647 0.657018
O O1 0.733353 0.273271 0.869549
O O2 0.934579 0.355042 0.867071
O O3 0.652892 0.396286 0.922477
O O4 0.772737 0.328624 0.028538
O O5 0.406727 0.822046 0.511470
O O6 0.565958 0.819863 0.345776
O O7 0.276359 0.832180 0.367720
O O8 0.391337 0.724157 0.389831
O O9 0.564746 0.257929 0.357867
O O10 0.722966 0.151526 0.318370
O O11 0.034100 0.883647 0.412331
O O12 0.106586 0.900940 0.577795
O O13 0.000000 0.000000 0.500000
O O14 0.165024 0.838323 0.222032
O O15 0.000000 0.854382 0.750000
#
# Coordination Sequence:
#
# PCOD9254665 Si02
#       7
#     8   8   8   8   8   8   8
#     4  10  22  38  54  91 125 151 195 241 324 347
#     4  10  16  32  60  93 121 140 187 257 315 351
#     4  10  19  34  63  90 118 144 187 272 304 350
#     4  12  25  43  58  80 127 172 201 240 286 375
#     4  10  19  33  61  92 124 145 184 272 306 361
#     4  11  19  34  60  92 116 154 204 238 319 351
#     4  11  20  38  60  89 115 154 206 243 303 356
#
# _framework density 20.439347999999999
#
# number of rings (size 3 to 8) (size 9 to 14) (size 15 to 20)
#    0.000    1.429    4.286    4.714    0.000    2.286 
#    2.571    0.714    0.000    1.714    0.000    0.000 
#    0.000    0.000    0.000    0.000    0.000    0.000 
#
# Total GULP energy -156463.375708 kJ/mol
# GULP energy per Si atom -5587.977704 kJ/mol
# Density = 2.039283 g / cm^3
# Si number density = 20.439348 Si / 1000 Ang^3
#
#
#
# Elastic Constant Matrix: (Units=GPa)
#
#
# Indices 1 2 3 4 5 6 
#
# 1 137.2882 38.6647 35.1670 0.0000 -23.0983 0.0000
# 2 38.6647 81.8152 22.1591 0.0000 -13.1685 0.0000
# 3 35.1670 22.1591 96.0162 0.0000 -16.8234 0.0000
# 4 0.0000 0.0000 0.0000 7.3224 0.0000 -5.2644
# 5 -23.0983 -13.1685 -16.8234 0.0000 42.5909 0.0000
# 6 0.0000 0.0000 0.0000 -5.2644 0.0000 11.6448
#
#
#
# Elastic Compliance Matrix: (Units=1/GPa)
#
#
# Indices 1 2 3 4 5 6 
#
# 1 0.009286 -0.003312 -0.002077 0.000000 0.003191 0.000000
# 2 -0.003312 0.014599 -0.001805 0.000000 0.002005 0.000000
# 3 -0.002077 -0.001805 0.012137 0.000000 0.003109 0.000000
# 4 0.000000 0.000000 0.000000 0.202330 0.000000 0.091470
# 5 0.003191 0.002005 0.003109 0.000000 0.027058 0.000000
# 6 0.000000 0.000000 0.000000 0.091470 0.000000 0.127227
#
#
# Mechanical properties :
#
#
# Convention : Reuss Voigt Hill
#
# Bulk Modulus (GPa) = 46.22480 56.34457 51.28469
# Shear Modulus (GPa) = 12.07035 26.92019 19.49527
#
# Velocity S-wave (km/s) = 2.43275 3.63309 3.09173
# Velocity P-wave (km/s) = 5.52772 6.72501 6.15554
#
# Compressibility (1/GPa) = 0.02163341
#
# Stress axis : x y z
#
# Youngs Moduli (GPa) = 107.69136 68.49586 82.39128
#
# Poissons Ratio (x) = 0.22686 0.17117
# Poissons Ratio (y) = 0.35667 0.14872
# Poissons Ratio (z) = 0.22373 0.12364
#
# Static dielectric constant tensor:
#      x y z
#    x 1.827850 0.000000 -0.012340 
#    y 0.000000 1.645710 0.000000 
#    z -0.012340 0.000000 1.814550 
# 
# From -- ./inp_files/146672.got.cif
#   From: 2010.05.17/outbox.cif.g08.bks.cpg/sg15_74_cif.got.tgz:146672.got - 2010.06.03 18:47:42.
