data_PCOD9254365
_publ_section_title
;
Structure prediction by ZEFSAII (Michael W. Deem and Ramdas Pophale) SiO2 
 PCOD9254365
Probable space group: C 2/C
;
_chemical_formula_sum "Si O2"
_cell_formula_units_Z 64
_cell_length_a 21.974338
_cell_length_b 24.806706
_cell_length_c 5.399179
_cell_angle_alpha 90.000000
_cell_angle_beta 79.251689
_cell_angle_gamma 90.000000
_cell_volume 2891.516595
_symmetry_space_group_name_H-M "C 2/C"
_symmetry_group_IT_number 15
_symmetry_cell_setting 'monoclinic'
loop_
_space_group_symop_operation_xyz
x,y,z
-x,y,1/2-z
-x,-y,-z
x,-y,1/2+z
1/2+x,1/2+y,z
1/2-x,1/2+y,1/2-z
1/2-x,1/2-y,-z
1/2+x,1/2-y,1/2+z
loop_
_atom_site_type_symbol
_atom_site_label
_atom_site_fract_x
_atom_site_fract_y
_atom_site_fract_z
Si Si1 0.075596 0.466299 0.359482
Si Si2 0.924035 0.694500 0.073644
Si Si3 0.280243 0.061364 0.793132
Si Si4 0.229212 0.938704 0.832099
Si Si5 0.074089 0.814559 0.253460
Si Si6 0.414738 0.466608 0.593796
Si Si7 0.438089 0.151628 0.558530
Si Si8 0.565465 0.353030 0.760002
O O1 0.065111 0.505050 0.603097
O O2 0.147129 0.446552 0.303267
O O3 0.041396 0.410019 0.428528
O O4 0.911037 0.756019 0.148824
O O5 0.903805 0.659302 0.324818
O O6 0.901871 0.672459 0.826651
O O7 0.998830 0.686398 0.003006
O O8 0.247509 0.087036 0.579653
O O9 0.254662 0.000030 0.834250
O O10 0.261687 0.087015 0.068734
O O11 0.156493 0.946450 0.846648
O O12 0.093446 0.855123 0.461576
O O13 0.000000 0.818861 0.250000
O O14 0.101164 0.824115 0.957375
O O15 0.425653 0.494507 0.320970
O O16 0.450451 0.411224 0.613022
O O17 0.500000 0.323893 0.750000
#
# Coordination Sequence:
#
# PCOD9254365 Si02
#       8
#     8   8   8   8   8   8   8   8
#     4  12  21  33  48  73 115 146 164 215 246 300
#     4  10  19  37  54  72  98 134 169 230 265 297
#     4  10  16  30  49  70  93 139 177 206 249 280
#     4  10  16  30  49  72  89 139 182 204 238 287
#     4  10  18  35  59  71  96 131 167 231 268 287
#     4  12  21  33  52  72 113 148 169 208 236 298
#     4  10  21  32  52  80  98 133 183 209 251 316
#     4  10  23  34  49  82 103 136 179 201 257 317
#
# _framework density 22.133711999999999
#
# number of rings (size 3 to 8) (size 9 to 14) (size 15 to 20)
#    0.000    1.500    6.250    2.250    3.500    0.500 
#    0.000    7.500    0.000    0.000    0.000    0.000 
#    0.000   20.000    0.000    0.000    0.000    0.000 
#
# Total GULP energy -178530.237020 kJ/mol
# GULP energy per Si atom -5579.069907 kJ/mol
# Density = 2.208334 g / cm^3
# Si number density = 22.133712 Si / 1000 Ang^3
#
#
#
# Elastic Constant Matrix: (Units=GPa)
#
#
# Indices 1 2 3 4 5 6 
#
# 1 35.0219 -7.8723 -5.7190 0.0000 -1.4612 0.0000
# 2 -7.8723 79.5397 34.0967 0.0000 14.8955 0.0000
# 3 -5.7190 34.0967 220.8008 0.0000 34.3195 0.0000
# 4 0.0000 0.0000 0.0000 28.0337 0.0000 0.6672
# 5 -1.4612 14.8955 34.3195 0.0000 18.3059 0.0000
# 6 0.0000 0.0000 0.0000 0.6672 0.0000 -1.9633
#
#
#
# Elastic Compliance Matrix: (Units=1/GPa)
#
#
# Indices 1 2 3 4 5 6 
#
# 1 0.029234 0.002857 0.000444 0.000000 -0.000824 0.000000
# 2 0.002857 0.015166 -0.000544 0.000000 -0.011093 0.000000
# 3 0.000444 -0.000544 0.006421 0.000000 -0.011561 0.000000
# 4 0.000000 0.000000 0.000000 0.035385 0.000000 0.012025
# 5 -0.000824 -0.011093 -0.011561 0.000000 0.085261 0.000000
# 6 0.000000 0.000000 0.000000 0.012025 0.000000 -0.505263
#
#
# Mechanical properties :
#
#
# Convention : Reuss Voigt Hill
#
# Bulk Modulus (GPa) = 17.75062 41.81927 29.78494
# Shear Modulus (GPa) = -15.59905 29.86573 7.13334
#
# Velocity S-wave (km/s) = -2.65762 3.67731 1.79717
# Velocity P-wave (km/s) = 1.17479 6.07989 4.21811
#
# Compressibility (1/GPa) = 0.05633607
#
# Stress axis : x y z
#
# Youngs Moduli (GPa) = 34.20682 65.93888 155.73075
#
# Poissons Ratio (x) = -0.18841 -0.06915
# Poissons Ratio (y) = -0.09774 0.08468
# Poissons Ratio (z) = -0.01519 0.03585
#
# Static dielectric constant tensor:
#      x y z
#    x 1.942090 0.000000 -0.042600 
#    y 0.000000 1.738070 0.000000 
#    z -0.042600 0.000000 2.038900 
# 
# From -- ./inp_files/16158.got.cif
#   From: 2010.05.17/outbox.cif.g08.bks.cpg/sg15_9_cif.got.tgz:16158.got - 2010.06.03 18:47:42.
