data_PCOD9254374
_publ_section_title
;
Structure prediction by ZEFSAII (Michael W. Deem and Ramdas Pophale) SiO2 
 PCOD9254374
Probable space group: C 2/C
;
_chemical_formula_sum "Si O2"
_cell_formula_units_Z 52
_cell_length_a 19.294055
_cell_length_b 29.219073
_cell_length_c 5.618746
_cell_angle_alpha 90.000000
_cell_angle_beta 45.580145
_cell_angle_gamma 90.000000
_cell_volume 2262.390364
_symmetry_space_group_name_H-M "C 2/C"
_symmetry_group_IT_number 15
_symmetry_cell_setting 'monoclinic'
loop_
_space_group_symop_operation_xyz
x,y,z
-x,y,1/2-z
-x,-y,-z
x,-y,1/2+z
1/2+x,1/2+y,z
1/2-x,1/2+y,1/2-z
1/2-x,1/2-y,-z
1/2+x,1/2-y,1/2+z
loop_
_atom_site_type_symbol
_atom_site_label
_atom_site_fract_x
_atom_site_fract_y
_atom_site_fract_z
Si Si1 0.316924 0.114586 0.008202
Si Si2 0.000000 0.766926 0.250000
Si Si3 0.212977 0.890755 0.254868
Si Si4 0.606504 0.299624 0.381904
Si Si5 0.358481 0.513630 0.690237
Si Si6 0.869730 0.520103 0.743065
Si Si7 0.663611 0.776192 0.062950
O O1 0.286984 0.103421 0.353086
O O2 0.389360 0.073155 0.764274
O O3 0.246147 0.108279 0.948840
O O4 0.331949 0.169355 0.970571
O O5 0.082725 0.798856 0.162433
O O6 0.939577 0.734809 0.567476
O O7 0.169301 0.841107 0.316105
O O8 0.143151 0.933262 0.378104
O O9 0.652535 0.251291 0.342974
O O10 0.500000 0.304274 0.750000
O O11 0.400501 0.489888 0.354036
O O12 0.247644 0.492490 0.980171
O O13 0.902879 0.491380 0.895068
O O14 0.750000 0.750000 0.000000
#
# Coordination Sequence:
#
# PCOD9254374 Si02
#       7
#     8   4   8   8   8   8   8
#     4  12  22  32  59  95 117 155 206 253 307 373
#     4  10  24  46  60  84 132 168 204 266 320 366
#     4  12  21  34  59  88 119 157 208 254 304 372
#     4  10  24  42  59  83 122 165 207 257 315 372
#     4  10  16  30  49  79 118 155 189 252 307 354
#     4  10  16  31  48  80 124 152 185 250 307 358
#     4  11  23  40  64  93 124 164 211 263 315 379
#
# _framework density 22.984537
#
# number of rings (size 3 to 8) (size 9 to 14) (size 15 to 20)
#    0.000    1.231    7.692    0.923    4.308    1.231 
#    0.000    0.000    0.000    0.923    0.000    1.077 
#    0.000    0.000    0.000    0.000    0.000    0.000 
#
# Total GULP energy -144807.124870 kJ/mol
# GULP energy per Si atom -5569.504803 kJ/mol
# Density = 2.293222 g / cm^3
# Si number density = 22.984537 Si / 1000 Ang^3
#
#
#
# Elastic Constant Matrix: (Units=GPa)
#
#
# Indices 1 2 3 4 5 6 
#
# 1 79.6308 6.9678 8.5716 0.0000 23.4526 0.0000
# 2 6.9678 148.1531 -18.0837 0.0000 13.5936 0.0000
# 3 8.5716 -18.0837 59.1239 0.0000 13.4359 0.0000
# 4 0.0000 0.0000 0.0000 21.4753 0.0000 13.1510
# 5 23.4526 13.5936 13.4359 0.0000 27.5168 0.0000
# 6 0.0000 0.0000 0.0000 13.1510 0.0000 -22.0090
#
#
#
# Elastic Compliance Matrix: (Units=1/GPa)
#
#
# Indices 1 2 3 4 5 6 
#
# 1 0.016889 0.000777 0.001291 0.000000 -0.015409 0.000000
# 2 0.000777 0.007739 0.003682 0.000000 -0.006284 0.000000
# 3 0.001291 0.003682 0.020827 0.000000 -0.013089 0.000000
# 4 0.000000 0.000000 0.000000 0.034091 0.000000 0.020370
# 5 -0.015409 -0.006284 -0.013089 0.000000 0.058969 0.000000
# 6 0.000000 0.000000 0.000000 0.020370 0.000000 -0.033264
#
#
# Mechanical properties :
#
#
# Convention : Reuss Voigt Hill
#
# Bulk Modulus (GPa) = 17.55736 31.31323 24.43530
# Shear Modulus (GPa) = 44.35112 24.69343 34.52228
#
# Velocity S-wave (km/s) = 4.39749 3.28128 3.87974
# Velocity P-wave (km/s) = 5.78267 5.29235 5.54293
#
# Compressibility (1/GPa) = 0.05695617
#
# Stress axis : x y z
#
# Youngs Moduli (GPa) = 59.20957 129.21139 48.01404
#
# Poissons Ratio (x) = -0.10040 -0.06197
# Poissons Ratio (y) = -0.04601 -0.17681
# Poissons Ratio (z) = -0.07643 -0.47581
#
# Static dielectric constant tensor:
#      x y z
#    x 1.975250 0.000000 0.062510 
#    y 0.000000 1.870260 0.000000 
#    z 0.062510 0.000000 1.987700 
# 
# From -- ./inp_files/11438.got.cif
#   From: 2010.05.17/outbox.cif.g08.bks.cpg/sg15_6_cif.got.tgz:11438.got - 2010.06.03 18:47:42.
