data_PCOD9254841
_publ_section_title
;
Structure prediction by ZEFSAII (Michael W. Deem and Ramdas Pophale) SiO2 
 PCOD9254841
Probable space group: C 2/C
;
_chemical_formula_sum "Si O2"
_cell_formula_units_Z 44
_cell_length_a 12.553185
_cell_length_b 7.198678
_cell_length_c 21.547617
_cell_angle_alpha 90.000000
_cell_angle_beta 59.283797
_cell_angle_gamma 90.000000
_cell_volume 1674.005270
_symmetry_space_group_name_H-M "C 2/C"
_symmetry_group_IT_number 15
_symmetry_cell_setting 'monoclinic'
loop_
_space_group_symop_operation_xyz
x,y,z
-x,y,1/2-z
-x,-y,-z
x,-y,1/2+z
1/2+x,1/2+y,z
1/2-x,1/2+y,1/2-z
1/2-x,1/2-y,-z
1/2+x,1/2-y,1/2+z
loop_
_atom_site_type_symbol
_atom_site_label
_atom_site_fract_x
_atom_site_fract_y
_atom_site_fract_z
Si Si1 0.269703 0.763775 0.677243
Si Si2 0.977560 0.344972 0.119180
Si Si3 0.291489 0.821116 0.802693
Si Si4 0.848045 0.807178 0.024034
Si Si5 0.500000 0.304990 0.750000
Si Si6 0.320117 0.861258 0.926218
O O1 0.346763 0.794765 0.717150
O O2 0.232193 0.545008 0.690935
O O3 0.335631 0.803517 0.592030
O O4 0.139917 0.879854 0.718273
O O5 0.831751 0.307392 0.161459
O O6 0.018225 0.295152 0.177736
O O7 0.061461 0.527841 0.082400
O O8 0.026066 0.206397 0.050809
O O9 0.357040 0.775620 0.848530
O O10 0.795169 0.005600 0.056864
O O11 0.750000 0.750000 0.000000
O O12 0.250000 0.750000 0.000000
#
# Coordination Sequence:
#
# PCOD9254841 Si02
#       6
#     8   8   8   8   4   8
#     4  10  20  35  61  88 125 166 213 270 318 387
#     4  10  20  37  65  85 118 170 211 258 324 382
#     4  10  22  39  61  90 122 168 215 264 325 387
#     4   9  17  36  60  84 119 166 207 258 314 383
#     4  10  16  36  60  82 118 166 200 250 332 360
#     4  10  21  38  58  87 127 158 202 266 321 377
#
# _framework density 26.284265000000001
#
# number of rings (size 3 to 8) (size 9 to 14) (size 15 to 20)
#    0.000    2.182    5.455    0.000    0.000    6.545 
#    0.000    5.455    0.000    0.000    0.000    0.000 
#    0.000    0.000    0.000    0.000    0.000    0.000 
#
# Total GULP energy -122547.378543 kJ/mol
# GULP energy per Si atom -5570.335388 kJ/mol
# Density = 2.622444 g / cm^3
# Si number density = 26.284265 Si / 1000 Ang^3
#
#
#
# Elastic Constant Matrix: (Units=GPa)
#
#
# Indices 1 2 3 4 5 6 
#
# 1 142.6320 28.8922 44.9672 0.0000 -7.1667 0.0000
# 2 28.8922 40.8209 25.9378 0.0000 -1.0261 0.0000
# 3 44.9672 25.9378 217.6017 0.0000 15.1345 0.0000
# 4 0.0000 0.0000 0.0000 42.7004 0.0000 -1.7906
# 5 -7.1667 -1.0261 15.1345 0.0000 52.7121 0.0000
# 6 0.0000 0.0000 0.0000 -1.7906 0.0000 28.6426
#
#
#
# Elastic Compliance Matrix: (Units=1/GPa)
#
#
# Indices 1 2 3 4 5 6 
#
# 1 0.008529 -0.005214 -0.001239 0.000000 0.001414 0.000000
# 2 -0.005214 0.029801 -0.002516 0.000000 0.000594 0.000000
# 3 -0.001239 -0.002516 0.005272 0.000000 -0.001731 0.000000
# 4 0.000000 0.000000 0.000000 0.023481 0.000000 0.001468
# 5 0.001414 0.000594 -0.001731 0.000000 0.019672 0.000000
# 6 0.000000 0.000000 0.000000 0.001468 0.000000 0.035005
#
#
# Mechanical properties :
#
#
# Convention : Reuss Voigt Hill
#
# Bulk Modulus (GPa) = 38.96544 66.73876 52.85210
# Shear Modulus (GPa) = 33.72640 44.89484 39.31062
#
# Velocity S-wave (km/s) = 3.58598 4.13734 3.87149
# Velocity P-wave (km/s) = 5.65707 6.94764 6.33531
#
# Compressibility (1/GPa) = 0.02566377
#
# Stress axis : x y z
#
# Youngs Moduli (GPa) = 117.24833 33.55591 189.68144
#
# Poissons Ratio (x) = 0.17494 0.23509
# Poissons Ratio (y) = 0.61128 0.47727
# Poissons Ratio (z) = 0.14532 0.08443
#
# Static dielectric constant tensor:
#      x y z
#    x 2.118250 0.000000 0.050750 
#    y 0.000000 2.296030 0.000000 
#    z 0.050750 0.000000 2.251160 
# 
# From -- ./inp_files/236066.got.cif
#   From: 2010.05.17/outbox.cif.g08.bks.cpg/sg15_119_cif.got.tgz:236066.got - 2010.06.03 18:47:42.
