data_PCOD9254930
_publ_section_title
;
Structure prediction by ZEFSAII (Michael W. Deem and Ramdas Pophale) SiO2 
 PCOD9254930
Probable space group: C 2/C
;
_chemical_formula_sum "Si O2"
_cell_formula_units_Z 48
_cell_length_a 7.618441
_cell_length_b 26.247089
_cell_length_c 17.790117
_cell_angle_alpha 90.000000
_cell_angle_beta 30.827442
_cell_angle_gamma 90.000000
_cell_volume 1822.976710
_symmetry_space_group_name_H-M "C 2/C"
_symmetry_group_IT_number 15
_symmetry_cell_setting 'monoclinic'
loop_
_space_group_symop_operation_xyz
x,y,z
-x,y,1/2-z
-x,-y,-z
x,-y,1/2+z
1/2+x,1/2+y,z
1/2-x,1/2+y,1/2-z
1/2-x,1/2-y,-z
1/2+x,1/2-y,1/2+z
loop_
_atom_site_type_symbol
_atom_site_label
_atom_site_fract_x
_atom_site_fract_y
_atom_site_fract_z
Si Si1 0.794346 0.569578 0.516060
Si Si2 0.283010 0.816745 0.021545
Si Si3 0.160555 0.934924 0.468712
Si Si4 0.750431 0.760940 0.746380
Si Si5 0.804961 0.010653 0.238141
Si Si6 0.859596 0.820177 0.022320
O O1 0.810526 0.626424 0.542293
O O2 0.551572 0.567760 0.530879
O O3 0.625381 0.527666 0.631559
O O4 0.157997 0.550673 0.352306
O O5 0.635584 0.792919 0.862180
O O6 0.088074 0.774555 0.141834
O O7 0.055474 0.821546 0.029492
O O8 0.483317 0.972336 0.344007
O O9 0.270734 0.877176 0.445076
O O10 0.918607 0.956394 0.623652
O O11 0.880264 0.801655 0.637781
O O12 0.051312 0.719569 0.640830
#
# Coordination Sequence:
#
# PCOD9254930 Si02
#       6
#     8   8   8   8   8   8
#     4  10  17  26  40  60  89 123 154 180 213 265
#     4  10  20  33  48  67  95 130 161 193 235 275
#     4  10  17  26  40  60  89 123 154 180 213 265
#     4  10  20  32  48  68  88 126 168 200 230 272
#     4  10  17  24  38  62  88 120 157 178 201 264
#     4  10  20  33  48  67  95 130 161 193 235 275
#
# _framework density 26.330559000000001
#
# number of rings (size 3 to 8) (size 9 to 14) (size 15 to 20)
#    0.000    2.000    0.000    7.000    0.000    5.333 
#    0.000    0.000    0.000    0.000    0.000    0.000 
#    0.000    0.000    0.000 1386.000    0.000  154.000 
#
# Total GULP energy -134534.474489 kJ/mol
# GULP energy per Si atom -5605.603104 kJ/mol
# Density = 2.627063 g / cm^3
# Si number density = 26.330559 Si / 1000 Ang^3
#
#
#
# Elastic Constant Matrix: (Units=GPa)
#
#
# Indices 1 2 3 4 5 6 
#
# 1 59.9092 0.8184 13.3490 -0.0001 -3.8430 0.0000
# 2 0.8184 116.4139 -26.4911 0.0002 3.0141 0.0000
# 3 13.3490 -26.4911 132.2588 0.0017 1.7244 -0.0001
# 4 -0.0001 0.0002 0.0017 26.9709 -0.0001 -0.5965
# 5 -3.8430 3.0141 1.7244 -0.0001 42.2962 -0.0001
# 6 0.0000 0.0000 -0.0001 -0.5965 -0.0001 25.6730
#
#
#
# Elastic Compliance Matrix: (Units=1/GPa)
#
#
# Indices 1 2 3 4 5 6 
#
# 1 0.017227 -0.000592 -0.001879 0.000000 0.001684 0.000000
# 2 -0.000592 0.009042 0.001881 0.000000 -0.000775 0.000000
# 3 -0.001879 0.001881 0.008136 -0.000001 -0.000636 0.000000
# 4 0.000000 0.000000 -0.000001 0.037096 0.000000 0.000862
# 5 0.001684 -0.000775 -0.000636 0.000000 0.023877 0.000000
# 6 0.000000 0.000000 0.000000 0.000862 0.000000 0.038972
#
#
# Mechanical properties :
#
#
# Convention : Reuss Voigt Hill
#
# Bulk Modulus (GPa) = 30.09915 31.54825 30.82370
# Shear Modulus (GPa) = 34.10522 40.38172 37.24347
#
# Velocity S-wave (km/s) = 3.60289 3.92043 3.76501
# Velocity P-wave (km/s) = 5.36319 5.70093 5.53464
#
# Compressibility (1/GPa) = 0.03322353
#
# Stress axis : x y z
#
# Youngs Moduli (GPa) = 58.04913 110.59107 122.91527
#
# Poissons Ratio (x) = 0.06551 0.23100
# Poissons Ratio (y) = 0.03439 -0.23121
# Poissons Ratio (z) = 0.10909 -0.20803
#
# Static dielectric constant tensor:
#      x y z
#    x 2.144460 0.000000 0.002600 
#    y 0.000000 2.019830 0.000000 
#    z 0.002600 0.000000 2.006210 
# 
# From -- ./inp_files/32149.got.cif
#   From: 2010.05.17/outbox.cif.g08.bks.cpg/sg15_17_cif.got.tgz:32149.got - 2010.06.03 18:47:42.
