data_PCOD9254320
_publ_section_title
;
Structure prediction by ZEFSAII (Michael W. Deem and Ramdas Pophale) SiO2 
 PCOD9254320
Probable space group: C 2/C
;
_chemical_formula_sum "Si O2"
_cell_formula_units_Z 56
_cell_length_a 14.856590
_cell_length_b 11.452171
_cell_length_c 14.238378
_cell_angle_alpha 90.000000
_cell_angle_beta 120.089072
_cell_angle_gamma 90.000000
_cell_volume 2096.078831
_symmetry_space_group_name_H-M "C 2/C"
_symmetry_group_IT_number 15
_symmetry_cell_setting 'monoclinic'
loop_
_space_group_symop_operation_xyz
x,y,z
-x,y,1/2-z
-x,-y,-z
x,-y,1/2+z
1/2+x,1/2+y,z
1/2-x,1/2+y,1/2-z
1/2-x,1/2-y,-z
1/2+x,1/2-y,1/2+z
loop_
_atom_site_type_symbol
_atom_site_label
_atom_site_fract_x
_atom_site_fract_y
_atom_site_fract_z
Si Si1 0.361830 0.811885 0.247362
Si Si2 0.328999 0.904968 0.423586
Si Si3 0.092048 0.050444 0.111855
Si Si4 0.735115 0.988582 0.926358
Si Si5 0.846092 0.329288 0.867775
Si Si6 0.393364 0.336096 0.246166
Si Si7 0.404869 0.679251 0.079934
O O1 0.392973 0.840820 0.373083
O O2 0.267102 0.721792 0.213599
O O3 0.399732 0.760556 0.166998
O O4 0.323233 0.936802 0.183822
O O5 0.213325 0.847236 0.366605
O O6 0.343404 0.924917 0.543323
O O7 0.337808 0.037542 0.390412
O O8 0.023539 0.133310 0.141314
O O9 0.127221 0.939460 0.189652
O O10 0.182088 0.089507 0.088211
O O11 0.000000 0.000000 0.000000
O O12 0.814323 0.078975 0.025347
O O13 0.909016 0.284846 0.810181
O O14 0.884954 0.256354 0.977643
O O15 0.500000 0.364989 0.250000
#
# Coordination Sequence:
#
# PCOD9254320 Si02
#       7
#     8   8   8   8   8   8   8
#     4  10  18  31  49  81 112 151 199 225 282 353
#     4  11  20  30  54  81 120 155 191 237 286 345
#     4  10  17  29  50  84 120 145 176 243 303 340
#     4  10  16  31  50  79 117 146 183 241 288 337
#     4  10  18  32  50  80 115 155 188 235 290 346
#     4  11  21  32  50  93 119 141 190 242 292 340
#     4  10  16  29  52  77 116 150 190 232 299 347
#
# _framework density 26.716552
#
# number of rings (size 3 to 8) (size 9 to 14) (size 15 to 20)
#    0.000    1.714    8.571    2.571    0.000    0.000 
#    0.000    0.000    0.000    3.429    7.429    1.000 
#    0.000    0.000    0.000    0.000    0.000    0.000 
#
# Total GULP energy -156304.253064 kJ/mol
# GULP energy per Si atom -5582.294752 kJ/mol
# Density = 2.665574 g / cm^3
# Si number density = 26.716552 Si / 1000 Ang^3
#
#
#
# Elastic Constant Matrix: (Units=GPa)
#
#
# Indices 1 2 3 4 5 6 
#
# 1 54.0364 31.8917 33.5092 0.0000 -28.2767 0.0000
# 2 31.8917 73.7685 19.9555 0.0000 -22.0274 0.0000
# 3 33.5092 19.9555 102.7959 0.0000 -41.7890 0.0000
# 4 0.0000 0.0000 0.0000 23.8979 0.0000 -29.7391
# 5 -28.2767 -22.0274 -41.7890 0.0000 46.4172 0.0000
# 6 0.0000 0.0000 0.0000 -29.7391 0.0000 41.8734
#
#
#
# Elastic Compliance Matrix: (Units=1/GPa)
#
#
# Indices 1 2 3 4 5 6 
#
# 1 0.032857 -0.009578 -0.004041 0.000000 0.011832 0.000000
# 2 -0.009578 0.018586 0.001148 0.000000 0.004019 0.000000
# 3 -0.004041 0.001148 0.015841 0.000000 0.012344 0.000000
# 4 0.000000 0.000000 0.000000 0.360143 0.000000 0.255779
# 5 0.011832 0.004019 0.012344 0.000000 0.041772 0.000000
# 6 0.000000 0.000000 0.000000 0.255779 0.000000 0.205540
#
#
# Mechanical properties :
#
#
# Convention : Reuss Voigt Hill
#
# Bulk Modulus (GPa) = 23.61794 44.59039 34.10417
# Shear Modulus (GPa) = 7.00481 32.12066 19.56273
#
# Velocity S-wave (km/s) = 1.62098 3.47115 2.70892
# Velocity P-wave (km/s) = 3.51608 5.72639 4.75155
#
# Compressibility (1/GPa) = 0.04234069
#
# Stress axis : x y z
#
# Youngs Moduli (GPa) = 30.43514 53.80303 63.12857
#
# Poissons Ratio (x) = 0.51535 0.25510
# Poissons Ratio (y) = 0.29152 -0.07246
# Poissons Ratio (z) = 0.12299 -0.06176
#
# Static dielectric constant tensor:
#      x y z
#    x 2.062380 0.000000 -0.181890 
#    y 0.000000 2.055940 0.000000 
#    z -0.181890 0.000000 1.920260 
# 
# From -- ./inp_files/209983.got.cif
#   From: 2010.05.17/outbox.cif.g08.bks.cpg/sg15_105_cif.got.tgz:209983.got - 2010.06.03 18:47:42.
