data_PCOD9254716
_publ_section_title
;
Structure prediction by ZEFSAII (Michael W. Deem and Ramdas Pophale) SiO2 
 PCOD9254716
Probable space group: C 2/C
;
_chemical_formula_sum "Si O2"
_cell_formula_units_Z 40
_cell_length_a 21.056984
_cell_length_b 7.523560
_cell_length_c 29.419202
_cell_angle_alpha 90.000000
_cell_angle_beta 158.058373
_cell_angle_gamma 90.000000
_cell_volume 1741.522646
_symmetry_space_group_name_H-M "C 2/C"
_symmetry_group_IT_number 15
_symmetry_cell_setting 'monoclinic'
loop_
_space_group_symop_operation_xyz
x,y,z
-x,y,1/2-z
-x,-y,-z
x,-y,1/2+z
1/2+x,1/2+y,z
1/2-x,1/2+y,1/2-z
1/2-x,1/2-y,-z
1/2+x,1/2-y,1/2+z
loop_
_atom_site_type_symbol
_atom_site_label
_atom_site_fract_x
_atom_site_fract_y
_atom_site_fract_z
Si Si1 0.012721 0.070739 0.114033
Si Si2 0.402716 0.487786 0.732174
Si Si3 0.938297 0.334665 0.489900
Si Si4 0.871292 0.521125 0.809533
Si Si5 0.702364 0.615298 0.610228
O O1 0.984111 0.019990 0.147156
O O2 0.044630 0.283973 0.130369
O O3 0.194152 0.988827 0.219685
O O4 0.862719 0.027800 0.979381
O O5 0.500000 0.505933 0.750000
O O6 0.262209 0.641808 0.643015
O O7 0.303950 0.297339 0.666610
O O8 0.000000 0.500000 0.500000
O O9 0.010476 0.375745 0.588084
O O10 0.037410 0.178470 0.530063
O O11 0.819105 0.505093 0.722395
#
# Coordination Sequence:
#
# PCOD9254716 Si02
#       5
#     8   8   8   8   8
#     4  11  19  33  53  81 108 132 173 213 262 301
#     4  10  20  32  51  77 108 143 168 207 259 317
#     4  10  16  34  52  72 104 136 170 210 255 306
#     4  11  18  32  54  80 105 129 174 220 256 301
#     4  10  20  33  53  81 102 133 177 218 257 298
#
# _framework density 22.968406999999999
#
# number of rings (size 3 to 8) (size 9 to 14) (size 15 to 20)
#    0.000    1.600   10.000    0.600    0.000    0.800 
#    0.000    0.000    0.000    1.200    0.000    5.600 
#    0.000    0.000    0.000    0.000    0.000    0.000 
#
# Total GULP energy -111815.712181 kJ/mol
# GULP energy per Si atom -5590.785609 kJ/mol
# Density = 2.291613 g / cm^3
# Si number density = 22.968407 Si / 1000 Ang^3
#
#
#
# Elastic Constant Matrix: (Units=GPa)
#
#
# Indices 1 2 3 4 5 6 
#
# 1 119.0926 24.9079 53.5252 -0.0077 -26.5197 0.0022
# 2 24.9079 86.6160 25.3006 0.0011 -5.7500 0.0000
# 3 53.5252 25.3006 132.1705 -0.0007 -59.9552 -0.0067
# 4 -0.0077 0.0011 -0.0007 20.8233 -0.0049 -7.6136
# 5 -26.5197 -5.7500 -59.9552 -0.0049 44.3282 -0.0012
# 6 0.0022 0.0000 -0.0067 -7.6136 -0.0012 15.9222
#
#
#
# Elastic Compliance Matrix: (Units=1/GPa)
#
#
# Indices 1 2 3 4 5 6 
#
# 1 0.010621 -0.002050 -0.002968 0.000004 0.002074 -0.000001
# 2 -0.002050 0.012918 -0.003723 -0.000004 -0.004586 -0.000003
# 3 -0.002968 -0.003723 0.021881 0.000013 0.027336 0.000018
# 4 0.000004 -0.000004 0.000013 0.058198 0.000026 0.027829
# 5 0.002074 -0.004586 0.027336 0.000026 0.060177 0.000028
# 6 -0.000001 -0.000003 0.000018 0.027829 0.000028 0.076112
#
#
# Mechanical properties :
#
#
# Convention : Reuss Voigt Hill
#
# Bulk Modulus (GPa) = 35.79401 60.59405 48.19403
# Shear Modulus (GPa) = 18.74755 31.82444 25.28599
#
# Velocity S-wave (km/s) = 2.86008 3.72637 3.32159
# Velocity P-wave (km/s) = 5.15020 6.70471 5.97820
#
# Compressibility (1/GPa) = 0.02793763
#
# Stress axis : x y z
#
# Youngs Moduli (GPa) = 94.14988 77.41328 45.70238
#
# Poissons Ratio (x) = 0.15867 0.13566
# Poissons Ratio (y) = 0.19297 0.17015
# Poissons Ratio (z) = 0.27947 0.28822
#
# Static dielectric constant tensor:
#      x y z
#    x 1.812910 0.000000 -0.050960 
#    y 0.000000 1.990130 0.000000 
#    z -0.050960 0.000000 1.908020 
# 
# From -- ./inp_files/218837.got.cif
#   From: 2010.05.17/outbox.cif.g08.bks.cpg/sg15_110_cif.got.tgz:218837.got - 2010.06.03 18:47:42.
