data_PCOD9254805
_publ_section_title
;
Structure prediction by ZEFSAII (Michael W. Deem and Ramdas Pophale) SiO2 
 PCOD9254805
Probable space group: C 2/C
;
_chemical_formula_sum "Si O2"
_cell_formula_units_Z 48
_cell_length_a 11.703361
_cell_length_b 16.385065
_cell_length_c 20.936310
_cell_angle_alpha 90.000000
_cell_angle_beta 140.023286
_cell_angle_gamma 90.000000
_cell_volume 2579.383812
_symmetry_space_group_name_H-M "C 2/C"
_symmetry_group_IT_number 15
_symmetry_cell_setting 'monoclinic'
loop_
_space_group_symop_operation_xyz
x,y,z
-x,y,1/2-z
-x,-y,-z
x,-y,1/2+z
1/2+x,1/2+y,z
1/2-x,1/2+y,1/2-z
1/2-x,1/2-y,-z
1/2+x,1/2-y,1/2+z
loop_
_atom_site_type_symbol
_atom_site_label
_atom_site_fract_x
_atom_site_fract_y
_atom_site_fract_z
Si Si1 0.313526 0.976405 0.986910
Si Si2 0.507739 0.184286 0.344969
Si Si3 0.507834 0.137231 0.485112
Si Si4 0.045127 0.959422 0.587442
Si Si5 0.803387 0.780589 0.877495
Si Si6 0.931609 0.505569 0.788544
O O1 0.342227 0.912403 0.942324
O O2 0.468944 0.959698 0.106638
O O3 0.126053 0.968800 0.941203
O O4 0.351223 0.066361 0.974149
O O5 0.474475 0.185438 0.405524
O O6 0.351985 0.230037 0.240938
O O7 0.697851 0.211757 0.399770
O O8 0.492368 0.089389 0.317548
O O9 0.574781 0.202142 0.564809
O O10 0.096794 0.864908 0.596115
O O11 0.218354 0.001903 0.693500
O O12 0.000000 0.000000 0.500000
O O13 0.000000 0.539932 0.750000
#
# Coordination Sequence:
#
# PCOD9254805 Si02
#       6
#     8   8   8   8   8   8
#     4  10  22  38  56  85 122 155 193 241 298 352
#     4   9  17  35  58  79 112 152 193 240 288 346
#     4  10  21  39  55  80 125 156 183 251 301 340
#     4  11  19  34  62  87 110 153 198 236 292 348
#     4  10  19  35  59  85 107 154 203 236 286 354
#     4  10  16  35  58  81 113 148 194 239 283 338
#
# _framework density 18.609096000000001
#
# number of rings (size 3 to 8) (size 9 to 14) (size 15 to 20)
#    0.000    2.000    5.000    1.500    0.000    0.667 
#    9.000   12.500    0.000    0.000    0.000    0.000 
#    0.000    0.000    0.000    0.000    0.000    0.000 
#
# Total GULP energy -133782.334315 kJ/mol
# GULP energy per Si atom -5574.263930 kJ/mol
# Density = 1.856674 g / cm^3
# Si number density = 18.609096 Si / 1000 Ang^3
#
#
#
# Elastic Constant Matrix: (Units=GPa)
#
#
# Indices 1 2 3 4 5 6 
#
# 1 120.2476 26.5761 34.3259 0.0000 20.1455 0.0000
# 2 26.5761 43.8027 21.8461 0.0000 8.0243 0.0000
# 3 34.3259 21.8461 61.1410 0.0000 9.4716 0.0000
# 4 0.0000 0.0000 0.0000 16.7295 0.0000 -2.3868
# 5 20.1455 8.0243 9.4716 0.0000 29.4051 0.0000
# 6 0.0000 0.0000 0.0000 -2.3868 0.0000 10.0727
#
#
#
# Elastic Compliance Matrix: (Units=1/GPa)
#
#
# Indices 1 2 3 4 5 6 
#
# 1 0.011221 -0.003774 -0.004126 0.000000 -0.005329 0.000000
# 2 -0.003774 0.029657 -0.008025 0.000000 -0.002922 0.000000
# 3 -0.004126 -0.008025 0.021853 0.000000 -0.002022 0.000000
# 4 0.000000 0.000000 0.000000 0.061866 0.000000 0.014660
# 5 -0.005329 -0.002922 -0.002022 0.000000 0.039107 0.000000
# 6 0.000000 0.000000 0.000000 0.014660 0.000000 0.102752
#
#
# Mechanical properties :
#
#
# Convention : Reuss Voigt Hill
#
# Bulk Modulus (GPa) = 32.38245 43.40972 37.89608
# Shear Modulus (GPa) = 16.20225 20.73767 18.46996
#
# Velocity S-wave (km/s) = 2.95390 3.34186 3.15385
# Velocity P-wave (km/s) = 5.39196 6.18615 5.80266
#
# Compressibility (1/GPa) = 0.03088092
#
# Stress axis : x y z
#
# Youngs Moduli (GPa) = 89.12098 33.71845 45.76128
#
# Poissons Ratio (x) = 0.12726 0.18879
# Poissons Ratio (y) = 0.33636 0.36724
# Poissons Ratio (z) = 0.36767 0.27060
#
# Static dielectric constant tensor:
#      x y z
#    x 1.658330 0.000000 -0.027600 
#    y 0.000000 1.623150 0.000000 
#    z -0.027600 0.000000 1.690750 
# 
# From -- ./inp_files/239471.got.cif
#   From: 2010.05.17/outbox.cif.g08.bks.cpg/sg15_120_cif.got.tgz:239471.got - 2010.06.03 18:47:42.
