data_PCOD9254596
_publ_section_title
;
Structure prediction by ZEFSAII (Michael W. Deem and Ramdas Pophale) SiO2 
 PCOD9254596
Probable space group: C 2/C
;
_chemical_formula_sum "Si O2"
_cell_formula_units_Z 52
_cell_length_a 11.701532
_cell_length_b 12.178193
_cell_length_c 18.979855
_cell_angle_alpha 90.000000
_cell_angle_beta 131.087326
_cell_angle_gamma 90.000000
_cell_volume 2038.553182
_symmetry_space_group_name_H-M "C 2/C"
_symmetry_group_IT_number 15
_symmetry_cell_setting 'monoclinic'
loop_
_space_group_symop_operation_xyz
x,y,z
-x,y,1/2-z
-x,-y,-z
x,-y,1/2+z
1/2+x,1/2+y,z
1/2-x,1/2+y,1/2-z
1/2-x,1/2-y,-z
1/2+x,1/2-y,1/2+z
loop_
_atom_site_type_symbol
_atom_site_label
_atom_site_fract_x
_atom_site_fract_y
_atom_site_fract_z
Si Si1 0.000000 0.230178 0.250000
Si Si2 0.050094 0.498820 0.411072
Si Si3 0.964537 0.095231 0.378892
Si Si4 0.269941 0.332015 0.440354
Si Si5 0.726864 0.423708 0.248543
Si Si6 0.699125 0.559425 0.897251
Si Si7 0.986711 0.262142 0.661987
O O1 0.041289 0.173772 0.191537
O O2 0.836710 0.284142 0.163946
O O3 0.905987 0.422233 0.336189
O O4 0.013975 0.623877 0.378141
O O5 0.182399 0.445828 0.417835
O O6 0.137258 0.509035 0.520604
O O7 0.047557 0.147374 0.481050
O O8 0.083406 0.005860 0.398507
O O9 0.813511 0.021736 0.322155
O O10 0.250000 0.250000 0.500000
O O11 0.667500 0.458265 0.302525
O O12 0.628459 0.314483 0.196467
O O13 0.664529 0.685885 0.902090
O O14 0.000000 0.287435 0.750000
#
# Coordination Sequence:
#
# PCOD9254596 Si02
#       7
#     4   8   8   8   8   8   8
#     4  10  16  32  54  76 108 140 190 226 268 326
#     4  11  21  33  58  85 112 143 196 240 289 329
#     4   9  16  33  56  77 106 148 188 227 278 336
#     4   9  21  33  52  83 108 147 186 229 274 342
#     4  10  19  34  57  82 113 142 188 241 288 327
#     4   9  17  35  56  82 103 149 197 236 274 343
#     4   9  20  36  56  78 115 157 189 226 289 358
#
# _framework density 25.508286999999999
#
# number of rings (size 3 to 8) (size 9 to 14) (size 15 to 20)
#    0.000    2.462    1.538    1.846    1.077    2.462 
#    0.000    0.000    0.000    0.923    0.000    0.000 
#    0.000    0.000    0.000    0.000    0.000    0.000 
#
# Total GULP energy -144916.248479 kJ/mol
# GULP energy per Si atom -5573.701865 kJ/mol
# Density = 2.545023 g / cm^3
# Si number density = 25.508287 Si / 1000 Ang^3
#
#
#
# Elastic Constant Matrix: (Units=GPa)
#
#
# Indices 1 2 3 4 5 6 
#
# 1 45.8159 -9.4282 13.7236 0.0000 11.9130 0.0000
# 2 -9.4282 76.9986 34.7250 0.0000 1.9090 0.0000
# 3 13.7236 34.7250 151.3256 0.0000 6.5589 0.0000
# 4 0.0000 0.0000 0.0000 20.9672 0.0000 6.9465
# 5 11.9130 1.9090 6.5589 0.0000 27.1383 0.0000
# 6 0.0000 0.0000 0.0000 6.9465 0.0000 -4.1640
#
#
#
# Elastic Compliance Matrix: (Units=1/GPa)
#
#
# Indices 1 2 3 4 5 6 
#
# 1 0.026705 0.004932 -0.003062 0.000000 -0.011329 0.000000
# 2 0.004932 0.015399 -0.003881 0.000000 -0.002310 0.000000
# 3 -0.003062 -0.003881 0.007788 0.000000 -0.000265 0.000000
# 4 0.000000 0.000000 0.000000 0.030717 0.000000 0.051243
# 5 -0.011329 -0.002310 -0.000265 0.000000 0.042048 0.000000
# 6 0.000000 0.000000 0.000000 0.051243 0.000000 -0.154670
#
#
# Mechanical properties :
#
#
# Convention : Reuss Voigt Hill
#
# Bulk Modulus (GPa) = 21.80147 39.13123 30.46635
# Shear Modulus (GPa) = -393.63168 24.46295 -184.58436
#
# Velocity S-wave (km/s) = -12.43584 3.10016 -8.51584
# Velocity P-wave (km/s) = 14.05827 5.30929 9.20452
#
# Compressibility (1/GPa) = 0.04586847
#
# Stress axis : x y z
#
# Youngs Moduli (GPa) = 37.44681 64.94129 128.40288
#
# Poissons Ratio (x) = -0.32028 0.39323
# Poissons Ratio (y) = -0.18468 0.49829
# Poissons Ratio (z) = 0.11468 0.25202
#
# Static dielectric constant tensor:
#      x y z
#    x 2.045870 0.000000 0.026780 
#    y 0.000000 2.062550 0.000000 
#    z 0.026780 0.000000 2.161360 
# 
# From -- ./inp_files/153350.got.cif
#   From: 2010.05.17/outbox.cif.g08.bks.cpg/sg15_77_cif.got.tgz:153350.got - 2010.06.03 18:47:42.
