data_PCOD9254962
_publ_section_title
;
Structure prediction by ZEFSAII (Michael W. Deem and Ramdas Pophale) SiO2 
 PCOD9254962
Probable space group: C 2/C
;
_chemical_formula_sum "Si O2"
_cell_formula_units_Z 64
_cell_length_a 21.029114
_cell_length_b 6.912560
_cell_length_c 22.295350
_cell_angle_alpha 90.000000
_cell_angle_beta 132.683052
_cell_angle_gamma 90.000000
_cell_volume 2382.481647
_symmetry_space_group_name_H-M "C 2/C"
_symmetry_group_IT_number 15
_symmetry_cell_setting 'monoclinic'
loop_
_space_group_symop_operation_xyz
x,y,z
-x,y,1/2-z
-x,-y,-z
x,-y,1/2+z
1/2+x,1/2+y,z
1/2-x,1/2+y,1/2-z
1/2-x,1/2-y,-z
1/2+x,1/2-y,1/2+z
loop_
_atom_site_type_symbol
_atom_site_label
_atom_site_fract_x
_atom_site_fract_y
_atom_site_fract_z
Si Si1 0.184228 0.136026 0.720284
Si Si2 0.825331 0.800428 0.411819
Si Si3 0.568391 0.665516 0.021940
Si Si4 0.107836 0.814211 0.289651
Si Si5 0.619767 0.195105 0.672961
Si Si6 0.355167 0.253815 0.557318
Si Si7 0.620352 0.228821 0.799652
Si Si8 0.574134 0.307300 0.390519
O O1 0.148338 0.249570 0.639371
O O2 0.174305 0.228093 0.779063
O O3 0.285097 0.107430 0.773249
O O4 0.136471 0.928930 0.690580
O O5 0.866443 0.691790 0.495207
O O6 0.723112 0.775375 0.353600
O O7 0.846159 0.029440 0.428259
O O8 0.572357 0.814984 0.079252
O O9 0.500000 0.500000 0.000000
O O10 0.561643 0.755380 0.951333
O O11 0.098987 0.045729 0.290264
O O12 0.135705 0.744298 0.373742
O O13 0.016302 0.767690 0.200465
O O14 0.581070 0.141938 0.713271
O O15 0.250000 0.250000 0.500000
O O16 0.394876 0.155919 0.642385
O O17 0.397696 0.467746 0.583477
#
# Coordination Sequence:
#
# PCOD9254962 Si02
#       8
#     8   8   8   8   8   8   8   8
#     4   9  16  28  42  62  88 112 146 184 216 257
#     4   8  14  22  36  56  78 106 136 168 210 255
#     4  10  17  26  40  62  89 113 140 183 222 257
#     4   9  16  26  41  60  84 113 142 181 222 255
#     4   9  17  27  43  63  85 114 145 178 219 260
#     4   8  13  21  34  54  82 110 135 167 210 253
#     4   8  13  23  36  54  79 107 138 171 206 250
#     4   9  16  25  39  61  87 112 145 179 218 263
#
# _framework density 26.862745
#
# number of rings (size 3 to 8) (size 9 to 14) (size 15 to 20)
#    0.000    3.250    0.000    2.250    0.000    0.000 
#    0.000    0.625    0.000    0.000    0.000   21.875 
#    0.000  220.000    0.000    0.375    0.000    0.250 
#
# Total GULP energy -178280.605966 kJ/mol
# GULP energy per Si atom -5571.268936 kJ/mol
# Density = 2.680160 g / cm^3
# Si number density = 26.862745 Si / 1000 Ang^3
#
#
#
# Elastic Constant Matrix: (Units=GPa)
#
#
# Indices 1 2 3 4 5 6 
#
# 1 130.3597 9.0246 78.8704 0.0000 -45.2945 0.0000
# 2 9.0246 97.3183 18.0800 0.0000 0.8797 0.0003
# 3 78.8704 18.0800 215.4198 0.0000 -93.8656 0.0000
# 4 0.0000 0.0000 0.0000 -1.7869 0.0000 9.6213
# 5 -45.2945 0.8797 -93.8656 0.0000 69.1479 0.0000
# 6 0.0000 0.0003 0.0000 9.6213 0.0000 5.3747
#
#
#
# Elastic Compliance Matrix: (Units=1/GPa)
#
#
# Indices 1 2 3 4 5 6 
#
# 1 0.010320 -0.000642 -0.001898 0.000000 0.004192 0.000000
# 2 -0.000642 0.010783 -0.002235 0.000000 -0.003592 0.000000
# 3 -0.001898 -0.002235 0.012228 0.000000 0.015384 0.000000
# 4 0.000000 0.000000 0.000000 -0.052604 0.000000 0.094166
# 5 0.004192 -0.003592 0.015384 0.000000 0.038136 0.000000
# 6 0.000000 0.000000 0.000000 0.094166 0.000000 0.017489
#
#
# Mechanical properties :
#
#
# Convention : Reuss Voigt Hill
#
# Bulk Modulus (GPa) = 42.05089 72.78311 57.41700
# Shear Modulus (GPa) = 92.88420 37.02198 64.95309
#
# Velocity S-wave (km/s) = 5.88663 3.71643 4.92261
# Velocity P-wave (km/s) = 7.86709 6.75048 7.33008
#
# Compressibility (1/GPa) = 0.02378071
#
# Stress axis : x y z
#
# Youngs Moduli (GPa) = 96.89508 92.74057 81.77971
#
# Poissons Ratio (x) = 0.05957 0.15523
# Poissons Ratio (y) = 0.06223 0.18276
# Poissons Ratio (z) = 0.18392 0.20725
#
# Static dielectric constant tensor:
#      x y z
#    x 2.280870 0.000000 -0.042990 
#    y 0.000000 2.078120 0.000000 
#    z -0.042990 0.000000 2.258430 
# 
# From -- ./inp_files/218959.got.cif
#   From: 2010.05.17/outbox.cif.g08.bks.cpg/sg15_110_cif.got.tgz:218959.got - 2010.06.03 18:47:42.
