data_PCOD9254289
_publ_section_title
;
Structure prediction by ZEFSAII (Michael W. Deem and Ramdas Pophale) SiO2 
 PCOD9254289
Probable space group: C 2/C
;
_chemical_formula_sum "Si O2"
_cell_formula_units_Z 40
_cell_length_a 15.479972
_cell_length_b 33.373550
_cell_length_c 5.159138
_cell_angle_alpha 90.000000
_cell_angle_beta 74.781758
_cell_angle_gamma 90.000000
_cell_volume 2571.857292
_symmetry_space_group_name_H-M "C 2/C"
_symmetry_group_IT_number 15
_symmetry_cell_setting 'monoclinic'
loop_
_space_group_symop_operation_xyz
x,y,z
-x,y,1/2-z
-x,-y,-z
x,-y,1/2+z
1/2+x,1/2+y,z
1/2-x,1/2+y,1/2-z
1/2-x,1/2-y,-z
1/2+x,1/2-y,1/2+z
loop_
_atom_site_type_symbol
_atom_site_label
_atom_site_fract_x
_atom_site_fract_y
_atom_site_fract_z
Si Si1 0.939743 0.890818 0.054913
Si Si2 0.898537 0.017802 0.607905
Si Si3 0.212547 0.294904 0.582175
Si Si4 0.194492 0.179140 0.977337
Si Si5 0.442121 0.249089 0.050455
O O1 0.904986 0.935208 0.151907
O O2 0.861100 0.860368 0.046453
O O3 0.000000 0.876454 0.250000
O O4 0.000000 0.895008 0.750000
O O5 0.854381 0.006752 0.372547
O O6 0.000000 0.000000 0.500000
O O7 0.250000 0.250000 0.500000
O O8 0.225581 0.315843 0.294887
O O9 0.115463 0.287244 0.782531
O O10 0.270905 0.316773 0.756936
O O11 0.126479 0.216314 0.985146
O O12 0.500000 0.264353 0.250000
O O13 0.500000 0.238981 0.750000
#
# Coordination Sequence:
#
# PCOD9254289 Si02
#       5
#     8   8   8   8   8
#     4  12  20  29  45  65  90 118 159 201 216 246
#     4  10  16  29  42  59  84 120 154 187 208 256
#     4  10  20  35  47  59  88 119 140 180 241 290
#     4  11  21  32  44  66  90 116 145 189 241 261
#     4  11  19  31  48  65  80 107 153 190 220 264
#
# _framework density 15.552963999999999
#
# number of rings (size 3 to 8) (size 9 to 14) (size 15 to 20)
#    0.000    1.200    4.000    8.400    0.000    0.000 
#    0.000    0.000    0.000    0.000    0.000    0.000 
#    0.000    0.000    0.000    0.000    0.000   70.000 
#
# Total GULP energy -111482.700816 kJ/mol
# GULP energy per Si atom -5574.135041 kJ/mol
# Density = 1.551756 g / cm^3
# Si number density = 15.552964 Si / 1000 Ang^3
#
#
#
# Elastic Constant Matrix: (Units=GPa)
#
#
# Indices 1 2 3 4 5 6 
#
# 1 21.7430 4.6215 16.6870 0.0000 -0.5737 0.0000
# 2 4.6215 58.2281 -1.5274 0.0000 -6.2762 0.0000
# 3 16.6870 -1.5274 99.6170 0.0000 5.6234 0.0000
# 4 0.0000 0.0000 0.0000 13.9142 0.0000 7.9610
# 5 -0.5737 -6.2762 5.6234 0.0000 31.6292 0.0000
# 6 0.0000 0.0000 0.0000 7.9610 0.0000 13.0138
#
#
#
# Elastic Compliance Matrix: (Units=1/GPa)
#
#
# Indices 1 2 3 4 5 6 
#
# 1 0.054035 -0.004341 -0.009217 0.000000 0.001757 0.000000
# 2 -0.004341 0.017898 0.000814 0.000000 0.003328 0.000000
# 3 -0.009217 0.000814 0.011713 0.000000 -0.002088 0.000000
# 4 0.000000 0.000000 0.000000 0.110568 0.000000 -0.067638
# 5 0.001757 0.003328 -0.002088 0.000000 0.032680 0.000000
# 6 0.000000 0.000000 0.000000 -0.067638 0.000000 0.118218
#
#
# Mechanical properties :
#
#
# Convention : Reuss Voigt Hill
#
# Bulk Modulus (GPa) = 17.19484 24.35002 20.77243
# Shear Modulus (GPa) = 12.82094 22.36524 17.59309
#
# Velocity S-wave (km/s) = 2.87425 3.79622 3.36694
# Velocity P-wave (km/s) = 4.70050 5.90806 5.33854
#
# Compressibility (1/GPa) = 0.05815698
#
# Stress axis : x y z
#
# Youngs Moduli (GPa) = 18.50664 55.87073 85.37679
#
# Poissons Ratio (x) = 0.24253 0.78693
# Poissons Ratio (y) = 0.08034 -0.06947
# Poissons Ratio (z) = 0.17058 -0.04546
#
# Static dielectric constant tensor:
#      x y z
#    x 1.521750 0.000000 0.003100 
#    y 0.000000 1.508470 0.000000 
#    z 0.003100 0.000000 1.607950 
# 
# From -- ./inp_files/8467.got.cif
#   From: 2010.05.17/outbox.cif.g08.bks.cpg/sg15_5_cif.got.tgz:8467.got - 2010.06.03 18:47:42.
