data_PCOD9254080
_publ_section_title
;
Structure prediction by ZEFSAII (Michael W. Deem and Ramdas Pophale) SiO2 
 PCOD9254080
Probable space group: C 2/C
;
_chemical_formula_sum "Si O2"
_cell_formula_units_Z 40
_cell_length_a 10.705048
_cell_length_b 37.586616
_cell_length_c 5.388636
_cell_angle_alpha 90.000000
_cell_angle_beta 79.633283
_cell_angle_gamma 90.000000
_cell_volume 2132.813318
_symmetry_space_group_name_H-M "C 2/C"
_symmetry_group_IT_number 15
_symmetry_cell_setting 'monoclinic'
loop_
_space_group_symop_operation_xyz
x,y,z
-x,y,1/2-z
-x,-y,-z
x,-y,1/2+z
1/2+x,1/2+y,z
1/2-x,1/2+y,1/2-z
1/2-x,1/2-y,-z
1/2+x,1/2-y,1/2+z
loop_
_atom_site_type_symbol
_atom_site_label
_atom_site_fract_x
_atom_site_fract_y
_atom_site_fract_z
Si Si1 0.138591 0.785108 0.796004
Si Si2 0.147553 0.400833 0.922718
Si Si3 0.139589 0.371485 0.423731
Si Si4 0.854791 0.485182 0.572993
Si Si5 0.783197 0.703769 0.741681
O O1 0.149544 0.742008 0.799656
O O2 0.232755 0.798352 0.542545
O O3 0.000000 0.795272 0.750000
O O4 0.175974 0.796512 0.061706
O O5 0.202799 0.380855 0.663823
O O6 0.145062 0.443051 0.889581
O O7 0.206253 0.390070 0.165390
O O8 0.001444 0.387702 0.000195
O O9 0.132778 0.329968 0.363351
O O10 0.795394 0.495750 0.331769
O O11 0.000000 0.500000 0.500000
#
# Coordination Sequence:
#
# PCOD9254080 Si02
#       5
#     8   8   8   8   8
#     4  10  21  37  53  70  95 118 157 201 242 307
#     4  10  19  28  42  68  90 131 166 189 235 271
#     4  10  18  30  43  63  93 116 157 203 225 278
#     4  10  16  25  39  56  87 125 169 194 208 263
#     4  10  21  35  51  75  90 122 160 194 254 288
#
# _framework density 18.754572
#
# number of rings (size 3 to 8) (size 9 to 14) (size 15 to 20)
#    0.000    2.000    0.000    7.800    2.800    0.000 
#    7.200    0.000    0.000    0.000    0.000    0.000 
#    0.000    0.000    0.000    0.000    0.000  852.000 
#
# Total GULP energy -111413.413186 kJ/mol
# GULP energy per Si atom -5570.670659 kJ/mol
# Density = 1.871189 g / cm^3
# Si number density = 18.754572 Si / 1000 Ang^3
#
#
#
# Elastic Constant Matrix: (Units=GPa)
#
#
# Indices 1 2 3 4 5 6 
#
# 1 22.9818 -5.5815 1.5725 0.0000 10.6346 0.0000
# 2 -5.5815 121.1063 42.2241 0.0000 -4.4216 0.0000
# 3 1.5725 42.2241 154.1362 0.0000 33.6377 0.0000
# 4 0.0000 0.0000 0.0000 35.5242 0.0000 0.2444
# 5 10.6346 -4.4216 33.6377 0.0000 18.9799 0.0000
# 6 0.0000 0.0000 0.0000 0.2444 0.0000 3.5417
#
#
#
# Elastic Compliance Matrix: (Units=1/GPa)
#
#
# Indices 1 2 3 4 5 6 
#
# 1 0.074210 -0.004795 0.016102 0.000000 -0.071235 0.000000
# 2 -0.004795 0.010998 -0.006701 0.000000 0.017125 0.000000
# 3 0.016102 -0.006701 0.017072 0.000000 -0.040839 0.000000
# 4 0.000000 0.000000 0.000000 0.028163 0.000000 -0.001944
# 5 -0.071235 0.017125 -0.040839 0.000000 0.168967 0.000000
# 6 0.000000 0.000000 0.000000 -0.001944 0.000000 0.282483
#
#
# Mechanical properties :
#
#
# Convention : Reuss Voigt Hill
#
# Bulk Modulus (GPa) = 8.96927 41.62828 25.29877
# Shear Modulus (GPa) = 8.19882 28.94311 18.57096
#
# Velocity S-wave (km/s) = 2.09311 3.93269 3.15017
# Velocity P-wave (km/s) = 3.26103 6.54721 5.17205
#
# Compressibility (1/GPa) = 0.11149183
#
# Stress axis : x y z
#
# Youngs Moduli (GPa) = 13.47536 90.92756 58.57700
#
# Poissons Ratio (x) = 0.43597 -0.94322
# Poissons Ratio (y) = 0.06461 0.39252
# Poissons Ratio (z) = -0.21698 0.60930
#
# Static dielectric constant tensor:
#      x y z
#    x 1.535510 0.000000 0.044180 
#    y 0.000000 1.645880 0.000000 
#    z 0.044180 0.000000 1.762810 
# 
# From -- ./inp_files/5591.got.cif
#   From: 2010.05.17/outbox.cif.g08.bks.cpg/sg15_3_cif.got.tgz:5591.got - 2010.06.03 18:47:42.
