data_PCOD9254602
_publ_section_title
;
Structure prediction by ZEFSAII (Michael W. Deem and Ramdas Pophale) SiO2 
 PCOD9254602
Probable space group: C 2/C
;
_chemical_formula_sum "Si O2"
_cell_formula_units_Z 60
_cell_length_a 17.643408
_cell_length_b 13.169303
_cell_length_c 16.212872
_cell_angle_alpha 90.000000
_cell_angle_beta 66.941423
_cell_angle_gamma 90.000000
_cell_volume 3466.111798
_symmetry_space_group_name_H-M "C 2/C"
_symmetry_group_IT_number 15
_symmetry_cell_setting 'monoclinic'
loop_
_space_group_symop_operation_xyz
x,y,z
-x,y,1/2-z
-x,-y,-z
x,-y,1/2+z
1/2+x,1/2+y,z
1/2-x,1/2+y,1/2-z
1/2-x,1/2-y,-z
1/2+x,1/2-y,1/2+z
loop_
_atom_site_type_symbol
_atom_site_label
_atom_site_fract_x
_atom_site_fract_y
_atom_site_fract_z
Si Si1 0.587779 0.904552 0.258109
Si Si2 0.343517 0.811178 0.546220
Si Si3 0.244571 0.122777 0.411209
Si Si4 0.359204 0.131682 0.225713
Si Si5 0.758940 0.617260 0.920113
Si Si6 0.112201 0.252134 0.557706
Si Si7 0.480349 0.883504 0.036740
Si Si8 0.000000 0.234510 0.750000
O O1 0.500000 0.890633 0.250000
O O2 0.662978 0.858584 0.173080
O O3 0.578109 0.876099 0.358443
O O4 0.609345 0.023727 0.254601
O O5 0.345522 0.863809 0.634480
O O6 0.314245 0.695265 0.569156
O O7 0.284468 0.861812 0.503815
O O8 0.435091 0.828813 0.474189
O O9 0.272321 0.152487 0.307325
O O10 0.162995 0.174588 0.480039
O O11 0.321007 0.170666 0.430420
O O12 0.239199 0.001456 0.419756
O O13 0.431466 0.205544 0.225594
O O14 0.055922 0.323116 0.524977
O O15 0.059346 0.194198 0.651028
O O16 0.500000 0.000000 0.000000
#
# Coordination Sequence:
#
# PCOD9254602 Si02
#       8
#     8   8   8   8   8   8   8   4
#     4  11  20  33  56  85 108 140 180 232 282 327
#     4  11  21  36  55  81 112 153 181 227 284 332
#     4   9  21  38  53  81 116 147 181 228 284 331
#     4  10  19  32  55  82 111 137 179 232 282 331
#     4  10  23  38  54  77 121 153 181 224 281 334
#     4  10  20  34  58  81 109 146 182 239 274 331
#     4  12  21  33  57  86 107 138 190 236 280 325
#     4  10  16  32  54  80 108 132 180 232 284 310
#
# _framework density 17.310462999999999
#
# number of rings (size 3 to 8) (size 9 to 14) (size 15 to 20)
#    0.000    1.600    4.667    0.800    3.733    0.000 
#    0.000    0.667    0.000    3.200    0.000    0.000 
#    0.000    0.000    0.000    0.000    0.000    0.000 
#
# Total GULP energy -167027.864486 kJ/mol
# GULP energy per Si atom -5567.595483 kJ/mol
# Density = 1.727106 g / cm^3
# Si number density = 17.310463 Si / 1000 Ang^3
#
#
#
# Elastic Constant Matrix: (Units=GPa)
#
#
# Indices 1 2 3 4 5 6 
#
# 1 45.5878 18.4347 11.1318 0.0000 -10.6184 0.0000
# 2 18.4347 57.1797 16.9319 0.0000 -18.4552 0.0000
# 3 11.1318 16.9319 117.0203 0.0000 -15.3647 0.0000
# 4 0.0000 0.0000 0.0000 22.6648 0.0000 -6.1334
# 5 -10.6184 -18.4552 -15.3647 0.0000 34.6807 0.0000
# 6 0.0000 0.0000 0.0000 -6.1334 0.0000 15.6420
#
#
#
# Elastic Compliance Matrix: (Units=1/GPa)
#
#
# Indices 1 2 3 4 5 6 
#
# 1 0.025817 -0.006791 -0.000966 0.000000 0.003863 0.000000
# 2 -0.006791 0.023216 -0.001448 0.000000 0.009634 0.000000
# 3 -0.000966 -0.001448 0.009245 0.000000 0.003029 0.000000
# 4 0.000000 0.000000 0.000000 0.049359 0.000000 0.019354
# 5 0.003863 0.009634 0.003029 0.000000 0.036486 0.000000
# 6 0.000000 0.000000 0.000000 0.019354 0.000000 0.071519
#
#
# Mechanical properties :
#
#
# Convention : Reuss Voigt Hill
#
# Bulk Modulus (GPa) = 25.08267 34.75384 29.91826
# Shear Modulus (GPa) = 20.21496 26.15014 23.18255
#
# Velocity S-wave (km/s) = 3.42100 3.89093 3.66351
# Velocity P-wave (km/s) = 5.48869 6.34871 5.93430
#
# Compressibility (1/GPa) = 0.03986816
#
# Stress axis : x y z
#
# Youngs Moduli (GPa) = 38.73364 43.07335 108.16976
#
# Poissons Ratio (x) = 0.29249 0.10451
# Poissons Ratio (y) = 0.26302 0.15667
# Poissons Ratio (z) = 0.03742 0.06238
#
# Static dielectric constant tensor:
#      x y z
#    x 1.585320 0.000000 -0.018320 
#    y 0.000000 1.568830 0.000000 
#    z -0.018320 0.000000 1.645490 
# 
# From -- ./inp_files/153918.got.cif
#   From: 2010.05.17/outbox.cif.g08.bks.cpg/sg15_77_cif.got.tgz:153918.got - 2010.06.03 18:47:42.
