data_PCOD9254597
_publ_section_title
;
Structure prediction by ZEFSAII (Michael W. Deem and Ramdas Pophale) SiO2 
 PCOD9254597
Probable space group: C 2/C
;
_chemical_formula_sum "Si O2"
_cell_formula_units_Z 56
_cell_length_a 15.457185
_cell_length_b 9.622854
_cell_length_c 15.813968
_cell_angle_alpha 90.000000
_cell_angle_beta 80.658439
_cell_angle_gamma 90.000000
_cell_volume 2321.010543
_symmetry_space_group_name_H-M "C 2/C"
_symmetry_group_IT_number 15
_symmetry_cell_setting 'monoclinic'
loop_
_space_group_symop_operation_xyz
x,y,z
-x,y,1/2-z
-x,-y,-z
x,-y,1/2+z
1/2+x,1/2+y,z
1/2-x,1/2+y,1/2-z
1/2-x,1/2-y,-z
1/2+x,1/2-y,1/2+z
loop_
_atom_site_type_symbol
_atom_site_label
_atom_site_fract_x
_atom_site_fract_y
_atom_site_fract_z
Si Si1 0.938368 0.475403 0.195334
Si Si2 0.863900 0.973044 0.973198
Si Si3 0.505780 0.311285 0.002902
Si Si4 0.712947 0.983435 0.394093
Si Si5 0.093913 0.548172 0.072983
Si Si6 0.076126 0.835577 0.798374
Si Si7 0.762377 0.147099 0.131296
O O1 0.850370 0.534757 0.170128
O O2 0.912636 0.323978 0.235026
O O3 0.000000 0.559280 0.250000
O O4 0.014947 0.449529 0.113432
O O5 0.807506 0.071473 0.043681
O O6 0.950362 0.066091 0.947510
O O7 0.805649 0.947082 0.900578
O O8 0.901990 0.837630 0.012801
O O9 0.541278 0.322781 0.900823
O O10 0.541689 0.178535 0.044137
O O11 0.652713 0.004541 0.486593
O O12 0.730486 0.815666 0.380226
O O13 0.162669 0.594670 0.135553
O O14 0.174441 0.893826 0.799890
O O15 0.000000 0.897652 0.750000
#
# Coordination Sequence:
#
# PCOD9254597 Si02
#       7
#     8   8   8   8   8   8   8
#     4  10  21  33  50  71 102 131 163 205 249 295
#     4   9  16  28  49  79  99 117 161 213 242 280
#     4  10  17  28  52  78  97 127 163 207 250 281
#     4  10  16  32  54  76  93 129 169 208 234 288
#     4  11  17  31  55  74  92 128 174 199 241 298
#     4   9  18  33  50  71 101 128 167 210 244 289
#     4   9  16  31  54  77  92 127 174 203 233 287
#
# _framework density 24.127421999999999
#
# number of rings (size 3 to 8) (size 9 to 14) (size 15 to 20)
#    0.000    2.286    5.714    1.286    0.000    0.000 
#    2.571    0.714    0.000    7.714    0.000    0.000 
#    0.000    0.000    0.000    0.000    0.000    0.000 
#
# Total GULP energy -155901.243510 kJ/mol
# GULP energy per Si atom -5567.901554 kJ/mol
# Density = 2.407251 g / cm^3
# Si number density = 24.127422 Si / 1000 Ang^3
#
#
#
# Elastic Constant Matrix: (Units=GPa)
#
#
# Indices 1 2 3 4 5 6 
#
# 1 207.3528 30.3429 57.4496 0.0000 77.8871 0.0000
# 2 30.3429 39.8244 7.3375 0.0000 10.2084 0.0000
# 3 57.4496 7.3375 78.0917 0.0000 51.5376 0.0000
# 4 0.0000 0.0000 0.0000 9.1465 0.0000 8.3359
# 5 77.8871 10.2084 51.5376 0.0000 65.5677 0.0000
# 6 0.0000 0.0000 0.0000 8.3359 0.0000 29.2019
#
#
#
# Elastic Compliance Matrix: (Units=1/GPa)
#
#
# Indices 1 2 3 4 5 6 
#
# 1 0.009448 -0.004486 0.000866 0.000000 -0.011206 0.000000
# 2 -0.004486 0.028292 0.000067 0.000000 0.000872 0.000000
# 3 0.000866 0.000067 0.026697 0.000000 -0.022023 0.000000
# 4 0.000000 0.000000 0.000000 0.147777 0.000000 -0.042184
# 5 -0.011206 0.000872 -0.022023 0.000000 0.045738 0.000000
# 6 0.000000 0.000000 0.000000 -0.042184 0.000000 0.046286
#
#
# Mechanical properties :
#
#
# Convention : Reuss Voigt Hill
#
# Bulk Modulus (GPa) = 17.44251 57.28100 37.36176
# Shear Modulus (GPa) = 15.13063 36.12581 25.62822
#
# Velocity S-wave (km/s) = 2.50694 3.87368 3.26268
# Velocity P-wave (km/s) = 3.95281 6.61814 5.45089
#
# Compressibility (1/GPa) = 0.05733118
#
# Stress axis : x y z
#
# Youngs Moduli (GPa) = 105.83693 35.34506 37.45805
#
# Poissons Ratio (x) = 0.15856 -0.03245
# Poissons Ratio (y) = 0.47479 -0.00250
# Poissons Ratio (z) = -0.09168 -0.00236
#
# Static dielectric constant tensor:
#      x y z
#    x 2.032240 0.000000 0.007260 
#    y 0.000000 1.939770 0.000000 
#    z 0.007260 0.000000 2.085360 
# 
# From -- ./inp_files/204808.got.cif
#   From: 2010.05.17/outbox.cif.g08.bks.cpg/sg15_103_cif.got.tgz:204808.got - 2010.06.03 18:47:42.
