data_PCOD9254134
_publ_section_title
;
Structure prediction by ZEFSAII (Michael W. Deem and Ramdas Pophale) SiO2 
 PCOD9254134
Probable space group: C 2/C
;
_chemical_formula_sum "Si O2"
_cell_formula_units_Z 64
_cell_length_a 9.579552
_cell_length_b 13.881398
_cell_length_c 20.359466
_cell_angle_alpha 90.000000
_cell_angle_beta 82.856807
_cell_angle_gamma 90.000000
_cell_volume 2686.339220
_symmetry_space_group_name_H-M "C 2/C"
_symmetry_group_IT_number 15
_symmetry_cell_setting 'monoclinic'
loop_
_space_group_symop_operation_xyz
x,y,z
-x,y,1/2-z
-x,-y,-z
x,-y,1/2+z
1/2+x,1/2+y,z
1/2-x,1/2+y,1/2-z
1/2-x,1/2-y,-z
1/2+x,1/2-y,1/2+z
loop_
_atom_site_type_symbol
_atom_site_label
_atom_site_fract_x
_atom_site_fract_y
_atom_site_fract_z
Si Si1 0.164413 0.246094 0.438572
Si Si2 0.798385 0.022269 0.063809
Si Si3 0.814614 0.241262 0.680195
Si Si4 0.107810 0.012623 0.080563
Si Si5 0.621772 0.260327 0.176394
Si Si6 0.844085 0.058842 0.281917
Si Si7 0.874504 0.528174 0.306765
Si Si8 0.356829 0.743335 0.433906
O O1 0.250000 0.250000 0.500000
O O2 0.170665 0.133093 0.420478
O O3 0.254190 0.293837 0.376892
O O4 0.006877 0.283598 0.447438
O O5 0.664467 0.994773 0.116586
O O6 0.950546 0.975063 0.072054
O O7 0.789155 0.016640 0.985241
O O8 0.836968 0.203651 0.753338
O O9 0.758552 0.351174 0.695032
O O10 0.708039 0.211469 0.628789
O O11 0.974121 0.223323 0.648032
O O12 0.140643 0.993147 0.154690
O O13 0.116971 0.129481 0.079171
O O14 0.608185 0.143817 0.187017
O O15 0.769084 0.009608 0.224795
O O16 0.000000 0.091907 0.250000
O O17 0.000000 0.493997 0.250000
O O18 0.250000 0.750000 0.500000
#
# Coordination Sequence:
#
# PCOD9254134 Si02
#       8
#     8   8   8   8   8   8   8   8
#     4  10  20  32  52  73 102 138 167 205 253 305
#     4   9  18  32  52  76 102 132 170 213 253 298
#     4   9  17  27  47  72 101 123 162 213 251 294
#     4   9  18  32  51  78 101 131 171 213 252 298
#     4   9  16  29  46  72  99 127 160 209 256 291
#     4  10  16  26  47  75  99 128 167 212 254 297
#     4  10  16  28  47  73 102 131 162 210 261 297
#     4  10  20  32  51  75 102 135 167 206 253 305
#
# _framework density 23.824244
#
# number of rings (size 3 to 8) (size 9 to 14) (size 15 to 20)
#    0.000    2.500    3.750    0.750    5.250    0.000 
#    0.000    0.625    0.000    1.500    3.250    0.000 
#    0.000    0.000    0.000    0.000    0.000    0.000 
#
# Total GULP energy -178228.897055 kJ/mol
# GULP energy per Si atom -5569.653033 kJ/mol
# Density = 2.377002 g / cm^3
# Si number density = 23.824244 Si / 1000 Ang^3
#
#
#
# Elastic Constant Matrix: (Units=GPa)
#
#
# Indices 1 2 3 4 5 6 
#
# 1 176.7709 -0.8996 75.3742 0.0000 -5.7168 0.0000
# 2 -0.8996 64.0219 -9.6129 0.0000 -2.1611 0.0000
# 3 75.3742 -9.6129 139.4066 0.0000 -8.4775 0.0000
# 4 0.0000 0.0000 0.0000 18.1110 0.0000 -1.0557
# 5 -5.7168 -2.1611 -8.4775 0.0000 49.2269 0.0000
# 6 0.0000 0.0000 0.0000 -1.0557 0.0000 3.4466
#
#
#
# Elastic Compliance Matrix: (Units=1/GPa)
#
#
# Indices 1 2 3 4 5 6 
#
# 1 0.007369 -0.000494 -0.004009 0.000000 0.000144 0.000000
# 2 -0.000494 0.015855 0.001414 0.000000 0.000882 0.000000
# 3 -0.004009 0.001414 0.009514 0.000000 0.001235 0.000000
# 4 0.000000 0.000000 0.000000 0.056219 0.000000 0.017220
# 5 0.000144 0.000882 0.001235 0.000000 0.020582 0.000000
# 6 0.000000 0.000000 0.000000 0.017220 0.000000 0.295413
#
#
# Mechanical properties :
#
#
# Convention : Reuss Voigt Hill
#
# Bulk Modulus (GPa) = 37.65244 56.65810 47.15527
# Shear Modulus (GPa) = 11.90524 35.17942 23.54233
#
# Velocity S-wave (km/s) = 2.23785 3.84685 3.14692
# Velocity P-wave (km/s) = 4.74509 6.60033 5.74805
#
# Compressibility (1/GPa) = 0.02655870
#
# Stress axis : x y z
#
# Youngs Moduli (GPa) = 135.70774 63.07249 105.11198
#
# Poissons Ratio (x) = 0.03113 0.42144
# Poissons Ratio (y) = 0.06699 -0.14861
# Poissons Ratio (z) = 0.54411 -0.08917
#
# Static dielectric constant tensor:
#      x y z
#    x 1.937740 0.000000 -0.031070 
#    y 0.000000 2.001370 0.000000 
#    z -0.031070 0.000000 1.972930 
# 
# From -- ./inp_files/234170.got.cif
#   From: 2010.05.17/outbox.cif.g08.bks.cpg/sg15_118_cif.got.tgz:234170.got - 2010.06.03 18:47:42.
