data_PCOD9254851
_publ_section_title
;
Structure prediction by ZEFSAII (Michael W. Deem and Ramdas Pophale) SiO2 
 PCOD9254851
Probable space group: C 2/C
;
_chemical_formula_sum "Si O2"
_cell_formula_units_Z 44
_cell_length_a 16.651834
_cell_length_b 8.904296
_cell_length_c 11.636984
_cell_angle_alpha 90.000000
_cell_angle_beta 105.273871
_cell_angle_gamma 90.000000
_cell_volume 1664.501984
_symmetry_space_group_name_H-M "C 2/C"
_symmetry_group_IT_number 15
_symmetry_cell_setting 'monoclinic'
loop_
_space_group_symop_operation_xyz
x,y,z
-x,y,1/2-z
-x,-y,-z
x,-y,1/2+z
1/2+x,1/2+y,z
1/2-x,1/2+y,1/2-z
1/2-x,1/2-y,-z
1/2+x,1/2-y,1/2+z
loop_
_atom_site_type_symbol
_atom_site_label
_atom_site_fract_x
_atom_site_fract_y
_atom_site_fract_z
Si Si1 0.899355 0.702306 0.074627
Si Si2 0.418179 0.745150 0.948804
Si Si3 0.148960 0.438019 0.161972
Si Si4 0.817248 0.254256 0.126383
Si Si5 0.000000 0.546541 0.750000
Si Si6 0.098343 0.029336 0.752823
O O1 0.933366 0.562317 0.161249
O O2 0.876234 0.835451 0.151115
O O3 0.985117 0.746739 0.044727
O O4 0.836587 0.645000 0.953491
O O5 0.395288 0.592222 0.874251
O O6 0.369306 0.887756 0.873368
O O7 0.399008 0.759496 0.075534
O O8 0.204237 0.382382 0.288944
O O9 0.060076 0.379591 0.180136
O O10 0.836322 0.103396 0.203284
O O11 0.750000 0.250000 0.000000
O O12 0.000000 0.997721 0.750000
#
# Coordination Sequence:
#
# PCOD9254851 Si02
#       6
#     8   8   8   8   4   8
#     4  10  18  36  68 104 129 163 212 275 341 387
#     4  10  22  42  67  96 135 166 219 278 324 401
#     4  11  21  37  67  95 129 171 216 267 330 388
#     4  12  29  44  61  94 136 182 230 265 328 403
#     4  10  16  36  62 108 130 154 212 274 330 400
#     4  10  23  43  69 101 134 169 219 281 348 388
#
# _framework density 26.434332000000001
#
# number of rings (size 3 to 8) (size 9 to 14) (size 15 to 20)
#    0.000    1.455    4.545    4.364    6.364    2.909 
#    0.000    0.909    0.000    0.000    0.000    0.000 
#    0.000    0.000    0.000    0.000    0.000    0.000 
#
# Total GULP energy -122950.152450 kJ/mol
# GULP energy per Si atom -5588.643293 kJ/mol
# Density = 2.637417 g / cm^3
# Si number density = 26.434332 Si / 1000 Ang^3
#
#
#
# Elastic Constant Matrix: (Units=GPa)
#
#
# Indices 1 2 3 4 5 6 
#
# 1 49.8833 -2.6078 -14.5255 0.0000 10.4003 0.0000
# 2 -2.6078 82.8292 40.3959 0.0000 4.4074 0.0000
# 3 -14.5255 40.3959 143.9087 0.0000 -1.9945 0.0000
# 4 0.0000 0.0000 0.0000 48.4934 0.0000 -2.9766
# 5 10.4003 4.4074 -1.9945 0.0000 43.9034 0.0000
# 6 0.0000 0.0000 0.0000 -2.9766 0.0000 2.7769
#
#
#
# Elastic Compliance Matrix: (Units=1/GPa)
#
#
# Indices 1 2 3 4 5 6 
#
# 1 0.021718 -0.000096 0.002149 0.000000 -0.005037 0.000000
# 2 -0.000096 0.014099 -0.003989 0.000000 -0.001574 0.000000
# 3 0.002149 -0.003989 0.008289 0.000000 0.000268 0.000000
# 4 0.000000 0.000000 0.000000 0.022074 0.000000 0.023661
# 5 -0.005037 -0.001574 0.000268 0.000000 0.024141 0.000000
# 6 0.000000 0.000000 0.000000 0.023661 0.000000 0.385478
#
#
# Mechanical properties :
#
#
# Convention : Reuss Voigt Hill
#
# Bulk Modulus (GPa) = 24.85474 35.90515 30.37994
# Shear Modulus (GPa) = 10.14029 35.92531 23.03280
#
# Velocity S-wave (km/s) = 1.96070 3.69052 2.95502
# Velocity P-wave (km/s) = 3.81427 5.63668 4.81253
#
# Compressibility (1/GPa) = 0.04023378
#
# Stress axis : x y z
#
# Youngs Moduli (GPa) = 46.04504 70.92532 120.63701
#
# Poissons Ratio (x) = 0.00684 -0.25929
# Poissons Ratio (y) = 0.00444 0.48126
# Poissons Ratio (z) = -0.09897 0.28294
#
# Static dielectric constant tensor:
#      x y z
#    x 2.332150 0.000000 0.108520 
#    y 0.000000 2.113540 0.000000 
#    z 0.108520 0.000000 2.116390 
# 
# From -- ./inp_files/116521.got.cif
#   From: 2010.05.17/outbox.cif.g08.bks.cpg/sg15_59_cif.got.tgz:116521.got - 2010.06.03 18:47:42.
