data_PCOD9254887
_publ_section_title
;
Structure prediction by ZEFSAII (Michael W. Deem and Ramdas Pophale) SiO2 
 PCOD9254887
Probable space group: C 2/C
;
_chemical_formula_sum "Si O2"
_cell_formula_units_Z 48
_cell_length_a 11.856992
_cell_length_b 15.352882
_cell_length_c 11.949191
_cell_angle_alpha 90.000000
_cell_angle_beta 99.679585
_cell_angle_gamma 90.000000
_cell_volume 2144.251138
_symmetry_space_group_name_H-M "C 2/C"
_symmetry_group_IT_number 15
_symmetry_cell_setting 'monoclinic'
loop_
_space_group_symop_operation_xyz
x,y,z
-x,y,1/2-z
-x,-y,-z
x,-y,1/2+z
1/2+x,1/2+y,z
1/2-x,1/2+y,1/2-z
1/2-x,1/2-y,-z
1/2+x,1/2-y,1/2+z
loop_
_atom_site_type_symbol
_atom_site_label
_atom_site_fract_x
_atom_site_fract_y
_atom_site_fract_z
Si Si1 0.618019 0.517554 0.087132
Si Si2 0.722109 0.285938 0.870207
Si Si3 0.681251 0.037607 0.047542
Si Si4 0.976931 0.199448 0.411689
Si Si5 0.406541 0.662248 0.826800
Si Si6 0.536394 0.891238 0.127652
O O1 0.604972 0.617206 0.123830
O O2 0.622089 0.440762 0.179582
O O3 0.500000 0.500000 0.000000
O O4 0.723248 0.498918 0.021455
O O5 0.768723 0.383360 0.872397
O O6 0.585935 0.291956 0.847067
O O7 0.791864 0.220208 0.803432
O O8 0.750000 0.250000 0.000000
O O9 0.632072 0.961449 0.115177
O O10 0.576318 0.080138 0.960743
O O11 0.924320 0.295281 0.402491
O O12 0.033636 0.182492 0.543535
O O13 0.500000 0.683802 0.750000
O O14 0.500000 0.892569 0.250000
#
# Coordination Sequence:
#
# PCOD9254887 Si02
#       6
#     8   8   8   8   8   8
#     4  10  19  38  66  92 126 168 201 260 322 359
#     4  10  16  37  66  86 119 173 199 245 315 371
#     4  11  21  43  67  88 129 166 208 258 308 379
#     4  10  20  41  63  89 132 161 198 262 322 362
#     4  10  19  33  62  96 121 162 219 247 289 382
#     4  11  25  43  64  91 126 168 213 255 313 372
#
# _framework density 22.385438000000001
#
# number of rings (size 3 to 8) (size 9 to 14) (size 15 to 20)
#    0.000    1.667    8.333    0.000    0.000    2.000 
#   12.000    1.667    0.000    0.000    0.000    0.000 
#    0.000    0.000    0.000    0.000    0.000    0.000 
#
# Total GULP energy -134239.017519 kJ/mol
# GULP energy per Si atom -5593.292397 kJ/mol
# Density = 2.233449 g / cm^3
# Si number density = 22.385438 Si / 1000 Ang^3
#
#
#
# Elastic Constant Matrix: (Units=GPa)
#
#
# Indices 1 2 3 4 5 6 
#
# 1 118.0378 70.0866 36.4085 0.0000 -18.4576 0.0000
# 2 70.0866 232.2012 35.7663 0.0000 -14.7126 0.0000
# 3 36.4085 35.7663 62.7643 0.0000 -5.6978 0.0000
# 4 0.0000 0.0000 0.0000 13.7619 0.0000 -13.1762
# 5 -18.4576 -14.7126 -5.6978 0.0000 41.3262 0.0000
# 6 0.0000 0.0000 0.0000 -13.1762 0.0000 42.3369
#
#
#
# Elastic Compliance Matrix: (Units=1/GPa)
#
#
# Indices 1 2 3 4 5 6 
#
# 1 0.012263 -0.002650 -0.005257 0.000000 0.003809 0.000000
# 2 -0.002650 0.005367 -0.001473 0.000000 0.000524 0.000000
# 3 -0.005257 -0.001473 0.019809 0.000000 -0.000141 0.000000
# 4 0.000000 0.000000 0.000000 0.103507 0.000000 0.032214
# 5 0.003809 0.000524 -0.000141 0.000000 0.026066 0.000000
# 6 0.000000 0.000000 0.000000 0.032214 0.000000 0.033646
#
#
# Mechanical properties :
#
#
# Convention : Reuss Voigt Hill
#
# Bulk Modulus (GPa) = 53.54299 77.50290 65.52295
# Shear Modulus (GPa) = 22.15877 37.53446 29.84662
#
# Velocity S-wave (km/s) = 3.14964 4.09924 3.65541
# Velocity P-wave (km/s) = 6.09898 7.55660 6.86658
#
# Compressibility (1/GPa) = 0.01867658
#
# Stress axis : x y z
#
# Youngs Moduli (GPa) = 81.54872 186.33576 50.48190
#
# Poissons Ratio (x) = 0.49382 0.26540
# Poissons Ratio (y) = 0.21612 0.07438
# Poissons Ratio (z) = 0.42873 0.27453
#
# Static dielectric constant tensor:
#      x y z
#    x 1.800010 0.000000 0.042470 
#    y 0.000000 1.838310 0.000000 
#    z 0.042470 0.000000 1.832810 
# 
# From -- ./inp_files/143641.got.cif
#   From: 2010.05.17/outbox.cif.g08.bks.cpg/sg15_72_cif.got.tgz:143641.got - 2010.06.03 18:47:42.
