data_PCOD9254928
_publ_section_title
;
Structure prediction by ZEFSAII (Michael W. Deem and Ramdas Pophale) SiO2 
 PCOD9254928
Probable space group: C 2/C
;
_chemical_formula_sum "Si O2"
_cell_formula_units_Z 48
_cell_length_a 25.029890
_cell_length_b 16.063417
_cell_length_c 24.703085
_cell_angle_alpha 90.000000
_cell_angle_beta 160.702357
_cell_angle_gamma 90.000000
_cell_volume 3282.369161
_symmetry_space_group_name_H-M "C 2/C"
_symmetry_group_IT_number 15
_symmetry_cell_setting 'monoclinic'
loop_
_space_group_symop_operation_xyz
x,y,z
-x,y,1/2-z
-x,-y,-z
x,-y,1/2+z
1/2+x,1/2+y,z
1/2-x,1/2+y,1/2-z
1/2-x,1/2-y,-z
1/2+x,1/2-y,1/2+z
loop_
_atom_site_type_symbol
_atom_site_label
_atom_site_fract_x
_atom_site_fract_y
_atom_site_fract_z
Si Si1 0.064378 0.037146 0.983299
Si Si2 0.621600 0.217870 0.610799
Si Si3 0.473881 0.376735 0.166723
Si Si4 0.641687 0.155256 0.218628
Si Si5 0.095572 0.871761 0.070516
Si Si6 0.881376 0.297358 0.686193
O O1 0.021664 0.066309 0.882015
O O2 0.942869 0.079555 0.910027
O O3 0.238596 0.076802 0.165937
O O4 0.069301 0.939092 0.998760
O O5 0.496722 0.160899 0.458450
O O6 0.742969 0.264970 0.684889
O O7 0.726692 0.165590 0.753120
O O8 0.524745 0.293339 0.546069
O O9 0.500000 0.419385 0.250000
O O10 0.603856 0.301813 0.290530
O O11 0.299380 0.329865 0.997820
O O12 0.568893 0.164184 0.208712
O O13 0.000000 0.318305 0.750000
#
# Coordination Sequence:
#
# PCOD9254928 Si02
#       6
#     8   8   8   8   8   8
#     4   9  18  29  41  61  87 109 134 168 206 238
#     4   9  16  27  44  59  79 109 140 165 200 243
#     4  10  18  27  40  58  82 112 140 165 193 231
#     4   9  16  26  39  59  85 113 136 166 196 230
#     4   9  17  29  44  62  83 107 135 169 204 245
#     4  10  17  24  37  57  82 112 144 161 179 227
#
# _framework density 14.623583
#
# number of rings (size 3 to 8) (size 9 to 14) (size 15 to 20)
#    0.000    2.667    0.000    6.000    0.000    2.000 
#    0.000    0.000    0.000    0.000    0.000    1.167 
#    0.000    0.000    0.000    0.000    0.000    0.000 
#
# Total GULP energy -133638.121109 kJ/mol
# GULP energy per Si atom -5568.255046 kJ/mol
# Density = 1.459030 g / cm^3
# Si number density = 14.623583 Si / 1000 Ang^3
#
#
#
# Elastic Constant Matrix: (Units=GPa)
#
#
# Indices 1 2 3 4 5 6 
#
# 1 69.2485 32.2181 24.2113 -0.0003 -13.6568 -0.0009
# 2 32.2181 60.3453 28.2931 -0.0041 -15.4006 -0.0033
# 3 24.2113 28.2931 57.5739 -0.0038 -14.3558 -0.0019
# 4 -0.0003 -0.0041 -0.0038 9.4642 0.0010 -5.2419
# 5 -13.6568 -15.4006 -14.3558 0.0010 14.5373 0.0003
# 6 -0.0009 -0.0033 -0.0019 -5.2419 0.0003 18.0363
#
#
#
# Elastic Compliance Matrix: (Units=1/GPa)
#
#
# Indices 1 2 3 4 5 6 
#
# 1 0.020614 -0.007465 -0.002844 -0.000006 0.008649 -0.000003
# 2 -0.007465 0.027651 -0.006492 0.000011 0.015869 0.000007
# 3 -0.002844 -0.006492 0.025703 0.000008 0.015833 0.000003
# 4 -0.000006 0.000011 0.000008 0.125933 0.000004 0.036600
# 5 0.008649 0.015869 0.015833 0.000004 0.109360 0.000004
# 6 -0.000003 0.000007 0.000003 0.036600 0.000004 0.066081
#
#
# Mechanical properties :
#
#
# Convention : Reuss Voigt Hill
#
# Bulk Modulus (GPa) = 24.77349 39.62366 32.19857
# Shear Modulus (GPa) = 11.83718 15.23723 13.53721
#
# Velocity S-wave (km/s) = 2.84818 3.23145 3.04585
# Velocity P-wave (km/s) = 5.27198 6.40918 5.86819
#
# Compressibility (1/GPa) = 0.04036572
#
# Stress axis : x y z
#
# Youngs Moduli (GPa) = 48.51123 36.16568 38.90597
#
# Poissons Ratio (x) = 0.26998 0.11063
# Poissons Ratio (y) = 0.36214 0.25258
# Poissons Ratio (z) = 0.13795 0.23479
#
# Static dielectric constant tensor:
#      x y z
#    x 1.500110 0.000000 0.010210 
#    y 0.000000 1.471040 0.000000 
#    z 0.010210 0.000000 1.511740 
# 
# From -- ./inp_files/61180.got.cif
#   From: 2010.05.17/outbox.cif.g08.bks.cpg/sg15_31_cif.got.tgz:61180.got - 2010.06.03 18:47:42.
