data_PCOD9254969
_publ_section_title
;
Structure prediction by ZEFSAII (Michael W. Deem and Ramdas Pophale) SiO2 
 PCOD9254969
Probable space group: C 2/C
;
_chemical_formula_sum "Si O2"
_cell_formula_units_Z 56
_cell_length_a 26.702084
_cell_length_b 6.841572
_cell_length_c 27.067563
_cell_angle_alpha 90.000000
_cell_angle_beta 152.250671
_cell_angle_gamma 90.000000
_cell_volume 2302.327305
_symmetry_space_group_name_H-M "C 2/C"
_symmetry_group_IT_number 15
_symmetry_cell_setting 'monoclinic'
loop_
_space_group_symop_operation_xyz
x,y,z
-x,y,1/2-z
-x,-y,-z
x,-y,1/2+z
1/2+x,1/2+y,z
1/2-x,1/2+y,1/2-z
1/2-x,1/2-y,-z
1/2+x,1/2-y,1/2+z
loop_
_atom_site_type_symbol
_atom_site_label
_atom_site_fract_x
_atom_site_fract_y
_atom_site_fract_z
Si Si1 0.577852 0.439744 0.738039
Si Si2 0.379644 0.960269 0.649771
Si Si3 0.270228 0.620589 0.215629
Si Si4 0.346882 0.691085 0.390510
Si Si5 0.148092 0.624569 0.265428
Si Si6 0.857549 0.004114 0.596082
Si Si7 0.564362 0.830767 0.584442
O O1 0.648294 0.328957 0.757303
O O2 0.602694 0.660101 0.740233
O O3 0.449384 0.428773 0.637768
O O4 0.628278 0.416486 0.836621
O O5 0.500000 0.042516 0.750000
O O6 0.375097 0.979820 0.704468
O O7 0.264703 0.028990 0.528069
O O8 0.381202 0.736999 0.627733
O O9 0.334674 0.631065 0.323079
O O10 0.213912 0.406588 0.160436
O O11 0.161770 0.739743 0.135056
O O12 0.274723 0.592441 0.368567
O O13 0.470032 0.680994 0.512827
O O14 0.105464 0.588537 0.172753
O O15 0.500000 0.000000 0.500000
#
# Coordination Sequence:
#
# PCOD9254969 Si02
#       7
#     8   8   8   8   8   8   8
#     4   9  16  31  47  73 102 133 171 212 263 314
#     4  10  17  26  42  70 105 132 168 207 268 326
#     4   9  18  33  52  76 105 136 180 214 259 313
#     4   9  18  32  50  73 106 139 176 219 256 311
#     4   9  17  27  44  69 101 139 165 207 263 311
#     4   9  17  28  45  72 101 129 171 213 265 321
#     4   9  18  31  49  69 100 141 179 210 256 311
#
# _framework density 24.323212999999999
#
# number of rings (size 3 to 8) (size 9 to 14) (size 15 to 20)
#    0.000    2.857    2.857    0.000    2.000    3.429 
#    0.000    6.429    6.286    0.000    0.000    4.000 
#   38.571    0.000    0.000    0.000    0.000    0.000 
#
# Total GULP energy -155912.334417 kJ/mol
# GULP energy per Si atom -5568.297658 kJ/mol
# Density = 2.426785 g / cm^3
# Si number density = 24.323213 Si / 1000 Ang^3
#
#
#
# Elastic Constant Matrix: (Units=GPa)
#
#
# Indices 1 2 3 4 5 6 
#
# 1 265.0609 28.9418 100.8057 0.0002 38.2606 0.0001
# 2 28.9418 57.1638 16.3601 -0.0004 5.0517 0.0000
# 3 100.8057 16.3601 147.6953 -0.0002 46.8939 -0.0001
# 4 0.0002 -0.0004 -0.0002 24.0678 0.0000 -6.7088
# 5 38.2606 5.0517 46.8939 0.0000 38.7949 0.0000
# 6 0.0001 0.0000 -0.0001 -6.7088 0.0000 25.0759
#
#
#
# Elastic Compliance Matrix: (Units=1/GPa)
#
#
# Indices 1 2 3 4 5 6 
#
# 1 0.005294 -0.001704 -0.002982 0.000000 -0.001395 0.000000
# 2 -0.001704 0.018615 -0.001076 0.000000 0.000557 0.000000
# 3 -0.002982 -0.001076 0.012896 0.000000 -0.012508 0.000000
# 4 0.000000 0.000000 0.000000 0.044898 0.000000 0.012012
# 5 -0.001395 0.000557 -0.012508 0.000000 0.042199 0.000000
# 6 0.000000 0.000000 0.000000 0.012012 0.000000 0.043093
#
#
# Mechanical properties :
#
#
# Convention : Reuss Voigt Hill
#
# Bulk Modulus (GPa) = 39.55291 84.68168 62.11729
# Shear Modulus (GPa) = 26.74590 39.17523 32.96057
#
# Velocity S-wave (km/s) = 3.31963 4.01760 3.68517
# Velocity P-wave (km/s) = 5.56686 7.51080 6.61068
#
# Compressibility (1/GPa) = 0.02528259
#
# Stress axis : x y z
#
# Youngs Moduli (GPa) = 188.88971 53.72044 77.54216
#
# Poissons Ratio (x) = 0.09153 0.23120
# Poissons Ratio (y) = 0.32182 0.08343
# Poissons Ratio (z) = 0.56320 0.05780
#
# Static dielectric constant tensor:
#      x y z
#    x 1.931640 0.000000 0.098690 
#    y 0.000000 2.363570 0.000000 
#    z 0.098690 0.000000 1.940040 
# 
# From -- ./inp_files/281901.got.cif
#   From: 2010.05.17/outbox.cif.g08.bks.cpg/sg15_141_cif.got.tgz:281901.got - 2010.06.03 18:47:42.
