data_PCOD9254944
_publ_section_title
;
Structure prediction by ZEFSAII (Michael W. Deem and Ramdas Pophale) SiO2 
 PCOD9254944
Probable space group: C 2/C
;
_chemical_formula_sum "Si O2"
_cell_formula_units_Z 40
_cell_length_a 18.001911
_cell_length_b 24.939085
_cell_length_c 10.034256
_cell_angle_alpha 90.000000
_cell_angle_beta 19.941963
_cell_angle_gamma 90.000000
_cell_volume 1536.474753
_symmetry_space_group_name_H-M "C 2/C"
_symmetry_group_IT_number 15
_symmetry_cell_setting 'monoclinic'
loop_
_space_group_symop_operation_xyz
x,y,z
-x,y,1/2-z
-x,-y,-z
x,-y,1/2+z
1/2+x,1/2+y,z
1/2-x,1/2+y,1/2-z
1/2-x,1/2-y,-z
1/2+x,1/2-y,1/2+z
loop_
_atom_site_type_symbol
_atom_site_label
_atom_site_fract_x
_atom_site_fract_y
_atom_site_fract_z
Si Si1 0.602063 0.361072 0.343198
Si Si2 0.107251 0.320324 0.883719
Si Si3 0.703862 0.778615 0.303658
Si Si4 0.721740 0.417610 0.784835
Si Si5 0.140730 0.970602 0.379766
O O1 0.622442 0.319929 0.428641
O O2 0.373617 0.386849 0.683829
O O3 0.731448 0.415302 0.167618
O O4 0.706778 0.328280 0.043986
O O5 0.201197 0.280463 0.836427
O O6 0.097797 0.380333 0.954009
O O7 0.898411 0.295579 0.163952
O O8 0.500000 0.782337 0.750000
O O9 0.500000 0.418529 0.250000
O O10 0.790560 0.479228 0.665665
O O11 0.000000 0.957198 0.750000
O O12 0.000000 0.000000 0.500000
#
# Coordination Sequence:
#
# PCOD9254944 Si02
#       5
#     8   8   8   8   8
#     4   9  16  26  41  66  96 125 158 197 244 294
#     4  10  17  27  44  71 100 126 162 211 253 290
#     4  10  17  25  41  68  98 125 157 206 252 291
#     4   8  14  26  43  63  90 122 156 196 239 284
#     4   9  17  30  50  74 100 132 170 208 248 299
#
# _framework density 26.033619999999999
#
# number of rings (size 3 to 8) (size 9 to 14) (size 15 to 20)
#    0.000    2.800    0.000    6.600    0.000    0.000 
#    0.000    1.000    0.000    0.000    0.000   39.200 
#    0.000    0.000    0.000    0.000    0.000    0.000 
#
# Total GULP energy -111741.237772 kJ/mol
# GULP energy per Si atom -5587.061889 kJ/mol
# Density = 2.597437 g / cm^3
# Si number density = 26.033620 Si / 1000 Ang^3
#
#
#
# Elastic Constant Matrix: (Units=GPa)
#
#
# Indices 1 2 3 4 5 6 
#
# 1 96.5168 37.9536 26.6812 0.0189 3.3257 -0.0106
# 2 37.9536 203.0895 3.0634 0.0355 -13.8741 -0.0415
# 3 26.6812 3.0634 115.4765 0.0004 10.5767 -0.0574
# 4 0.0189 0.0355 0.0004 -12.8634 -0.0370 -3.8522
# 5 3.3257 -13.8741 10.5767 -0.0370 29.0625 0.0214
# 6 -0.0106 -0.0415 -0.0574 -3.8522 0.0214 53.3979
#
#
#
# Elastic Compliance Matrix: (Units=1/GPa)
#
#
# Indices 1 2 3 4 5 6 
#
# 1 0.012038 -0.002316 -0.002578 0.000016 -0.001545 0.000000
# 2 -0.002316 0.005551 0.000125 0.000003 0.002869 0.000003
# 3 -0.002578 0.000125 0.009538 0.000002 -0.003116 0.000011
# 4 0.000016 0.000003 0.000002 -0.076096 -0.000094 -0.005490
# 5 -0.001545 0.002869 -0.003116 -0.000094 0.037089 -0.000023
# 6 0.000000 0.000003 0.000011 -0.005490 -0.000023 0.018331
#
#
# Mechanical properties :
#
#
# Convention : Reuss Voigt Hill
#
# Bulk Modulus (GPa) = 56.85969 61.16436 59.01202
# Shear Modulus (GPa) = 228.80420 37.07836 132.94128
#
# Velocity S-wave (km/s) = 9.38503 3.77802 7.15375
# Velocity P-wave (km/s) = 11.80367 6.52507 9.53686
#
# Compressibility (1/GPa) = 0.01758715
#
# Stress axis : x y z
#
# Youngs Moduli (GPa) = 83.07205 180.14935 104.84790
#
# Poissons Ratio (x) = 0.41728 0.27034
# Poissons Ratio (y) = 0.19242 -0.01312
# Poissons Ratio (z) = 0.21419 -0.02254
#
# Static dielectric constant tensor:
#      x y z
#    x 2.112660 -0.000020 0.045330 
#    y -0.000020 2.056240 0.000100 
#    z 0.045330 0.000100 2.113410 
# 
# From -- ./inp_files/114666.got.cif
#   From: 2010.05.17/outbox.cif.g08.bks.cpg/sg15_58_cif.got.tgz:114666.got - 2010.06.03 18:47:42.
