data_PCOD9254570
_publ_section_title
;
Structure prediction by ZEFSAII (Michael W. Deem and Ramdas Pophale) SiO2 
 PCOD9254570
Probable space group: C 2/C
;
_chemical_formula_sum "Si O2"
_cell_formula_units_Z 64
_cell_length_a 16.597275
_cell_length_b 22.510761
_cell_length_c 13.140330
_cell_angle_alpha 90.000000
_cell_angle_beta 143.642864
_cell_angle_gamma 90.000000
_cell_volume 2910.405950
_symmetry_space_group_name_H-M "C 2/C"
_symmetry_group_IT_number 15
_symmetry_cell_setting 'monoclinic'
loop_
_space_group_symop_operation_xyz
x,y,z
-x,y,1/2-z
-x,-y,-z
x,-y,1/2+z
1/2+x,1/2+y,z
1/2-x,1/2+y,1/2-z
1/2-x,1/2-y,-z
1/2+x,1/2-y,1/2+z
loop_
_atom_site_type_symbol
_atom_site_label
_atom_site_fract_x
_atom_site_fract_y
_atom_site_fract_z
Si Si1 0.176880 0.884400 0.846818
Si Si2 0.294955 0.016549 0.721098
Si Si3 0.302830 0.706423 0.965979
Si Si4 0.891669 0.320217 0.423505
Si Si5 0.668480 0.605977 0.757637
Si Si6 0.029328 0.199749 0.047187
Si Si7 0.998447 0.000054 0.121271
Si Si8 0.564821 0.918831 0.495128
O O1 0.333830 0.900174 0.990495
O O2 0.144206 0.836034 0.725143
O O3 0.080123 0.940985 0.734471
O O4 0.157451 0.853748 0.935491
O O5 0.345905 0.961008 0.839931
O O6 0.163141 0.001057 0.519361
O O7 0.238862 0.066079 0.741835
O O8 0.433852 0.045116 0.820538
O O9 0.195572 0.691537 0.769055
O O10 0.250000 0.750000 0.000000
O O11 0.434951 0.728322 0.040000
O O12 0.796374 0.351119 0.412005
O O13 0.933809 0.252994 0.490424
O O14 0.010219 0.364295 0.507936
O O15 0.557068 0.649739 0.597348
O O16 0.586186 0.558123 0.740470
O O17 0.000000 0.000000 0.000000
#
# Coordination Sequence:
#
# PCOD9254570 Si02
#       8
#     8   8   8   8   8   8   8   8
#     4  12  20  30  52  66  87 132 178 215 263 289
#     4   9  16  31  48  68  87 109 157 221 265 307
#     4  11  23  34  45  64 101 144 187 216 239 288
#     4  10  22  32  45  66 102 135 175 214 251 299
#     4   9  17  32  48  68  89 121 171 221 258 302
#     4  11  20  33  47  67  98 140 177 215 250 296
#     4  10  16  32  52  68  84 113 169 224 262 311
#     4  10  19  29  47  68  88 117 162 217 263 299
#
# _framework density 21.990058999999999
#
# number of rings (size 3 to 8) (size 9 to 14) (size 15 to 20)
#    0.000    1.750    6.250    1.125    1.750    1.500 
#    0.000    0.000    0.000    0.000    0.000    0.000 
#    0.000    0.000    0.000    0.000    0.000  140.000 
#
# Total GULP energy -178568.583345 kJ/mol
# GULP energy per Si atom -5580.268230 kJ/mol
# Density = 2.194001 g / cm^3
# Si number density = 21.990059 Si / 1000 Ang^3
#
#
#
# Elastic Constant Matrix: (Units=GPa)
#
#
# Indices 1 2 3 4 5 6 
#
# 1 39.4467 19.6492 28.8492 0.0000 18.8138 0.0000
# 2 19.6492 134.3519 42.7908 0.0000 17.3576 0.0000
# 3 28.8492 42.7908 75.8450 0.0000 30.3524 0.0000
# 4 0.0000 0.0000 0.0000 41.3706 0.0000 13.0491
# 5 18.8138 17.3576 30.3524 0.0000 35.4657 0.0000
# 6 0.0000 0.0000 0.0000 13.0491 0.0000 24.1091
#
#
#
# Elastic Compliance Matrix: (Units=1/GPa)
#
#
# Indices 1 2 3 4 5 6 
#
# 1 0.038301 -0.001147 -0.009148 0.000000 -0.011927 0.000000
# 2 -0.001147 0.009108 -0.004809 0.000000 0.000266 0.000000
# 3 -0.009148 -0.004809 0.025085 0.000000 -0.014262 0.000000
# 4 0.000000 0.000000 0.000000 0.029148 0.000000 -0.015776
# 5 -0.011927 0.000266 -0.014262 0.000000 0.046599 0.000000
# 6 0.000000 0.000000 0.000000 -0.015776 0.000000 0.050017
#
#
# Mechanical properties :
#
#
# Convention : Reuss Voigt Hill
#
# Bulk Modulus (GPa) = 23.64861 48.02466 35.83664
# Shear Modulus (GPa) = 20.61324 30.74604 25.67964
#
# Velocity S-wave (km/s) = 3.06500 3.74328 3.42099
# Velocity P-wave (km/s) = 4.82734 6.36942 5.65123
#
# Compressibility (1/GPa) = 0.04228577
#
# Stress axis : x y z
#
# Youngs Moduli (GPa) = 26.10882 109.79196 39.86403
#
# Poissons Ratio (x) = 0.12592 0.36469
# Poissons Ratio (y) = 0.02994 0.19171
# Poissons Ratio (z) = 0.23885 0.52800
#
# Static dielectric constant tensor:
#      x y z
#    x 1.835730 0.000000 0.067700 
#    y 0.000000 1.881910 0.000000 
#    z 0.067700 0.000000 1.855300 
# 
# From -- ./inp_files/216499.got.cif
#   From: 2010.05.17/outbox.cif.g08.bks.cpg/sg15_109_cif.got.tgz:216499.got - 2010.06.03 18:47:42.
