data_PCOD9254548
_publ_section_title
;
Structure prediction by ZEFSAII (Michael W. Deem and Ramdas Pophale) SiO2 
 PCOD9254548
Probable space group: C 2/C
;
_chemical_formula_sum "Si O2"
_cell_formula_units_Z 44
_cell_length_a 11.458686
_cell_length_b 21.087703
_cell_length_c 16.467444
_cell_angle_alpha 90.000000
_cell_angle_beta 38.746405
_cell_angle_gamma 90.000000
_cell_volume 2490.448548
_symmetry_space_group_name_H-M "C 2/C"
_symmetry_group_IT_number 15
_symmetry_cell_setting 'monoclinic'
loop_
_space_group_symop_operation_xyz
x,y,z
-x,y,1/2-z
-x,-y,-z
x,-y,1/2+z
1/2+x,1/2+y,z
1/2-x,1/2+y,1/2-z
1/2-x,1/2-y,-z
1/2+x,1/2-y,1/2+z
loop_
_atom_site_type_symbol
_atom_site_label
_atom_site_fract_x
_atom_site_fract_y
_atom_site_fract_z
Si Si1 0.000000 0.573373 0.250000
Si Si2 0.694279 0.337916 0.949912
Si Si3 0.802732 0.501543 0.504167
Si Si4 0.893756 0.419615 0.115976
Si Si5 0.272829 0.695516 0.882442
Si Si6 0.455000 0.542992 0.601813
O O1 0.835227 0.622103 0.317301
O O2 0.911188 0.531492 0.368583
O O3 0.688378 0.266012 0.923521
O O4 0.763542 0.330847 0.006357
O O5 0.518741 0.384481 0.051322
O O6 0.853866 0.542679 0.554573
O O7 0.586477 0.512702 0.600587
O O8 0.894151 0.432905 0.471734
O O9 0.822226 0.349713 0.132348
O O10 0.756984 0.452148 0.255727
O O11 0.500000 0.697422 0.750000
O O12 0.500000 0.500000 0.500000
#
# Coordination Sequence:
#
# PCOD9254548 Si02
#       6
#     4   8   8   8   8   8
#     4  10  16  32  44  72 108 128 170 222 260 308
#     4  10  20  29  49  77 104 139 172 220 268 315
#     4  10  21  32  52  79 104 140 181 215 268 322
#     4  11  19  34  54  76 109 144 173 224 273 322
#     4  11  18  32  51  74 109 138 175 221 270 324
#     4  11  21  36  54  79 113 141 180 225 273 321
#
# _framework density 17.6675
#
# number of rings (size 3 to 8) (size 9 to 14) (size 15 to 20)
#    0.000    1.455    6.364    2.727    0.000    0.000 
#    0.000    0.000    0.000    1.091    0.000    0.000 
#    0.000    0.000    0.000    0.000    0.000    0.000 
#
# Total GULP energy -122481.491738 kJ/mol
# GULP energy per Si atom -5567.340534 kJ/mol
# Density = 1.762729 g / cm^3
# Si number density = 17.667500 Si / 1000 Ang^3
#
#
#
# Elastic Constant Matrix: (Units=GPa)
#
#
# Indices 1 2 3 4 5 6 
#
# 1 33.5762 30.2886 -11.5736 -0.0007 -8.9372 0.0001
# 2 30.2886 107.8846 3.0121 -0.0001 -1.8790 -0.0003
# 3 -11.5736 3.0121 37.1253 -0.0012 3.3860 0.0000
# 4 -0.0007 -0.0001 -0.0012 17.8958 0.0006 4.6232
# 5 -8.9372 -1.8790 3.3860 0.0006 27.9719 0.0000
# 6 0.0001 -0.0003 0.0000 4.6232 0.0000 21.8582
#
#
#
# Elastic Compliance Matrix: (Units=1/GPa)
#
#
# Indices 1 2 3 4 5 6 
#
# 1 0.052626 -0.014991 0.016361 0.000003 0.013827 -0.000001
# 2 -0.014991 0.013575 -0.005482 -0.000001 -0.003214 0.000000
# 3 0.016361 -0.005482 0.032395 0.000003 0.000938 -0.000001
# 4 0.000003 -0.000001 0.000003 0.059109 -0.000001 -0.012502
# 5 0.013827 -0.003214 0.000938 -0.000001 0.039838 0.000000
# 6 -0.000001 0.000000 -0.000001 -0.012502 0.000000 0.048394
#
#
# Mechanical properties :
#
#
# Convention : Reuss Voigt Hill
#
# Bulk Modulus (GPa) = 11.06514 24.67116 17.86815
# Shear Modulus (GPa) = 17.58803 24.00245 20.79524
#
# Velocity S-wave (km/s) = 3.15858 3.68987 3.43451
# Velocity P-wave (km/s) = 4.42479 5.66992 5.08560
#
# Compressibility (1/GPa) = 0.09037395
#
# Stress axis : x y z
#
# Youngs Moduli (GPa) = 19.00202 73.66549 30.86850
#
# Poissons Ratio (x) = 1.10430 -0.50504
# Poissons Ratio (y) = 0.28485 0.16921
# Poissons Ratio (z) = -0.31089 0.40380
#
# Static dielectric constant tensor:
#      x y z
#    x 1.612880 0.000000 -0.017460 
#    y 0.000000 1.632840 0.000000 
#    z -0.017460 0.000000 1.660030 
# 
# From -- ./inp_files/86775.got.cif
#   From: 2010.05.17/outbox.cif.g08.bks.cpg/sg15_44_cif.got.tgz:86775.got - 2010.06.03 18:47:42.
