data_PCOD9254595
_publ_section_title
;
Structure prediction by ZEFSAII (Michael W. Deem and Ramdas Pophale) SiO2 
 PCOD9254595
Probable space group: C 2/C
;
_chemical_formula_sum "Si O2"
_cell_formula_units_Z 52
_cell_length_a 18.256271
_cell_length_b 15.496811
_cell_length_c 10.146008
_cell_angle_alpha 90.000000
_cell_angle_beta 130.441582
_cell_angle_gamma 90.000000
_cell_volume 2184.605001
_symmetry_space_group_name_H-M "C 2/C"
_symmetry_group_IT_number 15
_symmetry_cell_setting 'monoclinic'
loop_
_space_group_symop_operation_xyz
x,y,z
-x,y,1/2-z
-x,-y,-z
x,-y,1/2+z
1/2+x,1/2+y,z
1/2-x,1/2+y,1/2-z
1/2-x,1/2-y,-z
1/2+x,1/2-y,1/2+z
loop_
_atom_site_type_symbol
_atom_site_label
_atom_site_fract_x
_atom_site_fract_y
_atom_site_fract_z
Si Si1 0.602103 0.462973 0.993530
Si Si2 0.500000 0.379262 0.250000
Si Si3 0.387230 0.935136 0.748468
Si Si4 0.184305 0.251580 0.143672
Si Si5 0.885815 0.434834 0.456958
Si Si6 0.364959 0.734321 0.722881
Si Si7 0.878539 0.913855 0.761440
O O1 0.578758 0.555790 0.897878
O O2 0.496662 0.418836 0.893184
O O3 0.652404 0.415281 0.928994
O O4 0.642907 0.497647 0.180501
O O5 0.537833 0.318934 0.176959
O O6 0.343308 0.945613 0.552878
O O7 0.501271 0.953614 0.886563
O O8 0.378982 0.834579 0.767730
O O9 0.343837 0.998568 0.804386
O O10 0.291981 0.291854 0.252434
O O11 0.164866 0.170741 0.215807
O O12 0.121294 0.336076 0.098159
O O13 0.168045 0.225808 0.969899
#
# Coordination Sequence:
#
# PCOD9254595 Si02
#       7
#     8   4   8   8   8   8   8
#     4   9  19  32  57  80 107 145 177 227 270 333
#     4  10  16  32  54  76 102 138 192 224 256 336
#     4   9  18  34  55  81  99 143 181 232 262 337
#     4  10  19  33  53  80 116 143 180 237 279 336
#     4   9  18  35  57  75 108 136 188 224 277 317
#     4  10  19  31  54  83 105 142 188 228 279 324
#     4   9  17  34  51  82 112 137 183 218 279 329
#
# _framework density 23.802931000000001
#
# number of rings (size 3 to 8) (size 9 to 14) (size 15 to 20)
#    0.000    2.769    1.538    1.846    0.000    0.000 
#    5.538    6.154    0.000    0.923    0.000    0.000 
#    0.000    0.000    0.000    0.000    0.000    0.000 
#
# Total GULP energy -144940.824532 kJ/mol
# GULP energy per Si atom -5574.647097 kJ/mol
# Density = 2.374875 g / cm^3
# Si number density = 23.802931 Si / 1000 Ang^3
#
#
#
# Elastic Constant Matrix: (Units=GPa)
#
#
# Indices 1 2 3 4 5 6 
#
# 1 118.7387 61.2400 34.9943 0.0000 -20.3326 0.0000
# 2 61.2400 128.0800 31.2667 0.0000 -34.2625 0.0000
# 3 34.9943 31.2667 63.5701 0.0000 -26.3325 0.0000
# 4 0.0000 0.0000 0.0000 26.4641 0.0000 -17.4644
# 5 -20.3326 -34.2625 -26.3325 0.0000 32.9229 0.0000
# 6 0.0000 0.0000 0.0000 -17.4644 0.0000 14.7026
#
#
#
# Elastic Compliance Matrix: (Units=1/GPa)
#
#
# Indices 1 2 3 4 5 6 
#
# 1 0.012205 -0.005088 -0.004916 0.000000 -0.001689 0.000000
# 2 -0.005088 0.012982 0.001062 0.000000 0.011217 0.000000
# 3 -0.004916 0.001062 0.025594 0.000000 0.018540 0.000000
# 4 0.000000 0.000000 0.000000 0.174856 0.000000 0.207702
# 5 -0.001689 0.011217 0.018540 0.000000 0.055834 0.000000
# 6 0.000000 0.000000 0.000000 0.207702 0.000000 0.314734
#
#
# Mechanical properties :
#
#
# Convention : Reuss Voigt Hill
#
# Bulk Modulus (GPa) = 30.39644 62.82119 46.60881
# Shear Modulus (GPa) = 7.99931 27.01044 17.50487
#
# Velocity S-wave (km/s) = 1.83519 3.37226 2.71478
# Velocity P-wave (km/s) = 4.15793 6.45077 5.42682
#
# Compressibility (1/GPa) = 0.03289859
#
# Stress axis : x y z
#
# Youngs Moduli (GPa) = 81.93056 77.03208 39.07112
#
# Poissons Ratio (x) = 0.39190 0.19208
# Poissons Ratio (y) = 0.41682 -0.04150
# Poissons Ratio (z) = 0.40278 -0.08182
#
# Static dielectric constant tensor:
#      x y z
#    x 2.116560 0.000000 0.087580 
#    y 0.000000 1.908970 0.000000 
#    z 0.087580 0.000000 2.088420 
# 
# From -- ./inp_files/105484.got.cif
#   From: 2010.05.17/outbox.cif.g08.bks.cpg/sg15_53_cif.got.tgz:105484.got - 2010.06.03 18:47:42.
