data_PCOD9254608
_publ_section_title
;
Structure prediction by ZEFSAII (Michael W. Deem and Ramdas Pophale) SiO2 
 PCOD9254608
Probable space group: C 2/C
;
_chemical_formula_sum "Si O2"
_cell_formula_units_Z 44
_cell_length_a 14.031625
_cell_length_b 23.174943
_cell_length_c 9.125532
_cell_angle_alpha 90.000000
_cell_angle_beta 38.363837
_cell_angle_gamma 90.000000
_cell_volume 1841.762847
_symmetry_space_group_name_H-M "C 2/C"
_symmetry_group_IT_number 15
_symmetry_cell_setting 'monoclinic'
loop_
_space_group_symop_operation_xyz
x,y,z
-x,y,1/2-z
-x,-y,-z
x,-y,1/2+z
1/2+x,1/2+y,z
1/2-x,1/2+y,1/2-z
1/2-x,1/2-y,-z
1/2+x,1/2-y,1/2+z
loop_
_atom_site_type_symbol
_atom_site_label
_atom_site_fract_x
_atom_site_fract_y
_atom_site_fract_z
Si Si1 0.363831 0.181014 0.210822
Si Si2 0.783097 0.693431 0.635874
Si Si3 0.464544 0.391075 0.983642
Si Si4 0.746858 0.011153 0.644517
Si Si5 0.303879 0.918115 0.550706
Si Si6 0.500000 0.427693 0.250000
O O1 0.274119 0.240927 0.297993
O O2 0.300743 0.164242 0.451125
O O3 0.352114 0.137911 0.086375
O O4 0.545307 0.191665 0.009976
O O5 0.655967 0.660243 0.884837
O O6 0.368644 0.448883 0.079858
O O7 0.518626 0.388664 0.086846
O O8 0.628435 0.400504 0.710767
O O9 0.642641 0.052498 0.667636
O O10 0.681612 0.969215 0.846982
O O11 0.851027 0.968582 0.420372
#
# Coordination Sequence:
#
# PCOD9254608 Si02
#       6
#     8   8   8   8   8   4
#     4  10  22  39  64  88 124 156 205 254 311 361
#     4  10  21  40  62  93 119 158 202 258 307 367
#     4  11  19  32  61  89 123 158 203 252 295 357
#     4  11  19  34  57  91 127 163 208 247 296 357
#     4  11  21  36  62  91 127 164 208 249 298 357
#     4  10  16  32  54  88 122 158 200 238 288 348
#
# _framework density 23.890155
#
# number of rings (size 3 to 8) (size 9 to 14) (size 15 to 20)
#    0.000    1.455    3.636    4.364    0.000    2.909 
#    0.000    2.727    4.000    0.000    0.000    0.000 
#    0.000    0.000    0.000    0.000    0.000    0.000 
#
# Total GULP energy -122702.635494 kJ/mol
# GULP energy per Si atom -5577.392522 kJ/mol
# Density = 2.383578 g / cm^3
# Si number density = 23.890155 Si / 1000 Ang^3
#
#
#
# Elastic Constant Matrix: (Units=GPa)
#
#
# Indices 1 2 3 4 5 6 
#
# 1 97.9692 43.8764 53.2062 0.0000 -11.9095 0.0000
# 2 43.8764 100.1754 44.0451 0.0000 -12.9463 0.0000
# 3 53.2062 44.0451 96.7014 0.0000 -4.7931 0.0000
# 4 0.0000 0.0000 0.0000 12.1407 0.0000 -5.3633
# 5 -11.9095 -12.9463 -4.7931 0.0000 34.0806 0.0000
# 6 0.0000 0.0000 0.0000 -5.3633 0.0000 49.5024
#
#
#
# Elastic Compliance Matrix: (Units=1/GPa)
#
#
# Indices 1 2 3 4 5 6 
#
# 1 0.015995 -0.003482 -0.007052 0.000000 0.003275 0.000000
# 2 -0.003482 0.013797 -0.004198 0.000000 0.003434 0.000000
# 3 -0.007052 -0.004198 0.016044 0.000000 -0.001803 0.000000
# 4 0.000000 0.000000 0.000000 0.086508 0.000000 0.009373
# 5 0.003275 0.003434 -0.001803 0.000000 0.031538 0.000000
# 6 0.000000 0.000000 0.000000 0.009373 0.000000 0.021217
#
#
# Mechanical properties :
#
#
# Convention : Reuss Voigt Hill
#
# Bulk Modulus (GPa) = 61.08203 64.12238 62.60221
# Shear Modulus (GPa) = 22.72516 29.39263 26.05890
#
# Velocity S-wave (km/s) = 3.08756 3.51140 3.30628
# Velocity P-wave (km/s) = 6.19145 6.58321 6.39033
#
# Compressibility (1/GPa) = 0.01637143
#
# Stress axis : x y z
#
# Youngs Moduli (GPa) = 62.52052 72.47847 62.32729
#
# Poissons Ratio (x) = 0.25234 0.43956
# Poissons Ratio (y) = 0.21767 0.26168
# Poissons Ratio (z) = 0.44092 0.30430
#
# Static dielectric constant tensor:
#      x y z
#    x 1.966500 0.000000 0.026170 
#    y 0.000000 1.890130 0.000000 
#    z 0.026170 0.000000 2.052590 
# 
# From -- ./inp_files/42014.got.cif
#   From: 2010.05.17/outbox.cif.g08.bks.cpg/sg15_22_cif.got.tgz:42014.got - 2010.06.03 18:47:42.
