data_PCOD9254852
_publ_section_title
;
Structure prediction by ZEFSAII (Michael W. Deem and Ramdas Pophale) SiO2 
 PCOD9254852
Probable space group: C 2/C
;
_chemical_formula_sum "Si O2"
_cell_formula_units_Z 60
_cell_length_a 27.345950
_cell_length_b 18.091297
_cell_length_c 19.062234
_cell_angle_alpha 90.000000
_cell_angle_beta 21.035202
_cell_angle_gamma 90.000000
_cell_volume 3385.011484
_symmetry_space_group_name_H-M "C 2/C"
_symmetry_group_IT_number 15
_symmetry_cell_setting 'monoclinic'
loop_
_space_group_symop_operation_xyz
x,y,z
-x,y,1/2-z
-x,-y,-z
x,-y,1/2+z
1/2+x,1/2+y,z
1/2-x,1/2+y,1/2-z
1/2-x,1/2-y,-z
1/2+x,1/2-y,1/2+z
loop_
_atom_site_type_symbol
_atom_site_label
_atom_site_fract_x
_atom_site_fract_y
_atom_site_fract_z
Si Si1 0.000000 0.005761 0.250000
Si Si2 0.396809 0.845988 0.064325
Si Si3 0.345292 0.919700 0.984253
Si Si4 0.748419 0.473973 0.336702
Si Si5 0.116669 0.872003 0.182506
Si Si6 0.353502 0.682790 0.116627
Si Si7 0.349185 0.530117 0.184790
Si Si8 0.297392 0.137602 0.315902
O O1 0.876815 0.051371 0.447336
O O2 0.053693 0.950140 0.239363
O O3 0.351092 0.871260 0.047780
O O4 0.558649 0.838003 0.848666
O O5 0.352721 0.909794 0.177748
O O6 0.339140 0.766113 0.160727
O O7 0.500000 0.929713 0.750000
O O8 0.246130 0.883320 0.059524
O O9 0.265561 0.994979 0.111693
O O10 0.689712 0.502166 0.341007
O O11 0.801765 0.547958 0.303784
O O12 0.996979 0.829864 0.383082
O O13 0.177528 0.838474 0.029446
O O14 0.349496 0.618682 0.180048
O O15 0.238263 0.667154 0.212856
O O16 0.500000 0.500000 0.000000
#
# Coordination Sequence:
#
# PCOD9254852 Si02
#       8
#     4   8   8   8   8   8   8   8
#     4  10  16  36  62  78  94 140 190 232 248 308
#     4  11  24  34  52  82 115 142 168 222 274 320
#     4  11  22  35  54  83 108 142 182 221 267 314
#     4   9  19  34  56  80 100 138 187 218 262 308
#     4  11  18  35  54  80 107 137 185 212 265 318
#     4  11  22  35  54  81 108 146 176 215 270 319
#     4  10  18  35  58  76 106 141 186 220 252 323
#     4  10  20  37  54  76 111 141 181 216 262 322
#
# _framework density 17.725197999999999
#
# number of rings (size 3 to 8) (size 9 to 14) (size 15 to 20)
#    0.000    1.600    6.667    0.400    1.867    1.600 
#    0.000    0.000    1.467    0.000    0.000    5.600 
#    0.000    0.000    0.000    0.000    0.000    0.000 
#
# Total GULP energy -167284.241851 kJ/mol
# GULP energy per Si atom -5576.141395 kJ/mol
# Density = 1.768485 g / cm^3
# Si number density = 17.725198 Si / 1000 Ang^3
#
#
#
# Elastic Constant Matrix: (Units=GPa)
#
#
# Indices 1 2 3 4 5 6 
#
# 1 47.7649 3.1786 -2.0579 0.0000 -18.5807 0.0000
# 2 3.1786 75.2334 7.9635 -0.0001 -3.2548 0.0000
# 3 -2.0579 7.9635 55.9438 -0.0002 -6.0717 0.0000
# 4 0.0000 -0.0001 -0.0002 14.0779 0.0000 1.4195
# 5 -18.5807 -3.2548 -6.0717 0.0000 29.0568 0.0001
# 6 0.0000 0.0000 0.0000 1.4195 0.0001 11.2117
#
#
#
# Elastic Compliance Matrix: (Units=1/GPa)
#
#
# Indices 1 2 3 4 5 6 
#
# 1 0.028417 -0.000726 0.003184 0.000000 0.018756 0.000000
# 2 -0.000726 0.013551 -0.001884 0.000000 0.000660 0.000000
# 3 0.003184 -0.001884 0.018887 0.000000 0.005772 0.000000
# 4 0.000000 0.000000 0.000000 0.071952 0.000000 -0.009109
# 5 0.018756 0.000660 0.005772 0.000000 0.047689 0.000000
# 6 0.000000 0.000000 0.000000 -0.009109 0.000000 0.090346
#
#
# Mechanical properties :
#
#
# Convention : Reuss Voigt Hill
#
# Bulk Modulus (GPa) = 16.12823 21.90116 19.01470
# Shear Modulus (GPa) = 17.21994 22.19314 19.70654
#
# Velocity S-wave (km/s) = 3.12026 3.54230 3.33796
# Velocity P-wave (km/s) = 4.70108 5.39567 5.06031
#
# Compressibility (1/GPa) = 0.06200308
#
# Stress axis : x y z
#
# Youngs Moduli (GPa) = 35.18959 73.79733 52.94692
#
# Poissons Ratio (x) = 0.05360 -0.16860
# Poissons Ratio (y) = 0.02556 0.09975
# Poissons Ratio (z) = -0.11206 0.13904
#
# Static dielectric constant tensor:
#      x y z
#    x 1.605820 0.000000 0.002320 
#    y 0.000000 1.629110 0.000000 
#    z 0.002320 0.000000 1.623270 
# 
# From -- ./inp_files/127207.got.cif
#   From: 2010.05.17/outbox.cif.g08.bks.cpg/sg15_64_cif.got.tgz:127207.got - 2010.06.03 18:47:42.
