data_PCOD9254369
_publ_section_title
;
Structure prediction by ZEFSAII (Michael W. Deem and Ramdas Pophale) SiO2 
 PCOD9254369
Probable space group: C 2/C
;
_chemical_formula_sum "Si O2"
_cell_formula_units_Z 64
_cell_length_a 37.546625
_cell_length_b 13.638771
_cell_length_c 5.240540
_cell_angle_alpha 90.000000
_cell_angle_beta 89.908262
_cell_angle_gamma 90.000000
_cell_volume 2683.623746
_symmetry_space_group_name_H-M "C 2/C"
_symmetry_group_IT_number 15
_symmetry_cell_setting 'monoclinic'
loop_
_space_group_symop_operation_xyz
x,y,z
-x,y,1/2-z
-x,-y,-z
x,-y,1/2+z
1/2+x,1/2+y,z
1/2-x,1/2+y,1/2-z
1/2-x,1/2-y,-z
1/2+x,1/2-y,1/2+z
loop_
_atom_site_type_symbol
_atom_site_label
_atom_site_fract_x
_atom_site_fract_y
_atom_site_fract_z
Si Si1 0.539782 0.633069 0.184202
Si Si2 0.079385 0.623197 0.165773
Si Si3 0.082747 0.141659 0.685657
Si Si4 0.461449 0.129143 0.835451
Si Si5 0.342017 0.100927 0.183607
Si Si6 0.161224 0.061865 0.688403
Si Si7 0.236516 0.932968 0.303108
Si Si8 0.812682 0.620519 0.684666
O O1 0.500000 0.596578 0.250000
O O2 0.566770 0.610056 0.413763
O O3 0.537043 0.752057 0.170998
O O4 0.556649 0.606228 0.911986
O O5 0.082970 0.740638 0.183324
O O6 0.050239 0.599593 0.381834
O O7 0.117590 0.580991 0.239782
O O8 0.067179 0.601352 0.879801
O O9 0.123152 0.110271 0.730221
O O10 0.500000 0.093112 0.750000
O O11 0.323867 0.160423 0.412047
O O12 0.321672 0.996637 0.154500
O O13 0.337749 0.154313 0.914338
O O14 0.198189 0.116041 0.756950
O O15 0.162601 0.027271 0.394305
O O16 0.271630 0.868705 0.257367
O O17 0.238343 0.982589 0.582266
#
# Coordination Sequence:
#
# PCOD9254369 Si02
#       8
#     8   8   8   8   8   8   8   8
#     4   9  17  30  52  73  94 129 163 198 240 281
#     4  10  19  30  48  75 100 128 154 196 254 291
#     4  10  19  33  50  72 104 124 157 205 243 289
#     4   9  17  30  47  71  97 125 167 204 230 273
#     4  10  18  28  47  73 100 124 155 196 250 280
#     4  10  21  33  53  74  93 129 163 205 235 284
#     4  10  16  30  49  73  90 116 166 206 238 256
#     4  10  17  30  48  71  94 123 159 208 230 276
#
# _framework density 23.848348999999999
#
# number of rings (size 3 to 8) (size 9 to 14) (size 15 to 20)
#    0.000    2.250    2.500    2.250    0.000    3.000 
#    0.000    0.000    0.000    9.000    0.000   35.000 
#    0.000    0.000    0.000    0.000    0.000    0.000 
#
# Total GULP energy -178882.681929 kJ/mol
# GULP energy per Si atom -5590.083810 kJ/mol
# Density = 2.379407 g / cm^3
# Si number density = 23.848349 Si / 1000 Ang^3
#
#
#
# Elastic Constant Matrix: (Units=GPa)
#
#
# Indices 1 2 3 4 5 6 
#
# 1 101.7371 4.2001 -33.9443 0.0000 -1.2892 0.0000
# 2 4.2001 52.9348 -9.1777 0.0000 1.5791 0.0000
# 3 -33.9443 -9.1777 99.8878 0.0000 -6.2698 0.0000
# 4 0.0000 0.0000 0.0000 -25.6108 0.0000 -14.2578
# 5 -1.2892 1.5791 -6.2698 0.0000 38.6507 0.0000
# 6 0.0000 0.0000 0.0000 -14.2578 0.0000 -41.6861
#
#
#
# Elastic Compliance Matrix: (Units=1/GPa)
#
#
# Indices 1 2 3 4 5 6 
#
# 1 0.011127 -0.000250 0.003821 0.000000 0.001001 0.000000
# 2 -0.000250 0.019212 0.001647 0.000000 -0.000526 0.000000
# 3 0.003821 0.001647 0.011583 0.000000 0.001939 0.000000
# 4 0.000000 0.000000 0.000000 -0.048229 0.000000 0.016496
# 5 0.001001 -0.000526 0.001939 0.000000 0.026242 0.000000
# 6 0.000000 0.000000 0.000000 0.016496 0.000000 -0.029631
#
#
# Mechanical properties :
#
#
# Convention : Reuss Voigt Hill
#
# Bulk Modulus (GPa) = 19.09914 19.63511 19.36713
# Shear Modulus (GPa) = -1866.41178 13.83619 -926.28780
#
# Velocity S-wave (km/s) = -28.00564 2.41129 -19.72944
# Velocity P-wave (km/s) = 32.21379 4.00045 22.60226
#
# Compressibility (1/GPa) = 0.05235837
#
# Stress axis : x y z
#
# Youngs Moduli (GPa) = 89.87000 52.05004 86.33488
#
# Poissons Ratio (x) = 0.01303 -0.32990
# Poissons Ratio (y) = 0.02249 -0.14221
# Poissons Ratio (z) = -0.34341 -0.08573
#
# Static dielectric constant tensor:
#      x y z
#    x 1.880270 0.000000 -0.013390 
#    y 0.000000 1.944960 0.000000 
#    z -0.013390 0.000000 1.933860 
# 
# From -- ./inp_files/18458.got.cif
#   From: 2010.05.17/outbox.cif.g08.bks.cpg/sg15_10_cif.got.tgz:18458.got - 2010.06.03 18:47:42.
