data_PCOD9254364
_publ_section_title
;
Structure prediction by ZEFSAII (Michael W. Deem and Ramdas Pophale) SiO2 
 PCOD9254364
Probable space group: C 2/C
;
_chemical_formula_sum "Si O2"
_cell_formula_units_Z 52
_cell_length_a 31.705982
_cell_length_b 18.015493
_cell_length_c 5.471920
_cell_angle_alpha 90.000000
_cell_angle_beta 124.542745
_cell_angle_gamma 90.000000
_cell_volume 2574.529997
_symmetry_space_group_name_H-M "C 2/C"
_symmetry_group_IT_number 15
_symmetry_cell_setting 'monoclinic'
loop_
_space_group_symop_operation_xyz
x,y,z
-x,y,1/2-z
-x,-y,-z
x,-y,1/2+z
1/2+x,1/2+y,z
1/2-x,1/2+y,1/2-z
1/2-x,1/2-y,-z
1/2+x,1/2-y,1/2+z
loop_
_atom_site_type_symbol
_atom_site_label
_atom_site_fract_x
_atom_site_fract_y
_atom_site_fract_z
Si Si1 0.346870 0.907677 0.663573
Si Si2 0.437939 0.300458 0.786656
Si Si3 0.500000 0.895166 0.750000
Si Si4 0.888481 0.424165 0.299070
Si Si5 0.237906 0.952397 0.302352
Si Si6 0.950900 0.740716 0.331652
Si Si7 0.879354 0.047450 0.081539
O O1 0.372154 0.882698 0.493636
O O2 0.286062 0.897374 0.461440
O O3 0.359549 0.996725 0.705328
O O4 0.371607 0.883190 0.998497
O O5 0.422645 0.256766 0.490078
O O6 0.416824 0.382925 0.707667
O O7 0.422042 0.260713 0.987071
O O8 0.499754 0.295731 0.997574
O O9 0.449595 0.937983 0.499428
O O10 0.521364 0.838928 0.612199
O O11 0.243424 0.000230 0.570042
O O12 0.179728 0.924158 0.111759
O O13 0.886031 0.999434 0.352393
#
# Coordination Sequence:
#
# PCOD9254364 Si02
#       7
#     8   8   4   8   8   8   8
#     4  10  18  32  46  73 103 143 149 192 259 313
#     4   9  17  35  50  72  97 136 164 195 265 284
#     4  10  22  36  50  82  90 130 184 220 230 280
#     4  10  20  30  51  69 106 129 170 197 247 295
#     4  10  16  30  49  68 105 133 166 186 231 304
#     4   9  20  35  54  62  97 135 175 208 245 296
#     4  10  20  29  50  82 107 123 166 207 232 304
#
# _framework density 20.197859999999999
#
# number of rings (size 3 to 8) (size 9 to 14) (size 15 to 20)
#    0.000    2.462    3.077    0.923    0.000    8.000 
#    0.000    9.231    0.000    0.000    0.000   15.077 
#    0.000    0.000    0.000    0.000    0.000    0.000 
#
# Total GULP energy -144851.637086 kJ/mol
# GULP energy per Si atom -5571.216811 kJ/mol
# Density = 2.015189 g / cm^3
# Si number density = 20.197860 Si / 1000 Ang^3
#
#
#
# Elastic Constant Matrix: (Units=GPa)
#
#
# Indices 1 2 3 4 5 6 
#
# 1 82.4758 33.5555 51.4527 0.0000 -25.3945 0.0000
# 2 33.5555 36.1104 19.3135 0.0000 0.9294 0.0000
# 3 51.4527 19.3135 110.5289 0.0000 -38.0732 0.0000
# 4 0.0000 0.0000 0.0000 -9.5056 0.0000 15.4382
# 5 -25.3945 0.9294 -38.0732 0.0000 63.2529 0.0000
# 6 0.0000 0.0000 0.0000 15.4382 0.0000 26.3321
#
#
#
# Elastic Compliance Matrix: (Units=1/GPa)
#
#
# Indices 1 2 3 4 5 6 
#
# 1 0.027472 -0.022372 -0.006266 0.000000 0.007586 0.000000
# 2 -0.022372 0.049875 -0.002078 0.000000 -0.010965 0.000000
# 3 -0.006266 -0.002078 0.014472 0.000000 0.006226 0.000000
# 4 0.000000 0.000000 0.000000 -0.053888 0.000000 0.031594
# 5 0.007586 -0.010965 0.006226 0.000000 0.022764 0.000000
# 6 0.000000 0.000000 0.000000 0.031594 0.000000 0.019453
#
#
# Mechanical properties :
#
#
# Convention : Reuss Voigt Hill
#
# Bulk Modulus (GPa) = 32.90817 48.63985 40.77401
# Shear Modulus (GPa) = 32.95781 24.33541 28.64661
#
# Velocity S-wave (km/s) = 4.04387 3.47486 3.77012
# Velocity P-wave (km/s) = 6.17512 6.34299 6.25962
#
# Compressibility (1/GPa) = 0.03038759
#
# Stress axis : x y z
#
# Youngs Moduli (GPa) = 36.40089 20.04993 69.09894
#
# Poissons Ratio (x) = 0.44856 0.43298
# Poissons Ratio (y) = 0.81436 0.14357
# Poissons Ratio (z) = 0.22809 0.04166
#
# Static dielectric constant tensor:
#      x y z
#    x 1.765970 0.000000 -0.057250 
#    y 0.000000 1.712840 0.000000 
#    z -0.057250 0.000000 1.791840 
# 
# From -- ./inp_files/18618.got.cif
#   From: 2010.05.17/outbox.cif.g08.bks.cpg/sg15_10_cif.got.tgz:18618.got - 2010.06.03 18:47:42.
