data_PCOD9254367
_publ_section_title
;
Structure prediction by ZEFSAII (Michael W. Deem and Ramdas Pophale) SiO2 
 PCOD9254367
Probable space group: C 2/C
;
_chemical_formula_sum "Si O2"
_cell_formula_units_Z 40
_cell_length_a 37.217464
_cell_length_b 9.681038
_cell_length_c 5.555047
_cell_angle_alpha 90.000000
_cell_angle_beta 72.407900
_cell_angle_gamma 90.000000
_cell_volume 1907.898261
_symmetry_space_group_name_H-M "C 2/C"
_symmetry_group_IT_number 15
_symmetry_cell_setting 'monoclinic'
loop_
_space_group_symop_operation_xyz
x,y,z
-x,y,1/2-z
-x,-y,-z
x,-y,1/2+z
1/2+x,1/2+y,z
1/2-x,1/2+y,1/2-z
1/2-x,1/2-y,-z
1/2+x,1/2-y,1/2+z
loop_
_atom_site_type_symbol
_atom_site_label
_atom_site_fract_x
_atom_site_fract_y
_atom_site_fract_z
Si Si1 0.899562 0.415730 0.225771
Si Si2 0.843511 0.005862 0.716734
Si Si3 0.984894 0.660464 0.530609
Si Si4 0.292692 0.780600 0.845326
Si Si5 0.319314 0.794410 0.292315
O O1 0.898211 0.481843 0.496349
O O2 0.939830 0.342485 0.123473
O O3 0.862648 0.323483 0.267669
O O4 0.818356 0.143120 0.767301
O O5 0.865588 0.997430 0.422330
O O6 0.816228 0.872005 0.772787
O O7 0.000000 0.721745 0.750000
O O8 0.000000 0.500000 0.500000
O O9 0.000000 0.721551 0.250000
O O10 0.295130 0.841851 0.571106
O O11 0.250000 0.750000 0.000000
O O12 0.309846 0.854086 0.047860
#
# Coordination Sequence:
#
# PCOD9254367 Si02
#       5
#     8   8   8   8   8
#     4  12  21  33  50  74 114 145 171 220 257 313
#     4   8  16  32  52  70  92 121 160 210 253 306
#     4  10  16  30  49  72  95 143 179 204 253 312
#     4  10  19  36  57  75  96 128 175 226 262 321
#     4  10  21  35  50  77 103 132 171 215 268 316
#
# _framework density 20.965481
#
# number of rings (size 3 to 8) (size 9 to 14) (size 15 to 20)
#    0.000    2.000    4.000    1.800    0.000    0.000 
#    0.000   18.000    0.000    0.000    0.000    0.000 
#    0.000   43.200    0.000    0.000    0.000    0.000 
#
# Total GULP energy -111385.592076 kJ/mol
# GULP energy per Si atom -5569.279604 kJ/mol
# Density = 2.091776 g / cm^3
# Si number density = 20.965481 Si / 1000 Ang^3
#
#
#
# Elastic Constant Matrix: (Units=GPa)
#
#
# Indices 1 2 3 4 5 6 
#
# 1 76.1359 -17.0962 2.5387 0.0000 1.4997 0.0000
# 2 -17.0962 45.4630 -5.5151 0.0000 1.7161 0.0000
# 3 2.5387 -5.5151 153.9338 0.0000 40.9084 0.0000
# 4 0.0000 0.0000 0.0000 -8.0637 0.0000 2.4595
# 5 1.4997 1.7161 40.9084 0.0000 53.8424 0.0000
# 6 0.0000 0.0000 0.0000 2.4595 0.0000 13.5025
#
#
#
# Elastic Compliance Matrix: (Units=1/GPa)
#
#
# Indices 1 2 3 4 5 6 
#
# 1 0.014366 0.005445 0.000139 0.000000 -0.000679 0.000000
# 2 0.005445 0.024271 0.001285 0.000000 -0.001902 0.000000
# 3 0.000139 0.001285 0.008210 0.000000 -0.006282 0.000000
# 4 0.000000 0.000000 0.000000 -0.117486 0.000000 0.021400
# 5 -0.000679 -0.001902 -0.006282 0.000000 0.023425 0.000000
# 6 0.000000 0.000000 0.000000 0.021400 0.000000 0.070162
#
#
# Mechanical properties :
#
#
# Convention : Reuss Voigt Hill
#
# Bulk Modulus (GPa) = 16.50627 26.15417 21.33022
# Shear Modulus (GPa) = 170.03355 31.56328 100.79841
#
# Velocity S-wave (km/s) = 9.01542 3.88427 6.94137
# Velocity P-wave (km/s) = 10.78242 5.71128 8.62784
#
# Compressibility (1/GPa) = 0.06058304
#
# Stress axis : x y z
#
# Youngs Moduli (GPa) = 69.61007 41.20143 121.80857
#
# Poissons Ratio (x) = -0.22433 -0.01688
# Poissons Ratio (y) = -0.37900 -0.15654
# Poissons Ratio (z) = -0.00965 -0.05295
#
# Static dielectric constant tensor:
#      x y z
#    x 1.724420 0.000000 0.089000 
#    y 0.000000 1.779750 0.000000 
#    z 0.089000 0.000000 1.877130 
# 
# From -- ./inp_files/4894.got.cif
#   From: 2010.05.17/outbox.cif.g08.bks.cpg/sg15_3_cif.got.tgz:4894.got - 2010.06.03 18:47:42.
