data_PCOD9254438
_publ_section_title
;
Structure prediction by ZEFSAII (Michael W. Deem and Ramdas Pophale) SiO2 
 PCOD9254438
Probable space group: C 2/C
;
_chemical_formula_sum "Si O2"
_cell_formula_units_Z 52
_cell_length_a 27.859857
_cell_length_b 9.178001
_cell_length_c 19.425911
_cell_angle_alpha 90.000000
_cell_angle_beta 157.787707
_cell_angle_gamma 90.000000
_cell_volume 1877.783308
_symmetry_space_group_name_H-M "C 2/C"
_symmetry_group_IT_number 15
_symmetry_cell_setting 'monoclinic'
loop_
_space_group_symop_operation_xyz
x,y,z
-x,y,1/2-z
-x,-y,-z
x,-y,1/2+z
1/2+x,1/2+y,z
1/2-x,1/2+y,1/2-z
1/2-x,1/2-y,-z
1/2+x,1/2-y,1/2+z
loop_
_atom_site_type_symbol
_atom_site_label
_atom_site_fract_x
_atom_site_fract_y
_atom_site_fract_z
Si Si1 0.844255 0.170767 0.894778
Si Si2 0.500000 0.423914 0.250000
Si Si3 0.146015 0.338794 0.010635
Si Si4 0.527310 0.753726 0.555579
Si Si5 0.167392 0.116043 0.856912
Si Si6 0.183456 0.549882 0.789901
Si Si7 0.517983 0.898479 0.195372
O O1 0.724138 0.179456 0.684191
O O2 0.946500 0.137808 0.970913
O O3 0.815173 0.077821 0.924173
O O4 0.905326 0.320131 0.003489
O O5 0.598696 0.310425 0.416076
O O6 0.403268 0.485826 0.180280
O O7 0.234614 0.429088 0.073527
O O8 0.022467 0.434466 0.857608
O O9 0.548003 0.674963 0.654507
O O10 0.403385 0.835587 0.367055
O O11 0.629042 0.889315 0.699838
O O12 0.250000 0.250000 0.000000
O O13 0.147006 0.595995 0.820510
O O14 0.500000 0.843478 0.250000
#
# Coordination Sequence:
#
# PCOD9254438 Si02
#       7
#     8   4   8   8   8   8   8
#     4  10  20  34  56  89 115 149 191 241 289 337
#     4  10  16  30  54  84 118 150 186 242 292 338
#     4  10  19  34  57  88 116 148 198 243 281 345
#     4   9  18  33  54  84 113 145 194 236 283 332
#     4   9  18  27  49  83 116 147 185 239 293 333
#     4  10  19  34  59  82 112 152 192 238 278 343
#     4  11  23  38  62  89 114 153 199 240 285 341
#
# _framework density 27.692226000000002
#
# number of rings (size 3 to 8) (size 9 to 14) (size 15 to 20)
#    0.000    2.154    0.769    4.615    2.154    0.615 
#    0.000    0.000    0.000   40.615   18.000    0.000 
#    0.000    0.000    0.000    0.000    0.000    0.000 
#
# Total GULP energy -144940.164702 kJ/mol
# GULP energy per Si atom -5574.621719 kJ/mol
# Density = 2.762920 g / cm^3
# Si number density = 27.692226 Si / 1000 Ang^3
#
#
#
# Elastic Constant Matrix: (Units=GPa)
#
#
# Indices 1 2 3 4 5 6 
#
# 1 286.9154 39.4063 42.8223 0.0000 -6.2325 0.0000
# 2 39.4063 36.3647 23.2067 0.0000 -1.2501 0.0000
# 3 42.8223 23.2067 88.3719 0.0000 -13.2164 0.0000
# 4 0.0000 0.0000 0.0000 16.8337 0.0000 -5.9720
# 5 -6.2325 -1.2501 -13.2164 0.0000 57.3478 0.0000
# 6 0.0000 0.0000 0.0000 -5.9720 0.0000 28.4133
#
#
#
# Elastic Compliance Matrix: (Units=1/GPa)
#
#
# Indices 1 2 3 4 5 6 
#
# 1 0.004168 -0.003888 -0.000977 0.000000 0.000143 0.000000
# 2 -0.003888 0.036760 -0.007988 0.000000 -0.001462 0.000000
# 3 -0.000977 -0.007988 0.014339 0.000000 0.003024 0.000000
# 4 0.000000 0.000000 0.000000 0.064191 0.000000 0.013492
# 5 0.000143 -0.001462 0.003024 0.000000 0.018118 0.000000
# 6 0.000000 0.000000 0.000000 0.013492 0.000000 0.038031
#
#
# Mechanical properties :
#
#
# Convention : Reuss Voigt Hill
#
# Bulk Modulus (GPa) = 33.82870 69.16917 51.49894
# Shear Modulus (GPa) = 23.67783 40.93342 32.30562
#
# Velocity S-wave (km/s) = 2.92727 3.84885 3.41925
# Velocity P-wave (km/s) = 4.86495 6.69205 5.85027
#
# Compressibility (1/GPa) = 0.02956070
#
# Stress axis : x y z
#
# Youngs Moduli (GPa) = 239.90144 27.20344 69.73823
#
# Poissons Ratio (x) = 0.10578 0.06816
# Poissons Ratio (y) = 0.93283 0.55705
# Poissons Ratio (z) = 0.23447 0.21729
#
# Static dielectric constant tensor:
#      x y z
#    x 2.356920 0.000000 0.034620 
#    y 0.000000 2.105160 0.000000 
#    z 0.034620 0.000000 2.205280 
# 
# From -- ./inp_files/222654.got.cif
#   From: 2010.05.17/outbox.cif.g08.bks.cpg/sg15_112_cif.got.tgz:222654.got - 2010.06.03 18:47:42.
