data_PCOD9254426
_publ_section_title
;
Structure prediction by ZEFSAII (Michael W. Deem and Ramdas Pophale) SiO2 
 PCOD9254426
Probable space group: C 2/C
;
_chemical_formula_sum "Si O2"
_cell_formula_units_Z 56
_cell_length_a 22.002037
_cell_length_b 20.894710
_cell_length_c 5.513395
_cell_angle_alpha 90.000000
_cell_angle_beta 64.934691
_cell_angle_gamma 90.000000
_cell_volume 2295.952382
_symmetry_space_group_name_H-M "C 2/C"
_symmetry_group_IT_number 15
_symmetry_cell_setting 'monoclinic'
loop_
_space_group_symop_operation_xyz
x,y,z
-x,y,1/2-z
-x,-y,-z
x,-y,1/2+z
1/2+x,1/2+y,z
1/2-x,1/2+y,1/2-z
1/2-x,1/2-y,-z
1/2+x,1/2-y,1/2+z
loop_
_atom_site_type_symbol
_atom_site_label
_atom_site_fract_x
_atom_site_fract_y
_atom_site_fract_z
Si Si1 0.904936 0.984376 0.278698
Si Si2 0.076840 0.521629 0.643920
Si Si3 0.720155 0.321660 0.542629
Si Si4 0.754074 0.964880 0.053886
Si Si5 0.576325 0.784666 0.654221
Si Si6 0.077505 0.329071 0.150000
Si Si7 0.139030 0.160847 0.680135
O O1 0.885961 0.910946 0.275736
O O2 0.938534 0.991097 0.480156
O O3 0.835505 0.026090 0.413092
O O4 0.106631 0.511946 0.328142
O O5 0.074445 0.596131 0.707230
O O6 0.000000 0.496366 0.750000
O O7 0.750000 0.250000 0.500000
O O8 0.761983 0.388931 0.435845
O O9 0.672661 0.323325 0.382623
O O10 0.687536 0.331669 0.864645
O O11 0.733598 0.002495 0.843258
O O12 0.500000 0.808573 0.750000
O O13 0.607399 0.795434 0.336449
O O14 0.580107 0.711163 0.724437
O O15 0.609284 0.819216 0.830602
O O16 0.000000 0.305315 0.250000
#
# Coordination Sequence:
#
# PCOD9254426 Si02
#       7
#     8   8   8   8   8   8   8
#     4  10  16  30  54  79 104 140 190 220 261 330
#     4   9  15  23  40  67  95 116 154 220 283 318
#     4  12  23  35  55  91 121 141 182 239 290 336
#     4  10  16  32  54  79 108 147 188 217 262 343
#     4  10  21  35  53  76 106 151 196 227 279 338
#     4   9  17  31  47  70 103 135 174 226 276 337
#     4  12  21  36  57  82 115 152 181 241 281 318
#
# _framework density 24.390749
#
# number of rings (size 3 to 8) (size 9 to 14) (size 15 to 20)
#    0.000    1.714    5.714    2.143    0.000    3.429 
#    0.000    0.000    0.000    0.857    0.000   20.000 
#    0.000    0.000    0.000    0.000    0.000    0.000 
#
# Total GULP energy -156373.288704 kJ/mol
# GULP energy per Si atom -5584.760311 kJ/mol
# Density = 2.433523 g / cm^3
# Si number density = 24.390749 Si / 1000 Ang^3
#
#
#
# Elastic Constant Matrix: (Units=GPa)
#
#
# Indices 1 2 3 4 5 6 
#
# 1 77.9407 16.5809 52.2493 0.0000 28.5662 0.0000
# 2 16.5809 162.3037 41.3030 0.0000 23.3179 0.0000
# 3 52.2493 41.3030 205.1798 0.0000 53.7097 0.0000
# 4 0.0000 0.0000 0.0000 37.3887 0.0000 22.6890
# 5 28.5662 23.3179 53.7097 0.0000 47.0349 0.0000
# 6 0.0000 0.0000 0.0000 22.6890 0.0000 5.4255
#
#
#
# Elastic Compliance Matrix: (Units=1/GPa)
#
#
# Indices 1 2 3 4 5 6 
#
# 1 0.017268 -0.000048 -0.002351 0.000000 -0.007778 0.000000
# 2 -0.000048 0.006700 -0.000677 0.000000 -0.002519 0.000000
# 3 -0.002351 -0.000677 0.007342 0.000000 -0.006620 0.000000
# 4 0.000000 0.000000 0.000000 -0.017393 0.000000 0.072736
# 5 -0.007778 -0.002519 -0.006620 0.000000 0.034793 0.000000
# 6 0.000000 0.000000 0.000000 0.072736 0.000000 -0.119860
#
#
# Mechanical properties :
#
#
# Convention : Reuss Voigt Hill
#
# Bulk Modulus (GPa) = 39.75092 73.96562 56.85827
# Shear Modulus (GPa) = -88.32182 40.32255 -23.99964
#
# Velocity S-wave (km/s) = -6.02410 4.07036 -3.14022
# Velocity P-wave (km/s) = 5.66158 7.24441 3.19594
#
# Compressibility (1/GPa) = 0.02515665
#
# Stress axis : x y z
#
# Youngs Moduli (GPa) = 57.91162 149.24338 136.20774
#
# Poissons Ratio (x) = 0.00719 0.32028
# Poissons Ratio (y) = 0.00279 0.09222
# Poissons Ratio (z) = 0.13617 0.10104
#
# Static dielectric constant tensor:
#      x y z
#    x 2.030770 0.000000 -0.019160 
#    y 0.000000 1.898380 0.000000 
#    z -0.019160 0.000000 1.993290 
# 
# From -- ./inp_files/17158.got.cif
#   From: 2010.05.17/outbox.cif.g08.bks.cpg/sg15_9_cif.got.tgz:17158.got - 2010.06.03 18:47:42.
