data_PCOD9254210
_publ_section_title
;
Structure prediction by ZEFSAII (Michael W. Deem and Ramdas Pophale) SiO2 
 PCOD9254210
Probable space group: C 2/C
;
_chemical_formula_sum "Si O2"
_cell_formula_units_Z 64
_cell_length_a 14.312868
_cell_length_b 32.590747
_cell_length_c 10.365426
_cell_angle_alpha 90.000000
_cell_angle_beta 136.841531
_cell_angle_gamma 90.000000
_cell_volume 3307.318378
_symmetry_space_group_name_H-M "C 2/C"
_symmetry_group_IT_number 15
_symmetry_cell_setting 'monoclinic'
loop_
_space_group_symop_operation_xyz
x,y,z
-x,y,1/2-z
-x,-y,-z
x,-y,1/2+z
1/2+x,1/2+y,z
1/2-x,1/2+y,1/2-z
1/2-x,1/2-y,-z
1/2+x,1/2-y,1/2+z
loop_
_atom_site_type_symbol
_atom_site_label
_atom_site_fract_x
_atom_site_fract_y
_atom_site_fract_z
Si Si1 0.773224 0.843271 0.360681
Si Si2 0.423326 0.436196 0.804991
Si Si3 0.697212 0.570489 0.702778
Si Si4 0.012252 0.686065 0.919286
Si Si5 0.488799 0.720463 0.083164
Si Si6 0.201003 0.850745 0.802480
Si Si7 0.164358 0.018177 0.898616
Si Si8 0.907024 0.484679 0.286579
O O1 0.832781 0.881902 0.346589
O O2 0.616711 0.839527 0.166846
O O3 0.793175 0.850507 0.534262
O O4 0.845053 0.800180 0.405412
O O5 0.500000 0.422650 0.750000
O O6 0.346159 0.396522 0.781447
O O7 0.329230 0.474446 0.671302
O O8 0.553442 0.450745 0.018359
O O9 0.721304 0.554747 0.869545
O O10 0.826466 0.557082 0.745919
O O11 0.002193 0.733132 0.955687
O O12 0.000000 0.687586 0.750000
O O13 0.150924 0.663365 0.093614
O O14 0.500000 0.723312 0.250000
O O15 0.598686 0.685652 0.157723
O O16 0.000000 0.023681 0.750000
O O17 0.272846 0.013160 0.123552
O O18 0.000000 0.481837 0.250000
O O19 0.000000 0.500000 0.500000
#
# Coordination Sequence:
#
# PCOD9254210 Si02
#       8
#     8   8   8   8   8   8   8   8
#     4  10  18  29  45  72 106 145 190 240 301 354
#     4  11  18  33  54  78 103 145 199 245 285 346
#     4  12  22  38  59  84 118 158 204 254 304 360
#     4   9  18  26  40  69 103 147 193 236 292 362
#     4   9  15  27  44  63 100 149 192 234 289 360
#     4  10  16  28  45  68 104 143 194 241 281 354
#     4  11  24  41  63  84 114 157 210 251 302 366
#     4  12  25  42  62  91 124 162 204 255 313 364
#
# _framework density 19.351023999999999
#
# number of rings (size 3 to 8) (size 9 to 14) (size 15 to 20)
#    0.000    1.500    6.250    1.500    0.000    5.500 
#    0.000    0.000    0.000    0.000    0.000    0.000 
#    0.000    1.000    0.000    0.250    0.000    0.500 
#
# Total GULP energy -178313.920575 kJ/mol
# GULP energy per Si atom -5572.310018 kJ/mol
# Density = 1.930698 g / cm^3
# Si number density = 19.351024 Si / 1000 Ang^3
#
#
#
# Elastic Constant Matrix: (Units=GPa)
#
#
# Indices 1 2 3 4 5 6 
#
# 1 48.7585 16.9509 24.2226 0.0000 10.4330 0.0000
# 2 16.9509 71.3799 17.4399 0.0000 0.1294 0.0000
# 3 24.2226 17.4399 87.0455 0.0000 14.3145 0.0000
# 4 0.0000 0.0000 0.0000 17.9423 0.0000 3.1579
# 5 10.4330 0.1294 14.3145 0.0000 23.8683 0.0000
# 6 0.0000 0.0000 0.0000 3.1579 0.0000 8.7459
#
#
#
# Elastic Compliance Matrix: (Units=1/GPa)
#
#
# Indices 1 2 3 4 5 6 
#
# 1 0.026586 -0.005086 -0.004962 0.000000 -0.008617 0.000000
# 2 -0.005086 0.015779 -0.002327 0.000000 0.003533 0.000000
# 3 -0.004962 -0.002327 0.014397 0.000000 -0.006452 0.000000
# 4 0.000000 0.000000 0.000000 0.059516 0.000000 -0.021490
# 5 -0.008617 0.003533 -0.006452 0.000000 0.049514 0.000000
# 6 0.000000 0.000000 0.000000 -0.021490 0.000000 0.122099
#
#
# Mechanical properties :
#
#
# Convention : Reuss Voigt Hill
#
# Bulk Modulus (GPa) = 31.23828 36.04564 33.64196
# Shear Modulus (GPa) = 15.46491 20.01598 17.74045
#
# Velocity S-wave (km/s) = 2.83004 3.21964 3.03111
# Velocity P-wave (km/s) = 5.18236 5.69992 5.44729
#
# Compressibility (1/GPa) = 0.03201201
#
# Stress axis : x y z
#
# Youngs Moduli (GPa) = 37.61331 63.37365 69.46131
#
# Poissons Ratio (x) = 0.32229 0.34469
# Poissons Ratio (y) = 0.19128 0.16166
# Poissons Ratio (z) = 0.18665 0.14749
#
# Static dielectric constant tensor:
#      x y z
#    x 1.726220 0.000000 -0.008110 
#    y 0.000000 1.658440 0.000000 
#    z -0.008110 0.000000 1.739440 
# 
# From -- ./inp_files/101674.got.cif
#   From: 2010.05.17/outbox.cif.g08.bks.cpg/sg15_51_cif.got.tgz:101674.got - 2010.06.03 18:47:42.
