data_PCOD9254455
_publ_section_title
;
Structure prediction by ZEFSAII (Michael W. Deem and Ramdas Pophale) SiO2 
 PCOD9254455
Probable space group: C 2/C
;
_chemical_formula_sum "Si O2"
_cell_formula_units_Z 52
_cell_length_a 9.373702
_cell_length_b 26.846497
_cell_length_c 11.566012
_cell_angle_alpha 90.000000
_cell_angle_beta 104.568669
_cell_angle_gamma 90.000000
_cell_volume 2817.014320
_symmetry_space_group_name_H-M "C 2/C"
_symmetry_group_IT_number 15
_symmetry_cell_setting 'monoclinic'
loop_
_space_group_symop_operation_xyz
x,y,z
-x,y,1/2-z
-x,-y,-z
x,-y,1/2+z
1/2+x,1/2+y,z
1/2-x,1/2+y,1/2-z
1/2-x,1/2-y,-z
1/2+x,1/2-y,1/2+z
loop_
_atom_site_type_symbol
_atom_site_label
_atom_site_fract_x
_atom_site_fract_y
_atom_site_fract_z
Si Si1 0.500000 0.328853 0.250000
Si Si2 0.086666 0.997632 0.892709
Si Si3 0.183178 0.897150 0.463288
Si Si4 0.246235 0.248466 0.808109
Si Si5 0.447483 0.611167 0.110419
Si Si6 0.414163 0.814019 0.529665
Si Si7 0.255393 0.297875 0.582000
O O1 0.578211 0.364146 0.358624
O O2 0.370774 0.291730 0.265838
O O3 0.190114 0.046230 0.919597
O O4 0.000000 0.001594 0.750000
O O5 0.143161 0.940811 0.907012
O O6 0.000000 0.000000 0.000000
O O7 0.334935 0.867357 0.504589
O O8 0.093647 0.896443 0.564554
O O9 0.364017 0.218773 0.908764
O O10 0.313216 0.279610 0.718099
O O11 0.156265 0.284611 0.876120
O O12 0.500000 0.620355 0.250000
O O13 0.352767 0.657915 0.050681
O O14 0.588840 0.816307 0.570334
O O15 0.250000 0.250000 0.500000
#
# Coordination Sequence:
#
# PCOD9254455 Si02
#       7
#     4   8   8   8   8   8   8
#     4  10  16  30  56  80 102 142 188 226 260 322
#     4   9  18  36  59  88 112 143 194 245 288 335
#     4  10  19  35  59  81 105 146 193 230 276 338
#     4  10  20  35  54  76 112 148 191 222 271 343
#     4  10  22  35  56  83 113 143 185 238 285 335
#     4  10  22  36  55  79 110 151 193 225 277 345
#     4  12  24  35  53  81 120 149 183 232 296 324
#
# _framework density 18.45926
#
# number of rings (size 3 to 8) (size 9 to 14) (size 15 to 20)
#    0.000    1.846    2.308    1.846    6.462    0.000 
#    0.000    0.769    0.000    0.000    0.000    4.308 
#    0.000    0.000    0.000    0.000    0.000    0.000 
#
# Total GULP energy -144944.712990 kJ/mol
# GULP energy per Si atom -5574.796653 kJ/mol
# Density = 1.841725 g / cm^3
# Si number density = 18.459260 Si / 1000 Ang^3
#
#
#
# Elastic Constant Matrix: (Units=GPa)
#
#
# Indices 1 2 3 4 5 6 
#
# 1 38.6641 27.8888 12.7272 0.0000 -0.4065 0.0000
# 2 27.8888 152.7353 27.5114 0.0000 5.3613 0.0000
# 3 12.7272 27.5114 74.2314 0.0000 -8.9015 0.0000
# 4 0.0000 0.0000 0.0000 26.7186 0.0000 0.0625
# 5 -0.4065 5.3613 -8.9015 0.0000 13.6620 0.0000
# 6 0.0000 0.0000 0.0000 0.0625 0.0000 24.4697
#
#
#
# Elastic Compliance Matrix: (Units=1/GPa)
#
#
# Indices 1 2 3 4 5 6 
#
# 1 0.030573 -0.005015 -0.003296 0.000000 0.000730 0.000000
# 2 -0.005015 0.008144 -0.002777 0.000000 -0.005154 0.000000
# 3 -0.003296 -0.002777 0.016471 0.000000 0.011723 0.000000
# 4 0.000000 0.000000 0.000000 0.037427 0.000000 -0.000096
# 5 0.000730 -0.005154 0.011723 0.000000 0.082879 0.000000
# 6 0.000000 0.000000 0.000000 -0.000096 0.000000 0.040867
#
#
# Mechanical properties :
#
#
# Convention : Reuss Voigt Hill
#
# Bulk Modulus (GPa) = 30.28952 44.65395 37.47173
# Shear Modulus (GPa) = 20.03681 26.13695 23.08688
#
# Velocity S-wave (km/s) = 3.29821 3.76696 3.54035
# Velocity P-wave (km/s) = 5.56316 6.56986 6.08735
#
# Compressibility (1/GPa) = 0.03301472
#
# Stress axis : x y z
#
# Youngs Moduli (GPa) = 32.70819 122.79043 60.71152
#
# Poissons Ratio (x) = 0.61574 0.20010
# Poissons Ratio (y) = 0.16402 0.16857
# Poissons Ratio (z) = 0.10780 0.34094
#
# Static dielectric constant tensor:
#      x y z
#    x 18.888100 0.000000 -9.760980 
#    y 0.000000 1.664410 0.000000 
#    z -9.760980 0.000000 7.176970 
# 
# From -- ./inp_files/80738.got.cif
#   From: 2010.05.17/outbox.cif.g08.bks.cpg/sg15_41_cif.got.tgz:80738.got - 2010.06.03 18:47:42.
