data_PCOD9254213
_publ_section_title
;
Structure prediction by ZEFSAII (Michael W. Deem and Ramdas Pophale) SiO2 
 PCOD9254213
Probable space group: C 2/C
;
_chemical_formula_sum "Si O2"
_cell_formula_units_Z 60
_cell_length_a 22.042708
_cell_length_b 8.194727
_cell_length_c 20.300257
_cell_angle_alpha 90.000000
_cell_angle_beta 118.379273
_cell_angle_gamma 90.000000
_cell_volume 3226.228232
_symmetry_space_group_name_H-M "C 2/C"
_symmetry_group_IT_number 15
_symmetry_cell_setting 'monoclinic'
loop_
_space_group_symop_operation_xyz
x,y,z
-x,y,1/2-z
-x,-y,-z
x,-y,1/2+z
1/2+x,1/2+y,z
1/2-x,1/2+y,1/2-z
1/2-x,1/2-y,-z
1/2+x,1/2-y,1/2+z
loop_
_atom_site_type_symbol
_atom_site_label
_atom_site_fract_x
_atom_site_fract_y
_atom_site_fract_z
Si Si1 0.372833 0.022678 0.647275
Si Si2 0.579567 0.426024 0.683673
Si Si3 0.286818 0.772943 0.196649
Si Si4 0.500000 0.745677 0.250000
Si Si5 0.410061 0.801013 0.778037
Si Si6 0.311572 0.996880 0.324124
Si Si7 0.035669 0.441457 0.914467
Si Si8 0.061717 0.296796 0.062036
O O1 0.382483 0.854707 0.692614
O O2 0.391589 0.991117 0.580856
O O3 0.306431 0.116561 0.643331
O O4 0.435229 0.140440 0.701999
O O5 0.644177 0.317325 0.741483
O O6 0.516277 0.364833 0.695601
O O7 0.592500 0.612430 0.706430
O O8 0.566305 0.375496 0.601385
O O9 0.232745 0.627804 0.158684
O O10 0.267375 0.889131 0.249004
O O11 0.362100 0.899483 0.803626
O O12 0.486566 0.868755 0.832330
O O13 0.363372 0.883240 0.391846
O O14 0.994182 0.593188 0.926078
O O15 0.042332 0.309211 0.975936
#
# Coordination Sequence:
#
# PCOD9254213 Si02
#       8
#     8   8   8   4   8   8   8   8
#     4  10  17  31  48  74  99 132 163 213 252 301
#     4  10  19  29  45  79  96 128 160 214 257 296
#     4   9  18  30  52  70 102 125 165 215 262 293
#     4  10  16  28  46  66 104 118 160 210 250 288
#     4  10  19  28  51  72 101 126 171 206 259 291
#     4   9  17  33  48  75  93 130 164 210 248 309
#     4  10  17  32  49  68 100 142 168 201 254 312
#     4   9  19  32  50  68 100 139 171 201 254 304
#
# _framework density 18.597569
#
# number of rings (size 3 to 8) (size 9 to 14) (size 15 to 20)
#    0.000    2.400    2.667    2.400    1.867    0.533 
#    0.000    0.667    0.000    0.000    0.000   31.733 
#    0.000    0.000    0.000    0.000    0.000    0.000 
#
# Total GULP energy -167057.734376 kJ/mol
# GULP energy per Si atom -5568.591146 kJ/mol
# Density = 1.855524 g / cm^3
# Si number density = 18.597569 Si / 1000 Ang^3
#
#
#
# Elastic Constant Matrix: (Units=GPa)
#
#
# Indices 1 2 3 4 5 6 
#
# 1 59.1378 7.1312 12.9858 0.0000 -10.7566 0.0000
# 2 7.1312 77.0853 3.3163 0.0000 -4.8413 0.0000
# 3 12.9858 3.3163 28.9184 0.0000 -12.7468 0.0000
# 4 0.0000 0.0000 0.0000 11.2341 0.0000 -2.3039
# 5 -10.7566 -4.8413 -12.7468 0.0000 16.4204 0.0000
# 6 0.0000 0.0000 0.0000 -2.3039 0.0000 20.8245
#
#
#
# Elastic Compliance Matrix: (Units=1/GPa)
#
#
# Indices 1 2 3 4 5 6 
#
# 1 0.019707 -0.001060 -0.004827 0.000000 0.008850 0.000000
# 2 -0.001060 0.013276 0.000567 0.000000 0.003660 0.000000
# 3 -0.004827 0.000567 0.053756 0.000000 0.038735 0.000000
# 4 0.000000 0.000000 0.000000 0.091081 0.000000 0.010077
# 5 0.008850 0.003660 0.038735 0.000000 0.097845 0.000000
# 6 0.000000 0.000000 0.000000 0.010077 0.000000 0.049135
#
#
# Mechanical properties :
#
#
# Convention : Reuss Voigt Hill
#
# Bulk Modulus (GPa) = 13.14066 23.55646 18.34856
# Shear Modulus (GPa) = 13.85781 19.14304 16.50042
#
# Velocity S-wave (km/s) = 2.73269 3.21180 2.98188
# Velocity P-wave (km/s) = 4.12770 5.14277 4.66294
#
# Compressibility (1/GPa) = 0.07609967
#
# Stress axis : x y z
#
# Youngs Moduli (GPa) = 50.74316 75.32304 18.60246
#
# Poissons Ratio (x) = 0.07981 0.08979
# Poissons Ratio (y) = 0.05377 -0.01054
# Poissons Ratio (z) = 0.24493 -0.04268
#
# Static dielectric constant tensor:
#      x y z
#    x 1.698330 0.000000 -0.009440 
#    y 0.000000 1.661920 0.000000 
#    z -0.009440 0.000000 1.655140 
# 
# From -- ./inp_files/251623.got.cif
#   From: 2010.05.17/outbox.cif.g08.bks.cpg/sg15_126_cif.got.tgz:251623.got - 2010.06.03 18:47:42.
