data_PCOD9254555
_publ_section_title
;
Structure prediction by ZEFSAII (Michael W. Deem and Ramdas Pophale) SiO2 
 PCOD9254555
Probable space group: C 2/C
;
_chemical_formula_sum "Si O2"
_cell_formula_units_Z 48
_cell_length_a 17.894109
_cell_length_b 7.502812
_cell_length_c 21.052049
_cell_angle_alpha 90.000000
_cell_angle_beta 40.702137
_cell_angle_gamma 90.000000
_cell_volume 1843.149164
_symmetry_space_group_name_H-M "C 2/C"
_symmetry_group_IT_number 15
_symmetry_cell_setting 'monoclinic'
loop_
_space_group_symop_operation_xyz
x,y,z
-x,y,1/2-z
-x,-y,-z
x,-y,1/2+z
1/2+x,1/2+y,z
1/2-x,1/2+y,1/2-z
1/2-x,1/2-y,-z
1/2+x,1/2-y,1/2+z
loop_
_atom_site_type_symbol
_atom_site_label
_atom_site_fract_x
_atom_site_fract_y
_atom_site_fract_z
Si Si1 0.358704 0.658793 0.529603
Si Si2 0.463743 0.239325 0.836404
Si Si3 0.059929 0.306910 0.475474
Si Si4 0.856542 0.492153 0.805365
Si Si5 0.743524 0.944170 0.818828
Si Si6 0.411738 0.713860 0.679400
O O1 0.388061 0.668432 0.437185
O O2 0.480231 0.678504 0.485365
O O3 0.280416 0.500555 0.606199
O O4 0.279226 0.827320 0.603108
O O5 0.500000 0.348386 0.750000
O O6 0.393052 0.073989 0.849755
O O7 0.580434 0.136499 0.782728
O O8 0.031495 0.245953 0.565609
O O9 0.000000 0.500000 0.500000
O O10 0.183874 0.365695 0.372959
O O11 0.907508 0.307838 0.750099
O O12 0.866879 0.012548 0.715736
O O13 0.676558 0.828118 0.808855
#
# Coordination Sequence:
#
# PCOD9254555 Si02
#       6
#     8   8   8   8   8   8
#     4  10  16  32  48  75  94 124 159 199 237 274
#     4   8  19  30  53  71  90 129 165 197 228 292
#     4   8  17  28  49  66  96 125 154 187 222 299
#     4   9  18  30  53  69  94 124 164 198 230 284
#     4  10  20  29  52  70 102 125 158 195 230 291
#     4  10  17  34  47  75  93 130 157 191 240 277
#
# _framework density 26.042387000000002
#
# number of rings (size 3 to 8) (size 9 to 14) (size 15 to 20)
#    1.000    2.000    0.000    5.500    0.000    0.000 
#    0.000    5.833    0.000    4.000    0.000    0.000 
#    0.000    0.000    0.000    0.000    0.000    0.000 
#
# Total GULP energy -133808.074126 kJ/mol
# GULP energy per Si atom -5575.336422 kJ/mol
# Density = 2.598311 g / cm^3
# Si number density = 26.042387 Si / 1000 Ang^3
#
#
#
# Elastic Constant Matrix: (Units=GPa)
#
#
# Indices 1 2 3 4 5 6 
#
# 1 40.2042 11.9598 27.3641 0.0000 9.2410 0.0000
# 2 11.9598 100.4891 43.8862 -0.0001 6.2531 0.0002
# 3 27.3641 43.8862 171.2057 0.0000 5.1244 0.0000
# 4 0.0000 -0.0001 0.0000 51.3813 0.0000 -3.0034
# 5 9.2410 6.2531 5.1244 0.0000 37.4486 0.0000
# 6 0.0000 0.0002 0.0000 -3.0034 0.0000 21.0840
#
#
#
# Elastic Compliance Matrix: (Units=1/GPa)
#
#
# Indices 1 2 3 4 5 6 
#
# 1 0.029618 -0.001281 -0.004211 0.000000 -0.006519 0.000000
# 2 -0.001281 0.011344 -0.002667 0.000000 -0.001213 0.000000
# 3 -0.004211 -0.002667 0.007183 0.000000 0.000501 0.000000
# 4 0.000000 0.000000 0.000000 0.019626 0.000000 0.002796
# 5 -0.006519 -0.001213 0.000501 0.000000 0.028446 0.000000
# 6 0.000000 0.000000 0.000000 0.002796 0.000000 0.047828
#
#
# Mechanical properties :
#
#
# Convention : Reuss Voigt Hill
#
# Bulk Modulus (GPa) = 31.41825 53.14657 42.28241
# Shear Modulus (GPa) = 29.24503 37.22870 33.23686
#
# Velocity S-wave (km/s) = 3.35472 3.78503 3.57635
# Velocity P-wave (km/s) = 5.20538 6.28919 5.77278
#
# Compressibility (1/GPa) = 0.03182863
#
# Stress axis : x y z
#
# Youngs Moduli (GPa) = 33.76313 88.15290 139.22700
#
# Poissons Ratio (x) = 0.11288 0.58622
# Poissons Ratio (y) = 0.04323 0.37130
# Poissons Ratio (z) = 0.14216 0.23509
#
# Static dielectric constant tensor:
#      x y z
#    x 2.206950 0.000000 -0.093220 
#    y 0.000000 2.106740 0.000000 
#    z -0.093220 0.000000 2.193250 
# 
# From -- ./inp_files/281336.got.cif
#   From: 2010.05.17/outbox.cif.g08.bks.cpg/sg15_141_cif.got.tgz:281336.got - 2010.06.03 18:47:42.
