data_PCOD9254954
_publ_section_title
;
Structure prediction by ZEFSAII (Michael W. Deem and Ramdas Pophale) SiO2 
 PCOD9254954
Probable space group: C 2/C
;
_chemical_formula_sum "Si O2"
_cell_formula_units_Z 40
_cell_length_a 8.706346
_cell_length_b 25.716346
_cell_length_c 9.780490
_cell_angle_alpha 90.000000
_cell_angle_beta 48.977991
_cell_angle_gamma 90.000000
_cell_volume 1652.116178
_symmetry_space_group_name_H-M "C 2/C"
_symmetry_group_IT_number 15
_symmetry_cell_setting 'monoclinic'
loop_
_space_group_symop_operation_xyz
x,y,z
-x,y,1/2-z
-x,-y,-z
x,-y,1/2+z
1/2+x,1/2+y,z
1/2-x,1/2+y,1/2-z
1/2-x,1/2-y,-z
1/2+x,1/2-y,1/2+z
loop_
_atom_site_type_symbol
_atom_site_label
_atom_site_fract_x
_atom_site_fract_y
_atom_site_fract_z
Si Si1 0.665802 0.226860 0.407384
Si Si2 0.635085 0.068603 0.805525
Si Si3 0.225419 0.823792 0.192918
Si Si4 0.752623 0.650914 0.368130
Si Si5 0.333271 0.044042 0.229853
O O1 0.750000 0.250000 0.500000
O O2 0.462817 0.194837 0.557459
O O3 0.629266 0.275774 0.330142
O O4 0.794687 0.188226 0.232785
O O5 0.500000 0.074607 0.750000
O O6 0.771713 0.119364 0.742259
O O7 0.754436 0.013455 0.742390
O O8 0.466922 0.063579 0.024020
O O9 0.173822 0.832874 0.063479
O O10 0.698516 0.592110 0.357720
O O11 0.000000 0.652214 0.250000
O O12 0.500000 0.035370 0.250000
#
# Coordination Sequence:
#
# PCOD9254954 Si02
#       5
#     8   8   8   8   8
#     4  11  21  33  50  72 100 135 171 214 246 292
#     4  10  17  25  46  72  99 127 159 208 255 298
#     4  11  21  35  50  73 106 138 169 203 250 304
#     4   9  17  33  48  68 101 134 166 201 251 301
#     4   9  15  28  45  68 101 128 156 204 264 298
#
# _framework density 24.211371
#
# number of rings (size 3 to 8) (size 9 to 14) (size 15 to 20)
#    0.000    2.000    6.000    2.400    0.000    0.000 
#    0.000    0.000    0.000    0.000    0.000    1.400 
#    0.000    7.200    0.000    2.600    0.000    3.600 
#
# Total GULP energy -111743.511509 kJ/mol
# GULP energy per Si atom -5587.175575 kJ/mol
# Density = 2.415627 g / cm^3
# Si number density = 24.211371 Si / 1000 Ang^3
#
#
#
# Elastic Constant Matrix: (Units=GPa)
#
#
# Indices 1 2 3 4 5 6 
#
# 1 30.5364 42.9373 15.1514 0.0000 18.4352 0.0000
# 2 42.9373 248.2763 43.7760 0.0000 15.8341 0.0000
# 3 15.1514 43.7760 112.4151 0.0000 24.5398 0.0000
# 4 0.0000 0.0000 0.0000 43.0442 0.0000 10.0850
# 5 18.4352 15.8341 24.5398 0.0000 36.0193 0.0000
# 6 0.0000 0.0000 0.0000 10.0850 0.0000 26.2955
#
#
#
# Elastic Compliance Matrix: (Units=1/GPa)
#
#
# Indices 1 2 3 4 5 6 
#
# 1 0.062417 -0.009213 0.001486 0.000000 -0.028908 0.000000
# 2 -0.009213 0.005709 -0.001718 0.000000 0.003376 0.000000
# 3 0.001486 -0.001718 0.011002 0.000000 -0.007500 0.000000
# 4 0.000000 0.000000 0.000000 0.025526 0.000000 -0.009790
# 5 -0.028908 0.003376 -0.007500 0.000000 0.046184 0.000000
# 6 0.000000 0.000000 0.000000 -0.009790 0.000000 0.041784
#
#
# Mechanical properties :
#
#
# Convention : Reuss Voigt Hill
#
# Bulk Modulus (GPa) = 16.60124 66.10635 41.35380
# Shear Modulus (GPa) = 21.58969 40.36265 30.97617
#
# Velocity S-wave (km/s) = 2.98940 4.08744 3.58076
# Velocity P-wave (km/s) = 4.33440 7.04552 5.84920
#
# Compressibility (1/GPa) = 0.06023647
#
# Stress axis : x y z
#
# Youngs Moduli (GPa) = 16.02120 175.17101 90.89360
#
# Poissons Ratio (x) = 1.61382 -0.13503
# Poissons Ratio (y) = 0.14760 0.15619
# Poissons Ratio (z) = -0.02380 0.30102
#
# Static dielectric constant tensor:
#      x y z
#    x 1.990560 0.000000 -0.123320 
#    y 0.000000 1.982550 0.000000 
#    z -0.123320 0.000000 1.967450 
# 
# From -- ./inp_files/32963.got.cif
#   From: 2010.05.17/outbox.cif.g08.bks.cpg/sg15_17_cif.got.tgz:32963.got - 2010.06.03 18:47:42.
