data_PCOD9254963
_publ_section_title
;
Structure prediction by ZEFSAII (Michael W. Deem and Ramdas Pophale) SiO2 
 PCOD9254963
Probable space group: C 2/C
;
_chemical_formula_sum "Si O2"
_cell_formula_units_Z 56
_cell_length_a 13.733784
_cell_length_b 32.648311
_cell_length_c 13.010034
_cell_angle_alpha 90.000000
_cell_angle_beta 145.082105
_cell_angle_gamma 90.000000
_cell_volume 3339.108308
_symmetry_space_group_name_H-M "C 2/C"
_symmetry_group_IT_number 15
_symmetry_cell_setting 'monoclinic'
loop_
_space_group_symop_operation_xyz
x,y,z
-x,y,1/2-z
-x,-y,-z
x,-y,1/2+z
1/2+x,1/2+y,z
1/2-x,1/2+y,1/2-z
1/2-x,1/2-y,-z
1/2+x,1/2-y,1/2+z
loop_
_atom_site_type_symbol
_atom_site_label
_atom_site_fract_x
_atom_site_fract_y
_atom_site_fract_z
Si Si1 0.016655 0.801735 0.888439
Si Si2 0.339421 0.941659 0.350662
Si Si3 0.517568 0.128676 0.888936
Si Si4 0.032529 0.954122 0.489156
Si Si5 0.597818 0.609790 0.226057
Si Si6 0.094348 0.715351 0.722043
Si Si7 0.897799 0.523183 0.264503
O O1 0.000000 0.803879 0.750000
O O2 0.951696 0.846119 0.865108
O O3 0.921775 0.760262 0.841331
O O4 0.211960 0.795941 0.087688
O O5 0.380685 0.900967 0.322198
O O6 0.479136 0.948414 0.559919
O O7 0.365327 0.980919 0.298123
O O8 0.143573 0.941564 0.218086
O O9 0.500000 0.128667 0.750000
O O10 0.493581 0.175742 0.904332
O O11 0.702692 0.111830 0.076760
O O12 0.055158 0.925445 0.608505
O O13 0.213646 0.955884 0.588242
O O14 0.000000 0.000000 0.500000
O O15 0.500000 0.604060 0.250000
O O16 0.000000 0.719668 0.750000
O O17 0.000000 0.513848 0.250000
#
# Coordination Sequence:
#
# PCOD9254963 Si02
#       7
#     8   8   8   8   8   8   8
#     4  10  17  27  41  64  96 134 172 206 245 302
#     4  10  20  36  53  75 103 131 173 213 253 310
#     4  11  19  30  49  73 102 142 174 210 256 303
#     4  10  21  38  50  75 102 130 174 219 256 304
#     4  11  20  32  50  73 100 140 177 214 256 309
#     4  10  17  26  40  64  97 135 170 205 245 301
#     4  10  21  37  55  74 102 135 169 216 264 303
#
# _framework density 16.770945000000001
#
# number of rings (size 3 to 8) (size 9 to 14) (size 15 to 20)
#    0.000    1.714    1.429    8.143    0.000    1.714 
#    0.000    0.000    0.000    0.000    0.000    0.000 
#    0.000    1.143    0.571    0.000    0.000    0.000 
#
# Total GULP energy -156096.394039 kJ/mol
# GULP energy per Si atom -5574.871216 kJ/mol
# Density = 1.673277 g / cm^3
# Si number density = 16.770945 Si / 1000 Ang^3
#
#
#
# Elastic Constant Matrix: (Units=GPa)
#
#
# Indices 1 2 3 4 5 6 
#
# 1 32.6099 -1.9846 25.7702 0.0000 16.4401 0.0000
# 2 -1.9846 100.2960 20.2346 0.0000 -1.1301 0.0000
# 3 25.7702 20.2346 90.0347 0.0000 30.1122 0.0000
# 4 0.0000 0.0000 0.0000 30.2505 0.0000 3.1529
# 5 16.4401 -1.1301 30.1122 0.0000 25.5189 0.0000
# 6 0.0000 0.0000 0.0000 3.1529 0.0000 35.2894
#
#
#
# Elastic Compliance Matrix: (Units=1/GPa)
#
#
# Indices 1 2 3 4 5 6 
#
# 1 0.047352 0.001951 -0.006307 0.000000 -0.022977 0.000000
# 2 0.001951 0.010984 -0.004575 0.000000 0.004628 0.000000
# 3 -0.006307 -0.004575 0.020895 0.000000 -0.020796 0.000000
# 4 0.000000 0.000000 0.000000 0.033368 0.000000 -0.002981
# 5 -0.022977 0.004628 -0.020796 0.000000 0.078733 0.000000
# 6 0.000000 0.000000 0.000000 -0.002981 0.000000 0.028603
#
#
# Mechanical properties :
#
#
# Convention : Reuss Voigt Hill
#
# Bulk Modulus (GPa) = 16.29484 34.55345 25.42414
# Shear Modulus (GPa) = 19.36070 30.13980 24.75025
#
# Velocity S-wave (km/s) = 3.40136 4.24387 3.84576
# Velocity P-wave (km/s) = 5.01626 6.68295 5.90867
#
# Compressibility (1/GPa) = 0.06136914
#
# Stress axis : x y z
#
# Youngs Moduli (GPa) = 21.11833 91.04006 47.85750
#
# Poissons Ratio (x) = -0.17757 0.30184
# Poissons Ratio (y) = -0.04119 0.21894
# Poissons Ratio (z) = 0.13320 0.41648
#
# Static dielectric constant tensor:
#      x y z
#    x 1.531480 0.000000 0.031950 
#    y 0.000000 1.604050 0.000000 
#    z 0.031950 0.000000 1.601490 
# 
# From -- ./inp_files/157467.got.cif
#   From: 2010.05.17/outbox.cif.g08.bks.cpg/sg15_79_cif.got.tgz:157467.got - 2010.06.03 18:47:42.
