data_PCOD9254120
_publ_section_title
;
Structure prediction by ZEFSAII (Michael W. Deem and Ramdas Pophale) SiO2 
 PCOD9254120
Probable space group: C 2/C
;
_chemical_formula_sum "Si O2"
_cell_formula_units_Z 40
_cell_length_a 9.281777
_cell_length_b 35.407581
_cell_length_c 5.541872
_cell_angle_alpha 90.000000
_cell_angle_beta 74.222278
_cell_angle_gamma 90.000000
_cell_volume 1752.689966
_symmetry_space_group_name_H-M "C 2/C"
_symmetry_group_IT_number 15
_symmetry_cell_setting 'monoclinic'
loop_
_space_group_symop_operation_xyz
x,y,z
-x,y,1/2-z
-x,-y,-z
x,-y,1/2+z
1/2+x,1/2+y,z
1/2-x,1/2+y,1/2-z
1/2-x,1/2-y,-z
1/2+x,1/2-y,1/2+z
loop_
_atom_site_type_symbol
_atom_site_label
_atom_site_fract_x
_atom_site_fract_y
_atom_site_fract_z
Si Si1 0.672874 0.014954 0.438261
Si Si2 0.851410 0.279482 0.099577
Si Si3 0.564809 0.712359 0.974949
Si Si4 0.836078 0.634259 0.543597
Si Si5 0.676374 0.104727 0.446939
O O1 0.679273 0.059755 0.468319
O O2 0.500000 0.000000 0.500000
O O3 0.739738 0.996116 0.648144
O O4 0.742978 0.287575 0.378436
O O5 0.863262 0.321317 0.993519
O O6 0.750000 0.250000 0.000000
O O7 0.003777 0.255773 0.019028
O O8 0.500000 0.696728 0.750000
O O9 0.500000 0.694789 0.250000
O O10 0.757899 0.617793 0.340917
O O11 0.001277 0.616202 0.498761
O O12 0.763040 0.624392 0.836676
#
# Coordination Sequence:
#
# PCOD9254120 Si02
#       5
#     8   8   8   8   8
#     4  10  16  26  45  65  95 129 173 201 237 309
#     4  10  23  37  57  75 101 137 186 237 277 315
#     4  10  22  37  54  75  98 125 178 229 281 319
#     4  10  20  31  47  65 100 127 176 218 259 308
#     4  10  20  31  46  71  99 135 173 209 265 311
#
# _framework density 22.822061000000001
#
# number of rings (size 3 to 8) (size 9 to 14) (size 15 to 20)
#    0.000    2.000    0.000    6.600   11.200    3.200 
#    0.000    0.000    0.000    0.000    0.000    0.000 
#    0.000    0.000    0.000    0.000    0.000 1028.000 
#
# Total GULP energy -111446.912820 kJ/mol
# GULP energy per Si atom -5572.345641 kJ/mol
# Density = 2.277012 g / cm^3
# Si number density = 22.822061 Si / 1000 Ang^3
#
#
#
# Elastic Constant Matrix: (Units=GPa)
#
#
# Indices 1 2 3 4 5 6 
#
# 1 43.5283 -2.7344 17.2280 0.0000 -1.2881 0.0000
# 2 -2.7344 161.1646 24.3690 0.0000 16.8478 0.0000
# 3 17.2280 24.3690 202.4404 0.0000 37.9491 0.0000
# 4 0.0000 0.0000 0.0000 25.4982 0.0000 11.8137
# 5 -1.2881 16.8478 37.9491 0.0000 38.3276 0.0000
# 6 0.0000 0.0000 0.0000 11.8137 0.0000 -19.9764
#
#
#
# Elastic Compliance Matrix: (Units=1/GPa)
#
#
# Indices 1 2 3 4 5 6 
#
# 1 0.024185 0.000478 -0.002737 0.000000 0.003312 0.000000
# 2 0.000478 0.006528 -0.000358 0.000000 -0.002499 0.000000
# 3 -0.002737 -0.000358 0.006389 0.000000 -0.006261 0.000000
# 4 0.000000 0.000000 0.000000 0.030784 0.000000 0.018205
# 5 0.003312 -0.002499 -0.006261 0.000000 0.033500 0.000000
# 6 0.000000 0.000000 0.000000 0.018205 0.000000 -0.039293
#
#
# Mechanical properties :
#
#
# Convention : Reuss Voigt Hill
#
# Bulk Modulus (GPa) = 31.37862 53.87319 42.62590
# Shear Modulus (GPa) = 64.14405 33.32125 48.73265
#
# Velocity S-wave (km/s) = 5.30728 3.82520 4.62598
# Velocity P-wave (km/s) = 7.16487 6.57012 6.87393
#
# Compressibility (1/GPa) = 0.03186884
#
# Stress axis : x y z
#
# Youngs Moduli (GPa) = 41.34844 153.17846 156.51012
#
# Poissons Ratio (x) = -0.07320 0.42831
# Poissons Ratio (y) = -0.01976 0.05604
# Poissons Ratio (z) = 0.11315 0.05484
#
# Static dielectric constant tensor:
#      x y z
#    x 1.944510 0.000000 0.165130 
#    y 0.000000 1.818240 0.000000 
#    z 0.165130 0.000000 2.114170 
# 
# From -- ./inp_files/5715.got.cif
#   From: 2010.05.17/outbox.cif.g08.bks.cpg/sg15_3_cif.got.tgz:5715.got - 2010.06.03 18:47:42.
