data_PCOD9254018
_publ_section_title
;
Structure prediction by ZEFSAII (Michael W. Deem and Ramdas Pophale) SiO2 
 PCOD9254018
Probable space group: C 2/C
;
_chemical_formula_sum "Si O2"
_cell_formula_units_Z 48
_cell_length_a 13.365738
_cell_length_b 14.844223
_cell_length_c 14.314324
_cell_angle_alpha 90.000000
_cell_angle_beta 42.002790
_cell_angle_gamma 90.000000
_cell_volume 1900.446455
_symmetry_space_group_name_H-M "C 2/C"
_symmetry_group_IT_number 15
_symmetry_cell_setting 'monoclinic'
loop_
_space_group_symop_operation_xyz
x,y,z
-x,y,1/2-z
-x,-y,-z
x,-y,1/2+z
1/2+x,1/2+y,z
1/2-x,1/2+y,1/2-z
1/2-x,1/2-y,-z
1/2+x,1/2-y,1/2+z
loop_
_atom_site_type_symbol
_atom_site_label
_atom_site_fract_x
_atom_site_fract_y
_atom_site_fract_z
Si Si1 0.996776 0.423607 0.917277
Si Si2 0.596141 0.419127 0.319184
Si Si3 0.811289 0.113604 0.220078
Si Si4 0.200397 0.648441 0.509182
Si Si5 0.295530 0.541467 0.971188
Si Si6 0.389374 0.187249 0.651871
O O1 0.160362 0.403331 0.767309
O O2 0.879407 0.440768 0.918323
O O3 0.939799 0.338340 0.013553
O O4 0.000000 0.500000 0.000000
O O5 0.604357 0.521043 0.349227
O O6 0.650999 0.435835 0.173378
O O7 0.418377 0.400603 0.442152
O O8 0.721759 0.354556 0.278188
O O9 0.750125 0.126742 0.368683
O O10 0.894118 0.206165 0.150683
O O11 0.250000 0.750000 0.500000
O O12 0.287305 0.566364 0.500141
O O13 0.017885 0.648425 0.631872
#
# Coordination Sequence:
#
# PCOD9254018 Si02
#       6
#     8   8   8   8   8   8
#     4  10  15  33  50  70  98 130 166 201 241 294
#     4   9  16  28  46  73  95 124 164 200 242 290
#     4  10  18  30  49  74 102 127 164 204 246 301
#     4  10  18  29  46  73 102 123 158 207 259 301
#     4   9  15  27  49  68  92 124 164 205 233 287
#     4  10  18  29  48  73 101 128 161 202 251 285
#
# _framework density 25.257224000000001
#
# number of rings (size 3 to 8) (size 9 to 14) (size 15 to 20)
#    0.000    2.333    6.667    1.000    0.000    2.000 
#    0.000    0.833    0.000    9.000    0.000    7.000 
#    0.000    0.000    0.000    0.000    0.000    0.000 
#
# Total GULP energy -133807.441553 kJ/mol
# GULP energy per Si atom -5575.310065 kJ/mol
# Density = 2.519974 g / cm^3
# Si number density = 25.257224 Si / 1000 Ang^3
#
#
#
# Elastic Constant Matrix: (Units=GPa)
#
#
# Indices 1 2 3 4 5 6 
#
# 1 96.5944 -9.4039 40.5702 0.0000 -33.1938 0.0000
# 2 -9.4039 29.2459 -2.5284 0.0000 -3.8546 0.0000
# 3 40.5702 -2.5284 69.1128 0.0000 -24.5959 0.0000
# 4 0.0000 0.0000 0.0000 33.3834 0.0000 -8.3508
# 5 -33.1938 -3.8546 -24.5959 0.0000 58.1698 0.0000
# 6 0.0000 0.0000 0.0000 -8.3508 0.0000 32.1881
#
#
#
# Elastic Compliance Matrix: (Units=1/GPa)
#
#
# Indices 1 2 3 4 5 6 
#
# 1 0.016035 0.005434 -0.006862 0.000000 0.006609 0.000000
# 2 0.005434 0.036689 0.000143 0.000000 0.005592 0.000000
# 3 -0.006862 0.000143 0.020143 0.000000 0.004611 0.000000
# 4 0.000000 0.000000 0.000000 0.032034 0.000000 0.008311
# 5 0.006609 0.005592 0.004611 0.000000 0.023282 0.000000
# 6 0.000000 0.000000 0.000000 0.008311 0.000000 0.033224
#
#
# Mechanical properties :
#
#
# Convention : Reuss Voigt Hill
#
# Bulk Modulus (GPa) = 14.22551 28.02543 21.12547
# Shear Modulus (GPa) = 26.67945 35.83594 31.25769
#
# Velocity S-wave (km/s) = 3.25362 3.77083 3.52173
# Velocity P-wave (km/s) = 4.44513 5.48443 4.99190
#
# Compressibility (1/GPa) = 0.07029627
#
# Stress axis : x y z
#
# Youngs Moduli (GPa) = 62.36532 27.25586 49.64424
#
# Poissons Ratio (x) = -0.14810 0.34065
# Poissons Ratio (y) = -0.33887 -0.00709
# Poissons Ratio (z) = 0.42794 -0.00389
#
# Static dielectric constant tensor:
#      x y z
#    x 2.091960 0.000000 -0.026800 
#    y 0.000000 2.115080 0.000000 
#    z -0.026800 0.000000 2.124770 
# 
# From -- ./inp_files/205292.got.cif
#   From: 2010.05.17/outbox.cif.g08.bks.cpg/sg15_103_cif.got.tgz:205292.got - 2010.06.03 18:47:42.
