data_PCOD9254204
_publ_section_title
;
Structure prediction by ZEFSAII (Michael W. Deem and Ramdas Pophale) SiO2 
 PCOD9254204
Probable space group: C 2/C
;
_chemical_formula_sum "Si O2"
_cell_formula_units_Z 40
_cell_length_a 9.479049
_cell_length_b 14.094574
_cell_length_c 12.495108
_cell_angle_alpha 90.000000
_cell_angle_beta 115.014358
_cell_angle_gamma 90.000000
_cell_volume 1512.800580
_symmetry_space_group_name_H-M "C 2/C"
_symmetry_group_IT_number 15
_symmetry_cell_setting 'monoclinic'
loop_
_space_group_symop_operation_xyz
x,y,z
-x,y,1/2-z
-x,-y,-z
x,-y,1/2+z
1/2+x,1/2+y,z
1/2-x,1/2+y,1/2-z
1/2-x,1/2-y,-z
1/2+x,1/2-y,1/2+z
loop_
_atom_site_type_symbol
_atom_site_label
_atom_site_fract_x
_atom_site_fract_y
_atom_site_fract_z
Si Si1 0.862588 0.414807 0.343170
Si Si2 0.163676 0.869678 0.593383
Si Si3 0.224512 0.421513 0.413018
Si Si4 0.946541 0.288605 0.567506
Si Si5 0.222072 0.881634 0.841846
O O1 0.798977 0.374515 0.210539
O O2 0.043699 0.445728 0.386111
O O3 0.870359 0.339138 0.438782
O O4 0.761095 0.505781 0.342985
O O5 0.058542 0.820825 0.468854
O O6 0.333331 0.821684 0.625339
O O7 0.119004 0.858058 0.704219
O O8 0.186309 0.980463 0.577634
O O9 0.298450 0.367250 0.537333
O O10 0.117144 0.328135 0.630289
#
# Coordination Sequence:
#
# PCOD9254204 Si02
#       5
#     8   8   8   8   8
#     4   9  15  25  43  63  90 119 148 183 232 272
#     4  10  18  25  42  68  95 118 151 187 231 268
#     4   9  15  26  43  64  86 120 152 181 222 281
#     4  10  17  27  40  66  98 117 148 193 231 263
#     4  10  16  28  43  63  93 122 146 185 231 271
#
# _framework density 26.441023999999999
#
# number of rings (size 3 to 8) (size 9 to 14) (size 15 to 20)
#    0.000    2.400    4.000    1.800    0.000    0.000 
#    0.000    1.000    0.000    0.000    0.000    5.600 
#    0.000    0.000    0.000    0.000    0.000    0.000 
#
# Total GULP energy -111870.082970 kJ/mol
# GULP energy per Si atom -5593.504148 kJ/mol
# Density = 2.638084 g / cm^3
# Si number density = 26.441024 Si / 1000 Ang^3
#
#
#
# Elastic Constant Matrix: (Units=GPa)
#
#
# Indices 1 2 3 4 5 6 
#
# 1 44.9872 8.6923 38.3632 0.0000 -1.6962 0.0000
# 2 8.6923 63.1899 20.0802 0.0000 -4.2353 0.0000
# 3 38.3632 20.0802 229.5368 0.0000 -20.1730 0.0000
# 4 0.0000 0.0000 0.0000 26.7515 0.0000 0.7192
# 5 -1.6962 -4.2353 -20.1730 0.0000 51.6485 0.0000
# 6 0.0000 0.0000 0.0000 0.7192 0.0000 14.4025
#
#
#
# Elastic Compliance Matrix: (Units=1/GPa)
#
#
# Indices 1 2 3 4 5 6 
#
# 1 0.026288 -0.002324 -0.004278 0.000000 -0.000998 0.000000
# 2 -0.002324 0.016516 -0.000978 0.000000 0.000896 0.000000
# 3 -0.004278 -0.000978 0.005320 0.000000 0.001857 0.000000
# 4 0.000000 0.000000 0.000000 0.037431 0.000000 -0.001869
# 5 -0.000998 0.000896 0.001857 0.000000 0.020128 0.000000
# 6 0.000000 0.000000 0.000000 -0.001869 0.000000 0.069526
#
#
# Mechanical properties :
#
#
# Convention : Reuss Voigt Hill
#
# Bulk Modulus (GPa) = 30.33484 52.44281 41.38882
# Shear Modulus (GPa) = 24.83166 36.59907 30.71537
#
# Velocity S-wave (km/s) = 3.06785 3.72449 3.41200
# Velocity P-wave (km/s) = 4.90372 6.19457 5.58656
#
# Compressibility (1/GPa) = 0.03296540
#
# Stress axis : x y z
#
# Youngs Moduli (GPa) = 38.04019 60.54847 187.95680
#
# Poissons Ratio (x) = 0.14069 0.80409
# Poissons Ratio (y) = 0.08839 0.18377
# Poissons Ratio (z) = 0.16274 0.05920
#
# Static dielectric constant tensor:
#      x y z
#    x 2.114250 0.000000 0.005980 
#    y 0.000000 2.019220 0.000000 
#    z 0.005980 0.000000 2.072740 
# 
# From -- ./inp_files/86892.got.cif
#   From: 2010.05.17/outbox.cif.g08.bks.cpg/sg15_44_cif.got.tgz:86892.got - 2010.06.03 18:47:42.
