data_PCOD9254627
_publ_section_title
;
Structure prediction by ZEFSAII (Michael W. Deem and Ramdas Pophale) SiO2 
 PCOD9254627
Probable space group: C 2/C
;
_chemical_formula_sum "Si O2"
_cell_formula_units_Z 44
_cell_length_a 26.100515
_cell_length_b 8.969500
_cell_length_c 31.285708
_cell_angle_alpha 90.000000
_cell_angle_beta 162.194693
_cell_angle_gamma 90.000000
_cell_volume 2239.635473
_symmetry_space_group_name_H-M "C 2/C"
_symmetry_group_IT_number 15
_symmetry_cell_setting 'monoclinic'
loop_
_space_group_symop_operation_xyz
x,y,z
-x,y,1/2-z
-x,-y,-z
x,-y,1/2+z
1/2+x,1/2+y,z
1/2-x,1/2+y,1/2-z
1/2-x,1/2-y,-z
1/2+x,1/2-y,1/2+z
loop_
_atom_site_type_symbol
_atom_site_label
_atom_site_fract_x
_atom_site_fract_y
_atom_site_fract_z
Si Si1 0.972398 0.863177 0.918212
Si Si2 0.754238 0.096758 0.795474
Si Si3 0.126793 0.862384 0.949951
Si Si4 0.340560 0.612497 0.595160
Si Si5 0.012974 0.470310 0.352755
Si Si6 0.000000 0.420362 0.250000
O O1 0.858383 0.720345 0.817097
O O2 0.066077 0.908399 0.948829
O O3 0.856184 0.994567 0.843853
O O4 0.112297 0.832025 0.065431
O O5 0.629623 0.998448 0.726268
O O6 0.030058 0.709515 0.863730
O O7 0.106196 0.991056 0.898518
O O8 0.326619 0.830969 0.108881
O O9 0.500000 0.651462 0.750000
O O10 0.250000 0.750000 0.500000
O O11 0.193860 0.536909 0.507121
O O12 0.978153 0.514584 0.276054
#
# Coordination Sequence:
#
# PCOD9254627 Si02
#       6
#     8   8   8   8   8   4
#     4  10  22  41  63  91 124 162 209 257 308 363
#     4  10  22  41  63  91 124 162 209 257 308 363
#     4  10  22  36  64  88 119 159 208 254 300 364
#     4  11  26  40  59  89 129 166 203 249 310 372
#     4  10  22  36  64  88 119 159 208 254 300 364
#     4  10  16  32  56  88 112 146 190 248 300 346
#
# _framework density 19.646055
#
# number of rings (size 3 to 8) (size 9 to 14) (size 15 to 20)
#    0.000    1.818    1.818    2.182   10.182    3.636 
#    0.000    3.636    0.000    0.000    0.000    0.000 
#    0.000    0.000    0.000    0.000    0.000    0.000 
#
# Total GULP energy -122762.084180 kJ/mol
# GULP energy per Si atom -5580.094735 kJ/mol
# Density = 1.960134 g / cm^3
# Si number density = 19.646055 Si / 1000 Ang^3
#
#
#
# Elastic Constant Matrix: (Units=GPa)
#
#
# Indices 1 2 3 4 5 6 
#
# 1 134.8203 32.2949 55.7010 0.0041 19.2049 -0.0020
# 2 32.2949 64.8744 29.4453 -0.0021 -2.2585 -0.0021
# 3 55.7010 29.4453 100.1431 -0.0246 -1.9320 0.0133
# 4 0.0041 -0.0021 -0.0246 24.1602 0.0252 6.1670
# 5 19.2049 -2.2585 -1.9320 0.0252 35.4467 -0.0081
# 6 -0.0020 -0.0021 0.0133 6.1670 -0.0081 20.5470
#
#
#
# Elastic Compliance Matrix: (Units=1/GPa)
#
#
# Indices 1 2 3 4 5 6 
#
# 1 0.011475 -0.003452 -0.005498 -0.000001 -0.006737 0.000002
# 2 -0.003452 0.018852 -0.003568 -0.000006 0.002877 0.000007
# 3 -0.005498 -0.003568 0.014161 0.000015 0.003523 -0.000013
# 4 -0.000001 -0.000006 0.000015 0.044825 -0.000034 -0.013454
# 5 -0.006737 0.002877 0.003523 -0.000034 0.032237 0.000020
# 6 0.000002 0.000007 -0.000013 -0.013454 0.000020 0.052707
#
#
# Mechanical properties :
#
#
# Convention : Reuss Voigt Hill
#
# Bulk Modulus (GPa) = 51.40422 59.41334 55.40878
# Shear Modulus (GPa) = 24.29843 28.19056 26.24449
#
# Velocity S-wave (km/s) = 3.52065 3.79215 3.65892
# Velocity P-wave (km/s) = 6.53824 7.03430 6.79080
#
# Compressibility (1/GPa) = 0.01945366
#
# Stress axis : x y z
#
# Youngs Moduli (GPa) = 87.14531 53.04442 70.61838
#
# Poissons Ratio (x) = 0.18309 0.38824
# Poissons Ratio (y) = 0.30079 0.25195
# Poissons Ratio (z) = 0.47910 0.18925
#
# Static dielectric constant tensor:
#      x y z
#    x 1.716170 0.000000 -0.019660 
#    y 0.000000 1.695670 -0.000010 
#    z -0.019660 -0.000010 1.714830 
# 
# From -- ./inp_files/318654.got.cif
#   From: 2010.05.17/outbox.cif.g08.bks.cpg/sg15_160_cif.got.tgz:318654.got - 2010.06.03 18:47:42.
