data_PCOD9254576
_publ_section_title
;
Structure prediction by ZEFSAII (Michael W. Deem and Ramdas Pophale) SiO2 
 PCOD9254576
Probable space group: C 2/C
;
_chemical_formula_sum "Si O2"
_cell_formula_units_Z 56
_cell_length_a 19.013374
_cell_length_b 14.537091
_cell_length_c 19.838268
_cell_angle_alpha 90.000000
_cell_angle_beta 36.474671
_cell_angle_gamma 90.000000
_cell_volume 3259.631230
_symmetry_space_group_name_H-M "C 2/C"
_symmetry_group_IT_number 15
_symmetry_cell_setting 'monoclinic'
loop_
_space_group_symop_operation_xyz
x,y,z
-x,y,1/2-z
-x,-y,-z
x,-y,1/2+z
1/2+x,1/2+y,z
1/2-x,1/2+y,1/2-z
1/2-x,1/2-y,-z
1/2+x,1/2-y,1/2+z
loop_
_atom_site_type_symbol
_atom_site_label
_atom_site_fract_x
_atom_site_fract_y
_atom_site_fract_z
Si Si1 0.631615 0.421524 0.462014
Si Si2 0.743200 0.062483 0.035437
Si Si3 0.978362 0.162556 0.841612
Si Si4 0.142947 0.736855 0.529021
Si Si5 0.765314 0.938849 0.891829
Si Si6 0.500000 0.841097 0.750000
Si Si7 0.116873 0.979377 0.323966
Si Si8 0.500000 0.323748 0.750000
O O1 0.710108 0.480673 0.453076
O O2 0.648249 0.315595 0.468400
O O3 0.661054 0.449252 0.363113
O O4 0.494992 0.451755 0.579854
O O5 0.617077 0.099361 0.154732
O O6 0.842530 0.141864 0.963642
O O7 0.741096 0.021938 0.961756
O O8 0.003348 0.269798 0.810523
O O9 0.000000 0.120584 0.750000
O O10 0.061378 0.109393 0.829203
O O11 0.250000 0.750000 0.500000
O O12 0.163414 0.637276 0.481113
O O13 0.029709 0.760040 0.662737
O O14 0.888241 0.888977 0.820020
O O15 0.788661 0.974709 0.798669
#
# Coordination Sequence:
#
# PCOD9254576 Si02
#       8
#     8   8   8   8   8   4   8   4
#     4  10  20  35  55  86 111 142 188 238 285 337
#     4  11  19  35  58  84 112 145 188 232 285 333
#     4   9  18  34  59  80 102 148 193 238 260 328
#     4  10  19  31  54  82 111 139 186 234 278 326
#     4  11  18  32  56  82 105 150 183 232 278 329
#     4  10  22  34  54  86 114 138 184 238 282 332
#     4  10  19  35  60  81 108 146 194 238 277 327
#     4  10  16  32  52  76 112 134 192 238 260 328
#
# _framework density 17.179856999999998
#
# number of rings (size 3 to 8) (size 9 to 14) (size 15 to 20)
#    0.429    1.429    5.714    1.286    0.000    0.571 
#    2.571    0.000    3.143    0.857    0.000    0.000 
#    0.000    0.000    0.000    0.000    0.000    0.000 
#
# Total GULP energy -156029.284657 kJ/mol
# GULP energy per Si atom -5572.474452 kJ/mol
# Density = 1.714075 g / cm^3
# Si number density = 17.179857 Si / 1000 Ang^3
#
#
#
# Elastic Constant Matrix: (Units=GPa)
#
#
# Indices 1 2 3 4 5 6 
#
# 1 31.3839 9.2714 18.6326 0.0000 22.3204 0.0000
# 2 9.2714 65.8627 39.7713 0.0000 5.2435 0.0000
# 3 18.6326 39.7713 101.5453 0.0000 8.7188 0.0000
# 4 0.0000 0.0000 0.0000 29.1804 0.0000 0.6242
# 5 22.3204 5.2435 8.7188 0.0000 32.6854 0.0000
# 6 0.0000 0.0000 0.0000 0.6242 0.0000 9.3878
#
#
#
# Elastic Compliance Matrix: (Units=1/GPa)
#
#
# Indices 1 2 3 4 5 6 
#
# 1 0.068922 -0.001081 -0.008389 0.000000 -0.044654 0.000000
# 2 -0.001081 0.019945 -0.007575 0.000000 -0.000440 0.000000
# 3 -0.008389 -0.007575 0.014080 0.000000 0.003188 0.000000
# 4 0.000000 0.000000 0.000000 0.034318 0.000000 -0.002282
# 5 -0.044654 -0.000440 0.003188 0.000000 0.060309 0.000000
# 6 0.000000 0.000000 0.000000 -0.002282 0.000000 0.106673
#
#
# Mechanical properties :
#
#
# Convention : Reuss Voigt Hill
#
# Bulk Modulus (GPa) = 14.52312 37.12695 25.82504
# Shear Modulus (GPa) = 13.83929 22.99182 18.41556
#
# Velocity S-wave (km/s) = 2.84131 3.66225 3.27758
# Velocity P-wave (km/s) = 4.38588 6.28812 5.42109
#
# Compressibility (1/GPa) = 0.06885572
#
# Stress axis : x y z
#
# Youngs Moduli (GPa) = 14.50920 50.13843 71.02099
#
# Poissons Ratio (x) = 0.05422 0.59579
# Poissons Ratio (y) = 0.01569 0.53801
# Poissons Ratio (z) = 0.12172 0.37982
#
# Static dielectric constant tensor:
#      x y z
#    x 1.563440 0.000000 0.008720 
#    y 0.000000 1.591100 0.000000 
#    z 0.008720 0.000000 1.605880 
# 
# From -- ./inp_files/211218.got.cif
#   From: 2010.05.17/outbox.cif.g08.bks.cpg/sg15_106_cif.got.tgz:211218.got - 2010.06.03 18:47:42.
