data_PCOD9254587
_publ_section_title
;
Structure prediction by ZEFSAII (Michael W. Deem and Ramdas Pophale) SiO2 
 PCOD9254587
Probable space group: C 2/C
;
_chemical_formula_sum "Si O2"
_cell_formula_units_Z 60
_cell_length_a 27.615165
_cell_length_b 18.277410
_cell_length_c 16.349047
_cell_angle_alpha 90.000000
_cell_angle_beta 157.811613
_cell_angle_gamma 90.000000
_cell_volume 3116.361387
_symmetry_space_group_name_H-M "C 2/C"
_symmetry_group_IT_number 15
_symmetry_cell_setting 'monoclinic'
loop_
_space_group_symop_operation_xyz
x,y,z
-x,y,1/2-z
-x,-y,-z
x,-y,1/2+z
1/2+x,1/2+y,z
1/2-x,1/2+y,1/2-z
1/2-x,1/2-y,-z
1/2+x,1/2-y,1/2+z
loop_
_atom_site_type_symbol
_atom_site_label
_atom_site_fract_x
_atom_site_fract_y
_atom_site_fract_z
Si Si1 0.869696 0.025439 0.705020
Si Si2 0.867377 0.569260 0.688729
Si Si3 0.411467 0.268774 0.531207
Si Si4 0.500000 0.492800 0.750000
Si Si5 0.225161 0.635214 0.119715
Si Si6 0.747225 0.895008 0.318924
Si Si7 0.511306 0.628257 0.042279
Si Si8 0.097280 0.500154 0.978375
O O1 0.941161 0.040009 0.731404
O O2 0.721996 0.002819 0.464477
O O3 0.898311 0.091352 0.811895
O O4 0.930451 0.945899 0.825198
O O5 0.841916 0.626418 0.574805
O O6 0.820823 0.602394 0.700302
O O7 0.012048 0.542174 0.912123
O O8 0.500000 0.277384 0.750000
O O9 0.359299 0.186135 0.453508
O O10 0.285589 0.314888 0.354144
O O11 0.473229 0.309674 0.548963
O O12 0.380317 0.441751 0.534376
O O13 0.371593 0.655978 0.331353
O O14 0.213994 0.552867 0.135784
O O15 0.656545 0.928960 0.109039
O O16 0.000000 0.491617 0.750000
#
# Coordination Sequence:
#
# PCOD9254587 Si02
#       8
#     8   8   8   4   8   8   8   8
#     4   9  17  31  57  82 114 142 198 247 279 340
#     4   9  19  34  53  82 115 152 189 241 306 343
#     4  12  22  34  54  86 121 156 186 241 299 366
#     4  10  16  32  52  88 114 144 186 254 302 330
#     4  10  22  36  54  82 125 158 181 239 308 362
#     4  11  20  33  56  86 114 149 205 243 289 345
#     4  10  20  33  53  83 113 155 196 230 291 348
#     4  10  21  36  55  83 116 155 196 242 300 350
#
# _framework density 19.253222000000001
#
# number of rings (size 3 to 8) (size 9 to 14) (size 15 to 20)
#    0.000    1.867    2.000    4.000    5.600    3.200 
#    0.000    0.000    0.000    0.000   10.400    9.333 
#    0.000    0.000    0.000    0.000    0.000    0.000 
#
# Total GULP energy -167216.747221 kJ/mol
# GULP energy per Si atom -5573.891574 kJ/mol
# Density = 1.920940 g / cm^3
# Si number density = 19.253222 Si / 1000 Ang^3
#
#
#
# Elastic Constant Matrix: (Units=GPa)
#
#
# Indices 1 2 3 4 5 6 
#
# 1 76.4772 15.7180 13.6631 0.0000 18.9395 0.0000
# 2 15.7180 55.3067 13.8544 0.0000 -4.8733 0.0000
# 3 13.6631 13.8544 37.0640 0.0000 8.3839 0.0000
# 4 0.0000 0.0000 0.0000 40.7362 0.0000 -8.4981
# 5 18.9395 -4.8733 8.3839 0.0000 20.4875 0.0000
# 6 0.0000 0.0000 0.0000 -8.4981 0.0000 25.5129
#
#
#
# Elastic Compliance Matrix: (Units=1/GPa)
#
#
# Indices 1 2 3 4 5 6 
#
# 1 0.019449 -0.007265 0.000004 0.000000 -0.019710 0.000000
# 2 -0.007265 0.024137 -0.010096 0.000000 0.016589 0.000000
# 3 0.000004 -0.010096 0.034490 0.000000 -0.016520 0.000000
# 4 0.000000 0.000000 0.000000 0.026381 0.000000 0.008787
# 5 -0.019710 0.016589 -0.016520 0.000000 0.077737 0.000000
# 6 0.000000 0.000000 0.000000 0.008787 0.000000 0.042123
#
#
# Mechanical properties :
#
#
# Convention : Reuss Voigt Hill
#
# Bulk Modulus (GPa) = 23.06229 28.36874 25.71551
# Shear Modulus (GPa) = 18.28257 25.72149 22.00203
#
# Velocity S-wave (km/s) = 3.08488 3.65904 3.38416
# Velocity P-wave (km/s) = 4.96921 5.71121 5.35308
#
# Compressibility (1/GPa) = 0.04336084
#
# Stress axis : x y z
#
# Youngs Moduli (GPa) = 51.41585 41.43079 28.99430
#
# Poissons Ratio (x) = 0.30100 -0.00013
# Poissons Ratio (y) = 0.37355 0.29274
# Poissons Ratio (z) = -0.00023 0.41831
#
# Static dielectric constant tensor:
#      x y z
#    x 1.741120 0.000000 0.008310 
#    y 0.000000 1.679730 0.000000 
#    z 0.008310 0.000000 1.695060 
# 
# From -- ./inp_files/225797.got.cif
#   From: 2010.05.17/outbox.cif.g08.bks.cpg/sg15_113_cif.got.tgz:225797.got - 2010.06.03 18:47:42.
