data_PCOD9254478
_publ_section_title
;
Structure prediction by ZEFSAII (Michael W. Deem and Ramdas Pophale) SiO2 
 PCOD9254478
Probable space group: C 2/C
;
_chemical_formula_sum "Si O2"
_cell_formula_units_Z 60
_cell_length_a 20.298760
_cell_length_b 17.238177
_cell_length_c 11.957158
_cell_angle_alpha 90.000000
_cell_angle_beta 56.107839
_cell_angle_gamma 90.000000
_cell_volume 3473.067745
_symmetry_space_group_name_H-M "C 2/C"
_symmetry_group_IT_number 15
_symmetry_cell_setting 'monoclinic'
loop_
_space_group_symop_operation_xyz
x,y,z
-x,y,1/2-z
-x,-y,-z
x,-y,1/2+z
1/2+x,1/2+y,z
1/2-x,1/2+y,1/2-z
1/2-x,1/2-y,-z
1/2+x,1/2-y,1/2+z
loop_
_atom_site_type_symbol
_atom_site_label
_atom_site_fract_x
_atom_site_fract_y
_atom_site_fract_z
Si Si1 0.381415 0.186066 0.048303
Si Si2 0.008807 0.725692 0.112057
Si Si3 0.000000 0.296413 0.250000
Si Si4 0.634252 0.518103 0.874816
Si Si5 0.984058 0.087918 0.890840
Si Si6 0.374778 0.236619 0.685593
Si Si7 0.719114 0.615477 0.180637
Si Si8 0.716789 0.658333 0.921679
O O1 0.433128 0.200221 0.110061
O O2 0.309794 0.126496 0.132249
O O3 0.340142 0.267968 0.051483
O O4 0.439152 0.161175 0.891514
O O5 0.016776 0.819188 0.103940
O O6 0.000000 0.700988 0.250000
O O7 0.084916 0.702163 0.964232
O O8 0.056142 0.252040 0.286101
O O9 0.558553 0.560345 0.893067
O O10 0.684170 0.468592 0.738395
O O11 0.686072 0.583001 0.886247
O O12 0.595217 0.454691 0.993957
O O13 0.000000 0.062701 0.750000
O O14 0.333517 0.319498 0.706685
O O15 0.305126 0.182703 0.800312
O O16 0.715411 0.640014 0.054342
#
# Coordination Sequence:
#
# PCOD9254478 Si02
#       8
#     8   8   4   8   8   8   8   8
#     4  10  19  34  58  84 110 138 192 230 280 315
#     4  10  20  36  55  80 115 146 182 225 271 340
#     4  10  16  30  60  88  98 138 172 252 280 310
#     4  11  22  34  52  79 116 152 176 219 276 338
#     4  10  20  35  49  77 113 151 179 209 265 343
#     4  10  19  34  58  84 110 138 192 230 280 315
#     4  11  20  36  53  85 114 142 181 234 276 328
#     4  11  20  36  53  85 114 142 181 234 276 328
#
# _framework density 17.275793
#
# number of rings (size 3 to 8) (size 9 to 14) (size 15 to 20)
#    0.000    1.600    5.333    1.600    0.000    0.000 
#    2.400    5.333    0.000    3.200    3.467    0.000 
#    0.000    0.000    0.000    0.000    0.000    0.000 
#
# Total GULP energy -167188.168724 kJ/mol
# GULP energy per Si atom -5572.938957 kJ/mol
# Density = 1.723647 g / cm^3
# Si number density = 17.275793 Si / 1000 Ang^3
#
#
#
# Elastic Constant Matrix: (Units=GPa)
#
#
# Indices 1 2 3 4 5 6 
#
# 1 80.0536 14.7535 43.8836 0.0000 -4.8753 0.0000
# 2 14.7535 40.1642 14.6403 0.0000 -6.8842 0.0000
# 3 43.8836 14.6403 119.7742 0.0000 0.9114 0.0000
# 4 0.0000 0.0000 0.0000 276.0321 0.0000 -509.7266
# 5 -4.8753 -6.8842 0.9114 0.0000 32.0161 0.0000
# 6 0.0000 0.0000 0.0000 -509.7266 0.0000 1040.1076
#
#
#
# Elastic Compliance Matrix: (Units=1/GPa)
#
#
# Indices 1 2 3 4 5 6 
#
# 1 0.016319 -0.003654 -0.005546 0.000000 0.001857 0.000000
# 2 -0.003654 0.027958 -0.002121 0.000000 0.005516 0.000000
# 3 -0.005546 -0.002121 0.010653 0.000000 -0.001604 0.000000
# 4 0.000000 0.000000 0.000000 0.038124 0.000000 0.018684
# 5 0.001857 0.005516 -0.001604 0.000000 0.032749 0.000000
# 6 0.000000 0.000000 0.000000 0.018684 0.000000 0.010118
#
#
# Mechanical properties :
#
#
# Convention : Reuss Voigt Hill
#
# Bulk Modulus (GPa) = 30.97198 42.94965 36.96081
# Shear Modulus (GPa) = 29.52898 280.74547 155.13723
#
# Velocity S-wave (km/s) = 4.13882 12.76169 9.48659
# Velocity P-wave (km/s) = 6.38801 15.55837 11.89263
#
# Compressibility (1/GPa) = 0.03228725
#
# Stress axis : x y z
#
# Youngs Moduli (GPa) = 61.27988 35.76737 93.87427
#
# Poissons Ratio (x) = 0.13070 0.52066
# Poissons Ratio (y) = 0.22393 0.19906
# Poissons Ratio (z) = 0.33988 0.07585
#
# Static dielectric constant tensor:
#      x y z
#    x 1.586930 0.000000 -0.008670 
#    y 0.000000 1.572160 0.000000 
#    z -0.008670 0.000000 1.624380 
# 
# From -- ./inp_files/106680.got.cif
#   From: 2010.05.17/outbox.cif.g08.bks.cpg/sg15_54_cif.got.tgz:106680.got - 2010.06.03 18:47:42.
