data_PCOD9254059
_publ_section_title
;
Structure prediction by ZEFSAII (Michael W. Deem and Ramdas Pophale) SiO2 
 PCOD9254059
Probable space group: C 2/C
;
_chemical_formula_sum "Si O2"
_cell_formula_units_Z 56
_cell_length_a 17.345239
_cell_length_b 10.101137
_cell_length_c 14.760132
_cell_angle_alpha 90.000000
_cell_angle_beta 125.564465
_cell_angle_gamma 90.000000
_cell_volume 2103.671235
_symmetry_space_group_name_H-M "C 2/C"
_symmetry_group_IT_number 15
_symmetry_cell_setting 'monoclinic'
loop_
_space_group_symop_operation_xyz
x,y,z
-x,y,1/2-z
-x,-y,-z
x,-y,1/2+z
1/2+x,1/2+y,z
1/2-x,1/2+y,1/2-z
1/2-x,1/2-y,-z
1/2+x,1/2-y,1/2+z
loop_
_atom_site_type_symbol
_atom_site_label
_atom_site_fract_x
_atom_site_fract_y
_atom_site_fract_z
Si Si1 0.094506 0.416243 0.365657
Si Si2 0.230006 0.229503 0.094218
Si Si3 0.795282 0.056933 0.973211
Si Si4 0.455506 0.209295 0.098833
Si Si5 0.200586 0.992022 0.305555
Si Si6 0.593203 0.093764 0.069924
Si Si7 0.506630 0.517485 0.355412
O O1 0.194767 0.368361 0.391569
O O2 0.081391 0.580112 0.368556
O O3 0.097536 0.360968 0.469083
O O4 0.000000 0.375747 0.250000
O O5 0.293128 0.332875 0.189716
O O6 0.250000 0.250000 0.000000
O O7 0.122991 0.280993 0.033421
O O8 0.229238 0.074208 0.100791
O O9 0.798220 0.030398 0.085164
O O10 0.906551 0.080918 0.029814
O O11 0.557382 0.180702 0.127928
O O12 0.461872 0.361754 0.135767
O O13 0.102655 0.030451 0.189971
O O14 0.300826 0.044513 0.338474
O O15 0.500000 0.000000 0.000000
O O16 0.500000 0.574733 0.250000
#
# Coordination Sequence:
#
# PCOD9254059 Si02
#       7
#     8   8   8   8   8   8   8
#     4  10  17  23  37  55  81 114 148 173 206 252
#     4   9  12  20  33  49  79 110 134 165 198 239
#     4   8  15  23  31  53  84 108 133 172 208 239
#     4  10  16  24  37  54  84 117 144 171 213 247
#     4   9  14  23  35  52  80 114 142 165 204 249
#     4   9  16  28  36  52  84 119 140 173 216 252
#     4   9  17  22  38  61  87 115 142 168 200 255
#
# _framework density 26.620128999999999
#
# number of rings (size 3 to 8) (size 9 to 14) (size 15 to 20)
#    0.000    2.857    5.714    1.286    2.000    0.000 
#    0.000    0.000    0.000    0.000    0.000    4.000 
#    0.000    4.571    0.000   30.143    0.000   20.143 
#
# Total GULP energy -155914.388815 kJ/mol
# GULP energy per Si atom -5568.371029 kJ/mol
# Density = 2.655954 g / cm^3
# Si number density = 26.620129 Si / 1000 Ang^3
#
#
#
# Elastic Constant Matrix: (Units=GPa)
#
#
# Indices 1 2 3 4 5 6 
#
# 1 137.2598 24.0234 69.2008 0.0000 64.0296 0.0000
# 2 24.0234 96.4372 23.1730 0.0000 14.8303 0.0000
# 3 69.2008 23.1730 154.6884 0.0000 57.9192 0.0000
# 4 0.0000 0.0000 0.0000 4.2957 0.0000 8.9971
# 5 64.0296 14.8303 57.9192 0.0000 60.8217 0.0000
# 6 0.0000 0.0000 0.0000 8.9971 0.0000 19.9176
#
#
#
# Elastic Compliance Matrix: (Units=1/GPa)
#
#
# Indices 1 2 3 4 5 6 
#
# 1 0.014591 -0.001215 -0.001096 0.000000 -0.014021 0.000000
# 2 -0.001215 0.010971 -0.000897 0.000000 -0.000541 0.000000
# 3 -0.001096 -0.000897 0.010219 0.000000 -0.008359 0.000000
# 4 0.000000 0.000000 0.000000 4.319043 0.000000 -1.950979
# 5 -0.014021 -0.000541 -0.008359 0.000000 0.039295 0.000000
# 6 0.000000 0.000000 0.000000 -1.950979 0.000000 0.931495
#
#
# Mechanical properties :
#
#
# Convention : Reuss Voigt Hill
#
# Bulk Modulus (GPa) = 34.05397 69.02000 51.53698
# Shear Modulus (GPa) = 0.93601 35.13954 18.03777
#
# Velocity S-wave (km/s) = 0.59362 3.63717 2.60590
# Velocity P-wave (km/s) = 3.64557 6.60475 5.33446
#
# Compressibility (1/GPa) = 0.02936515
#
# Stress axis : x y z
#
# Youngs Moduli (GPa) = 68.53491 91.14922 97.85674
#
# Poissons Ratio (x) = 0.11078 0.10720
# Poissons Ratio (y) = 0.08329 0.08779
# Poissons Ratio (z) = 0.07508 0.08177
#
# Static dielectric constant tensor:
#      x y z
#    x 2.336770 0.000000 0.046280 
#    y 0.000000 2.174320 0.000000 
#    z 0.046280 0.000000 2.078980 
# 
# From -- ./inp_files/210694.got.cif
#   From: 2010.05.17/outbox.cif.g08.bks.cpg/sg15_106_cif.got.tgz:210694.got - 2010.06.03 18:47:42.
