data_PCOD9254352
_publ_section_title
;
Structure prediction by ZEFSAII (Michael W. Deem and Ramdas Pophale) SiO2 
 PCOD9254352
Probable space group: C 2/C
;
_chemical_formula_sum "Si O2"
_cell_formula_units_Z 64
_cell_length_a 28.168448
_cell_length_b 21.802853
_cell_length_c 13.166445
_cell_angle_alpha 90.000000
_cell_angle_beta 150.293395
_cell_angle_gamma 90.000000
_cell_volume 4007.190305
_symmetry_space_group_name_H-M "C 2/C"
_symmetry_group_IT_number 15
_symmetry_cell_setting 'monoclinic'
loop_
_space_group_symop_operation_xyz
x,y,z
-x,y,1/2-z
-x,-y,-z
x,-y,1/2+z
1/2+x,1/2+y,z
1/2-x,1/2+y,1/2-z
1/2-x,1/2-y,-z
1/2+x,1/2-y,1/2+z
loop_
_atom_site_type_symbol
_atom_site_label
_atom_site_fract_x
_atom_site_fract_y
_atom_site_fract_z
Si Si1 0.596117 0.100534 0.634241
Si Si2 0.613720 0.863546 0.838138
Si Si3 0.109937 0.232794 0.950920
Si Si4 0.885296 0.523843 0.016907
Si Si5 0.723379 0.196953 0.371617
Si Si6 0.387361 0.767905 0.028597
Si Si7 0.899471 0.399733 0.121996
Si Si8 0.225238 0.718712 0.847345
O O1 0.495128 0.124415 0.400882
O O2 0.626791 0.043508 0.621677
O O3 0.583719 0.085758 0.729160
O O4 0.674475 0.153866 0.769991
O O5 0.614284 0.800292 0.904213
O O6 0.645803 0.919730 0.969166
O O7 0.679455 0.855847 0.860508
O O8 0.000000 0.213249 0.750000
O O9 0.181772 0.189296 0.020782
O O10 0.151965 0.242246 0.141451
O O11 0.845293 0.457365 0.971908
O O12 0.000000 0.519474 0.250000
O O13 0.750000 0.250000 0.500000
O O14 0.642433 0.220998 0.143175
O O15 0.500000 0.756821 0.250000
O O16 0.358221 0.831752 0.030776
O O17 0.321359 0.716682 0.957674
O O18 0.000000 0.393890 0.250000
O O19 0.250000 0.750000 0.000000
#
# Coordination Sequence:
#
# PCOD9254352 Si02
#       8
#     8   8   8   8   8   8   8   8
#     4  11  19  32  50  69  99 138 167 200 245 294
#     4  10  16  30  48  67  98 135 164 197 246 285
#     4  10  17  31  47  67  97 133 168 201 244 296
#     4   9  19  30  48  69  94 135 172 196 230 301
#     4   9  20  28  45  70  95 132 164 203 242 297
#     4  10  20  33  47  70 106 136 161 206 251 288
#     4  10  20  31  45  71 100 131 168 201 241 290
#     4  11  20  30  49  72  95 137 171 199 244 305
#
# _framework density 15.97129
#
# number of rings (size 3 to 8) (size 9 to 14) (size 15 to 20)
#    0.000    2.000    3.750    1.875    0.000    5.500 
#    0.000    0.000    0.000    0.000    0.000    0.000 
#    0.000   14.000    0.000    0.000    0.000    0.000 
#
# Total GULP energy -178260.928142 kJ/mol
# GULP energy per Si atom -5570.654004 kJ/mol
# Density = 1.593494 g / cm^3
# Si number density = 15.971290 Si / 1000 Ang^3
#
#
#
# Elastic Constant Matrix: (Units=GPa)
#
#
# Indices 1 2 3 4 5 6 
#
# 1 89.3340 16.8225 34.3503 0.0000 -8.3387 0.0000
# 2 16.8225 39.0598 3.3245 0.0000 3.4562 0.0000
# 3 34.3503 3.3245 84.5869 0.0000 -6.1929 0.0000
# 4 0.0000 0.0000 0.0000 10.5336 0.0000 -5.9960
# 5 -8.3387 3.4562 -6.1929 0.0000 36.9937 0.0000
# 6 0.0000 0.0000 0.0000 -5.9960 0.0000 -1.7356
#
#
#
# Elastic Compliance Matrix: (Units=1/GPa)
#
#
# Indices 1 2 3 4 5 6 
#
# 1 0.014757 -0.006148 -0.005533 0.000000 0.002974 0.000000
# 2 -0.006148 0.028498 0.001094 0.000000 -0.003865 0.000000
# 3 -0.005533 0.001094 0.014100 0.000000 0.001011 0.000000
# 4 0.000000 0.000000 0.000000 0.032001 0.000000 -0.110558
# 5 0.002974 -0.003865 0.001011 0.000000 0.028232 0.000000
# 6 0.000000 0.000000 0.000000 -0.110558 0.000000 -0.194225
#
#
# Mechanical properties :
#
#
# Convention : Reuss Voigt Hill
#
# Bulk Modulus (GPa) = 27.63921 35.77502 31.70711
# Shear Modulus (GPa) = -115.20684 19.72392 -47.74146
#
# Velocity S-wave (km/s) = -8.50237 3.51801 -5.47329
# Velocity P-wave (km/s) = 8.89067 6.24100 4.47738
#
# Compressibility (1/GPa) = 0.03618049
#
# Stress axis : x y z
#
# Youngs Moduli (GPa) = 67.76483 35.08957 70.92071
#
# Poissons Ratio (x) = 0.21572 0.39243
# Poissons Ratio (y) = 0.41661 -0.07756
# Poissons Ratio (z) = 0.37496 -0.03837
#
# Static dielectric constant tensor:
#      x y z
#    x 1.596210 0.000000 -0.004640 
#    y 0.000000 1.566080 0.000000 
#    z -0.004640 0.000000 1.537330 
# 
# From -- ./inp_files/124289.got.cif
#   From: 2010.05.17/outbox.cif.g08.bks.cpg/sg15_63_cif.got.tgz:124289.got - 2010.06.03 18:47:42.
