data_PCOD9254715
_publ_section_title
;
Structure prediction by ZEFSAII (Michael W. Deem and Ramdas Pophale) SiO2 
 PCOD9254715
Probable space group: C 2/C
;
_chemical_formula_sum "Si O2"
_cell_formula_units_Z 56
_cell_length_a 10.386253
_cell_length_b 23.229042
_cell_length_c 20.975399
_cell_angle_alpha 90.000000
_cell_angle_beta 41.434821
_cell_angle_gamma 90.000000
_cell_volume 3348.928988
_symmetry_space_group_name_H-M "C 2/C"
_symmetry_group_IT_number 15
_symmetry_cell_setting 'monoclinic'
loop_
_space_group_symop_operation_xyz
x,y,z
-x,y,1/2-z
-x,-y,-z
x,-y,1/2+z
1/2+x,1/2+y,z
1/2-x,1/2+y,1/2-z
1/2-x,1/2-y,-z
1/2+x,1/2-y,1/2+z
loop_
_atom_site_type_symbol
_atom_site_label
_atom_site_fract_x
_atom_site_fract_y
_atom_site_fract_z
Si Si1 0.959667 0.486441 0.841590
Si Si2 0.317296 0.721761 0.040327
Si Si3 0.000000 0.300737 0.750000
Si Si4 0.405581 0.591342 0.036093
Si Si5 0.500000 0.676283 0.250000
Si Si6 0.760363 0.110020 0.231480
Si Si7 0.351567 0.104438 0.863563
Si Si8 0.750552 0.764359 0.073362
O O1 0.751041 0.455748 0.927310
O O2 0.943112 0.552221 0.871042
O O3 0.000000 0.488403 0.750000
O O4 0.133059 0.445098 0.800226
O O5 0.160258 0.735469 0.153248
O O6 0.331742 0.652203 0.035298
O O7 0.250000 0.750000 0.000000
O O8 0.532260 0.739967 0.979992
O O9 0.889956 0.342355 0.740756
O O10 0.388889 0.595791 0.120099
O O11 0.629274 0.583446 0.932385
O O12 0.378239 0.637122 0.245925
O O13 0.625440 0.719308 0.159765
O O14 0.500000 0.109227 0.750000
O O15 0.323181 0.169692 0.896367
O O16 0.750000 0.750000 0.000000
#
# Coordination Sequence:
#
# PCOD9254715 Si02
#       8
#     8   8   4   8   4   8   8   8
#     4   9  16  31  56  82 105 134 184 239 275 314
#     4  10  19  31  53  78 106 140 185 223 266 328
#     4  10  16  34  51  74 107 138 186 230 268 320
#     4   9  17  32  51  80 110 135 180 228 279 319
#     4  12  22  34  55  82 115 150 186 220 278 344
#     4  10  18  33  56  81 105 142 187 229 271 324
#     4  10  19  32  51  83 110 141 180 231 279 322
#     4  11  23  37  51  80 116 149 181 224 279 338
#
# _framework density 16.721764
#
# number of rings (size 3 to 8) (size 9 to 14) (size 15 to 20)
#    0.000    2.000    4.286    3.857    0.000    0.000 
#    0.000    0.000    0.000    3.429   14.857    0.000 
#    0.000    0.000    0.000    0.000    0.000    0.000 
#
# Total GULP energy -155903.613658 kJ/mol
# GULP energy per Si atom -5567.986202 kJ/mol
# Density = 1.668370 g / cm^3
# Si number density = 16.721764 Si / 1000 Ang^3
#
#
#
# Elastic Constant Matrix: (Units=GPa)
#
#
# Indices 1 2 3 4 5 6 
#
# 1 114.1501 70.7788 48.0798 0.0002 2.4852 0.0000
# 2 70.7788 113.4235 53.7487 0.0000 -6.6288 0.0000
# 3 48.0798 53.7487 119.3578 0.0001 -20.0534 -0.0001
# 4 0.0002 0.0000 0.0001 9.0683 -0.0001 -4.1054
# 5 2.4852 -6.6288 -20.0534 -0.0001 22.0179 0.0001
# 6 0.0000 0.0000 -0.0001 -4.1054 0.0001 29.1213
#
#
#
# Elastic Compliance Matrix: (Units=1/GPa)
#
#
# Indices 1 2 3 4 5 6 
#
# 1 0.015839 -0.008509 -0.003871 0.000000 -0.007876 0.000000
# 2 -0.008509 0.015819 -0.003228 0.000000 0.002783 0.000000
# 3 -0.003871 -0.003228 0.013343 0.000000 0.011618 0.000000
# 4 0.000000 0.000000 0.000000 0.117792 0.000001 0.016606
# 5 -0.007876 0.002783 0.011618 0.000001 0.057726 0.000000
# 6 0.000000 0.000000 0.000000 0.016606 0.000000 0.036680
#
#
# Mechanical properties :
#
#
# Convention : Reuss Voigt Hill
#
# Bulk Modulus (GPa) = 72.55384 76.90511 74.72947
# Shear Modulus (GPa) = 17.06419 23.66311 20.36365
#
# Velocity S-wave (km/s) = 3.19796 3.76587 3.49348
# Velocity P-wave (km/s) = 7.55771 8.06225 7.81406
#
# Compressibility (1/GPa) = 0.01378287
#
# Stress axis : x y z
#
# Youngs Moduli (GPa) = 63.13619 63.21506 74.94387
#
# Poissons Ratio (x) = 0.53792 0.29014
# Poissons Ratio (y) = 0.53725 0.24194
# Poissons Ratio (z) = 0.24443 0.20407
#
# Static dielectric constant tensor:
#      x y z
#    x 1.490010 0.000000 -0.036930 
#    y 0.000000 1.599900 0.000000 
#    z -0.036930 0.000000 1.589060 
# 
# From -- ./inp_files/193225.got.cif
#   From: 2010.05.17/outbox.cif.g08.bks.cpg/sg15_97_cif.got.tgz:193225.got - 2010.06.03 18:47:42.
