data_PCOD9254007
_publ_section_title
;
Structure prediction by ZEFSAII (Michael W. Deem and Ramdas Pophale) SiO2 
 PCOD9254007
Probable space group: C 2/C
;
_chemical_formula_sum "Si O2"
_cell_formula_units_Z 60
_cell_length_a 10.002919
_cell_length_b 17.855887
_cell_length_c 18.501354
_cell_angle_alpha 90.000000
_cell_angle_beta 138.387863
_cell_angle_gamma 90.000000
_cell_volume 2194.497578
_symmetry_space_group_name_H-M "C 2/C"
_symmetry_group_IT_number 15
_symmetry_cell_setting 'monoclinic'
loop_
_space_group_symop_operation_xyz
x,y,z
-x,y,1/2-z
-x,-y,-z
x,-y,1/2+z
1/2+x,1/2+y,z
1/2-x,1/2+y,1/2-z
1/2-x,1/2-y,-z
1/2+x,1/2-y,1/2+z
loop_
_atom_site_type_symbol
_atom_site_label
_atom_site_fract_x
_atom_site_fract_y
_atom_site_fract_z
Si Si1 0.626929 0.883976 0.145355
Si Si2 0.263204 0.376119 0.973206
Si Si3 0.668076 0.386529 0.966377
Si Si4 0.314709 0.280567 0.854286
Si Si5 0.000000 0.536759 0.250000
Si Si6 0.692839 0.652673 0.639426
Si Si7 0.172585 0.972163 0.743964
Si Si8 0.368584 0.174548 0.361469
O O1 0.714049 0.806374 0.154391
O O2 0.631320 0.867284 0.234270
O O3 0.762356 0.955789 0.183740
O O4 0.393691 0.885872 0.028026
O O5 0.298944 0.312497 0.927064
O O6 0.161324 0.438051 0.880590
O O7 0.096268 0.352204 0.963060
O O8 0.488331 0.378818 0.094787
O O9 0.524820 0.311604 0.903476
O O10 0.539643 0.452935 0.879045
O O11 0.693134 0.388992 0.063223
O O12 0.148430 0.312783 0.732882
O O13 0.824764 0.519584 0.237601
O O14 0.688272 0.744161 0.629712
O O15 0.225575 0.897190 0.811598
#
# Coordination Sequence:
#
# PCOD9254007 Si02
#       8
#     8   8   8   8   4   8   8   8
#     4  11  23  33  52  81 112 137 181 226 258 324
#     4  10  15  32  55  77 103 136 173 216 274 304
#     4  10  20  38  53  74 112 152 173 211 275 318
#     4   9  17  34  54  77 103 143 187 210 259 325
#     4  10  16  32  54  72 104 144 162 206 276 326
#     4  10  20  31  50  82 104 134 186 222 257 316
#     4  10  21  34  53  75 109 144 170 213 280 325
#     4   9  17  32  53  79 106 134 178 226 265 312
#
# _framework density 27.341111000000001
#
# number of rings (size 3 to 8) (size 9 to 14) (size 15 to 20)
#    0.000    2.133    5.333    1.200    1.867    2.667 
#    0.000    0.000    0.000    3.200    0.000   26.133 
#    0.000    0.000    0.000    0.000    0.000    0.000 
#
# Total GULP energy -167419.581071 kJ/mol
# GULP energy per Si atom -5580.652702 kJ/mol
# Density = 2.727888 g / cm^3
# Si number density = 27.341111 Si / 1000 Ang^3
#
#
#
# Elastic Constant Matrix: (Units=GPa)
#
#
# Indices 1 2 3 4 5 6 
#
# 1 73.9377 8.7611 5.7818 0.0000 3.6360 0.0000
# 2 8.7611 132.9407 14.2497 0.0000 15.8221 0.0000
# 3 5.7818 14.2497 111.1333 0.0000 17.7895 0.0000
# 4 0.0000 0.0000 0.0000 15.7961 0.0000 -5.8878
# 5 3.6360 15.8221 17.7895 0.0000 44.7699 0.0000
# 6 0.0000 0.0000 0.0000 -5.8878 0.0000 3.5447
#
#
#
# Elastic Compliance Matrix: (Units=1/GPa)
#
#
# Indices 1 2 3 4 5 6 
#
# 1 0.013688 -0.000772 -0.000511 0.000000 -0.000636 0.000000
# 2 -0.000772 0.007934 -0.000575 0.000000 -0.002513 0.000000
# 3 -0.000511 -0.000575 0.009675 0.000000 -0.003600 0.000000
# 4 0.000000 0.000000 0.000000 0.166219 0.000000 0.276097
# 5 -0.000636 -0.002513 -0.003600 0.000000 0.024706 0.000000
# 6 0.000000 0.000000 0.000000 0.276097 0.000000 0.740725
#
#
# Mechanical properties :
#
#
# Convention : Reuss Voigt Hill
#
# Bulk Modulus (GPa) = 36.25786 41.73298 38.99542
# Shear Modulus (GPa) = 5.12371 32.10340 18.61356
#
# Velocity S-wave (km/s) = 1.37042 3.43035 2.61203
# Velocity P-wave (km/s) = 3.97419 5.56657 4.83637
#
# Compressibility (1/GPa) = 0.02758023
#
# Stress axis : x y z
#
# Youngs Moduli (GPa) = 73.05897 126.04496 103.36217
#
# Poissons Ratio (x) = 0.09725 0.05286
# Poissons Ratio (y) = 0.05637 0.05942
# Poissons Ratio (z) = 0.03736 0.07246
#
# Static dielectric constant tensor:
#      x y z
#    x 2.144270 0.000000 0.011170 
#    y 0.000000 2.238320 0.000000 
#    z 0.011170 0.000000 2.163280 
# 
# From -- ./inp_files/296826.got.cif
#   From: 2010.05.17/outbox.cif.g08.bks.cpg/sg15_149_cif.got.tgz:296826.got - 2010.06.03 18:47:42.
