data_PCOD9254251
_publ_section_title
;
Structure prediction by ZEFSAII (Michael W. Deem and Ramdas Pophale) SiO2 
 PCOD9254251
Probable space group: C 2/C
;
_chemical_formula_sum "Si O2"
_cell_formula_units_Z 52
_cell_length_a 10.171337
_cell_length_b 20.054608
_cell_length_c 14.017495
_cell_angle_alpha 90.000000
_cell_angle_beta 42.210687
_cell_angle_gamma 90.000000
_cell_volume 1921.058596
_symmetry_space_group_name_H-M "C 2/C"
_symmetry_group_IT_number 15
_symmetry_cell_setting 'monoclinic'
loop_
_space_group_symop_operation_xyz
x,y,z
-x,y,1/2-z
-x,-y,-z
x,-y,1/2+z
1/2+x,1/2+y,z
1/2-x,1/2+y,1/2-z
1/2-x,1/2-y,-z
1/2+x,1/2-y,1/2+z
loop_
_atom_site_type_symbol
_atom_site_label
_atom_site_fract_x
_atom_site_fract_y
_atom_site_fract_z
Si Si1 0.408009 0.657060 0.920103
Si Si2 0.657070 0.819389 0.386393
Si Si3 0.596278 0.475942 0.306322
Si Si4 0.500000 0.964311 0.750000
Si Si5 0.032873 0.182185 0.393114
Si Si6 0.707652 0.570573 0.940214
Si Si7 0.340264 0.091864 0.139214
O O1 0.624779 0.683673 0.777173
O O2 0.229600 0.688656 0.957729
O O3 0.429879 0.579356 0.874253
O O4 0.386853 0.662067 0.044021
O O5 0.538518 0.761261 0.397982
O O6 0.514087 0.882840 0.477718
O O7 0.491887 0.535567 0.419385
O O8 0.716305 0.433895 0.320529
O O9 0.732421 0.522404 0.166883
O O10 0.366733 0.016812 0.879466
O O11 0.586397 0.921941 0.791191
O O12 0.179735 0.151258 0.236249
O O13 0.822670 0.144629 0.505074
#
# Coordination Sequence:
#
# PCOD9254251 Si02
#       7
#     8   8   8   4   8   8   8
#     4  10  20  31  45  66 100 128 154 196 232 276
#     4  11  21  30  44  72  99 129 156 184 237 289
#     4   8  15  30  45  66  94 124 157 193 237 269
#     4  10  16  28  50  76  92 114 162 206 238 268
#     4  10  19  33  46  66  99 132 159 188 230 283
#     4   8  15  27  48  69  90 120 158 202 232 264
#     4  10  19  30  51  72  94 126 160 195 232 280
#
# _framework density 27.068408999999999
#
# number of rings (size 3 to 8) (size 9 to 14) (size 15 to 20)
#    0.000    2.462    0.000    6.000    0.000    3.077 
#    0.000    0.000    0.000    0.000    0.000   31.231 
#    0.000    0.000    0.000    0.000    0.000    0.000 
#
# Total GULP energy -144863.746272 kJ/mol
# GULP energy per Si atom -5571.682549 kJ/mol
# Density = 2.700680 g / cm^3
# Si number density = 27.068409 Si / 1000 Ang^3
#
#
#
# Elastic Constant Matrix: (Units=GPa)
#
#
# Indices 1 2 3 4 5 6 
#
# 1 57.1958 8.1422 11.9000 -0.0001 7.8036 0.0001
# 2 8.1422 131.9117 28.6562 -0.0008 -24.0036 0.0004
# 3 11.9000 28.6562 121.1470 -0.0023 -7.6489 0.0009
# 4 -0.0001 -0.0008 -0.0023 35.1282 0.0003 -4.4732
# 5 7.8036 -24.0036 -7.6489 0.0003 28.3347 -0.0002
# 6 0.0001 0.0004 0.0009 -4.4732 -0.0002 17.1873
#
#
#
# Elastic Compliance Matrix: (Units=1/GPa)
#
#
# Indices 1 2 3 4 5 6 
#
# 1 0.019221 -0.002173 -0.001856 0.000000 -0.007635 0.000000
# 2 -0.002173 0.009552 -0.001523 0.000000 0.008279 0.000000
# 3 -0.001856 -0.001523 0.008900 0.000000 0.001623 0.000000
# 4 0.000000 0.000000 0.000000 0.029443 0.000000 0.007663
# 5 -0.007635 0.008279 0.001623 0.000000 0.044847 0.000000
# 6 0.000000 0.000000 0.000000 0.007663 0.000000 0.060177
#
#
# Mechanical properties :
#
#
# Convention : Reuss Voigt Hill
#
# Bulk Modulus (GPa) = 37.63818 45.29459 41.46638
# Shear Modulus (GPa) = 26.02807 33.56713 29.79760
#
# Velocity S-wave (km/s) = 3.10428 3.52530 3.32147
# Velocity P-wave (km/s) = 5.17530 5.77409 5.48287
#
# Compressibility (1/GPa) = 0.02656877
#
# Stress axis : x y z
#
# Youngs Moduli (GPa) = 52.02650 104.68530 112.36472
#
# Poissons Ratio (x) = 0.22743 0.20857
# Poissons Ratio (y) = 0.11303 0.17118
# Poissons Ratio (z) = 0.09657 0.15948
#
# Static dielectric constant tensor:
#      x y z
#    x 2.244380 0.000000 -0.011550 
#    y 0.000000 2.176210 0.000000 
#    z -0.011550 0.000000 2.169510 
# 
# From -- ./inp_files/245016.got.cif
#   From: 2010.05.17/outbox.cif.g08.bks.cpg/sg15_123_cif.got.tgz:245016.got - 2010.06.03 18:47:42.
