data_PCOD9254591
_publ_section_title
;
Structure prediction by ZEFSAII (Michael W. Deem and Ramdas Pophale) SiO2 
 PCOD9254591
Probable space group: C 2/C
;
_chemical_formula_sum "Si O2"
_cell_formula_units_Z 56
_cell_length_a 19.263182
_cell_length_b 9.459410
_cell_length_c 16.519081
_cell_angle_alpha 90.000000
_cell_angle_beta 64.030447
_cell_angle_gamma 90.000000
_cell_volume 2706.142315
_symmetry_space_group_name_H-M "C 2/C"
_symmetry_group_IT_number 15
_symmetry_cell_setting 'monoclinic'
loop_
_space_group_symop_operation_xyz
x,y,z
-x,y,1/2-z
-x,-y,-z
x,-y,1/2+z
1/2+x,1/2+y,z
1/2-x,1/2+y,1/2-z
1/2-x,1/2-y,-z
1/2+x,1/2-y,1/2+z
loop_
_atom_site_type_symbol
_atom_site_label
_atom_site_fract_x
_atom_site_fract_y
_atom_site_fract_z
Si Si1 0.241432 0.447908 0.427676
Si Si2 0.518694 0.296822 0.831156
Si Si3 0.832866 0.127328 0.624940
Si Si4 0.186163 0.205368 0.197512
Si Si5 0.498052 0.587471 0.584734
Si Si6 0.663641 0.658529 0.465425
Si Si7 0.631788 0.186943 0.547254
O O1 0.284796 0.546940 0.339859
O O2 0.296972 0.403827 0.473349
O O3 0.204585 0.301719 0.417929
O O4 0.172662 0.543544 0.500033
O O5 0.500000 0.254777 0.750000
O O6 0.610212 0.288184 0.791597
O O7 0.493804 0.460509 0.855335
O O8 0.461199 0.198065 0.910953
O O9 0.756231 0.201761 0.696321
O O10 0.912771 0.153892 0.632395
O O11 0.841599 0.198359 0.531913
O O12 0.826881 0.962084 0.607573
O O13 0.161260 0.268635 0.121500
O O14 0.500000 0.500000 0.500000
O O15 0.574026 0.681569 0.536866
#
# Coordination Sequence:
#
# PCOD9254591 Si02
#       7
#     8   8   8   8   8   8   8
#     4  10  18  29  54  81 111 130 183 225 267 312
#     4  10  19  32  58  78 104 137 191 231 271 311
#     4  10  17  33  58  75 105 142 186 212 266 328
#     4  10  18  32  53  81 105 139 181 229 267 315
#     4  10  19  34  55  78 105 145 182 214 266 341
#     4  10  17  30  52  81 104 140 173 223 264 319
#     4  10  16  32  53  82 100 139 186 225 252 323
#
# _framework density 20.693663000000001
#
# number of rings (size 3 to 8) (size 9 to 14) (size 15 to 20)
#    0.000    2.000    5.714    1.714    0.000    0.000 
#    0.000    5.714    6.286    0.857    0.000    0.000 
#    0.000    0.000    0.000    0.000    0.000    0.000 
#
# Total GULP energy -156144.238498 kJ/mol
# GULP energy per Si atom -5576.579946 kJ/mol
# Density = 2.064656 g / cm^3
# Si number density = 20.693663 Si / 1000 Ang^3
#
#
#
# Elastic Constant Matrix: (Units=GPa)
#
#
# Indices 1 2 3 4 5 6 
#
# 1 129.9229 52.7113 37.2216 0.0000 -46.9167 0.0000
# 2 52.7113 97.4513 15.7754 0.0000 -17.1017 0.0000
# 3 37.2216 15.7754 47.3575 0.0000 -29.9916 0.0000
# 4 0.0000 0.0000 0.0000 16.2318 0.0000 -7.4865
# 5 -46.9167 -17.1017 -29.9916 0.0000 44.4936 0.0000
# 6 0.0000 0.0000 0.0000 -7.4865 0.0000 30.5842
#
#
#
# Elastic Compliance Matrix: (Units=1/GPa)
#
#
# Indices 1 2 3 4 5 6 
#
# 1 0.015008 -0.005623 -0.002215 0.000000 0.012171 0.000000
# 2 -0.005623 0.013192 -0.000905 0.000000 -0.001469 0.000000
# 3 -0.002215 -0.000905 0.037443 0.000000 0.022556 0.000000
# 4 0.000000 0.000000 0.000000 0.069448 0.000000 0.017000
# 5 0.012171 -0.001469 0.022556 0.000000 0.049948 0.000000
# 6 0.000000 0.000000 0.000000 0.017000 0.000000 0.036858
#
#
# Mechanical properties :
#
#
# Convention : Reuss Voigt Hill
#
# Bulk Modulus (GPa) = 20.76574 54.01649 37.39111
# Shear Modulus (GPa) = 19.57447 29.53014 24.55230
#
# Velocity S-wave (km/s) = 3.07891 3.78168 3.44825
# Velocity P-wave (km/s) = 4.76405 6.72516 5.82769
#
# Compressibility (1/GPa) = 0.04815625
#
# Stress axis : x y z
#
# Youngs Moduli (GPa) = 66.63158 75.80413 26.70757
#
# Poissons Ratio (x) = 0.42627 0.05915
# Poissons Ratio (y) = 0.37469 0.02417
# Poissons Ratio (z) = 0.14757 0.06860
#
# Static dielectric constant tensor:
#      x y z
#    x 1.822940 0.000000 -0.031140 
#    y 0.000000 1.735780 0.000000 
#    z -0.031140 0.000000 1.807940 
# 
# From -- ./inp_files/213775.got.cif
#   From: 2010.05.17/outbox.cif.g08.bks.cpg/sg15_107_cif.got.tgz:213775.got - 2010.06.03 18:47:42.
