data_PCOD9254144
_publ_section_title
;
Structure prediction by ZEFSAII (Michael W. Deem and Ramdas Pophale) SiO2 
 PCOD9254144
Probable space group: C 2/C
;
_chemical_formula_sum "Si O2"
_cell_formula_units_Z 52
_cell_length_a 17.722526
_cell_length_b 22.045180
_cell_length_c 5.266104
_cell_angle_alpha 90.000000
_cell_angle_beta 101.422419
_cell_angle_gamma 90.000000
_cell_volume 2016.696925
_symmetry_space_group_name_H-M "C 2/C"
_symmetry_group_IT_number 15
_symmetry_cell_setting 'monoclinic'
loop_
_space_group_symop_operation_xyz
x,y,z
-x,y,1/2-z
-x,-y,-z
x,-y,1/2+z
1/2+x,1/2+y,z
1/2-x,1/2+y,1/2-z
1/2-x,1/2-y,-z
1/2+x,1/2-y,1/2+z
loop_
_atom_site_type_symbol
_atom_site_label
_atom_site_fract_x
_atom_site_fract_y
_atom_site_fract_z
Si Si1 0.440052 0.384995 0.405380
Si Si2 0.831569 0.039514 0.123008
Si Si3 0.160847 0.735855 0.777501
Si Si4 0.587681 0.935498 0.900410
Si Si5 0.343444 0.072026 0.544192
Si Si6 0.801209 0.189337 0.690721
Si Si7 0.500000 0.727000 0.250000
O O1 0.500000 0.414126 0.250000
O O2 0.408879 0.421479 0.627089
O O3 0.358073 0.367284 0.227761
O O4 0.475342 0.320879 0.516392
O O5 0.749208 0.072292 0.026606
O O6 0.832849 0.989910 0.899621
O O7 0.189530 0.784070 0.584008
O O8 0.214199 0.679994 0.729629
O O9 0.069923 0.733314 0.697128
O O10 0.174097 0.762633 0.069577
O O11 0.500000 0.945360 0.750000
O O12 0.627821 0.898915 0.699550
O O13 0.631925 0.000217 0.957300
O O14 0.602783 0.908019 0.185954
#
# Coordination Sequence:
#
# PCOD9254144 Si02
#       7
#     8   8   8   8   8   8   4
#     4  11  24  39  60  84 122 150 206 262 294 344
#     4  12  25  41  56  74 112 167 214 254 302 342
#     4   9  17  31  59  84 122 143 179 217 287 373
#     4  10  16  26  50  77  97 116 163 247 291 344
#     4  10  16  31  45  70 102 130 179 233 288 337
#     4   9  18  34  54  88 113 148 179 231 290 351
#     4  10  20  38  58  96 122 152 188 246 298 356
#
# _framework density 25.784738999999998
#
# number of rings (size 3 to 8) (size 9 to 14) (size 15 to 20)
#    0.000    1.846    4.615    2.308    2.154    0.615 
#    0.000    0.000    0.000    0.000    6.000    0.000 
#    0.000    0.000    0.000    0.000    0.000    0.000 
#
# Total GULP energy -145176.881491 kJ/mol
# GULP energy per Si atom -5583.726211 kJ/mol
# Density = 2.572605 g / cm^3
# Si number density = 25.784739 Si / 1000 Ang^3
#
#
#
# Elastic Constant Matrix: (Units=GPa)
#
#
# Indices 1 2 3 4 5 6 
#
# 1 192.5177 20.0986 15.2542 0.0000 -25.6506 0.0000
# 2 20.0986 47.4937 9.3346 0.0000 1.5886 0.0000
# 3 15.2542 9.3346 152.9217 0.0000 -12.6791 0.0000
# 4 0.0000 0.0000 0.0000 -12.2876 0.0000 0.0496
# 5 -25.6506 1.5886 -12.6791 0.0000 32.3054 0.0000
# 6 0.0000 0.0000 0.0000 0.0496 0.0000 25.3387
#
#
#
# Elastic Compliance Matrix: (Units=1/GPa)
#
#
# Indices 1 2 3 4 5 6 
#
# 1 0.006153 -0.002766 -0.000030 0.000000 0.005010 0.000000
# 2 -0.002766 0.022636 -0.001427 0.000000 -0.003869 0.000000
# 3 -0.000030 -0.001427 0.006856 0.000000 0.002738 0.000000
# 4 0.000000 0.000000 0.000000 -0.081382 0.000000 0.000159
# 5 0.005010 -0.003869 0.002738 0.000000 0.036197 0.000000
# 6 0.000000 0.000000 0.000000 0.000159 0.000000 0.039465
#
#
# Mechanical properties :
#
#
# Convention : Reuss Voigt Hill
#
# Bulk Modulus (GPa) = 36.76301 53.58978 45.17640
# Shear Modulus (GPa) = 105.40722 32.28769 68.84745
#
# Velocity S-wave (km/s) = 6.40066 3.54248 5.17289
# Velocity P-wave (km/s) = 8.30140 6.12870 7.29637
#
# Compressibility (1/GPa) = 0.02720125
#
# Stress axis : x y z
#
# Youngs Moduli (GPa) = 162.52537 44.17823 145.85110
#
# Poissons Ratio (x) = 0.12218 0.00431
# Poissons Ratio (y) = 0.44947 0.20807
# Poissons Ratio (z) = 0.00481 0.06303
#
# Static dielectric constant tensor:
#      x y z
#    x 2.129470 0.000000 0.007330 
#    y 0.000000 2.080160 0.000000 
#    z 0.007330 0.000000 2.165650 
# 
# From -- ./inp_files/11837.got.cif
#   From: 2010.05.17/outbox.cif.g08.bks.cpg/sg15_6_cif.got.tgz:11837.got - 2010.06.03 18:47:42.
