data_PCOD9254322
_publ_section_title
;
Structure prediction by ZEFSAII (Michael W. Deem and Ramdas Pophale) SiO2 
 PCOD9254322
Probable space group: C 2/C
;
_chemical_formula_sum "Si O2"
_cell_formula_units_Z 60
_cell_length_a 14.665326
_cell_length_b 8.611447
_cell_length_c 24.764992
_cell_angle_alpha 90.000000
_cell_angle_beta 96.221429
_cell_angle_gamma 90.000000
_cell_volume 3109.143080
_symmetry_space_group_name_H-M "C 2/C"
_symmetry_group_IT_number 15
_symmetry_cell_setting 'monoclinic'
loop_
_space_group_symop_operation_xyz
x,y,z
-x,y,1/2-z
-x,-y,-z
x,-y,1/2+z
1/2+x,1/2+y,z
1/2-x,1/2+y,1/2-z
1/2-x,1/2-y,-z
1/2+x,1/2-y,1/2+z
loop_
_atom_site_type_symbol
_atom_site_label
_atom_site_fract_x
_atom_site_fract_y
_atom_site_fract_z
Si Si1 0.960782 0.656122 0.968578
Si Si2 0.599118 0.507015 0.850089
Si Si3 0.500000 0.690154 0.750000
Si Si4 0.200816 0.539645 0.609225
Si Si5 0.545514 0.919115 0.664595
Si Si6 0.594627 0.842491 0.374880
Si Si7 0.276117 0.700172 0.941047
Si Si8 0.978136 0.160052 0.929356
O O1 0.858760 0.631085 0.938965
O O2 0.027383 0.682184 0.921948
O O3 0.000000 0.500000 0.000000
O O4 0.969209 0.789969 0.013374
O O5 0.558308 0.584745 0.794174
O O6 0.696455 0.587595 0.870024
O O7 0.607206 0.321401 0.845634
O O8 0.531423 0.538023 0.896204
O O9 0.558019 0.804098 0.715131
O O10 0.134035 0.522405 0.656541
O O11 0.213396 0.365809 0.587482
O O12 0.527641 0.810852 0.610735
O O13 0.456413 0.028282 0.663880
O O14 0.692622 0.888099 0.406753
O O15 0.374446 0.619239 0.940280
O O16 0.250000 0.750000 0.000000
#
# Coordination Sequence:
#
# PCOD9254322 Si02
#       8
#     8   8   4   8   8   8   8   8
#     4  11  16  32  58  83 119 162 190 220 259 343
#     4  10  23  39  54  85 119 145 181 252 302 328
#     4  10  22  44  62  74 104 146 190 248 304 332
#     4   9  19  34  54  83 114 148 185 228 277 337
#     4   9  19  38  62  79 103 148 201 231 269 346
#     4  10  19  33  56  85 116 144 192 236 278 334
#     4  10  16  29  52  81 116 157 188 217 267 335
#     4  10  19  33  55  81 121 161 186 218 279 336
#
# _framework density 19.297923000000001
#
# number of rings (size 3 to 8) (size 9 to 14) (size 15 to 20)
#    0.000    2.133    5.333    0.000    0.000    1.600 
#    0.000   13.333    0.000    0.000    0.000    0.000 
#    0.000    0.000    0.000    0.000    0.000    0.000 
#
# Total GULP energy -167244.017659 kJ/mol
# GULP energy per Si atom -5574.800589 kJ/mol
# Density = 1.925400 g / cm^3
# Si number density = 19.297923 Si / 1000 Ang^3
#
#
#
# Elastic Constant Matrix: (Units=GPa)
#
#
# Indices 1 2 3 4 5 6 
#
# 1 139.2100 25.0655 36.6113 0.0000 19.4479 0.0000
# 2 25.0655 43.8774 19.7388 0.0000 10.2888 0.0000
# 3 36.6113 19.7388 84.8796 0.0000 13.1604 0.0000
# 4 0.0000 0.0000 0.0000 22.9967 0.0000 -1.7988
# 5 19.4479 10.2888 13.1604 0.0000 19.7455 0.0000
# 6 0.0000 0.0000 0.0000 -1.7988 0.0000 21.5327
#
#
#
# Elastic Compliance Matrix: (Units=1/GPa)
#
#
# Indices 1 2 3 4 5 6 
#
# 1 0.009139 -0.002749 -0.002375 0.000000 -0.005986 0.000000
# 2 -0.002749 0.028348 -0.003944 0.000000 -0.009435 0.000000
# 3 -0.002375 -0.003944 0.014545 0.000000 -0.005300 0.000000
# 4 0.000000 0.000000 0.000000 0.043770 0.000000 0.003657
# 5 -0.005986 -0.009435 -0.005300 0.000000 0.064990 0.000000
# 6 0.000000 0.000000 0.000000 0.003657 0.000000 0.046746
#
#
# Mechanical properties :
#
#
# Convention : Reuss Voigt Hill
#
# Bulk Modulus (GPa) = 29.50106 47.86648 38.68377
# Shear Modulus (GPa) = 21.09961 25.29174 23.19568
#
# Velocity S-wave (km/s) = 3.31019 3.62414 3.47072
# Velocity P-wave (km/s) = 5.47085 6.50925 6.01251
#
# Compressibility (1/GPa) = 0.03389709
#
# Stress axis : x y z
#
# Youngs Moduli (GPa) = 109.41935 35.27624 68.75440
#
# Poissons Ratio (x) = 0.09697 0.16326
# Poissons Ratio (y) = 0.30078 0.27115
# Poissons Ratio (z) = 0.25983 0.13912
#
# Static dielectric constant tensor:
#      x y z
#    x 1.723700 0.000000 -0.004430 
#    y 0.000000 1.703930 0.000000 
#    z -0.004430 0.000000 1.672630 
# 
# From -- ./inp_files/272766.got.cif
#   From: 2010.05.17/outbox.cif.g08.bks.cpg/sg15_137_cif.got.tgz:272766.got - 2010.06.03 18:47:42.
