data_PCOD9254470
_publ_section_title
;
Structure prediction by ZEFSAII (Michael W. Deem and Ramdas Pophale) SiO2 
 PCOD9254470
Probable space group: C 2/C
;
_chemical_formula_sum "Si O2"
_cell_formula_units_Z 60
_cell_length_a 7.899944
_cell_length_b 19.164897
_cell_length_c 20.721834
_cell_angle_alpha 90.000000
_cell_angle_beta 131.278042
_cell_angle_gamma 90.000000
_cell_volume 2357.748686
_symmetry_space_group_name_H-M "C 2/C"
_symmetry_group_IT_number 15
_symmetry_cell_setting 'monoclinic'
loop_
_space_group_symop_operation_xyz
x,y,z
-x,y,1/2-z
-x,-y,-z
x,-y,1/2+z
1/2+x,1/2+y,z
1/2-x,1/2+y,1/2-z
1/2-x,1/2-y,-z
1/2+x,1/2-y,1/2+z
loop_
_atom_site_type_symbol
_atom_site_label
_atom_site_fract_x
_atom_site_fract_y
_atom_site_fract_z
Si Si1 0.269403 0.477495 0.716824
Si Si2 0.718369 0.045631 0.424050
Si Si3 0.081545 0.162233 0.473550
Si Si4 0.544188 0.447401 0.109297
Si Si5 0.500000 0.191698 0.750000
Si Si6 0.450970 0.281008 0.397440
Si Si7 0.794547 0.741989 0.154306
Si Si8 0.564742 0.120650 0.628631
O O1 0.500000 0.443563 0.750000
O O2 0.356476 0.511495 0.805323
O O3 0.036875 0.434404 0.657451
O O4 0.179054 0.544971 0.653500
O O5 0.898985 0.101972 0.443664
O O6 0.795636 0.035934 0.517789
O O7 0.784030 0.974697 0.403260
O O8 0.940245 0.205160 0.385892
O O9 0.083272 0.216321 0.534574
O O10 0.333462 0.133883 0.530342
O O11 0.539465 0.364372 0.116297
O O12 0.283795 0.239740 0.692561
O O13 0.514486 0.142919 0.690280
O O14 0.634989 0.238034 0.404093
O O15 0.748107 0.823311 0.153007
O O16 0.000000 0.718322 0.250000
#
# Coordination Sequence:
#
# PCOD9254470 Si02
#       8
#     8   8   8   8   4   8   8   8
#     4  12  23  36  63  94 123 153 196 263 317 345
#     4  10  22  39  60  90 119 162 205 236 296 374
#     4  10  24  40  61  83 124 169 197 234 296 379
#     4  10  19  37  63  88 117 153 201 256 291 352
#     4  10  16  30  58  86 106 144 184 254 288 336
#     4  10  19  35  60  88 116 150 201 250 302 332
#     4  12  22  38  59  91 127 152 199 253 302 355
#     4  11  21  37  61  94 116 148 207 257 308 332
#
# _framework density 25.448004000000001
#
# number of rings (size 3 to 8) (size 9 to 14) (size 15 to 20)
#    0.000    1.333    2.667    5.600    0.000    1.600 
#    0.000    2.667    1.467    1.600    0.000    0.000 
#    0.000    0.000    0.000    0.000    0.000    0.000 
#
# Total GULP energy -167417.381533 kJ/mol
# GULP energy per Si atom -5580.579384 kJ/mol
# Density = 2.539008 g / cm^3
# Si number density = 25.448004 Si / 1000 Ang^3
#
#
#
# Elastic Constant Matrix: (Units=GPa)
#
#
# Indices 1 2 3 4 5 6 
#
# 1 58.0217 0.9146 35.2838 0.0000 26.5494 0.0000
# 2 0.9146 35.0149 8.0137 0.0000 9.4052 0.0000
# 3 35.2838 8.0137 159.4723 0.0000 42.5629 0.0000
# 4 0.0000 0.0000 0.0000 32.1254 0.0000 15.8625
# 5 26.5494 9.4052 42.5629 0.0000 44.2661 0.0000
# 6 0.0000 0.0000 0.0000 15.8625 0.0000 22.3589
#
#
#
# Elastic Compliance Matrix: (Units=1/GPa)
#
#
# Indices 1 2 3 4 5 6 
#
# 1 0.024605 0.003460 -0.001995 0.000000 -0.013574 0.000000
# 2 0.003460 0.030783 -0.000017 0.000000 -0.008599 0.000000
# 3 -0.001995 -0.000017 0.008599 0.000000 -0.007069 0.000000
# 4 0.000000 0.000000 0.000000 0.047912 0.000000 -0.033991
# 5 -0.013574 -0.008599 -0.007069 0.000000 0.039356 0.000000
# 6 0.000000 0.000000 0.000000 -0.033991 0.000000 0.068840
#
#
# Mechanical properties :
#
#
# Convention : Reuss Voigt Hill
#
# Bulk Modulus (GPa) = 14.95162 37.88145 26.41654
# Shear Modulus (GPa) = 20.87750 33.63653 27.25702
#
# Velocity S-wave (km/s) = 2.86737 3.63957 3.27630
# Velocity P-wave (km/s) = 4.10494 5.70790 4.97145
#
# Compressibility (1/GPa) = 0.06688237
#
# Stress axis : x y z
#
# Youngs Moduli (GPa) = 40.64256 32.48596 116.28598
#
# Poissons Ratio (x) = -0.11240 0.23197
# Poissons Ratio (y) = -0.14062 0.00202
# Poissons Ratio (z) = 0.08107 0.00056
#
# Static dielectric constant tensor:
#      x y z
#    x 2.142360 0.000000 -0.002650 
#    y 0.000000 2.053400 0.000000 
#    z -0.002650 0.000000 2.088230 
# 
# From -- ./inp_files/266254.got.cif
#   From: 2010.05.17/outbox.cif.g08.bks.cpg/sg15_134_cif.got.tgz:266254.got - 2010.06.03 18:47:42.
