data_PCOD9254295
_publ_section_title
;
Structure prediction by ZEFSAII (Michael W. Deem and Ramdas Pophale) SiO2 
 PCOD9254295
Probable space group: C 2/C
;
_chemical_formula_sum "Si O2"
_cell_formula_units_Z 60
_cell_length_a 25.612011
_cell_length_b 7.735889
_cell_length_c 16.571913
_cell_angle_alpha 90.000000
_cell_angle_beta 59.796969
_cell_angle_gamma 90.000000
_cell_volume 2837.690543
_symmetry_space_group_name_H-M "C 2/C"
_symmetry_group_IT_number 15
_symmetry_cell_setting 'monoclinic'
loop_
_space_group_symop_operation_xyz
x,y,z
-x,y,1/2-z
-x,-y,-z
x,-y,1/2+z
1/2+x,1/2+y,z
1/2-x,1/2+y,1/2-z
1/2-x,1/2-y,-z
1/2+x,1/2-y,1/2+z
loop_
_atom_site_type_symbol
_atom_site_label
_atom_site_fract_x
_atom_site_fract_y
_atom_site_fract_z
Si Si1 0.800071 0.690410 0.697744
Si Si2 0.500000 0.020070 0.750000
Si Si3 0.781110 0.478368 0.467307
Si Si4 0.452822 0.177097 0.444788
Si Si5 0.423699 0.846974 0.583652
Si Si6 0.826186 0.832758 0.514854
Si Si7 0.116797 0.589690 0.744588
Si Si8 0.195024 0.309300 0.886163
O O1 0.796990 0.818871 0.625946
O O2 0.859004 0.722073 0.707046
O O3 0.803805 0.500676 0.655641
O O4 0.743007 0.703218 0.799022
O O5 0.528283 0.903707 0.656395
O O6 0.555294 0.127774 0.745119
O O7 0.807589 0.659380 0.481158
O O8 0.711230 0.516310 0.499289
O O9 0.827415 0.435462 0.359366
O O10 0.787605 0.344625 0.535537
O O11 0.513060 0.241796 0.443600
O O12 0.397950 0.309721 0.473024
O O13 0.433846 0.012911 0.516215
O O14 0.372113 0.740103 0.578360
O O15 0.398730 0.919854 0.689062
#
# Coordination Sequence:
#
# PCOD9254295 Si02
#       8
#     8   4   8   8   8   8   8   8
#     4  10  20  33  54  73 107 137 182 205 266 318
#     4  10  18  26  46  72 110 124 172 226 264 294
#     4  10  19  29  49  73 112 134 172 214 270 307
#     4  10  16  29  45  73 105 136 168 215 265 308
#     4   9  17  28  48  69 108 130 171 214 261 306
#     4  10  17  31  47  74 104 145 168 210 264 328
#     4  10  17  30  45  76  98 139 164 219 263 309
#     4  10  19  36  49  82 103 141 172 224 262 318
#
# _framework density 21.143954999999998
#
# number of rings (size 3 to 8) (size 9 to 14) (size 15 to 20)
#    0.000    2.133    5.333    1.600    0.000    0.533 
#    0.000    0.000    0.000    0.000    3.467    1.867 
#    0.000    0.000    0.000    0.000    0.000    0.000 
#
# Total GULP energy -167229.633218 kJ/mol
# GULP energy per Si atom -5574.321107 kJ/mol
# Density = 2.109583 g / cm^3
# Si number density = 21.143955 Si / 1000 Ang^3
#
#
#
# Elastic Constant Matrix: (Units=GPa)
#
#
# Indices 1 2 3 4 5 6 
#
# 1 205.1940 24.1621 32.4872 0.0000 -0.7284 0.0000
# 2 24.1621 30.9136 14.1568 -0.0001 2.8299 -0.0001
# 3 32.4872 14.1568 124.2089 0.0000 5.1781 0.0000
# 4 0.0000 -0.0001 0.0000 14.9874 0.0000 -7.8210
# 5 -0.7284 2.8299 5.1781 0.0000 36.8114 0.0000
# 6 0.0000 -0.0001 0.0000 -7.8210 0.0000 11.2829
#
#
#
# Elastic Compliance Matrix: (Units=1/GPa)
#
#
# Indices 1 2 3 4 5 6 
#
# 1 0.005493 -0.003878 -0.001018 0.000000 0.000550 0.000000
# 2 -0.003878 0.037027 -0.003102 0.000001 -0.002487 0.000001
# 3 -0.001018 -0.003102 0.008713 0.000000 -0.001007 0.000000
# 4 0.000000 0.000001 0.000000 0.104536 0.000000 0.072461
# 5 0.000550 -0.002487 -0.001007 0.000000 0.027509 0.000000
# 6 0.000000 0.000001 0.000000 0.072461 0.000000 0.138857
#
#
# Mechanical properties :
#
#
# Convention : Reuss Voigt Hill
#
# Bulk Modulus (GPa) = 28.37864 55.76986 42.07425
# Shear Modulus (GPa) = 14.29076 31.91703 23.10389
#
# Velocity S-wave (km/s) = 2.60259 3.88946 3.30918
# Velocity P-wave (km/s) = 4.74152 6.82671 5.87733
#
# Compressibility (1/GPa) = 0.03523777
#
# Stress axis : x y z
#
# Youngs Moduli (GPa) = 182.04570 27.00702 114.77479
#
# Poissons Ratio (x) = 0.10473 0.11681
# Poissons Ratio (y) = 0.70592 0.35607
# Poissons Ratio (z) = 0.18527 0.08378
#
# Static dielectric constant tensor:
#      x y z
#    x 1.863080 0.000000 -0.005210 
#    y 0.000000 1.742800 0.000000 
#    z -0.005210 0.000000 1.754280 
# 
# From -- ./inp_files/172941.got.cif
#   From: 2010.05.17/outbox.cif.g08.bks.cpg/sg15_87_cif.got.tgz:172941.got - 2010.06.03 18:47:42.
