data_PCOD9254483
_publ_section_title
;
Structure prediction by ZEFSAII (Michael W. Deem and Ramdas Pophale) SiO2 
 PCOD9254483
Probable space group: C 2/C
;
_chemical_formula_sum "Si O2"
_cell_formula_units_Z 44
_cell_length_a 9.587001
_cell_length_b 16.913221
_cell_length_c 17.583485
_cell_angle_alpha 90.000000
_cell_angle_beta 49.330136
_cell_angle_gamma 90.000000
_cell_volume 2162.502368
_symmetry_space_group_name_H-M "C 2/C"
_symmetry_group_IT_number 15
_symmetry_cell_setting 'monoclinic'
loop_
_space_group_symop_operation_xyz
x,y,z
-x,y,1/2-z
-x,-y,-z
x,-y,1/2+z
1/2+x,1/2+y,z
1/2-x,1/2+y,1/2-z
1/2-x,1/2-y,-z
1/2+x,1/2-y,1/2+z
loop_
_atom_site_type_symbol
_atom_site_label
_atom_site_fract_x
_atom_site_fract_y
_atom_site_fract_z
Si Si1 0.721286 0.795982 0.783355
Si Si2 0.313196 0.031208 0.463567
Si Si3 0.585631 0.686735 0.546314
Si Si4 0.500000 0.913995 0.750000
Si Si5 0.532471 0.248533 0.566856
Si Si6 0.628082 0.897510 0.954269
O O1 0.583142 0.722019 0.845522
O O2 0.623939 0.855862 0.758204
O O3 0.739226 0.841639 0.856964
O O4 0.911422 0.767079 0.682118
O O5 0.165038 0.099854 0.532011
O O6 0.373340 0.035471 0.353574
O O7 0.500209 0.053632 0.442157
O O8 0.261475 0.949622 0.523901
O O9 0.750000 0.750000 0.500000
O O10 0.525133 0.693008 0.480241
O O11 0.750000 0.250000 0.500000
O O12 0.494900 0.160341 0.548999
#
# Coordination Sequence:
#
# PCOD9254483 Si02
#       6
#     8   8   8   4   8   8
#     4  10  19  34  63  93 124 170 222 263 325 385
#     4  10  18  36  61  93 129 161 209 272 330 373
#     4  11  18  35  63  93 122 162 223 270 307 391
#     4  10  16  30  64  90 116 170 218 266 312 388
#     4  11  22  38  62  91 126 171 218 265 318 392
#     4   9  21  36  59  91 132 163 200 273 331 378
#
# _framework density 20.346799000000001
#
# number of rings (size 3 to 8) (size 9 to 14) (size 15 to 20)
#    0.000    1.818    7.273    0.000    0.000    2.909 
#    0.000    4.545   20.000    0.000    0.000    0.000 
#    0.000    0.000    0.000    0.000    0.000    0.000 
#
# Total GULP energy -122654.873234 kJ/mol
# GULP energy per Si atom -5575.221511 kJ/mol
# Density = 2.030049 g / cm^3
# Si number density = 20.346799 Si / 1000 Ang^3
#
#
#
# Elastic Constant Matrix: (Units=GPa)
#
#
# Indices 1 2 3 4 5 6 
#
# 1 71.3896 34.1590 60.4322 -0.0002 6.3240 0.0001
# 2 34.1590 83.7750 54.9951 -0.0001 21.4942 0.0001
# 3 60.4322 54.9951 171.5335 -0.0002 6.0007 0.0002
# 4 -0.0002 -0.0001 -0.0002 17.7949 0.0002 12.3281
# 5 6.3240 21.4942 6.0007 0.0002 31.9828 -0.0001
# 6 0.0001 0.0001 0.0002 12.3281 -0.0001 39.6927
#
#
#
# Elastic Compliance Matrix: (Units=1/GPa)
#
#
# Indices 1 2 3 4 5 6 
#
# 1 0.021370 -0.004817 -0.005989 0.000000 0.000135 0.000000
# 2 -0.004817 0.019574 -0.004179 0.000000 -0.011418 0.000000
# 3 -0.005989 -0.004179 0.009200 0.000000 0.002267 0.000000
# 4 0.000000 0.000000 0.000000 0.071603 -0.000001 -0.022239
# 5 0.000135 -0.011418 0.002267 -0.000001 0.038488 0.000000
# 6 0.000000 0.000000 0.000000 -0.022239 0.000000 0.032101
#
#
# Mechanical properties :
#
#
# Convention : Reuss Voigt Hill
#
# Bulk Modulus (GPa) = 49.56805 69.54121 59.55463
# Shear Modulus (GPa) = 21.83107 29.70155 25.76631
#
# Velocity S-wave (km/s) = 3.27914 3.82483 3.56245
# Velocity P-wave (km/s) = 6.22507 7.33198 6.80108
#
# Compressibility (1/GPa) = 0.02017429
#
# Stress axis : x y z
#
# Youngs Moduli (GPa) = 46.79349 51.08896 108.69038
#
# Poissons Ratio (x) = 0.24608 0.65099
# Poissons Ratio (y) = 0.22539 0.45423
# Poissons Ratio (z) = 0.28027 0.21351
#
# Static dielectric constant tensor:
#      x y z
#    x 1.766320 0.000000 0.017870 
#    y 0.000000 1.830480 0.000000 
#    z 0.017870 0.000000 1.727720 
# 
# From -- ./inp_files/78204.got.cif
#   From: 2010.05.17/outbox.cif.g08.bks.cpg/sg15_40_cif.got.tgz:78204.got - 2010.06.03 18:47:42.
