data_PCOD9254445
_publ_section_title
;
Structure prediction by ZEFSAII (Michael W. Deem and Ramdas Pophale) SiO2 
 PCOD9254445
Probable space group: C 2/C
;
_chemical_formula_sum "Si O2"
_cell_formula_units_Z 40
_cell_length_a 24.794711
_cell_length_b 11.193699
_cell_length_c 5.584625
_cell_angle_alpha 90.000000
_cell_angle_beta 113.271361
_cell_angle_gamma 90.000000
_cell_volume 1423.881750
_symmetry_space_group_name_H-M "C 2/C"
_symmetry_group_IT_number 15
_symmetry_cell_setting 'monoclinic'
loop_
_space_group_symop_operation_xyz
x,y,z
-x,y,1/2-z
-x,-y,-z
x,-y,1/2+z
1/2+x,1/2+y,z
1/2-x,1/2+y,1/2-z
1/2-x,1/2-y,-z
1/2+x,1/2-y,1/2+z
loop_
_atom_site_type_symbol
_atom_site_label
_atom_site_fract_x
_atom_site_fract_y
_atom_site_fract_z
Si Si1 0.000000 0.759638 0.750000
Si Si2 0.294777 0.561410 0.263225
Si Si3 0.000000 0.376932 0.750000
Si Si4 0.572468 0.474398 0.967558
Si Si5 0.633397 0.116548 0.506672
Si Si6 0.821585 0.348843 0.912020
O O1 0.997775 0.688281 0.501434
O O2 0.057879 0.842532 0.843331
O O3 0.280257 0.479408 0.468460
O O4 0.365354 0.541090 0.386878
O O5 0.248598 0.669585 0.223044
O O6 0.934143 0.428690 0.619828
O O7 0.548304 0.543114 0.693495
O O8 0.649311 0.188673 0.290573
O O9 0.668511 0.992437 0.564828
O O10 0.649956 0.185606 0.781552
#
# Coordination Sequence:
#
# PCOD9254445 Si02
#       6
#     4   8   4   8   8   8
#     4  12  24  43  57  80 124 154 192 230 274 340
#     4  10  16  30  54  94 110 135 167 238 311 331
#     4  12  26  39  55  78 118 174 190 218 268 352
#     4  10  21  36  65  93 110 135 187 245 299 333
#     4  10  20  33  54  82 113 151 196 227 285 322
#     4  10  17  32  57  85 112 141 185 258 274 317
#
# _framework density 28.092222
#
# number of rings (size 3 to 8) (size 9 to 14) (size 15 to 20)
#    0.000    1.600    4.000    3.000    0.000    3.200 
#    0.000    0.000    0.000    2.400    0.000    0.000 
#    0.000    0.000    0.000    0.000    0.000    0.000 
#
# Total GULP energy -111397.542549 kJ/mol
# GULP energy per Si atom -5569.877127 kJ/mol
# Density = 2.802828 g / cm^3
# Si number density = 28.092222 Si / 1000 Ang^3
#
#
#
# Elastic Constant Matrix: (Units=GPa)
#
#
# Indices 1 2 3 4 5 6 
#
# 1 195.9955 28.8315 101.4917 0.0000 6.8876 0.0000
# 2 28.8315 34.2895 28.5366 0.0000 5.5062 0.0000
# 3 101.4917 28.5366 235.2322 0.0000 -20.9891 0.0000
# 4 0.0000 0.0000 0.0000 47.8038 0.0000 -14.7760
# 5 6.8876 5.5062 -20.9891 0.0000 73.1307 0.0000
# 6 0.0000 0.0000 0.0000 -14.7760 0.0000 43.6713
#
#
#
# Elastic Compliance Matrix: (Units=1/GPa)
#
#
# Indices 1 2 3 4 5 6 
#
# 1 0.007072 -0.003479 -0.002735 0.000000 -0.001189 0.000000
# 2 -0.003479 0.035137 -0.003046 0.000000 -0.003192 0.000000
# 3 -0.002735 -0.003046 0.005998 0.000000 0.002208 0.000000
# 4 0.000000 0.000000 0.000000 0.023362 0.000000 0.007904
# 5 -0.001189 -0.003192 0.002208 0.000000 0.014660 0.000000
# 6 0.000000 0.000000 0.000000 0.007904 0.000000 0.025573
#
#
# Mechanical properties :
#
#
# Convention : Reuss Voigt Hill
#
# Bulk Modulus (GPa) = 33.68681 87.02629 60.35655
# Shear Modulus (GPa) = 35.65870 53.36500 44.51185
#
# Velocity S-wave (km/s) = 3.56665 4.36321 3.98488
# Velocity P-wave (km/s) = 5.38320 7.51196 6.53484
#
# Compressibility (1/GPa) = 0.02968521
#
# Stress axis : x y z
#
# Youngs Moduli (GPa) = 141.39922 28.46041 166.72491
#
# Poissons Ratio (x) = 0.09902 0.45605
# Poissons Ratio (y) = 0.49194 0.50789
# Poissons Ratio (z) = 0.38678 0.08670
#
# Static dielectric constant tensor:
#      x y z
#    x 2.341570 0.000000 -0.121750 
#    y 0.000000 2.246030 0.000000 
#    z -0.121750 0.000000 2.146060 
# 
# From -- ./inp_files/15037.got.cif
#   From: 2010.05.17/outbox.cif.g08.bks.cpg/sg15_8_cif.got.tgz:15037.got - 2010.06.03 18:47:42.
