data_PCOD9254382
_publ_section_title
;
Structure prediction by ZEFSAII (Michael W. Deem and Ramdas Pophale) SiO2 
 PCOD9254382
Probable space group: C 2/C
;
_chemical_formula_sum "Si O2"
_cell_formula_units_Z 60
_cell_length_a 14.264300
_cell_length_b 24.632308
_cell_length_c 8.833470
_cell_angle_alpha 90.000000
_cell_angle_beta 94.179860
_cell_angle_gamma 90.000000
_cell_volume 3095.495777
_symmetry_space_group_name_H-M "C 2/C"
_symmetry_group_IT_number 15
_symmetry_cell_setting 'monoclinic'
loop_
_space_group_symop_operation_xyz
x,y,z
-x,y,1/2-z
-x,-y,-z
x,-y,1/2+z
1/2+x,1/2+y,z
1/2-x,1/2+y,1/2-z
1/2-x,1/2-y,-z
1/2+x,1/2-y,1/2+z
loop_
_atom_site_type_symbol
_atom_site_label
_atom_site_fract_x
_atom_site_fract_y
_atom_site_fract_z
Si Si1 0.839117 0.366136 0.595957
Si Si2 0.922123 0.276136 0.133411
Si Si3 0.033903 0.608050 0.987232
Si Si4 0.252327 0.671987 0.729073
Si Si5 0.259702 0.075572 0.545660
Si Si6 0.891828 0.739182 0.282660
Si Si7 0.500000 0.987702 0.250000
Si Si8 0.206943 0.470944 0.747426
O O1 0.796721 0.351708 0.426778
O O2 0.841093 0.314706 0.709688
O O3 0.783294 0.418356 0.646915
O O4 0.948052 0.384659 0.591016
O O5 0.826456 0.287986 0.210612
O O6 0.000000 0.247489 0.250000
O O7 0.969001 0.334412 0.099162
O O8 0.893390 0.254054 0.964929
O O9 0.145476 0.601128 0.020092
O O10 0.012888 0.554292 0.888852
O O11 0.342098 0.708654 0.704965
O O12 0.276424 0.626184 0.858540
O O13 0.230032 0.041625 0.392948
O O14 0.270486 0.027885 0.669962
O O15 0.000000 0.734505 0.250000
O O16 0.407066 0.020887 0.282843
#
# Coordination Sequence:
#
# PCOD9254382 Si02
#       8
#     8   8   8   8   8   8   4   8
#     4  12  21  35  56  81 119 152 197 237 295 352
#     4  11  19  36  57  79 111 153 194 237 294 346
#     4  10  16  30  50  75 112 157 181 222 267 337
#     4  11  23  39  57  80 116 159 203 249 293 345
#     4  10  21  34  52  80 117 154 196 234 286 353
#     4  12  25  39  58  83 112 158 207 254 297 343
#     4  10  18  28  46  78 120 156 198 210 260 348
#     4  11  21  31  51  84 116 158 188 233 287 359
#
# _framework density 19.383001
#
# number of rings (size 3 to 8) (size 9 to 14) (size 15 to 20)
#    0.000    1.067    3.333    6.400    0.933    2.133 
#    0.000    0.000    0.000    0.000    0.000    3.733 
#    0.000    0.000    0.000    0.000    0.000    0.000 
#
# Total GULP energy -167027.216853 kJ/mol
# GULP energy per Si atom -5567.573895 kJ/mol
# Density = 1.933888 g / cm^3
# Si number density = 19.383001 Si / 1000 Ang^3
#
#
#
# Elastic Constant Matrix: (Units=GPa)
#
#
# Indices 1 2 3 4 5 6 
#
# 1 13.0639 14.8850 2.1369 0.0000 3.7917 0.0000
# 2 14.8850 81.6413 14.0826 0.0000 -3.9103 0.0000
# 3 2.1369 14.0826 76.1089 0.0000 7.4622 0.0000
# 4 0.0000 0.0000 0.0000-1074.3330 0.0000 -152.2902
# 5 3.7917 -3.9103 7.4622 0.0000 8.4873 0.0000
# 6 0.0000 0.0000 0.0000 -152.2902 0.0000 0.1407
#
#
#
# Elastic Compliance Matrix: (Units=1/GPa)
#
#
# Indices 1 2 3 4 5 6 
#
# 1 0.132490 -0.029744 0.009773 0.000000 -0.081486 0.000000
# 2 -0.029744 0.019936 -0.005534 0.000000 0.027339 0.000000
# 3 0.009773 -0.005534 0.015941 0.000000 -0.020931 0.000000
# 4 0.000000 0.000000 0.000000 -0.000006 0.000000 -0.006524
# 5 -0.081486 0.027339 -0.020931 0.000000 0.185225 0.000000
# 6 0.000000 0.000000 0.000000 -0.006524 0.000000 0.046023
#
#
# Mechanical properties :
#
#
# Convention : Reuss Voigt Hill
#
# Bulk Modulus (GPa) = 8.52112 25.89145 17.20628
# Shear Modulus (GPa) = 10.20956 -203.82701 -96.80873
#
# Velocity S-wave (km/s) = 2.29754 -10.26576 -7.07486
# Velocity P-wave (km/s) = 3.38290 11.27509 7.60538
#
# Compressibility (1/GPa) = 0.11735551
#
# Stress axis : x y z
#
# Youngs Moduli (GPa) = 7.54776 50.16110 62.73185
#
# Poissons Ratio (x) = 1.49201 -0.61308
# Poissons Ratio (y) = 0.22450 0.34716
# Poissons Ratio (z) = -0.07376 0.27760
#
# Static dielectric constant tensor:
#      x y z
#    x 1.676760 0.000000 0.032530 
#    y 0.000000 1.683180 0.000000 
#    z 0.032530 0.000000 1.758390 
# 
# From -- ./inp_files/42207.got.cif
#   From: 2010.05.17/outbox.cif.g08.bks.cpg/sg15_22_cif.got.tgz:42207.got - 2010.06.03 18:47:42.
