data_PCOD9254484
_publ_section_title
;
Structure prediction by ZEFSAII (Michael W. Deem and Ramdas Pophale) SiO2 
 PCOD9254484
Probable space group: C 2/C
;
_chemical_formula_sum "Si O2"
_cell_formula_units_Z 60
_cell_length_a 24.885230
_cell_length_b 7.944365
_cell_length_c 23.044209
_cell_angle_alpha 90.000000
_cell_angle_beta 145.639506
_cell_angle_gamma 90.000000
_cell_volume 2571.272339
_symmetry_space_group_name_H-M "C 2/C"
_symmetry_group_IT_number 15
_symmetry_cell_setting 'monoclinic'
loop_
_space_group_symop_operation_xyz
x,y,z
-x,y,1/2-z
-x,-y,-z
x,-y,1/2+z
1/2+x,1/2+y,z
1/2-x,1/2+y,1/2-z
1/2-x,1/2-y,-z
1/2+x,1/2-y,1/2+z
loop_
_atom_site_type_symbol
_atom_site_label
_atom_site_fract_x
_atom_site_fract_y
_atom_site_fract_z
Si Si1 0.180639 0.586412 0.214442
Si Si2 0.282528 0.775630 0.404364
Si Si3 0.780188 0.228612 0.202425
Si Si4 0.528270 0.433736 0.653645
Si Si5 0.500000 0.805681 0.750000
Si Si6 0.142863 0.985503 0.359999
Si Si7 0.002275 0.333648 0.883065
Si Si8 0.813667 0.899853 0.479698
O O1 0.234454 0.730305 0.300275
O O2 0.224662 0.411184 0.273153
O O3 0.202820 0.619287 0.167400
O O4 0.072528 0.583260 0.140338
O O5 0.218704 0.905018 0.383584
O O6 0.389604 0.843259 0.500132
O O7 0.284880 0.591361 0.437126
O O8 0.885553 0.151572 0.304211
O O9 0.936600 0.079845 0.248706
O O10 0.754356 0.268595 0.112824
O O11 0.522835 0.634097 0.638371
O O12 0.421325 0.367889 0.552258
O O13 0.409891 0.681285 0.661231
O O14 0.489372 0.892380 0.803834
O O15 0.182178 0.093803 0.447532
#
# Coordination Sequence:
#
# PCOD9254484 Si02
#       8
#     8   8   8   8   4   8   8   8
#     4  11  23  43  60  90 126 164 212 271 307 365
#     4  10  20  34  66  98 123 164 214 248 313 375
#     4  11  26  42  65  86 125 169 218 262 313 369
#     4  10  20  40  63  91 126 167 203 253 317 373
#     4  10  16  30  64  94 128 162 192 250 298 380
#     4  11  17  35  67  96 132 161 202 251 315 378
#     4  10  20  36  64  96 123 162 206 250 315 370
#     4  10  21  38  64  97 125 166 210 253 309 385
#
# _framework density 23.334752000000002
#
# number of rings (size 3 to 8) (size 9 to 14) (size 15 to 20)
#    0.000    1.600    6.667    1.200    0.000    1.600 
#    2.400    5.333    2.933    0.000    0.000    0.000 
#    0.000    0.000    0.000    0.000    0.000    0.000 
#
# Total GULP energy -167700.843968 kJ/mol
# GULP energy per Si atom -5590.028132 kJ/mol
# Density = 2.328164 g / cm^3
# Si number density = 23.334752 Si / 1000 Ang^3
#
#
#
# Elastic Constant Matrix: (Units=GPa)
#
#
# Indices 1 2 3 4 5 6 
#
# 1 79.8916 26.9175 10.3217 0.0000 6.1951 0.0000
# 2 26.9175 57.1450 22.5231 -0.0001 4.0710 -0.0001
# 3 10.3217 22.5231 82.2045 -0.0001 16.8307 0.0000
# 4 0.0000 -0.0001 -0.0001 30.6273 0.0000 2.5368
# 5 6.1951 4.0710 16.8307 0.0000 28.2289 0.0000
# 6 0.0000 -0.0001 0.0000 2.5368 0.0000 25.0273
#
#
#
# Elastic Compliance Matrix: (Units=1/GPa)
#
#
# Indices 1 2 3 4 5 6 
#
# 1 0.015048 -0.007140 0.000606 0.000000 -0.002634 0.000000
# 2 -0.007140 0.023010 -0.005751 0.000000 0.001678 0.000000
# 3 0.000606 -0.005751 0.015402 0.000000 -0.008487 0.000000
# 4 0.000000 0.000000 0.000000 0.032927 0.000000 -0.003338
# 5 -0.002634 0.001678 -0.008487 0.000000 0.040821 0.000000
# 6 0.000000 0.000000 0.000000 -0.003338 0.000000 0.040295
#
#
# Mechanical properties :
#
#
# Convention : Reuss Voigt Hill
#
# Bulk Modulus (GPa) = 34.61380 37.64063 36.12722
# Shear Modulus (GPa) = 24.78895 27.40863 26.09879
#
# Velocity S-wave (km/s) = 3.26286 3.43094 3.34795
# Velocity P-wave (km/s) = 5.39081 5.64454 5.51913
#
# Compressibility (1/GPa) = 0.02889021
#
# Stress axis : x y z
#
# Youngs Moduli (GPa) = 66.45203 43.45992 64.92624
#
# Poissons Ratio (x) = 0.31029 -0.03935
# Poissons Ratio (y) = 0.47444 0.37342
# Poissons Ratio (z) = -0.04027 0.24996
#
# Static dielectric constant tensor:
#      x y z
#    x 1.926930 0.000000 -0.007190 
#    y 0.000000 1.862350 0.000000 
#    z -0.007190 0.000000 1.861530 
# 
# From -- ./inp_files/279722.got.cif
#   From: 2010.05.17/outbox.cif.g08.bks.cpg/sg15_140_cif.got.tgz:279722.got - 2010.06.03 18:47:42.
