data_PCOD9254075
_publ_section_title
;
Structure prediction by ZEFSAII (Michael W. Deem and Ramdas Pophale) SiO2 
 PCOD9254075
Probable space group: C 2/C
;
_chemical_formula_sum "Si O2"
_cell_formula_units_Z 36
_cell_length_a 32.124213
_cell_length_b 7.397970
_cell_length_c 19.342216
_cell_angle_alpha 90.000000
_cell_angle_beta 159.833143
_cell_angle_gamma 90.000000
_cell_volume 1584.755252
_symmetry_space_group_name_H-M "C 2/C"
_symmetry_group_IT_number 15
_symmetry_cell_setting 'monoclinic'
loop_
_space_group_symop_operation_xyz
x,y,z
-x,y,1/2-z
-x,-y,-z
x,-y,1/2+z
1/2+x,1/2+y,z
1/2-x,1/2+y,1/2-z
1/2-x,1/2-y,-z
1/2+x,1/2-y,1/2+z
loop_
_atom_site_type_symbol
_atom_site_label
_atom_site_fract_x
_atom_site_fract_y
_atom_site_fract_z
Si Si1 0.843128 0.084171 0.895143
Si Si2 0.385978 0.208381 0.902106
Si Si3 0.904013 0.835327 0.339456
Si Si4 0.732005 0.119101 0.036619
Si Si5 0.000000 0.302359 0.250000
O O1 0.701408 0.072501 0.693919
O O2 0.856949 0.190777 0.843810
O O3 0.894134 0.883693 0.963930
O O4 0.921583 0.181511 0.075409
O O5 0.303459 0.277039 0.709462
O O6 0.519419 0.179196 0.078788
O O7 0.797917 0.927147 0.130253
O O8 0.000000 0.000000 0.500000
O O9 0.750000 0.250000 0.000000
O O10 0.596221 0.093452 0.852217
#
# Coordination Sequence:
#
# PCOD9254075 Si02
#       5
#     8   8   8   8   4
#     4   9  17  29  46  71  95 123 158 193 234 276
#     4   9  17  29  47  69  96 127 155 191 235 281
#     4   8  15  28  44  66  95 127 152 192 238 275
#     4   9  15  25  44  71  94 116 154 198 231 264
#     4  10  16  24  46  74  92 118 162 204 224 268
#
# _framework density 22.716443000000002
#
# number of rings (size 3 to 8) (size 9 to 14) (size 15 to 20)
#    0.000    3.556    0.000    4.000    0.000    0.000 
#    0.000    1.111    0.000   14.667    0.000   77.778 
#    0.000    0.000    0.000    0.000    0.000    0.000 
#
# Total GULP energy -100277.685796 kJ/mol
# GULP energy per Si atom -5570.982544 kJ/mol
# Density = 2.266474 g / cm^3
# Si number density = 22.716443 Si / 1000 Ang^3
#
#
#
# Elastic Constant Matrix: (Units=GPa)
#
#
# Indices 1 2 3 4 5 6 
#
# 1 114.9594 40.1510 46.7679 0.0000 21.5736 0.0000
# 2 40.1510 35.4521 28.9987 0.0000 18.6548 0.0000
# 3 46.7679 28.9987 90.0705 0.0000 20.2095 0.0000
# 4 0.0000 0.0000 0.0000 14.4902 0.0000 3.5113
# 5 21.5736 18.6548 20.2095 0.0000 31.4435 0.0000
# 6 0.0000 0.0000 0.0000 3.5113 0.0000 18.1486
#
#
#
# Elastic Compliance Matrix: (Units=1/GPa)
#
#
# Indices 1 2 3 4 5 6 
#
# 1 0.015027 -0.014634 -0.003185 0.000000 0.000419 0.000000
# 2 -0.014634 0.062721 -0.007594 0.000000 -0.022290 0.000000
# 3 -0.003185 -0.007594 0.016008 0.000000 -0.003599 0.000000
# 4 0.000000 0.000000 0.000000 0.072407 0.000000 -0.014009
# 5 0.000419 -0.022290 -0.003599 0.000000 0.047053 0.000000
# 6 0.000000 0.000000 0.000000 -0.014009 0.000000 0.057811
#
#
# Mechanical properties :
#
#
# Convention : Reuss Voigt Hill
#
# Bulk Modulus (GPa) = 23.29310 52.47967 37.88639
# Shear Modulus (GPa) = 14.87379 21.12076 17.99727
#
# Velocity S-wave (km/s) = 2.56160 3.05250 2.81776
# Velocity P-wave (km/s) = 4.36179 5.96455 5.22499
#
# Compressibility (1/GPa) = 0.04293116
#
# Stress axis : x y z
#
# Youngs Moduli (GPa) = 66.54752 15.94370 62.46691
#
# Poissons Ratio (x) = 0.23332 0.19896
# Poissons Ratio (y) = 0.97384 0.47435
# Poissons Ratio (z) = 0.21196 0.12107
#
# Static dielectric constant tensor:
#      x y z
#    x 1.999530 0.000000 0.147290 
#    y 0.000000 1.931150 0.000000 
#    z 0.147290 0.000000 1.974390 
# 
# From -- ./inp_files/202033.got.cif
#   From: 2010.05.17/outbox.cif.g08.bks.cpg/sg15_102_cif.got.tgz:202033.got - 2010.06.03 18:47:42.
