data_PCOD9254788
_publ_section_title
;
Structure prediction by ZEFSAII (Michael W. Deem and Ramdas Pophale) SiO2 
 PCOD9254788
Probable space group: C 2/C
;
_chemical_formula_sum "Si O2"
_cell_formula_units_Z 28
_cell_length_a 8.178645
_cell_length_b 12.168723
_cell_length_c 13.141494
_cell_angle_alpha 90.000000
_cell_angle_beta 119.860675
_cell_angle_gamma 90.000000
_cell_volume 1134.252499
_symmetry_space_group_name_H-M "C 2/C"
_symmetry_group_IT_number 15
_symmetry_cell_setting 'monoclinic'
loop_
_space_group_symop_operation_xyz
x,y,z
-x,y,1/2-z
-x,-y,-z
x,-y,1/2+z
1/2+x,1/2+y,z
1/2-x,1/2+y,1/2-z
1/2-x,1/2-y,-z
1/2+x,1/2-y,1/2+z
loop_
_atom_site_type_symbol
_atom_site_label
_atom_site_fract_x
_atom_site_fract_y
_atom_site_fract_z
Si Si1 0.500000 0.516347 0.750000
Si Si2 0.299455 0.529506 0.888116
Si Si3 0.344383 0.903014 0.963399
Si Si4 0.911140 0.696841 0.121194
O O1 0.354619 0.562869 0.791329
O O2 0.646418 0.444557 0.859834
O O3 0.178494 0.416726 0.862046
O O4 0.500000 0.500000 0.000000
O O5 0.188512 0.614714 0.926794
O O6 0.423825 0.815445 0.910101
O O7 0.500000 0.000000 0.000000
O O8 0.000000 0.751114 0.250000
O O9 0.750000 0.750000 0.000000
#
# Coordination Sequence:
#
# PCOD9254788 Si02
#       4
#     4   8   8   8
#     4  10  16  34  64  86 124 162 202 268 338 364
#     4   9  19  37  65  91 116 165 216 270 327 382
#     4   9  19  35  61  92 120 164 218 267 323 383
#     4  11  22  42  63  90 137 179 212 270 329 393
#
# _framework density 24.685860999999999
#
# number of rings (size 3 to 8) (size 9 to 14) (size 15 to 20)
#    0.000    2.286    2.857    0.000    0.000    0.000 
#   23.143    5.714    0.000    0.000    0.000    0.000 
#    0.000    0.000    0.000    0.000    0.000    0.000 
#
# Total GULP energy -77995.451024 kJ/mol
# GULP energy per Si atom -5571.103645 kJ/mol
# Density = 2.462967 g / cm^3
# Si number density = 24.685861 Si / 1000 Ang^3
#
#
#
# Elastic Constant Matrix: (Units=GPa)
#
#
# Indices 1 2 3 4 5 6 
#
# 1 217.1868 52.8590 88.3507 0.0000 -63.2726 0.0000
# 2 52.8590 48.2538 42.5804 0.0000 -32.9354 0.0000
# 3 88.3507 42.5804 168.0015 0.0000 -37.8339 0.0000
# 4 0.0000 0.0000 0.0000 22.9466 0.0000 -9.0196
# 5 -63.2726 -32.9354 -37.8339 0.0000 91.3150 0.0000
# 6 0.0000 0.0000 0.0000 -9.0196 0.0000 48.0476
#
#
#
# Elastic Compliance Matrix: (Units=1/GPa)
#
#
# Indices 1 2 3 4 5 6 
#
# 1 0.007287 -0.004303 -0.002155 0.000000 0.002604 0.000000
# 2 -0.004303 0.034926 -0.004879 0.000000 0.007594 0.000000
# 3 -0.002155 -0.004879 0.008371 0.000000 0.000215 0.000000
# 4 0.000000 0.000000 0.000000 0.047051 0.000000 0.008833
# 5 0.002604 0.007594 0.000215 0.000000 0.015584 0.000000
# 6 0.000000 0.000000 0.000000 0.008833 0.000000 0.022471
#
#
# Mechanical properties :
#
#
# Convention : Reuss Voigt Hill
#
# Bulk Modulus (GPa) = 35.83018 89.00249 62.41634
# Shear Modulus (GPa) = 29.82093 49.10530 39.46311
#
# Velocity S-wave (km/s) = 3.47942 4.46489 4.00260
# Velocity P-wave (km/s) = 5.53966 7.91913 6.83376
#
# Compressibility (1/GPa) = 0.02790943
#
# Stress axis : x y z
#
# Youngs Moduli (GPa) = 137.23050 28.63174 119.46454
#
# Poissons Ratio (x) = 0.12321 0.25745
# Poissons Ratio (y) = 0.59054 0.58286
# Poissons Ratio (z) = 0.29574 0.13969
#
# Static dielectric constant tensor:
#      x y z
#    x 1.946530 0.000000 -0.075030 
#    y 0.000000 1.906140 0.000000 
#    z -0.075030 0.000000 1.986000 
# 
# From -- ./inp_files/75042.got.cif
#   From: 2010.05.17/outbox.cif.g08.bks.cpg/sg15_38_cif.got.tgz:75042.got - 2010.06.03 18:47:42.
