data_PCOD9254143
_publ_section_title
;
Structure prediction by ZEFSAII (Michael W. Deem and Ramdas Pophale) SiO2 
 PCOD9254143
Probable space group: C 2/C
;
_chemical_formula_sum "Si O2"
_cell_formula_units_Z 64
_cell_length_a 22.554190
_cell_length_b 19.502488
_cell_length_c 9.882682
_cell_angle_alpha 90.000000
_cell_angle_beta 40.440702
_cell_angle_gamma 90.000000
_cell_volume 2819.743968
_symmetry_space_group_name_H-M "C 2/C"
_symmetry_group_IT_number 15
_symmetry_cell_setting 'monoclinic'
loop_
_space_group_symop_operation_xyz
x,y,z
-x,y,1/2-z
-x,-y,-z
x,-y,1/2+z
1/2+x,1/2+y,z
1/2-x,1/2+y,1/2-z
1/2-x,1/2-y,-z
1/2+x,1/2-y,1/2+z
loop_
_atom_site_type_symbol
_atom_site_label
_atom_site_fract_x
_atom_site_fract_y
_atom_site_fract_z
Si Si1 0.727156 0.101242 0.501138
Si Si2 0.926099 0.245628 0.722576
Si Si3 0.738991 0.038922 0.081407
Si Si4 0.327503 0.347223 0.593825
Si Si5 0.930867 0.711569 0.747205
Si Si6 0.164682 0.375264 0.478903
Si Si7 0.809805 0.775067 0.166291
Si Si8 0.902046 0.484125 0.476081
O O1 0.814256 0.135615 0.275242
O O2 0.646183 0.156571 0.661401
O O3 0.759523 0.042057 0.547432
O O4 0.673494 0.050383 0.488902
O O5 0.891969 0.319586 0.836566
O O6 0.860225 0.214189 0.720708
O O7 0.016410 0.261848 0.477090
O O8 0.908151 0.195262 0.882137
O O9 0.809292 0.081587 0.049698
O O10 0.732966 0.080960 0.954204
O O11 0.632872 0.042290 0.319009
O O12 0.238905 0.298375 0.726707
O O13 0.000000 0.686613 0.750000
O O14 0.877069 0.769787 0.923858
O O15 0.231025 0.329003 0.273724
O O16 0.104625 0.433299 0.512698
O O17 0.000000 0.465244 0.250000
#
# Coordination Sequence:
#
# PCOD9254143 Si02
#       8
#     8   8   8   8   8   8   8   8
#     4   9  19  28  44  64  98 132 153 180 234 290
#     4  10  16  26  50  68  90 119 155 213 234 267
#     4  10  18  30  44  63  95 129 155 185 228 280
#     4   9  15  29  44  68  92 118 163 192 229 275
#     4   9  18  26  44  73  94 118 151 197 250 272
#     4  10  18  29  47  65  90 131 160 188 243 269
#     4   9  15  29  46  66  94 116 155 207 233 283
#     4  10  22  29  39  67  99 130 158 188 219 291
#
# _framework density 22.697095999999998
#
# number of rings (size 3 to 8) (size 9 to 14) (size 15 to 20)
#    0.000    2.500    2.500    1.125    5.250    1.000 
#    0.000    0.000    0.000    6.750    0.000    9.625 
#    0.000    0.000    0.000    0.000    0.000    0.000 
#
# Total GULP energy -178303.850239 kJ/mol
# GULP energy per Si atom -5571.995320 kJ/mol
# Density = 2.264544 g / cm^3
# Si number density = 22.697096 Si / 1000 Ang^3
#
#
#
# Elastic Constant Matrix: (Units=GPa)
#
#
# Indices 1 2 3 4 5 6 
#
# 1 50.4361 27.7683 21.7114 0.0000 4.8033 0.0000
# 2 27.7683 103.4593 76.4555 0.0000 4.7768 0.0000
# 3 21.7114 76.4555 157.0964 0.0000 -1.2802 0.0000
# 4 0.0000 0.0000 0.0000 8.5519 0.0000 7.3857
# 5 4.8033 4.7768 -1.2802 0.0000 8.9947 0.0000
# 6 0.0000 0.0000 0.0000 7.3857 0.0000 28.1952
#
#
#
# Elastic Compliance Matrix: (Units=1/GPa)
#
#
# Indices 1 2 3 4 5 6 
#
# 1 0.024113 -0.005438 -0.000768 0.000000 -0.010098 0.000000
# 2 -0.005438 0.017098 -0.007629 0.000000 -0.007262 0.000000
# 3 -0.000768 -0.007629 0.010233 0.000000 0.005918 0.000000
# 4 0.000000 0.000000 0.000000 0.151121 0.000000 -0.039586
# 5 -0.010098 -0.007262 0.005918 0.000000 0.121269 0.000000
# 6 0.000000 0.000000 0.000000 -0.039586 0.000000 0.045837
#
#
# Mechanical properties :
#
#
# Convention : Reuss Voigt Hill
#
# Bulk Modulus (GPa) = 42.06289 62.54024 52.30157
# Shear Modulus (GPa) = 12.33757 21.48546 16.91152
#
# Velocity S-wave (km/s) = 2.33400 3.08005 2.73261
# Velocity P-wave (km/s) = 5.08290 6.34532 5.74887
#
# Compressibility (1/GPa) = 0.02377393
#
# Stress axis : x y z
#
# Youngs Moduli (GPa) = 41.47058 58.48557 97.72503
#
# Poissons Ratio (x) = 0.31805 0.07508
# Poissons Ratio (y) = 0.22552 0.74554
# Poissons Ratio (z) = 0.03186 0.44619
#
# Static dielectric constant tensor:
#      x y z
#    x 1.928000 0.000000 0.087970 
#    y 0.000000 1.861340 0.000000 
#    z 0.087970 0.000000 1.935440 
# 
# From -- ./inp_files/127274.got.cif
#   From: 2010.05.17/outbox.cif.g08.bks.cpg/sg15_64_cif.got.tgz:127274.got - 2010.06.03 18:47:42.
