data_PCOD9254786
_publ_section_title
;
Structure prediction by ZEFSAII (Michael W. Deem and Ramdas Pophale) SiO2 
 PCOD9254786
Probable space group: C 2/C
;
_chemical_formula_sum "Si O2"
_cell_formula_units_Z 44
_cell_length_a 7.934638
_cell_length_b 16.571906
_cell_length_c 14.223907
_cell_angle_alpha 90.000000
_cell_angle_beta 97.620711
_cell_angle_gamma 90.000000
_cell_volume 1853.811663
_symmetry_space_group_name_H-M "C 2/C"
_symmetry_group_IT_number 15
_symmetry_cell_setting 'monoclinic'
loop_
_space_group_symop_operation_xyz
x,y,z
-x,y,1/2-z
-x,-y,-z
x,-y,1/2+z
1/2+x,1/2+y,z
1/2-x,1/2+y,1/2-z
1/2-x,1/2-y,-z
1/2+x,1/2-y,1/2+z
loop_
_atom_site_type_symbol
_atom_site_label
_atom_site_fract_x
_atom_site_fract_y
_atom_site_fract_z
Si Si1 0.399862 0.968854 0.646153
Si Si2 0.014060 0.711292 0.644258
Si Si3 0.142046 0.138690 0.056447
Si Si4 0.000000 0.915313 0.250000
Si Si5 0.182280 0.126317 0.581789
Si Si6 0.802950 0.549754 0.888054
O O1 0.500000 0.979054 0.750000
O O2 0.267761 0.895832 0.645098
O O3 0.278731 0.042670 0.607918
O O4 0.567072 0.975599 0.591049
O O5 0.827474 0.693616 0.588477
O O6 0.000000 0.744001 0.750000
O O7 0.120203 0.767869 0.581824
O O8 0.103484 0.624191 0.657589
O O9 0.240105 0.094827 0.977244
O O10 0.946468 0.117082 0.015056
O O11 0.074248 0.862006 0.170116
O O12 0.141371 0.969326 0.311657
#
# Coordination Sequence:
#
# PCOD9254786 Si02
#       6
#     8   8   8   4   8   8
#     4  11  21  42  62  93 132 175 215 275 334 388
#     4  11  21  42  62  93 132 175 215 275 334 388
#     4  11  24  37  62 102 132 166 212 285 344 377
#     4  10  16  34  64 100 104 170 232 262 284 392
#     4  10  20  39  67  90 126 175 232 257 314 410
#     4  10  20  39  67  90 126 175 232 257 314 410
#
# _framework density 23.734881000000001
#
# number of rings (size 3 to 8) (size 9 to 14) (size 15 to 20)
#    0.000    1.455    3.636    3.273    0.000    0.000 
#    3.273    7.273    0.000    0.000    0.000    0.000 
#    0.000    0.000    0.000    0.000    0.000    0.000 
#
# Total GULP energy -122547.364657 kJ/mol
# GULP energy per Si atom -5570.334757 kJ/mol
# Density = 2.368086 g / cm^3
# Si number density = 23.734881 Si / 1000 Ang^3
#
#
#
# Elastic Constant Matrix: (Units=GPa)
#
#
# Indices 1 2 3 4 5 6 
#
# 1 138.3531 60.1415 33.0232 0.0000 32.2283 0.0000
# 2 60.1415 74.6836 9.6652 0.0000 17.2688 0.0000
# 3 33.0232 9.6652 75.3408 0.0000 18.8071 0.0000
# 4 0.0000 0.0000 0.0000 20.6357 0.0000 2.6458
# 5 32.2283 17.2688 18.8071 0.0000 55.7938 0.0000
# 6 0.0000 0.0000 0.0000 2.6458 0.0000 45.0671
#
#
#
# Elastic Compliance Matrix: (Units=1/GPa)
#
#
# Indices 1 2 3 4 5 6 
#
# 1 0.012823 -0.009077 -0.003612 0.000000 -0.003380 0.000000
# 2 -0.009077 0.020892 0.001751 0.000000 -0.001813 0.000000
# 3 -0.003612 0.001751 0.015555 0.000000 -0.003699 0.000000
# 4 0.000000 0.000000 0.000000 0.048827 0.000000 -0.002867
# 5 -0.003380 -0.001813 -0.003699 0.000000 0.021684 0.000000
# 6 0.000000 0.000000 0.000000 -0.002867 0.000000 0.022357
#
#
# Mechanical properties :
#
#
# Convention : Reuss Voigt Hill
#
# Bulk Modulus (GPa) = 36.50502 54.89302 45.69902
# Shear Modulus (GPa) = 28.87712 36.66916 32.77314
#
# Velocity S-wave (km/s) = 3.49184 3.93485 3.71994
# Velocity P-wave (km/s) = 5.62770 6.61980 6.14381
#
# Compressibility (1/GPa) = 0.02739349
#
# Stress axis : x y z
#
# Youngs Moduli (GPa) = 77.98257 47.86440 64.28780
#
# Poissons Ratio (x) = 0.43449 0.23224
# Poissons Ratio (y) = 0.70788 -0.11258
# Poissons Ratio (z) = 0.28171 -0.08382
#
# Static dielectric constant tensor:
#      x y z
#    x 2.028130 0.000000 -0.051180 
#    y 0.000000 1.872760 0.000000 
#    z -0.051180 0.000000 2.068440 
# 
# From -- ./inp_files/134525.got.cif
#   From: 2010.05.17/outbox.cif.g08.bks.cpg/sg15_68_cif.got.tgz:134525.got - 2010.06.03 18:47:42.
