data_PCOD9254214
_publ_section_title
;
Structure prediction by ZEFSAII (Michael W. Deem and Ramdas Pophale) SiO2 
 PCOD9254214
Probable space group: C 2/C
;
_chemical_formula_sum "Si O2"
_cell_formula_units_Z 32
_cell_length_a 16.868787
_cell_length_b 9.592194
_cell_length_c 14.723429
_cell_angle_alpha 90.000000
_cell_angle_beta 26.630203
_cell_angle_gamma 90.000000
_cell_volume 1067.854434
_symmetry_space_group_name_H-M "C 2/C"
_symmetry_group_IT_number 15
_symmetry_cell_setting 'monoclinic'
loop_
_space_group_symop_operation_xyz
x,y,z
-x,y,1/2-z
-x,-y,-z
x,-y,1/2+z
1/2+x,1/2+y,z
1/2-x,1/2+y,1/2-z
1/2-x,1/2-y,-z
1/2+x,1/2-y,1/2+z
loop_
_atom_site_type_symbol
_atom_site_label
_atom_site_fract_x
_atom_site_fract_y
_atom_site_fract_z
Si Si1 0.009397 0.249402 0.439795
Si Si2 0.173206 0.573304 0.509358
Si Si3 0.700727 0.457913 0.434631
Si Si4 0.519719 0.800758 0.828926
O O1 0.149083 0.374182 0.276891
O O2 0.841011 0.331539 0.564402
O O3 0.981745 0.095915 0.423263
O O4 0.997301 0.224850 0.558858
O O5 0.310309 0.592482 0.449497
O O6 0.000000 0.606371 0.750000
O O7 0.138229 0.415454 0.515310
O O8 0.798061 0.608250 0.346478
O O9 0.500000 0.729891 0.750000
#
# Coordination Sequence:
#
# PCOD9254214 Si02
#       4
#     8   8   8   8
#     4  10  16  28  46  66  89 119 146 181 221 259
#     4   7  13  25  43  66  86 107 143 180 210 256
#     4   9  17  27  45  70  90 111 147 185 220 261
#     4   8  16  30  46  64  87 121 154 174 207 270
#
# _framework density 29.966631
#
# number of rings (size 3 to 8) (size 9 to 14) (size 15 to 20)
#    0.000    4.500    0.000    3.750    0.000    0.000 
#    0.000    2.500    0.000    0.000    0.000   24.500 
#    0.000    0.000    0.000    0.000    0.000    0.000 
#
# Total GULP energy -89215.998782 kJ/mol
# GULP energy per Si atom -5575.999924 kJ/mol
# Density = 2.989843 g / cm^3
# Si number density = 29.966631 Si / 1000 Ang^3
#
#
#
# Elastic Constant Matrix: (Units=GPa)
#
#
# Indices 1 2 3 4 5 6 
#
# 1 251.4183 45.0102 43.3754 0.0001 62.9372 0.0004
# 2 45.0102 98.7331 23.2176 0.0001 14.0788 0.0005
# 3 43.3754 23.2176 75.0302 0.0003 9.9323 0.0007
# 4 0.0001 0.0001 0.0003 24.5604 -0.0001 -56.6025
# 5 62.9372 14.0788 9.9323 -0.0001 54.0138 -0.0005
# 6 0.0004 0.0005 0.0007 -56.6025 -0.0005 -118.0668
#
#
#
# Elastic Compliance Matrix: (Units=1/GPa)
#
#
# Indices 1 2 3 4 5 6 
#
# 1 0.006252 -0.001376 -0.002328 0.000000 -0.006498 0.000000
# 2 -0.001376 0.011507 -0.002645 0.000000 -0.000910 0.000000
# 3 -0.002328 -0.002645 0.015417 0.000000 0.000567 0.000000
# 4 0.000000 0.000000 0.000000 0.019344 0.000000 -0.009274
# 5 -0.006498 -0.000910 0.000567 0.000000 0.026218 0.000000
# 6 0.000000 0.000000 0.000000 -0.009274 0.000000 -0.004024
#
#
# Mechanical properties :
#
#
# Convention : Reuss Voigt Hill
#
# Bulk Modulus (GPa) = 48.83272 72.04310 60.43791
# Shear Modulus (GPa) = 53.05612 13.00672 33.03142
#
# Velocity S-wave (km/s) = 4.21230 2.08562 3.32365
# Velocity P-wave (km/s) = 6.32369 5.46745 5.91110
#
# Compressibility (1/GPa) = 0.02047807
#
# Stress axis : x y z
#
# Youngs Moduli (GPa) = 159.94405 86.90125 64.86194
#
# Poissons Ratio (x) = 0.11958 0.15102
# Poissons Ratio (y) = 0.22010 0.17155
# Poissons Ratio (z) = 0.37241 0.22985
#
# Static dielectric constant tensor:
#      x y z
#    x 2.310910 0.000000 -0.234600 
#    y 0.000000 2.351260 0.000000 
#    z -0.234600 0.000000 2.706060 
# 
# From -- ./inp_files/151630.got.cif
#   From: 2010.05.17/outbox.cif.g08.bks.cpg/sg15_76_cif.got.tgz:151630.got - 2010.06.03 18:47:42.
