data_PCOD9254769
_publ_section_title
;
Structure prediction by ZEFSAII (Michael W. Deem and Ramdas Pophale) SiO2 
 PCOD9254769
Probable space group: C 2/C
;
_chemical_formula_sum "Si O2"
_cell_formula_units_Z 44
_cell_length_a 12.263935
_cell_length_b 6.686721
_cell_length_c 33.221002
_cell_angle_alpha 90.000000
_cell_angle_beta 137.510353
_cell_angle_gamma 90.000000
_cell_volume 1840.150996
_symmetry_space_group_name_H-M "C 2/C"
_symmetry_group_IT_number 15
_symmetry_cell_setting 'monoclinic'
loop_
_space_group_symop_operation_xyz
x,y,z
-x,y,1/2-z
-x,-y,-z
x,-y,1/2+z
1/2+x,1/2+y,z
1/2-x,1/2+y,1/2-z
1/2-x,1/2-y,-z
1/2+x,1/2-y,1/2+z
loop_
_atom_site_type_symbol
_atom_site_label
_atom_site_fract_x
_atom_site_fract_y
_atom_site_fract_z
Si Si1 0.500000 0.423094 0.750000
Si Si2 0.520671 0.882954 0.940833
Si Si3 0.412848 0.464839 0.810758
Si Si4 0.261109 0.985542 0.429511
Si Si5 0.743958 0.403273 0.154370
Si Si6 0.109603 0.402034 0.383603
O O1 0.405860 0.521398 0.761877
O O2 0.638301 0.286884 0.807891
O O3 0.429198 0.675779 0.907709
O O4 0.388147 0.024381 0.927562
O O5 0.569230 0.976418 0.911862
O O6 0.665782 0.877478 0.012074
O O7 0.579382 0.571931 0.869615
O O8 0.277999 0.509703 0.807150
O O9 0.454731 0.229303 0.827537
O O10 0.238156 0.226264 0.430470
O O11 0.821859 0.513835 0.137272
#
# Coordination Sequence:
#
# PCOD9254769 Si02
#       6
#     4   8   8   8   8   8
#     4  10  20  40  54  72 108 146 178 224 272 308
#     4  10  16  34  61  79 111 146 169 213 273 321
#     4   9  20  39  55  78 110 136 180 228 262 312
#     4   8  18  33  57  82 109 143 176 210 268 324
#     4  10  21  37  55  79 105 139 181 224 266 315
#     4   8  18  35  54  79 110 140 169 212 265 320
#
# _framework density 23.911082
#
# number of rings (size 3 to 8) (size 9 to 14) (size 15 to 20)
#    1.091    1.818    1.818    0.545    0.000    3.636 
#    3.273    0.909    0.000    0.000    0.000    0.000 
#    0.000    0.000    0.000    0.000    0.000    0.000 
#
# Total GULP energy -122584.453134 kJ/mol
# GULP energy per Si atom -5572.020597 kJ/mol
# Density = 2.385666 g / cm^3
# Si number density = 23.911082 Si / 1000 Ang^3
#
#
#
# Elastic Constant Matrix: (Units=GPa)
#
#
# Indices 1 2 3 4 5 6 
#
# 1 168.6422 43.1395 34.7084 0.0000 -65.0390 0.0000
# 2 43.1395 35.5743 8.1392 0.0000 -16.4856 0.0000
# 3 34.7084 8.1392 69.6852 0.0000 -24.0537 0.0000
# 4 0.0000 0.0000 0.0000 11.9560 0.0000 -10.4563
# 5 -65.0390 -16.4856 -24.0537 0.0000 62.2322 0.0000
# 6 0.0000 0.0000 0.0000 -10.4563 0.0000 32.8401
#
#
#
# Elastic Compliance Matrix: (Units=1/GPa)
#
#
# Indices 1 2 3 4 5 6 
#
# 1 0.012809 -0.010538 -0.001722 0.000000 0.009930 0.000000
# 2 -0.010538 0.040766 0.000477 0.000000 -0.000030 0.000000
# 3 -0.001722 0.000477 0.016818 0.000000 0.004828 0.000000
# 4 0.000000 0.000000 0.000000 0.115919 0.000000 0.036909
# 5 0.009930 -0.000030 0.004828 0.000000 0.028305 0.000000
# 6 0.000000 0.000000 0.000000 0.036909 0.000000 0.042202
#
#
# Mechanical properties :
#
#
# Convention : Reuss Voigt Hill
#
# Bulk Modulus (GPa) = 21.35424 49.54176 35.44800
# Shear Modulus (GPa) = 16.89223 33.93329 25.41276
#
# Velocity S-wave (km/s) = 2.66082 3.77124 3.26360
# Velocity P-wave (km/s) = 4.28836 6.30295 5.39060
#
# Compressibility (1/GPa) = 0.04682911
#
# Stress axis : x y z
#
# Youngs Moduli (GPa) = 78.06831 24.53027 59.45865
#
# Poissons Ratio (x) = 0.25849 0.10236
# Poissons Ratio (y) = 0.82266 -0.02836
# Poissons Ratio (z) = 0.13440 -0.01170
#
# Static dielectric constant tensor:
#      x y z
#    x 1.958210 0.000000 0.003040 
#    y 0.000000 1.972080 0.000000 
#    z 0.003040 0.000000 1.962530 
# 
# From -- ./inp_files/309636.got.cif
#   From: 2010.05.17/outbox.cif.g08.bks.cpg/sg15_155_cif.got.tgz:309636.got - 2010.06.03 18:47:42.
