data_PCOD9254751
_publ_section_title
;
Structure prediction by ZEFSAII (Michael W. Deem and Ramdas Pophale) SiO2 
 PCOD9254751
Probable space group: C 2/C
;
_chemical_formula_sum "Si O2"
_cell_formula_units_Z 44
_cell_length_a 4.973733
_cell_length_b 23.191036
_cell_length_c 17.644893
_cell_angle_alpha 90.000000
_cell_angle_beta 74.064921
_cell_angle_gamma 90.000000
_cell_volume 1957.059761
_symmetry_space_group_name_H-M "C 2/C"
_symmetry_group_IT_number 15
_symmetry_cell_setting 'monoclinic'
loop_
_space_group_symop_operation_xyz
x,y,z
-x,y,1/2-z
-x,-y,-z
x,-y,1/2+z
1/2+x,1/2+y,z
1/2-x,1/2+y,1/2-z
1/2-x,1/2-y,-z
1/2+x,1/2-y,1/2+z
loop_
_atom_site_type_symbol
_atom_site_label
_atom_site_fract_x
_atom_site_fract_y
_atom_site_fract_z
Si Si1 0.500000 0.000000 0.500000
Si Si2 0.810560 0.053556 0.697197
Si Si3 0.685299 0.314383 0.662386
Si Si4 0.490716 0.587680 0.970692
Si Si5 0.827368 0.052000 0.380927
Si Si6 0.701508 0.294454 0.936595
O O1 0.722433 0.947385 0.465047
O O2 0.476538 0.976293 0.594579
O O3 0.500000 0.048297 0.750000
O O4 0.000000 0.079476 0.750000
O O5 0.827213 0.090764 0.618807
O O6 0.946851 0.990458 0.670356
O O7 0.500000 0.300672 0.750000
O O8 0.654600 0.383530 0.649821
O O9 0.547875 0.281316 0.601992
O O10 0.015340 0.302347 0.634413
O O11 0.660892 0.553400 0.024894
O O12 0.387469 0.645911 0.016557
O O13 0.750000 0.250000 0.000000
#
# Coordination Sequence:
#
# PCOD9254751 Si02
#       6
#     4   8   8   8   8   8
#     4  10  16  34  58  88 120 158 210 242 310 378
#     4  11  25  36  55  89 130 166 206 252 316 381
#     4  11  23  42  67 104 131 162 215 290 335 371
#     4  10  23  38  63  86 124 169 217 259 314 389
#     4  10  22  35  62  88 129 169 211 256 319 390
#     4  11  24  45  70  95 125 176 226 267 326 402
#
# _framework density 22.482706
#
# number of rings (size 3 to 8) (size 9 to 14) (size 15 to 20)
#    0.000    1.455    1.818    3.818   10.182    2.909 
#    0.000    2.727    0.000    0.000    0.000    0.000 
#    0.000    0.000    0.000    0.000    0.000    0.000 
#
# Total GULP energy -122625.440918 kJ/mol
# GULP energy per Si atom -5573.883678 kJ/mol
# Density = 2.243153 g / cm^3
# Si number density = 22.482706 Si / 1000 Ang^3
#
#
#
# Elastic Constant Matrix: (Units=GPa)
#
#
# Indices 1 2 3 4 5 6 
#
# 1 76.3079 -6.3613 32.8588 0.0000 -14.9381 0.0000
# 2 -6.3613 38.7764 7.1718 0.0000 2.2464 0.0000
# 3 32.8588 7.1718 143.6493 0.0000 -22.0975 0.0000
# 4 0.0000 0.0000 0.0000 19.5903 0.0000 3.4038
# 5 -14.9381 2.2464 -22.0975 0.0000 55.2805 0.0000
# 6 0.0000 0.0000 0.0000 3.4038 0.0000 17.0814
#
#
#
# Elastic Compliance Matrix: (Units=1/GPa)
#
#
# Indices 1 2 3 4 5 6 
#
# 1 0.015270 0.002943 -0.003222 0.000000 0.002719 0.000000
# 2 0.002943 0.026744 -0.002188 0.000000 -0.001166 0.000000
# 3 -0.003222 -0.002188 0.008191 0.000000 0.002493 0.000000
# 4 0.000000 0.000000 0.000000 0.052877 0.000000 -0.010537
# 5 0.002719 -0.001166 0.002493 0.000000 0.019868 0.000000
# 6 0.000000 0.000000 0.000000 -0.010537 0.000000 0.060643
#
#
# Mechanical properties :
#
#
# Convention : Reuss Voigt Hill
#
# Bulk Modulus (GPa) = 22.08853 36.23025 29.15939
# Shear Modulus (GPa) = 24.55617 33.39472 28.97545
#
# Velocity S-wave (km/s) = 3.30847 3.85821 3.59386
# Velocity P-wave (km/s) = 4.94375 5.99978 5.49718
#
# Compressibility (1/GPa) = 0.04527237
#
# Stress axis : x y z
#
# Youngs Moduli (GPa) = 65.48949 37.39171 122.08581
#
# Poissons Ratio (x) = -0.11006 0.39330
# Poissons Ratio (y) = -0.19276 0.26710
# Poissons Ratio (z) = 0.21098 0.08181
#
# Static dielectric constant tensor:
#      x y z
#    x 0.451830 0.000000 0.513970 
#    y 0.000000 1.343590 0.000000 
#    z 0.513970 0.000000 1.791410 
# 
# From -- ./inp_files/185431.got.cif
#   From: 2010.05.17/outbox.cif.g08.bks.cpg/sg15_93_cif.got.tgz:185431.got - 2010.06.03 18:47:42.
