data_PCOD9254883
_publ_section_title
;
Structure prediction by ZEFSAII (Michael W. Deem and Ramdas Pophale) SiO2 
 PCOD9254883
Probable space group: C 2/C
;
_chemical_formula_sum "Si O2"
_cell_formula_units_Z 52
_cell_length_a 7.294204
_cell_length_b 11.536911
_cell_length_c 28.088327
_cell_angle_alpha 90.000000
_cell_angle_beta 60.351557
_cell_angle_gamma 90.000000
_cell_volume 2054.241859
_symmetry_space_group_name_H-M "C 2/C"
_symmetry_group_IT_number 15
_symmetry_cell_setting 'monoclinic'
loop_
_space_group_symop_operation_xyz
x,y,z
-x,y,1/2-z
-x,-y,-z
x,-y,1/2+z
1/2+x,1/2+y,z
1/2-x,1/2+y,1/2-z
1/2-x,1/2-y,-z
1/2+x,1/2-y,1/2+z
loop_
_atom_site_type_symbol
_atom_site_label
_atom_site_fract_x
_atom_site_fract_y
_atom_site_fract_z
Si Si1 0.804946 0.227345 0.372440
Si Si2 0.516363 0.016669 0.101413
Si Si3 0.759150 0.176171 0.132157
Si Si4 0.000000 0.168233 0.250000
Si Si5 0.624624 0.158946 0.952715
Si Si6 0.494760 0.622455 0.526740
Si Si7 0.404627 0.969460 0.716904
O O1 0.690310 0.336946 0.412191
O O2 0.635774 0.123000 0.394113
O O3 0.882150 0.235740 0.307751
O O4 0.010605 0.185571 0.375232
O O5 0.519404 0.933740 0.055645
O O6 0.722212 0.079580 0.096117
O O7 0.416655 0.966899 0.163944
O O8 0.725602 0.295955 0.109339
O O9 0.570409 0.138154 0.190411
O O10 0.825814 0.083704 0.248661
O O11 0.784959 0.121952 0.972598
O O12 0.498055 0.268017 0.989890
O O13 0.500000 0.500000 0.500000
O O14 0.500000 0.034141 0.750000
#
# Coordination Sequence:
#
# PCOD9254883 Si02
#       7
#     8   8   8   4   8   8   8
#     4  11  22  44  76 117 152 206 259 323 397 471
#     4   9  22  42  74 109 154 196 254 318 385 465
#     4  10  22  42  72 112 153 196 255 319 383 472
#     4  10  16  36  78 110 156 196 258 316 390 474
#     4  11  24  50  75 106 158 202 252 332 390 462
#     4  11  27  50  78 116 150 208 271 326 399 469
#     4   9  17  36  72 109 153 200 249 320 387 463
#
# _framework density 25.313476000000001
#
# number of rings (size 3 to 8) (size 9 to 14) (size 15 to 20)
#    0.923    0.923    3.077    0.000    2.154    2.462 
#    0.000    0.769    8.462    0.000    0.000    0.000 
#    0.000    0.000    0.000    0.000    0.000    0.000 
#
# Total GULP energy -145175.791349 kJ/mol
# GULP energy per Si atom -5583.684283 kJ/mol
# Density = 2.525586 g / cm^3
# Si number density = 25.313476 Si / 1000 Ang^3
#
#
#
# Elastic Constant Matrix: (Units=GPa)
#
#
# Indices 1 2 3 4 5 6 
#
# 1 164.0016 77.0236 58.2718 0.0000 25.6856 0.0000
# 2 77.0236 134.2141 81.1511 0.0000 14.5060 0.0000
# 3 58.2718 81.1511 135.2451 0.0000 -0.5972 0.0000
# 4 0.0000 0.0000 0.0000 39.3380 0.0000 6.1310
# 5 25.6856 14.5060 -0.5972 0.0000 50.8717 0.0000
# 6 0.0000 0.0000 0.0000 6.1310 0.0000 40.3369
#
#
#
# Elastic Compliance Matrix: (Units=1/GPa)
#
#
# Indices 1 2 3 4 5 6 
#
# 1 0.009007 -0.003826 -0.001601 0.000000 -0.003476 0.000000
# 2 -0.003826 0.013944 -0.006728 0.000000 -0.002123 0.000000
# 3 -0.001601 -0.006728 0.012133 0.000000 0.002869 0.000000
# 4 0.000000 0.000000 0.000000 0.026038 0.000000 -0.003958
# 5 -0.003476 -0.002123 0.002869 0.000000 0.022051 0.000000
# 6 0.000000 0.000000 0.000000 -0.003958 0.000000 0.025393
#
#
# Mechanical properties :
#
#
# Convention : Reuss Voigt Hill
#
# Bulk Modulus (GPa) = 92.79878 96.26155 94.53017
# Shear Modulus (GPa) = 36.63925 40.57693 38.60809
#
# Velocity S-wave (km/s) = 3.80863 4.00806 3.90962
# Velocity P-wave (km/s) = 7.48868 7.71555 7.60296
#
# Compressibility (1/GPa) = 0.01077600
#
# Stress axis : x y z
#
# Youngs Moduli (GPa) = 111.02027 71.71789 82.41910
#
# Poissons Ratio (x) = 0.27437 0.13193
# Poissons Ratio (y) = 0.42472 0.55448
# Poissons Ratio (z) = 0.17772 0.48249
#
# Static dielectric constant tensor:
#      x y z
#    x 2.004680 0.000000 -0.002670 
#    y 0.000000 2.052390 0.000000 
#    z -0.002670 0.000000 2.146960 
# 
# From -- ./inp_files/305356.got.cif
#   From: 2010.05.17/outbox.cif.g08.bks.cpg/sg15_153_cif.got.tgz:305356.got - 2010.06.03 18:47:42.
