data_PCOD9254327
_publ_section_title
;
Structure prediction by ZEFSAII (Michael W. Deem and Ramdas Pophale) SiO2 
 PCOD9254327
Probable space group: C 2/C
;
_chemical_formula_sum "Si O2"
_cell_formula_units_Z 60
_cell_length_a 11.769412
_cell_length_b 14.324225
_cell_length_c 21.718310
_cell_angle_alpha 90.000000
_cell_angle_beta 57.499258
_cell_angle_gamma 90.000000
_cell_volume 3088.001742
_symmetry_space_group_name_H-M "C 2/C"
_symmetry_group_IT_number 15
_symmetry_cell_setting 'monoclinic'
loop_
_space_group_symop_operation_xyz
x,y,z
-x,y,1/2-z
-x,-y,-z
x,-y,1/2+z
1/2+x,1/2+y,z
1/2-x,1/2+y,1/2-z
1/2-x,1/2-y,-z
1/2+x,1/2-y,1/2+z
loop_
_atom_site_type_symbol
_atom_site_label
_atom_site_fract_x
_atom_site_fract_y
_atom_site_fract_z
Si Si1 0.287492 0.148484 0.870898
Si Si2 0.843612 0.300120 0.524879
Si Si3 0.943466 0.678229 0.635997
Si Si4 0.744034 0.559382 0.752882
Si Si5 0.354675 0.463176 0.902461
Si Si6 0.000000 0.943115 0.250000
Si Si7 0.856965 0.123702 0.152491
Si Si8 0.345786 0.529247 0.031707
O O1 0.174965 0.227846 0.914245
O O2 0.433310 0.182120 0.851186
O O3 0.286463 0.112635 0.802264
O O4 0.245416 0.060450 0.925375
O O5 0.750000 0.250000 0.500000
O O6 0.774039 0.397064 0.561964
O O7 0.986797 0.313314 0.451116
O O8 0.860963 0.583749 0.670857
O O9 0.848361 0.768333 0.672303
O O10 0.603875 0.601320 0.767646
O O11 0.715924 0.452625 0.782482
O O12 0.399197 0.499115 0.823166
O O13 0.483828 0.402040 0.887398
O O14 0.335455 0.541585 0.961230
O O15 0.815361 0.104916 0.093498
O O16 0.500000 0.500000 0.000000
#
# Coordination Sequence:
#
# PCOD9254327 Si02
#       8
#     8   8   8   8   8   4   8   8
#     4  10  18  32  57  90 118 145 195 256 304 342
#     4  10  16  29  54  93 122 136 183 255 315 340
#     4  11  19  34  60  90 123 148 190 267 304 341
#     4  10  23  38  56  84 122 165 198 243 303 364
#     4  10  16  32  54  83 115 151 193 245 289 353
#     4  10  24  38  52  70 114 172 210 222 286 376
#     4   9  18  32  55  88 117 154 198 239 300 361
#     4   9  15  27  51  80 118 156 187 230 295 357
#
# _framework density 19.430040000000002
#
# number of rings (size 3 to 8) (size 9 to 14) (size 15 to 20)
#    0.000    2.133    5.333    2.000    0.000    2.133 
#    0.000    0.667    5.867    3.200    0.000    0.000 
#    0.000    0.000    0.000    0.000    0.000    0.000 
#
# Total GULP energy -167021.750496 kJ/mol
# GULP energy per Si atom -5567.391683 kJ/mol
# Density = 1.938582 g / cm^3
# Si number density = 19.430040 Si / 1000 Ang^3
#
#
#
# Elastic Constant Matrix: (Units=GPa)
#
#
# Indices 1 2 3 4 5 6 
#
# 1 33.5653 28.8292 21.8193 0.0000 1.4180 0.0000
# 2 28.8292 70.1589 42.2390 0.0000 -7.5275 0.0000
# 3 21.8193 42.2390 84.9331 0.0000 -13.0607 0.0000
# 4 0.0000 0.0000 0.0000 21.3039 0.0000 -8.3751
# 5 1.4180 -7.5275 -13.0607 0.0000 27.8886 0.0000
# 6 0.0000 0.0000 0.0000 -8.3751 0.0000 25.5301
#
#
#
# Elastic Compliance Matrix: (Units=1/GPa)
#
#
# Indices 1 2 3 4 5 6 
#
# 1 0.049120 -0.018172 -0.005086 0.000000 -0.009784 0.000000
# 2 -0.018172 0.027084 -0.008120 0.000000 0.004432 0.000000
# 3 -0.005086 -0.008120 0.018127 0.000000 0.006556 0.000000
# 4 0.000000 0.000000 0.000000 0.053890 0.000000 0.017678
# 5 -0.009784 0.004432 0.006556 0.000000 0.040621 0.000000
# 6 0.000000 0.000000 0.000000 0.017678 0.000000 0.044969
#
#
# Mechanical properties :
#
#
# Convention : Reuss Voigt Hill
#
# Bulk Modulus (GPa) = 31.66995 41.60361 36.63678
# Shear Modulus (GPa) = 16.28180 21.32918 18.80549
#
# Velocity S-wave (km/s) = 2.89791 3.31681 3.11441
# Velocity P-wave (km/s) = 5.24710 6.01056 5.64176
#
# Compressibility (1/GPa) = 0.03157567
#
# Stress axis : x y z
#
# Youngs Moduli (GPa) = 20.35829 36.92174 55.16633
#
# Poissons Ratio (x) = 0.67093 0.28060
# Poissons Ratio (y) = 0.36994 0.44794
# Poissons Ratio (z) = 0.10355 0.29980
#
# Static dielectric constant tensor:
#      x y z
#    x 1.709320 0.000000 0.010670 
#    y 0.000000 1.697180 0.000000 
#    z 0.010670 0.000000 1.766780 
# 
# From -- ./inp_files/238690.got.cif
#   From: 2010.05.17/outbox.cif.g08.bks.cpg/sg15_120_cif.got.tgz:238690.got - 2010.06.03 18:47:42.
