data_PCOD9254840
_publ_section_title
;
Structure prediction by ZEFSAII (Michael W. Deem and Ramdas Pophale) SiO2 
 PCOD9254840
Probable space group: C 2/C
;
_chemical_formula_sum "Si O2"
_cell_formula_units_Z 48
_cell_length_a 17.135668
_cell_length_b 7.336263
_cell_length_c 20.455130
_cell_angle_alpha 90.000000
_cell_angle_beta 41.446049
_cell_angle_gamma 90.000000
_cell_volume 1702.080452
_symmetry_space_group_name_H-M "C 2/C"
_symmetry_group_IT_number 15
_symmetry_cell_setting 'monoclinic'
loop_
_space_group_symop_operation_xyz
x,y,z
-x,y,1/2-z
-x,-y,-z
x,-y,1/2+z
1/2+x,1/2+y,z
1/2-x,1/2+y,1/2-z
1/2-x,1/2-y,-z
1/2+x,1/2-y,1/2+z
loop_
_atom_site_type_symbol
_atom_site_label
_atom_site_fract_x
_atom_site_fract_y
_atom_site_fract_z
Si Si1 0.730444 0.284941 0.352090
Si Si2 0.965600 0.188046 0.135105
Si Si3 0.750000 0.750000 0.500000
Si Si4 0.319754 0.423661 0.919276
Si Si5 0.000000 0.231398 0.750000
Si Si6 0.145878 0.800636 0.923471
Si Si7 0.120987 0.770106 0.294556
O O1 0.860092 0.292377 0.237304
O O2 0.755414 0.173275 0.401356
O O3 0.678504 0.484641 0.397489
O O4 0.649469 0.190845 0.347116
O O5 0.961820 0.230390 0.060099
O O6 0.084106 0.193736 0.103183
O O7 0.932518 0.971673 0.161804
O O8 0.765923 0.532111 0.479149
O O9 0.844649 0.744163 0.507153
O O10 0.391120 0.606600 0.846686
O O11 0.952818 0.328585 0.715813
O O12 0.253485 0.703908 0.818788
#
# Coordination Sequence:
#
# PCOD9254840 Si02
#       7
#     8   8   4   8   4   8   8
#     4  10  18  33  59  87 110 140 196 251 283 321
#     4   9  18  37  60  82 112 151 199 242 282 340
#     4  12  24  38  58  82 124 166 190 224 296 368
#     4  11  20  37  61  84 113 155 191 238 288 349
#     4  10  16  36  60  80 108 156 196 232 270 352
#     4  10  21  34  56  86 116 155 188 236 298 347
#     4   9  17  33  58  84 111 146 192 242 284 333
#
# _framework density 28.200780999999999
#
# number of rings (size 3 to 8) (size 9 to 14) (size 15 to 20)
#    0.000    2.000    5.000    0.000    0.000    1.333 
#    3.000    0.000    0.000   10.000    0.000    0.000 
#    0.000    0.000    0.000    0.000    0.000    0.000 
#
# Total GULP energy -133784.676932 kJ/mol
# GULP energy per Si atom -5574.361539 kJ/mol
# Density = 2.813659 g / cm^3
# Si number density = 28.200781 Si / 1000 Ang^3
#
#
#
# Elastic Constant Matrix: (Units=GPa)
#
#
# Indices 1 2 3 4 5 6 
#
# 1 254.5807 32.4357 44.7465 0.0001 83.7188 -0.0003
# 2 32.4357 48.4907 7.6123 0.0003 4.8728 -0.0010
# 3 44.7465 7.6123 98.3174 0.0000 22.6646 0.0000
# 4 0.0001 0.0003 0.0000 52.5252 0.0000 11.8707
# 5 83.7188 4.8728 22.6646 0.0000 54.0600 0.0000
# 6 -0.0003 -0.0010 0.0000 11.8707 0.0000 44.8259
#
#
#
# Elastic Compliance Matrix: (Units=1/GPa)
#
#
# Indices 1 2 3 4 5 6 
#
# 1 0.008967 -0.004565 -0.000688 0.000000 -0.013187 0.000000
# 2 -0.004565 0.023287 -0.000964 0.000000 0.005375 0.000001
# 3 -0.000688 -0.000964 0.011395 0.000000 -0.003625 0.000000
# 4 0.000000 0.000000 0.000000 0.020250 0.000000 -0.005363
# 5 -0.013187 0.005375 -0.003625 0.000000 0.039955 0.000000
# 6 0.000000 0.000001 0.000000 -0.005363 0.000000 0.023729
#
#
# Mechanical properties :
#
#
# Convention : Reuss Voigt Hill
#
# Bulk Modulus (GPa) = 32.03636 63.44196 47.73916
# Shear Modulus (GPa) = 33.23993 51.38853 42.31423
#
# Velocity S-wave (km/s) = 3.43693 4.27340 3.87778
# Velocity P-wave (km/s) = 5.20910 6.84796 6.08397
#
# Compressibility (1/GPa) = 0.03121453
#
# Stress axis : x y z
#
# Youngs Moduli (GPa) = 111.52054 42.94182 87.76158
#
# Poissons Ratio (x) = 0.19603 0.06036
# Poissons Ratio (y) = 0.50909 0.08464
# Poissons Ratio (z) = 0.07670 0.04141
#
# Static dielectric constant tensor:
#      x y z
#    x 2.261740 0.000000 -0.039870 
#    y 0.000000 1.796900 0.000000 
#    z -0.039870 0.000000 2.091860 
# 
# From -- ./inp_files/246874.got.cif
#   From: 2010.05.17/outbox.cif.g08.bks.cpg/sg15_124_cif.got.tgz:246874.got - 2010.06.03 18:47:42.
