data_PCOD9254650
_publ_section_title
;
Structure prediction by ZEFSAII (Michael W. Deem and Ramdas Pophale) SiO2 
 PCOD9254650
Probable space group: C 2/C
;
_chemical_formula_sum "Si O2"
_cell_formula_units_Z 44
_cell_length_a 21.805864
_cell_length_b 19.792672
_cell_length_c 12.769004
_cell_angle_alpha 90.000000
_cell_angle_beta 157.740987
_cell_angle_gamma 90.000000
_cell_volume 2087.555726
_symmetry_space_group_name_H-M "C 2/C"
_symmetry_group_IT_number 15
_symmetry_cell_setting 'monoclinic'
loop_
_space_group_symop_operation_xyz
x,y,z
-x,y,1/2-z
-x,-y,-z
x,-y,1/2+z
1/2+x,1/2+y,z
1/2-x,1/2+y,1/2-z
1/2-x,1/2-y,-z
1/2+x,1/2-y,1/2+z
loop_
_atom_site_type_symbol
_atom_site_label
_atom_site_fract_x
_atom_site_fract_y
_atom_site_fract_z
Si Si1 0.700834 0.563720 0.373891
Si Si2 0.000000 0.075557 0.750000
Si Si3 0.324605 0.968728 0.853329
Si Si4 0.112818 0.704282 0.336953
Si Si5 0.133100 0.904578 0.251749
Si Si6 0.068075 0.599841 0.578677
O O1 0.814832 0.567175 0.450565
O O2 0.682531 0.482355 0.350915
O O3 0.781366 0.595591 0.603292
O O4 0.524268 0.593904 0.070436
O O5 0.074519 0.118661 0.774039
O O6 0.861972 0.030372 0.478243
O O7 0.397906 0.043633 0.957586
O O8 0.422076 0.926807 0.921105
O O9 0.250000 0.750000 0.500000
O O10 0.219634 0.641438 0.550661
O O11 0.000000 0.733453 0.250000
O O12 0.989728 0.670380 0.059120
#
# Coordination Sequence:
#
# PCOD9254650 Si02
#       6
#     8   4   8   8   8   8
#     4  10  20  34  63 103 135 167 199 267 330 399
#     4  10  16  32  58  92 132 176 200 256 316 402
#     4  10  19  30  60  94 142 169 206 253 332 400
#     4  12  28  47  68  90 122 175 230 277 320 388
#     4  10  20  38  61  99 134 167 213 254 327 396
#     4  11  20  38  59  94 131 173 215 265 324 385
#
# _framework density 21.077280999999999
#
# number of rings (size 3 to 8) (size 9 to 14) (size 15 to 20)
#    0.000    1.455    3.636    2.727    1.273    0.000 
#    0.000    0.909    0.000    0.000    0.000    0.000 
#    0.000    0.000    0.000    0.000    0.000    0.000 
#
# Total GULP energy -122814.305626 kJ/mol
# GULP energy per Si atom -5582.468438 kJ/mol
# Density = 2.102931 g / cm^3
# Si number density = 21.077281 Si / 1000 Ang^3
#
#
#
# Elastic Constant Matrix: (Units=GPa)
#
#
# Indices 1 2 3 4 5 6 
#
# 1 91.9305 34.6561 27.7013 0.0000 9.2064 0.0000
# 2 34.6561 58.6951 32.8286 0.0000 -1.3982 0.0000
# 3 27.7013 32.8286 138.3605 0.0000 -11.7627 0.0000
# 4 0.0000 0.0000 0.0000 17.9018 0.0000 19.3328
# 5 9.2064 -1.3982 -11.7627 0.0000 36.8076 0.0000
# 6 0.0000 0.0000 0.0000 19.3328 0.0000 25.2732
#
#
#
# Elastic Compliance Matrix: (Units=1/GPa)
#
#
# Indices 1 2 3 4 5 6 
#
# 1 0.014785 -0.008035 -0.001433 0.000000 -0.004461 0.000000
# 2 -0.008035 0.024031 -0.003952 0.000000 0.001659 0.000000
# 3 -0.001433 -0.003952 0.008706 0.000000 0.002991 0.000000
# 4 0.000000 0.000000 0.000000 0.321231 0.000000 -0.245727
# 5 -0.004461 0.001659 0.002991 0.000000 0.029303 0.000000
# 6 0.000000 0.000000 0.000000 -0.245727 0.000000 0.227538
#
#
# Mechanical properties :
#
#
# Convention : Reuss Voigt Hill
#
# Bulk Modulus (GPa) = 48.34850 53.26201 50.80526
# Shear Modulus (GPa) = 7.58347 28.91652 18.25000
#
# Velocity S-wave (km/s) = 1.89888 3.70797 2.94574
# Velocity P-wave (km/s) = 5.27220 6.60733 5.97716
#
# Compressibility (1/GPa) = 0.02068316
#
# Stress axis : x y z
#
# Youngs Moduli (GPa) = 67.63482 41.61267 114.85819
#
# Poissons Ratio (x) = 0.33434 0.16460
# Poissons Ratio (y) = 0.54342 0.45394
# Poissons Ratio (z) = 0.09693 0.16446
#
# Static dielectric constant tensor:
#      x y z
#    x 1.879150 0.000000 0.005790 
#    y 0.000000 1.774260 0.000000 
#    z 0.005790 0.000000 1.806410 
# 
# From -- ./inp_files/174449.got.cif
#   From: 2010.05.17/outbox.cif.g08.bks.cpg/sg15_88_cif.got.tgz:174449.got - 2010.06.03 18:47:42.
