data_PCOD9254437
_publ_section_title
;
Structure prediction by ZEFSAII (Michael W. Deem and Ramdas Pophale) SiO2 
 PCOD9254437
Probable space group: C 2/C
;
_chemical_formula_sum "Si O2"
_cell_formula_units_Z 64
_cell_length_a 16.156431
_cell_length_b 9.178963
_cell_length_c 21.562472
_cell_angle_alpha 90.000000
_cell_angle_beta 91.399146
_cell_angle_gamma 90.000000
_cell_volume 3196.745742
_symmetry_space_group_name_H-M "C 2/C"
_symmetry_group_IT_number 15
_symmetry_cell_setting 'monoclinic'
loop_
_space_group_symop_operation_xyz
x,y,z
-x,y,1/2-z
-x,-y,-z
x,-y,1/2+z
1/2+x,1/2+y,z
1/2-x,1/2+y,1/2-z
1/2-x,1/2-y,-z
1/2+x,1/2-y,1/2+z
loop_
_atom_site_type_symbol
_atom_site_label
_atom_site_fract_x
_atom_site_fract_y
_atom_site_fract_z
Si Si1 0.095697 0.438015 0.376308
Si Si2 0.074934 0.676825 0.600057
Si Si3 0.772646 0.354044 0.768485
Si Si4 0.669168 0.563529 0.074203
Si Si5 0.817279 0.278982 0.641061
Si Si6 0.266935 0.733360 0.903356
Si Si7 0.634612 0.148660 0.741680
Si Si8 0.244456 0.450787 0.052922
O O1 0.113602 0.610484 0.383167
O O2 0.178810 0.350883 0.397234
O O3 0.085891 0.399992 0.302513
O O4 0.015596 0.386887 0.411814
O O5 0.085753 0.846002 0.581648
O O6 0.092852 0.655926 0.673924
O O7 0.150541 0.600052 0.564699
O O8 0.824588 0.274856 0.715081
O O9 0.792400 0.298049 0.837130
O O10 0.678558 0.302279 0.756491
O O11 0.794623 0.523285 0.762564
O O12 0.731907 0.630040 0.126851
O O13 0.667085 0.390451 0.078592
O O14 0.716128 0.597897 0.010958
O O15 0.800998 0.126838 0.606821
O O16 0.256308 0.874947 0.945105
#
# Coordination Sequence:
#
# PCOD9254437 Si02
#       8
#     8   8   8   8   8   8   8   8
#     4   9  21  33  54  81 116 139 173 230 288 340
#     4  11  19  36  53  82 108 147 181 225 277 330
#     4  10  16  30  54  84 100 138 175 229 268 332
#     4  10  21  35  55  80 111 146 194 227 261 333
#     4   9  17  34  54  81 107 140 183 225 278 334
#     4  10  20  36  55  81 110 142 185 232 281 324
#     4  10  18  30  55  82 111 136 178 218 282 333
#     4  11  20  36  59  79 105 148 196 229 264 325
#
# _framework density 20.020361000000001
#
# number of rings (size 3 to 8) (size 9 to 14) (size 15 to 20)
#    0.000    2.000    3.750    3.000    0.000    0.000 
#    0.000    7.500    0.000    0.000    0.000    0.000 
#    0.000    0.000    0.000    0.000    0.000    0.000 
#
# Total GULP energy -178338.590551 kJ/mol
# GULP energy per Si atom -5573.080955 kJ/mol
# Density = 1.997479 g / cm^3
# Si number density = 20.020361 Si / 1000 Ang^3
#
#
#
# Elastic Constant Matrix: (Units=GPa)
#
#
# Indices 1 2 3 4 5 6 
#
# 1 64.1439 30.5991 9.1215 0.0000 -24.6951 0.0000
# 2 30.5991 106.0083 5.4919 0.0000 -11.3494 0.0000
# 3 9.1215 5.4919 54.5311 0.0000 -13.2890 0.0000
# 4 0.0000 0.0000 0.0000 24.1001 0.0000 -1.9291
# 5 -24.6951 -11.3494 -13.2890 0.0000 16.6397 0.0000
# 6 0.0000 0.0000 0.0000 -1.9291 0.0000 21.8991
#
#
#
# Elastic Compliance Matrix: (Units=1/GPa)
#
#
# Indices 1 2 3 4 5 6 
#
# 1 0.043032 -0.005663 0.009926 0.000000 0.067929 0.000000
# 2 -0.005663 0.010952 -0.000476 0.000000 -0.001315 0.000000
# 3 0.009926 -0.000476 0.025127 0.000000 0.034474 0.000000
# 4 0.000000 0.000000 0.000000 0.041788 0.000000 0.003681
# 5 0.067929 -0.001315 0.034474 0.000000 0.187546 0.000000
# 6 0.000000 0.000000 0.000000 0.003681 0.000000 0.045988
#
#
# Mechanical properties :
#
#
# Convention : Reuss Voigt Hill
#
# Bulk Modulus (GPa) = 11.53599 35.01204 23.27401
# Shear Modulus (GPa) = 13.30660 24.49250 18.89955
#
# Velocity S-wave (km/s) = 2.58088 3.50148 3.07582
# Velocity P-wave (km/s) = 3.82831 5.82008 4.92591
#
# Compressibility (1/GPa) = 0.08668525
#
# Stress axis : x y z
#
# Youngs Moduli (GPa) = 23.23846 91.30998 39.79811
#
# Poissons Ratio (x) = 0.51707 -0.39505
# Poissons Ratio (y) = 0.13160 0.01895
# Poissons Ratio (z) = -0.23067 0.04347
#
# Static dielectric constant tensor:
#      x y z
#    x 1.701000 0.000000 0.016250 
#    y 0.000000 1.752240 0.000000 
#    z 0.016250 0.000000 1.759210 
# 
# From -- ./inp_files/276284.got.cif
#   From: 2010.05.17/outbox.cif.g08.bks.cpg/sg15_139_cif.got.tgz:276284.got - 2010.06.03 18:47:42.
