data_PCOD9254116
_publ_section_title
;
Structure prediction by ZEFSAII (Michael W. Deem and Ramdas Pophale) SiO2 
 PCOD9254116
Probable space group: C 2/C
;
_chemical_formula_sum "Si O2"
_cell_formula_units_Z 36
_cell_length_a 9.411580
_cell_length_b 16.622203
_cell_length_c 15.643477
_cell_angle_alpha 90.000000
_cell_angle_beta 41.074665
_cell_angle_gamma 90.000000
_cell_volume 1607.968442
_symmetry_space_group_name_H-M "C 2/C"
_symmetry_group_IT_number 15
_symmetry_cell_setting 'monoclinic'
loop_
_space_group_symop_operation_xyz
x,y,z
-x,y,1/2-z
-x,-y,-z
x,-y,1/2+z
1/2+x,1/2+y,z
1/2-x,1/2+y,1/2-z
1/2-x,1/2-y,-z
1/2+x,1/2-y,1/2+z
loop_
_atom_site_type_symbol
_atom_site_label
_atom_site_fract_x
_atom_site_fract_y
_atom_site_fract_z
Si Si1 0.380955 0.755588 0.029532
Si Si2 0.500000 0.638359 0.750000
Si Si3 0.254471 0.589032 0.146645
Si Si4 0.208187 0.015319 0.541614
Si Si5 0.835190 0.398886 0.623703
O O1 0.396906 0.665676 0.056247
O O2 0.212013 0.806616 0.164014
O O3 0.250000 0.750000 0.000000
O O4 0.600382 0.805456 0.916169
O O5 0.530487 0.577708 0.657114
O O6 0.282872 0.577338 0.234514
O O7 0.000000 0.612761 0.250000
O O8 0.288682 0.517551 0.062541
O O9 0.430592 0.060155 0.468632
O O10 0.224712 0.934762 0.589724
#
# Coordination Sequence:
#
# PCOD9254116 Si02
#       5
#     8   4   8   8   8
#     4  11  15  26  47  73  99 124 154 205 253 282
#     4  10  16  26  44  66 100 128 158 194 248 284
#     4  10  16  27  47  71 101 124 157 197 247 282
#     4   9  18  29  43  68 102 134 153 196 246 298
#     4   9  18  29  44  71 105 123 162 193 252 293
#
# _framework density 22.388500000000001
#
# number of rings (size 3 to 8) (size 9 to 14) (size 15 to 20)
#    0.000    2.222    7.778    0.000    0.000    0.000 
#    0.000    1.111    0.000    0.000    0.000    1.556 
#    6.667    2.444    0.000    0.000    0.000    0.000 
#
# Total GULP energy -100389.833858 kJ/mol
# GULP energy per Si atom -5577.212992 kJ/mol
# Density = 2.233754 g / cm^3
# Si number density = 22.388500 Si / 1000 Ang^3
#
#
#
# Elastic Constant Matrix: (Units=GPa)
#
#
# Indices 1 2 3 4 5 6 
#
# 1 78.2768 58.0558 48.0284 -0.0011 -5.4926 -0.0001
# 2 58.0558 86.5166 35.8355 -0.0019 35.0335 0.0010
# 3 48.0284 35.8355 106.4307 -0.0007 46.1426 0.0008
# 4 -0.0011 -0.0019 -0.0007 16.9451 0.0009 6.0159
# 5 -5.4926 35.0335 46.1426 0.0009 18.6585 -0.0004
# 6 -0.0001 0.0010 0.0008 6.0159 -0.0004 15.3536
#
#
#
# Elastic Compliance Matrix: (Units=1/GPa)
#
#
# Indices 1 2 3 4 5 6 
#
# 1 0.004024 0.003826 0.006978 0.000003 -0.023255 -0.000002
# 2 0.003826 0.006440 -0.011907 -0.000001 0.018480 0.000001
# 3 0.006978 -0.011907 0.004530 -0.000002 0.013206 0.000002
# 4 0.000003 -0.000001 -0.000002 0.068550 0.000004 -0.026860
# 5 -0.023255 0.018480 0.013206 0.000004 -0.020608 -0.000004
# 6 -0.000002 0.000001 0.000002 -0.026860 -0.000004 0.075655
#
#
# Mechanical properties :
#
#
# Convention : Reuss Voigt Hill
#
# Bulk Modulus (GPa) = 78.19239 61.67374 69.93306
# Shear Modulus (GPa) = 34.46823 18.81173 26.63998
#
# Velocity S-wave (km/s) = 3.92797 2.90184 3.45323
# Velocity P-wave (km/s) = 7.45473 6.23173 6.87049
#
# Compressibility (1/GPa) = 0.01278897
#
# Stress axis : x y z
#
# Youngs Moduli (GPa) = 248.48028 155.28173 220.73329
#
# Poissons Ratio (x) = -0.59409 -1.54022
# Poissons Ratio (y) = -0.95066 2.62817
# Poissons Ratio (z) = -1.73383 1.84887
#
# Static dielectric constant tensor:
#      x y z
#    x 1.805200 0.000000 0.010640 
#    y 0.000000 1.887800 0.000000 
#    z 0.010640 0.000000 1.944780 
# 
# From -- ./inp_files/58056.got.cif
#   From: 2010.05.17/outbox.cif.g08.bks.cpg/sg15_30_cif.got.tgz:58056.got - 2010.06.03 18:47:42.
