data_PCOD9254058
_publ_section_title
;
Structure prediction by ZEFSAII (Michael W. Deem and Ramdas Pophale) SiO2 
 PCOD9254058
Probable space group: C 2/C
;
_chemical_formula_sum "Si O2"
_cell_formula_units_Z 60
_cell_length_a 27.086853
_cell_length_b 11.984576
_cell_length_c 16.021893
_cell_angle_alpha 90.000000
_cell_angle_beta 24.537771
_cell_angle_gamma 90.000000
_cell_volume 2159.979794
_symmetry_space_group_name_H-M "C 2/C"
_symmetry_group_IT_number 15
_symmetry_cell_setting 'monoclinic'
loop_
_space_group_symop_operation_xyz
x,y,z
-x,y,1/2-z
-x,-y,-z
x,-y,1/2+z
1/2+x,1/2+y,z
1/2-x,1/2+y,1/2-z
1/2-x,1/2-y,-z
1/2+x,1/2-y,1/2+z
loop_
_atom_site_type_symbol
_atom_site_label
_atom_site_fract_x
_atom_site_fract_y
_atom_site_fract_z
Si Si1 0.285643 0.433745 0.487005
Si Si2 0.000000 0.910768 0.250000
Si Si3 0.642379 0.488161 0.379216
Si Si4 0.678639 0.901002 0.282233
Si Si5 0.130590 0.708030 0.517170
Si Si6 0.913697 0.875270 0.684202
Si Si7 0.403884 0.026504 0.337956
Si Si8 0.999928 0.348489 0.066557
O O1 0.391985 0.359329 0.361351
O O2 0.206509 0.490193 0.681753
O O3 0.350882 0.538241 0.341816
O O4 0.197125 0.398402 0.549071
O O5 0.923839 0.984032 0.432413
O O6 0.770054 0.437118 0.206168
O O7 0.554996 0.403428 0.465576
O O8 0.630571 0.598583 0.341039
O O9 0.546343 0.861335 0.457924
O O10 0.771432 0.801463 0.118298
O O11 0.141045 0.587387 0.545871
O O12 0.000000 0.748334 0.750000
O O13 0.117668 0.688506 0.436298
O O14 0.907236 0.751877 0.729657
O O15 0.500000 0.082798 0.250000
O O16 0.470704 0.960920 0.160408
#
# Coordination Sequence:
#
# PCOD9254058 Si02
#       8
#     8   4   8   8   8   8   8   8
#     4   9  15  23  37  54  79 108 131 152 188 225
#     4   8  16  26  38  54  76 110 134 154 192 238
#     4   9  18  25  37  53  82 107 132 158 198 235
#     4  10  16  24  36  54  75 107 132 152 180 231
#     4   9  15  20  30  50  75  99 125 146 171 214
#     4  10  16  25  35  55  81 108 129 160 196 237
#     4   8  15  23  34  57  81 108 131 153 171 229
#     4   9  16  23  35  51  76 105 131 153 183 221
#
# _framework density 27.778037999999999
#
# number of rings (size 3 to 8) (size 9 to 14) (size 15 to 20)
#    0.000    3.200    1.333    2.400    3.733    3.733 
#    0.000    0.000    0.000    0.000    0.000   23.333 
#    0.000   17.067    0.000    0.000    0.133    0.400 
#
# Total GULP energy -167124.034135 kJ/mol
# GULP energy per Si atom -5570.801138 kJ/mol
# Density = 2.771481 g / cm^3
# Si number density = 27.778038 Si / 1000 Ang^3
#
#
#
# Elastic Constant Matrix: (Units=GPa)
#
#
# Indices 1 2 3 4 5 6 
#
# 1 263.0485 27.1671 11.4971 0.0000 -57.5273 0.0000
# 2 27.1671 54.3600 13.5763 0.0000 8.0876 0.0000
# 3 11.4971 13.5763 40.4845 0.0000 -3.2532 0.0000
# 4 0.0000 0.0000 0.0000 19.8488 0.0000 -2.7533
# 5 -57.5273 8.0876 -3.2532 0.0000 49.5991 0.0000
# 6 0.0000 0.0000 0.0000 -2.7533 0.0000 18.8594
#
#
#
# Elastic Compliance Matrix: (Units=1/GPa)
#
#
# Indices 1 2 3 4 5 6 
#
# 1 0.005847 -0.004114 0.000320 0.000000 0.007473 0.000000
# 2 -0.004114 0.023684 -0.007508 0.000000 -0.009126 0.000000
# 3 0.000320 -0.007508 0.027400 0.000000 0.003392 0.000000
# 4 0.000000 0.000000 0.000000 0.051422 0.000000 0.007507
# 5 0.007473 -0.009126 0.003392 0.000000 0.030540 0.000000
# 6 0.000000 0.000000 0.000000 0.007507 0.000000 0.054120
#
#
# Mechanical properties :
#
#
# Convention : Reuss Voigt Hill
#
# Bulk Modulus (GPa) = 29.13054 51.37489 40.25272
# Shear Modulus (GPa) = 22.02068 38.03830 30.02949
#
# Velocity S-wave (km/s) = 2.81861 3.70451 3.29150
# Velocity P-wave (km/s) = 4.59374 6.06900 5.38216
#
# Compressibility (1/GPa) = 0.03432823
#
# Stress axis : x y z
#
# Youngs Moduli (GPa) = 171.03390 42.22184 36.49604
#
# Poissons Ratio (x) = 0.17369 -0.01166
# Poissons Ratio (y) = 0.70358 0.27400
# Poissons Ratio (z) = -0.05466 0.31698
#
# Static dielectric constant tensor:
#      x y z
#    x 2.337220 0.000000 -0.004580 
#    y 0.000000 2.088720 0.000000 
#    z -0.004580 0.000000 2.321460 
# 
# From -- ./inp_files/173909.got.cif
#   From: 2010.05.17/outbox.cif.g08.bks.cpg/sg15_87_cif.got.tgz:173909.got - 2010.06.03 18:47:42.
