data_PCOD9254543
_publ_section_title
;
Structure prediction by ZEFSAII (Michael W. Deem and Ramdas Pophale) SiO2 
 PCOD9254543
Probable space group: C 2/C
;
_chemical_formula_sum "Si O2"
_cell_formula_units_Z 64
_cell_length_a 18.219137
_cell_length_b 16.223075
_cell_length_c 9.721079
_cell_angle_alpha 90.000000
_cell_angle_beta 77.974569
_cell_angle_gamma 90.000000
_cell_volume 2810.210332
_symmetry_space_group_name_H-M "C 2/C"
_symmetry_group_IT_number 15
_symmetry_cell_setting 'monoclinic'
loop_
_space_group_symop_operation_xyz
x,y,z
-x,y,1/2-z
-x,-y,-z
x,-y,1/2+z
1/2+x,1/2+y,z
1/2-x,1/2+y,1/2-z
1/2-x,1/2-y,-z
1/2+x,1/2-y,1/2+z
loop_
_atom_site_type_symbol
_atom_site_label
_atom_site_fract_x
_atom_site_fract_y
_atom_site_fract_z
Si Si1 0.257535 0.448543 0.475578
Si Si2 0.335438 0.701569 0.858858
Si Si3 0.448502 0.399152 0.134438
Si Si4 0.564392 0.306787 0.903303
Si Si5 0.909148 0.518207 0.403855
Si Si6 0.494808 0.863860 0.428258
Si Si7 0.580957 0.163698 0.282493
Si Si8 0.650471 0.547930 0.285864
O O1 0.263469 0.355277 0.411364
O O2 0.175060 0.485303 0.509077
O O3 0.313469 0.504316 0.360868
O O4 0.287426 0.444956 0.619499
O O5 0.381943 0.657995 0.718361
O O6 0.344792 0.795136 0.807940
O O7 0.381679 0.699593 0.983576
O O8 0.500000 0.408713 0.250000
O O9 0.412067 0.487537 0.122747
O O10 0.493346 0.356724 0.993443
O O11 0.542370 0.215262 0.862411
O O12 0.609208 0.364815 0.780094
O O13 0.945457 0.429638 0.365306
O O14 0.913335 0.568517 0.260196
O O15 0.953481 0.577833 0.493725
O O16 0.432057 0.824830 0.553530
O O17 0.500000 0.195312 0.250000
#
# Coordination Sequence:
#
# PCOD9254543 Si02
#       8
#     8   8   8   8   8   8   8   8
#     4  10  23  39  56  91 128 172 205 250 310 400
#     4   9  15  30  54  89 119 143 199 259 315 361
#     4   9  16  30  59  93 121 155 197 252 313 368
#     4  10  16  31  58  89 115 149 199 264 306 362
#     4  10  22  35  56  86 116 165 204 259 319 366
#     4  10  20  36  59  89 115 147 219 269 317 358
#     4  10  16  32  58  85 115 147 200 275 317 351
#     4  10  22  37  59  92 131 162 206 247 318 379
#
# _framework density 22.774096
#
# number of rings (size 3 to 8) (size 9 to 14) (size 15 to 20)
#    0.000    2.250    3.750    1.500    1.750    0.500 
#    0.000    0.000    0.000   12.000    0.000    0.000 
#    0.000    0.000    0.000    0.000    0.000    0.000 
#
# Total GULP energy -178544.695603 kJ/mol
# GULP energy per Si atom -5579.521738 kJ/mol
# Density = 2.272226 g / cm^3
# Si number density = 22.774096 Si / 1000 Ang^3
#
#
#
# Elastic Constant Matrix: (Units=GPa)
#
#
# Indices 1 2 3 4 5 6 
#
# 1 62.3510 48.2033 24.8256 0.0000 -27.0818 0.0000
# 2 48.2033 157.5379 21.3497 0.0000 -17.3691 0.0000
# 3 24.8256 21.3497 56.2022 0.0000 -17.5342 0.0000
# 4 0.0000 0.0000 0.0000 13.2736 0.0000 7.5614
# 5 -27.0818 -17.3691 -17.5342 0.0000 30.9779 0.0000
# 6 0.0000 0.0000 0.0000 7.5614 0.0000 3.5530
#
#
#
# Elastic Compliance Matrix: (Units=1/GPa)
#
#
# Indices 1 2 3 4 5 6 
#
# 1 0.033066 -0.006994 -0.005045 0.000000 0.022130 0.000000
# 2 -0.006994 0.008379 -0.000650 0.000000 -0.001784 0.000000
# 3 -0.005045 -0.000650 0.022806 0.000000 0.008134 0.000000
# 4 0.000000 0.000000 0.000000 -0.354841 0.000000 0.755154
# 5 0.022130 -0.001784 0.008134 0.000000 0.055232 0.000000
# 6 0.000000 0.000000 0.000000 0.755154 0.000000 -1.325630
#
#
# Mechanical properties :
#
#
# Convention : Reuss Voigt Hill
#
# Bulk Modulus (GPa) = 25.72479 51.64980 38.68729
# Shear Modulus (GPa) = -3.28374 21.67508 9.19567
#
# Velocity S-wave (km/s) = -1.20208 3.08838 2.01160
# Velocity P-wave (km/s) = 3.06488 5.95364 4.73494
#
# Compressibility (1/GPa) = 0.03887302
#
# Stress axis : x y z
#
# Youngs Moduli (GPa) = 30.24263 119.34507 43.84831
#
# Poissons Ratio (x) = 0.83468 0.22120
# Poissons Ratio (y) = 0.21151 0.02852
# Poissons Ratio (z) = 0.15257 0.07761
#
# Static dielectric constant tensor:
#      x y z
#    x 1.877270 0.000000 0.016240 
#    y 0.000000 1.941940 0.000000 
#    z 0.016240 0.000000 1.887480 
# 
# From -- ./inp_files/112737.got.cif
#   From: 2010.05.17/outbox.cif.g08.bks.cpg/sg15_57_cif.got.tgz:112737.got - 2010.06.03 18:47:42.
