data_PCOD9254410
_publ_section_title
;
Structure prediction by ZEFSAII (Michael W. Deem and Ramdas Pophale) SiO2 
 PCOD9254410
Probable space group: C 2/C
;
_chemical_formula_sum "Si O2"
_cell_formula_units_Z 60
_cell_length_a 5.157316
_cell_length_b 26.959518
_cell_length_c 21.743754
_cell_angle_alpha 90.000000
_cell_angle_beta 112.641225
_cell_angle_gamma 90.000000
_cell_volume 2790.235045
_symmetry_space_group_name_H-M "C 2/C"
_symmetry_group_IT_number 15
_symmetry_cell_setting 'monoclinic'
loop_
_space_group_symop_operation_xyz
x,y,z
-x,y,1/2-z
-x,-y,-z
x,-y,1/2+z
1/2+x,1/2+y,z
1/2-x,1/2+y,1/2-z
1/2-x,1/2-y,-z
1/2+x,1/2-y,1/2+z
loop_
_atom_site_type_symbol
_atom_site_label
_atom_site_fract_x
_atom_site_fract_y
_atom_site_fract_z
Si Si1 0.862220 0.052553 0.982068
Si Si2 0.780762 0.594527 0.408635
Si Si3 0.380993 0.691604 0.865880
Si Si4 0.326284 0.790896 0.793679
Si Si5 0.618705 0.103467 0.326814
Si Si6 0.976761 0.395885 0.367375
Si Si7 0.726904 0.862194 0.019994
Si Si8 0.000000 0.132286 0.750000
O O1 0.701495 0.057729 0.032042
O O2 0.067131 0.101000 0.998531
O O3 0.691209 0.060516 0.903209
O O4 0.000000 0.000000 0.000000
O O5 0.456290 0.602447 0.360911
O O6 0.963162 0.575707 0.368100
O O7 0.944588 0.641645 0.454427
O O8 0.317365 0.747953 0.843618
O O9 0.132906 0.656371 0.868283
O O10 0.616976 0.686262 0.940352
O O11 0.451265 0.665705 0.806184
O O12 0.500000 0.771357 0.750000
O O13 0.497923 0.840547 0.824643
O O14 0.000000 0.803543 0.750000
O O15 0.500000 0.087201 0.250000
O O16 0.828807 0.389175 0.419833
O O17 0.763213 0.401466 0.292448
#
# Coordination Sequence:
#
# PCOD9254410 Si02
#       8
#     8   8   8   8   8   8   8   4
#     4  10  21  40  68  94 117 158 215 258 307 382
#     4  11  21  42  65  92 125 161 206 261 324 368
#     4  10  19  33  56  89 125 165 207 250 308 369
#     4  11  22  37  58  92 125 164 219 267 297 362
#     4  11  23  41  65  92 120 166 215 261 311 369
#     4   9  19  31  56  87 125 160 203 244 317 376
#     4   9  20  38  60  91 120 159 201 252 310 386
#     4  10  16  30  52  84 120 168 194 246 310 366
#
# _framework density 21.503564999999998
#
# number of rings (size 3 to 8) (size 9 to 14) (size 15 to 20)
#    0.000    1.867    2.000    3.200    1.867    2.133 
#    0.000    1.333    0.000    6.400    3.467    0.000 
#    0.000    0.000    0.000    0.000    0.000    0.000 
#
# Total GULP energy -167116.654728 kJ/mol
# GULP energy per Si atom -5570.555158 kJ/mol
# Density = 2.145462 g / cm^3
# Si number density = 21.503565 Si / 1000 Ang^3
#
#
#
# Elastic Constant Matrix: (Units=GPa)
#
#
# Indices 1 2 3 4 5 6 
#
# 1 89.7865 -9.1033 43.9097 0.0000 6.4549 0.0000
# 2 -9.1033 26.2766 -6.7977 0.0000 -4.1636 0.0000
# 3 43.9097 -6.7977 110.5867 0.0000 14.1474 0.0000
# 4 0.0000 0.0000 0.0000 8.3561 0.0000 -2.2337
# 5 6.4549 -4.1636 14.1474 0.0000 58.8322 0.0000
# 6 0.0000 0.0000 0.0000 -2.2337 0.0000 8.1087
#
#
#
# Elastic Compliance Matrix: (Units=1/GPa)
#
#
# Indices 1 2 3 4 5 6 
#
# 1 0.014131 0.003499 -0.005395 0.000000 -0.000005 0.000000
# 2 0.003499 0.039825 0.000771 0.000000 0.002249 0.000000
# 3 -0.005395 0.000771 0.011503 0.000000 -0.002120 0.000000
# 4 0.000000 0.000000 0.000000 0.129185 0.000000 0.035586
# 5 -0.000005 0.002249 -0.002120 0.000000 0.017667 0.000000
# 6 0.000000 0.000000 0.000000 0.035586 0.000000 0.133126
#
#
# Mechanical properties :
#
#
# Convention : Reuss Voigt Hill
#
# Bulk Modulus (GPa) = 15.82055 31.40747 23.61401
# Shear Modulus (GPa) = 13.55903 28.30216 20.93060
#
# Velocity S-wave (km/s) = 2.51380 3.63183 3.12325
# Velocity P-wave (km/s) = 3.97476 5.67665 4.90015
#
# Compressibility (1/GPa) = 0.06320894
#
# Stress axis : x y z
#
# Youngs Moduli (GPa) = 70.76556 25.11006 86.93037
#
# Poissons Ratio (x) = -0.08786 0.46900
# Poissons Ratio (y) = -0.24761 -0.06702
# Poissons Ratio (z) = 0.38179 -0.01936
#
# Static dielectric constant tensor:
#      x y z
#    x 1.940040 0.000000 0.030580 
#    y 0.000000 1.800550 0.000000 
#    z 0.030580 0.000000 1.832410 
# 
# From -- ./inp_files/228828.got.cif
#   From: 2010.05.17/outbox.cif.g08.bks.cpg/sg15_115_cif.got.tgz:228828.got - 2010.06.03 18:47:42.
