data_PCOD9254200
_publ_section_title
;
Structure prediction by ZEFSAII (Michael W. Deem and Ramdas Pophale) SiO2 
 PCOD9254200
Probable space group: C 2/C
;
_chemical_formula_sum "Si O2"
_cell_formula_units_Z 60
_cell_length_a 19.722492
_cell_length_b 12.383275
_cell_length_c 10.275806
_cell_angle_alpha 90.000000
_cell_angle_beta 103.948723
_cell_angle_gamma 90.000000
_cell_volume 2435.645304
_symmetry_space_group_name_H-M "C 2/C"
_symmetry_group_IT_number 15
_symmetry_cell_setting 'monoclinic'
loop_
_space_group_symop_operation_xyz
x,y,z
-x,y,1/2-z
-x,-y,-z
x,-y,1/2+z
1/2+x,1/2+y,z
1/2-x,1/2+y,1/2-z
1/2-x,1/2-y,-z
1/2+x,1/2-y,1/2+z
loop_
_atom_site_type_symbol
_atom_site_label
_atom_site_fract_x
_atom_site_fract_y
_atom_site_fract_z
Si Si1 0.915851 0.789882 0.532290
Si Si2 0.357574 0.188491 0.738029
Si Si3 0.269696 0.091097 0.905587
Si Si4 0.659222 0.774438 0.830607
Si Si5 0.443954 0.709342 0.521501
Si Si6 0.620806 0.506235 0.611998
Si Si7 0.753934 0.881634 0.686462
Si Si8 0.000000 0.959406 0.750000
O O1 0.895864 0.690262 0.616628
O O2 0.863983 0.875870 0.440517
O O3 0.975371 0.763096 0.456791
O O4 0.956057 0.876239 0.642305
O O5 0.317875 0.094636 0.797736
O O6 0.406853 0.238129 0.875375
O O7 0.297898 0.276123 0.678057
O O8 0.200292 0.160508 0.848509
O O9 0.257424 0.967090 0.931865
O O10 0.305426 0.154323 0.038529
O O11 0.681386 0.839504 0.713195
O O12 0.584506 0.754124 0.856477
O O13 0.417867 0.584042 0.497838
O O14 0.691503 0.447888 0.694400
O O15 0.559772 0.519130 0.693722
#
# Coordination Sequence:
#
# PCOD9254200 Si02
#       8
#     8   8   8   8   8   8   8   4
#     4  11  17  28  46  70  98 128 160 202 250 294
#     4   9  17  29  47  72  95 125 166 198 251 289
#     4   9  18  32  51  69  99 128 166 214 234 291
#     4   9  19  31  52  75  91 134 179 195 248 296
#     4   9  16  30  45  70  98 125 164 208 228 295
#     4  10  20  25  44  73 100 137 155 189 258 307
#     4  10  19  31  47  72 101 134 158 206 248 296
#     4  10  16  28  38  66  98 120 160 190 226 300
#
# _framework density 24.634128
#
# number of rings (size 3 to 8) (size 9 to 14) (size 15 to 20)
#    0.000    2.400    4.000    4.000    3.733    1.067 
#    0.000    0.667    0.000    0.800    0.000    0.000 
#    0.000    0.000    0.000    0.533    0.000    0.000 
#
# Total GULP energy -167390.534712 kJ/mol
# GULP energy per Si atom -5579.684490 kJ/mol
# Density = 2.457806 g / cm^3
# Si number density = 24.634128 Si / 1000 Ang^3
#
#
#
# Elastic Constant Matrix: (Units=GPa)
#
#
# Indices 1 2 3 4 5 6 
#
# 1 82.6404 12.5363 32.2207 0.0000 -33.0957 0.0000
# 2 12.5363 50.5026 3.6265 0.0000 -9.9007 0.0000
# 3 32.2207 3.6265 78.8782 0.0000 -15.4899 0.0000
# 4 0.0000 0.0000 0.0000 25.1458 0.0000 -2.9651
# 5 -33.0957 -9.9007 -15.4899 0.0000 39.7208 0.0000
# 6 0.0000 0.0000 0.0000 -2.9651 0.0000 21.5132
#
#
#
# Elastic Compliance Matrix: (Units=1/GPa)
#
#
# Indices 1 2 3 4 5 6 
#
# 1 0.020182 -0.001827 -0.005358 0.000000 0.014271 0.000000
# 2 -0.001827 0.020984 0.000552 0.000000 0.003923 0.000000
# 3 -0.005358 0.000552 0.015152 0.000000 0.001582 0.000000
# 4 0.000000 0.000000 0.000000 0.040425 0.000000 0.005572
# 5 0.014271 0.003923 0.001582 0.000000 0.038661 0.000000
# 6 0.000000 0.000000 0.000000 0.005572 0.000000 0.047251
#
#
# Mechanical properties :
#
#
# Convention : Reuss Voigt Hill
#
# Bulk Modulus (GPa) = 23.22767 34.30979 28.76873
# Shear Modulus (GPa) = 23.77882 28.18514 25.98198
#
# Velocity S-wave (km/s) = 3.11027 3.38620 3.25116
# Velocity P-wave (km/s) = 4.72735 5.40800 5.07909
#
# Compressibility (1/GPa) = 0.04305210
#
# Stress axis : x y z
#
# Youngs Moduli (GPa) = 49.54936 47.65528 65.99957
#
# Poissons Ratio (x) = 0.08708 0.35359
# Poissons Ratio (y) = 0.09054 -0.03644
# Poissons Ratio (z) = 0.26546 -0.02631
#
# Static dielectric constant tensor:
#      x y z
#    x 2.012790 0.000000 -0.008710 
#    y 0.000000 1.940720 0.000000 
#    z -0.008710 0.000000 2.086730 
# 
# From -- ./inp_files/167247.got.cif
#   From: 2010.05.17/outbox.cif.g08.bks.cpg/sg15_84_cif.got.tgz:167247.got - 2010.06.03 18:47:42.
