data_PCOD9254695
_publ_section_title
;
Structure prediction by ZEFSAII (Michael W. Deem and Ramdas Pophale) SiO2 
 PCOD9254695
Probable space group: C 2/C
;
_chemical_formula_sum "Si O2"
_cell_formula_units_Z 40
_cell_length_a 19.598976
_cell_length_b 9.163698
_cell_length_c 12.035672
_cell_angle_alpha 90.000000
_cell_angle_beta 110.384667
_cell_angle_gamma 90.000000
_cell_volume 2026.226400
_symmetry_space_group_name_H-M "C 2/C"
_symmetry_group_IT_number 15
_symmetry_cell_setting 'monoclinic'
loop_
_space_group_symop_operation_xyz
x,y,z
-x,y,1/2-z
-x,-y,-z
x,-y,1/2+z
1/2+x,1/2+y,z
1/2-x,1/2+y,1/2-z
1/2-x,1/2-y,-z
1/2+x,1/2-y,1/2+z
loop_
_atom_site_type_symbol
_atom_site_label
_atom_site_fract_x
_atom_site_fract_y
_atom_site_fract_z
Si Si1 0.326717 0.680505 0.741406
Si Si2 0.475473 0.333122 0.453750
Si Si3 0.302125 0.653192 0.252813
Si Si4 0.422457 0.357720 0.647993
Si Si5 0.128182 0.825176 0.465092
O O1 0.409154 0.664702 0.831249
O O2 0.294297 0.518229 0.726137
O O3 0.276165 0.772502 0.794495
O O4 0.331565 0.741631 0.618651
O O5 0.500000 0.500000 0.500000
O O6 0.444963 0.267920 0.551431
O O7 0.547527 0.263257 0.443294
O O8 0.364622 0.706321 0.202525
O O9 0.330841 0.676695 0.394783
O O10 0.500000 0.392023 0.750000
O O11 0.385556 0.506700 0.581525
#
# Coordination Sequence:
#
# PCOD9254695 Si02
#       5
#     8   8   8   8   8
#     4  11  22  34  54  83 108 141 174 221 269 316
#     4  10  16  33  56  80 102 131 187 226 255 294
#     4  11  21  35  52  80 112 139 174 221 270 312
#     4  10  17  30  55  80 106 135 182 226 260 303
#     4  10  17  33  55  77 104 137 182 223 259 303
#
# _framework density 19.741129000000001
#
# number of rings (size 3 to 8) (size 9 to 14) (size 15 to 20)
#    0.000    1.600    6.000    4.800    0.000    0.800 
#    0.000    0.000    0.000    3.600    0.000    0.000 
#    0.000    0.000    0.000    0.000    0.000    0.000 
#
# Total GULP energy -111427.402270 kJ/mol
# GULP energy per Si atom -5571.370114 kJ/mol
# Density = 1.969620 g / cm^3
# Si number density = 19.741129 Si / 1000 Ang^3
#
#
#
# Elastic Constant Matrix: (Units=GPa)
#
#
# Indices 1 2 3 4 5 6 
#
# 1 144.9576 16.2680 37.1235 0.0000 -24.5712 0.0000
# 2 16.2680 5.6614 -0.9259 0.0000 0.0119 0.0000
# 3 37.1235 -0.9259 73.2933 0.0000 -24.2223 0.0000
# 4 0.0000 0.0000 0.0000 4.6535 0.0000 -1.3128
# 5 -24.5712 0.0119 -24.2223 0.0000 40.0584 0.0000
# 6 0.0000 0.0000 0.0000 -1.3128 0.0000 22.3639
#
#
#
# Elastic Compliance Matrix: (Units=1/GPa)
#
#
# Indices 1 2 3 4 5 6 
#
# 1 0.013794 -0.040609 -0.005873 0.000000 0.004922 0.000000
# 2 -0.040609 0.296633 0.020065 0.000000 -0.012865 0.000000
# 3 -0.005873 0.020065 0.019595 0.000000 0.008240 0.000000
# 4 0.000000 0.000000 0.000000 0.218509 0.000000 0.012827
# 5 0.004922 -0.012865 0.008240 0.000000 0.032969 0.000000
# 6 0.000000 0.000000 0.000000 0.012827 0.000000 0.045468
#
#
# Mechanical properties :
#
#
# Convention : Reuss Voigt Hill
#
# Bulk Modulus (GPa) = 3.60767 36.53816 20.07292
# Shear Modulus (GPa) = 6.47500 24.84494 15.65997
#
# Velocity S-wave (km/s) = 1.81303 3.55143 2.81955
# Velocity P-wave (km/s) = 2.49283 5.94691 4.55960
#
# Compressibility (1/GPa) = 0.27718743
#
# Stress axis : x y z
#
# Youngs Moduli (GPa) = 72.49310 3.37116 51.03216
#
# Poissons Ratio (x) = 0.13690 0.29973
# Poissons Ratio (y) = 2.94388 -1.02394
# Poissons Ratio (z) = 0.42578 -0.06764
#
# Static dielectric constant tensor:
#      x y z
#    x 1.790390 0.000000 -0.055650 
#    y 0.000000 1.690120 0.000000 
#    z -0.055650 0.000000 1.765910 
# 
# From -- ./inp_files/95145.got.cif
#   From: 2010.05.17/outbox.cif.g08.bks.cpg/sg15_48_cif.got.tgz:95145.got - 2010.06.03 18:47:42.
