data_PCOD9254688
_publ_section_title
;
Structure prediction by ZEFSAII (Michael W. Deem and Ramdas Pophale) SiO2 
 PCOD9254688
Probable space group: C 2/C
;
_chemical_formula_sum "Si O2"
_cell_formula_units_Z 56
_cell_length_a 7.128176
_cell_length_b 13.612029
_cell_length_c 22.222523
_cell_angle_alpha 90.000000
_cell_angle_beta 77.242970
_cell_angle_gamma 90.000000
_cell_volume 2103.001838
_symmetry_space_group_name_H-M "C 2/C"
_symmetry_group_IT_number 15
_symmetry_cell_setting 'monoclinic'
loop_
_space_group_symop_operation_xyz
x,y,z
-x,y,1/2-z
-x,-y,-z
x,-y,1/2+z
1/2+x,1/2+y,z
1/2-x,1/2+y,1/2-z
1/2-x,1/2-y,-z
1/2+x,1/2-y,1/2+z
loop_
_atom_site_type_symbol
_atom_site_label
_atom_site_fract_x
_atom_site_fract_y
_atom_site_fract_z
Si Si1 0.328499 0.705167 0.721803
Si Si2 0.181714 0.875126 0.031276
Si Si3 0.537890 0.129165 0.573040
Si Si4 0.857512 0.740221 0.085612
Si Si5 0.016717 0.149285 0.415070
Si Si6 0.110119 0.548825 0.799371
Si Si7 0.022818 0.989253 0.158380
O O1 0.500000 0.747301 0.750000
O O2 0.310611 0.761438 0.660178
O O3 0.162394 0.662758 0.776817
O O4 0.397315 0.598421 0.692309
O O5 0.410977 0.894013 0.023760
O O6 0.078615 0.768964 0.056156
O O7 0.102880 0.946094 0.089541
O O8 0.111255 0.892732 0.968677
O O9 0.756364 0.164456 0.560851
O O10 0.438485 0.235642 0.594330
O O11 0.509453 0.056510 0.630542
O O12 0.720154 0.654053 0.069688
O O13 0.080887 0.088143 0.352835
O O14 0.304277 0.496314 0.807095
O O15 0.000000 0.506520 0.750000
#
# Coordination Sequence:
#
# PCOD9254688 Si02
#       7
#     8   8   8   8   8   8   8
#     4   9  17  33  54  74  97 139 179 209 260 320
#     4  10  18  35  57  75 105 149 176 203 261 323
#     4   9  20  31  57  81 102 132 187 217 253 313
#     4   9  19  32  55  80 104 131 183 219 252 312
#     4  10  19  35  51  78 113 134 168 230 264 294
#     4  10  16  33  54  72  98 137 176 216 252 316
#     4   9  20  32  53  78 105 140 172 210 269 318
#
# _framework density 26.628602999999998
#
# number of rings (size 3 to 8) (size 9 to 14) (size 15 to 20)
#    0.857    1.714    1.429    2.143    0.000    0.000 
#    0.000    8.571    0.000    3.429    0.000    0.000 
#    0.000    0.000    0.000    0.000    0.000    0.000 
#
# Total GULP energy -156000.438766 kJ/mol
# GULP energy per Si atom -5571.444242 kJ/mol
# Density = 2.656800 g / cm^3
# Si number density = 26.628603 Si / 1000 Ang^3
#
#
#
# Elastic Constant Matrix: (Units=GPa)
#
#
# Indices 1 2 3 4 5 6 
#
# 1 114.9264 0.7632 43.6979 0.0000 38.7426 0.0000
# 2 0.7632 36.0683 12.4807 0.0000 9.5240 0.0000
# 3 43.6979 12.4807 171.0661 0.0000 55.2811 0.0000
# 4 0.0000 0.0000 0.0000 28.2008 0.0000 1.2481
# 5 38.7426 9.5240 55.2811 0.0000 51.6540 0.0000
# 6 0.0000 0.0000 0.0000 1.2481 0.0000 8.3734
#
#
#
# Elastic Compliance Matrix: (Units=1/GPa)
#
#
# Indices 1 2 3 4 5 6 
#
# 1 0.011818 0.002216 -0.000281 0.000000 -0.008971 0.000000
# 2 0.002216 0.029599 -0.000649 0.000000 -0.006425 0.000000
# 3 -0.000281 -0.000649 0.008955 0.000000 -0.009253 0.000000
# 4 0.000000 0.000000 0.000000 0.035696 0.000000 -0.005321
# 5 -0.008971 -0.006425 -0.009253 0.000000 0.037176 0.000000
# 6 0.000000 0.000000 0.000000 -0.005321 0.000000 0.120219
#
#
# Mechanical properties :
#
#
# Convention : Reuss Voigt Hill
#
# Bulk Modulus (GPa) = 18.88812 48.43825 33.66318
# Shear Modulus (GPa) = 19.33935 35.32024 27.32979
#
# Velocity S-wave (km/s) = 2.69785 3.64593 3.20712
# Velocity P-wave (km/s) = 4.10038 5.99613 5.13647
#
# Compressibility (1/GPa) = 0.05294333
#
# Stress axis : x y z
#
# Youngs Moduli (GPa) = 84.61820 33.78440 111.66714
#
# Poissons Ratio (x) = -0.07487 0.03141
# Poissons Ratio (y) = -0.18753 0.07252
# Poissons Ratio (z) = 0.02381 0.02194
#
# Static dielectric constant tensor:
#      x y z
#    x 2.175930 0.000000 -0.060120 
#    y 0.000000 2.104230 0.000000 
#    z -0.060120 0.000000 2.122590 
# 
# From -- ./inp_files/264991.got.cif
#   From: 2010.05.17/outbox.cif.g08.bks.cpg/sg15_133_cif.got.tgz:264991.got - 2010.06.03 18:47:42.
