data_PCOD9254628
_publ_section_title
;
Structure prediction by ZEFSAII (Michael W. Deem and Ramdas Pophale) SiO2 
 PCOD9254628
Probable space group: C 2/C
;
_chemical_formula_sum "Si O2"
_cell_formula_units_Z 60
_cell_length_a 18.500275
_cell_length_b 17.905293
_cell_length_c 7.786291
_cell_angle_alpha 90.000000
_cell_angle_beta 86.518615
_cell_angle_gamma 90.000000
_cell_volume 2574.471277
_symmetry_space_group_name_H-M "C 2/C"
_symmetry_group_IT_number 15
_symmetry_cell_setting 'monoclinic'
loop_
_space_group_symop_operation_xyz
x,y,z
-x,y,1/2-z
-x,-y,-z
x,-y,1/2+z
1/2+x,1/2+y,z
1/2-x,1/2+y,1/2-z
1/2-x,1/2-y,-z
1/2+x,1/2-y,1/2+z
loop_
_atom_site_type_symbol
_atom_site_label
_atom_site_fract_x
_atom_site_fract_y
_atom_site_fract_z
Si Si1 0.500000 0.233594 0.250000
Si Si2 0.740114 0.403234 0.844682
Si Si3 0.711054 0.069641 0.774577
Si Si4 0.647983 0.400658 0.394208
Si Si5 0.485591 0.332961 0.944487
Si Si6 0.584634 0.019255 0.991947
Si Si7 0.397221 0.563910 0.987990
Si Si8 0.123618 0.621001 0.315057
O O1 0.475904 0.283326 0.414849
O O2 0.563381 0.183543 0.321449
O O3 0.761078 0.484671 0.764738
O O4 0.654941 0.392383 0.868307
O O5 0.796023 0.350421 0.738554
O O6 0.761688 0.405647 0.041181
O O7 0.765509 0.112521 0.636522
O O8 0.624821 0.064658 0.831445
O O9 0.598535 0.339601 0.493536
O O10 0.630397 0.479189 0.490323
O O11 0.616599 0.411705 0.205734
O O12 0.500000 0.307080 0.750000
O O13 0.522592 0.414499 0.965369
O O14 0.622212 0.937326 0.972893
O O15 0.599073 0.068712 0.156921
O O16 0.500000 0.000000 0.000000
#
# Coordination Sequence:
#
# PCOD9254628 Si02
#       8
#     4   8   8   8   8   8   8   8
#     4  12  24  44  58  84 128 168 208 248 308 376
#     4   8  16  30  53  84 118 150 190 237 313 364
#     4   8  16  26  50  82 118 147 180 241 307 355
#     4  10  18  34  56  87 120 152 197 260 310 360
#     4  12  25  41  60  83 118 165 215 258 305 371
#     4  10  16  32  56  89 117 148 196 247 300 362
#     4  10  18  34  59  90 118 153 202 259 311 358
#     4  10  20  36  59  89 123 156 196 250 309 373
#
# _framework density 23.305758000000001
#
# number of rings (size 3 to 8) (size 9 to 14) (size 15 to 20)
#    0.000    2.133    2.667    1.200    0.000    1.067 
#    2.400    0.667    0.000    0.800    0.000    0.000 
#    0.000    0.000    0.000    0.000    0.000    0.000 
#
# Total GULP energy -167107.610137 kJ/mol
# GULP energy per Si atom -5570.253671 kJ/mol
# Density = 2.325271 g / cm^3
# Si number density = 23.305758 Si / 1000 Ang^3
#
#
#
# Elastic Constant Matrix: (Units=GPa)
#
#
# Indices 1 2 3 4 5 6 
#
# 1 97.7145 -3.1428 32.3070 0.0000 -42.6717 0.0000
# 2 -3.1428 39.6471 20.4479 0.0000 -2.7048 0.0000
# 3 32.3070 20.4479 128.9249 0.0000 -7.9575 0.0000
# 4 0.0000 0.0000 0.0000 15.3449 0.0000 5.5208
# 5 -42.6717 -2.7048 -7.9575 0.0000 43.6857 0.0000
# 6 0.0000 0.0000 0.0000 5.5208 0.0000 14.8205
#
#
#
# Elastic Compliance Matrix: (Units=1/GPa)
#
#
# Indices 1 2 3 4 5 6 
#
# 1 0.020507 0.005429 -0.004797 0.000000 0.019494 0.000000
# 2 0.005429 0.028943 -0.005576 0.000000 0.006080 0.000000
# 3 -0.004797 -0.005576 0.009641 0.000000 -0.003275 0.000000
# 4 0.000000 0.000000 0.000000 0.075254 0.000000 -0.028033
# 5 0.019494 0.006080 -0.003275 0.000000 0.041712 0.000000
# 6 0.000000 0.000000 0.000000 -0.028033 0.000000 0.077917
#
#
# Mechanical properties :
#
#
# Convention : Reuss Voigt Hill
#
# Bulk Modulus (GPa) = 20.32311 40.61232 30.46772
# Shear Modulus (GPa) = 17.84041 29.21515 23.52778
#
# Velocity S-wave (km/s) = 2.76976 3.54441 3.18075
# Velocity P-wave (km/s) = 4.35521 5.84928 5.15665
#
# Compressibility (1/GPa) = 0.04920506
#
# Stress axis : x y z
#
# Youngs Moduli (GPa) = 48.76299 34.55016 103.72671
#
# Poissons Ratio (x) = -0.18759 0.49756
# Poissons Ratio (y) = -0.26476 0.57836
# Poissons Ratio (z) = 0.23391 0.19265
#
# Static dielectric constant tensor:
#      x y z
#    x 1.998130 0.000000 -0.013700 
#    y 0.000000 1.881250 0.000000 
#    z -0.013700 0.000000 1.938050 
# 
# From -- ./inp_files/56537.got.cif
#   From: 2010.05.17/outbox.cif.g08.bks.cpg/sg15_29_cif.got.tgz:56537.got - 2010.06.03 18:47:42.
