data_PCOD9254796
_publ_section_title
;
Structure prediction by ZEFSAII (Michael W. Deem and Ramdas Pophale) SiO2 
 PCOD9254796
Probable space group: C 2/C
;
_chemical_formula_sum "Si O2"
_cell_formula_units_Z 44
_cell_length_a 13.021461
_cell_length_b 14.648080
_cell_length_c 21.748776
_cell_angle_alpha 90.000000
_cell_angle_beta 144.652097
_cell_angle_gamma 90.000000
_cell_volume 2399.984595
_symmetry_space_group_name_H-M "C 2/C"
_symmetry_group_IT_number 15
_symmetry_cell_setting 'monoclinic'
loop_
_space_group_symop_operation_xyz
x,y,z
-x,y,1/2-z
-x,-y,-z
x,-y,1/2+z
1/2+x,1/2+y,z
1/2-x,1/2+y,1/2-z
1/2-x,1/2-y,-z
1/2+x,1/2-y,1/2+z
loop_
_atom_site_type_symbol
_atom_site_label
_atom_site_fract_x
_atom_site_fract_y
_atom_site_fract_z
Si Si1 0.316962 0.753710 0.198253
Si Si2 0.500000 0.680688 0.750000
Si Si3 0.971803 0.604514 0.466593
Si Si4 0.164729 0.749755 0.647990
Si Si5 0.996606 0.895723 0.017213
Si Si6 0.269377 0.356661 0.025086
O O1 0.500000 0.763042 0.250000
O O2 0.215427 0.657942 0.132552
O O3 0.356850 0.753980 0.290187
O O4 0.177850 0.837874 0.118920
O O5 0.367847 0.740713 0.726168
O O6 0.612101 0.626847 0.855817
O O7 0.000000 0.500000 0.500000
O O8 0.068363 0.666386 0.565610
O O9 0.075097 0.612740 0.451843
O O10 0.089466 0.840319 0.580823
O O11 0.871094 0.893636 0.015990
O O12 0.000000 0.000000 0.000000
O O13 0.250000 0.250000 0.000000
#
# Coordination Sequence:
#
# PCOD9254796 Si02
#       6
#     8   4   8   8   8   8
#     4  11  24  43  62  90 137 176 212 262 336 398
#     4  10  16  34  68  86 108 158 218 254 302 362
#     4  10  23  40  64  96 125 167 220 271 320 385
#     4  10  21  39  64  88 126 169 210 268 324 372
#     4  11  24  40  63  99 129 168 215 277 324 382
#     4  11  18  39  67  87 121 165 214 266 314 374
#
# _framework density 18.333451
#
# number of rings (size 3 to 8) (size 9 to 14) (size 15 to 20)
#    0.000    1.455    7.273    0.000    0.000    7.273 
#    8.182    0.000    0.000    0.000    0.000    0.000 
#    0.000    0.000    0.000    0.000    0.000    0.000 
#
# Total GULP energy -122544.634828 kJ/mol
# GULP energy per Si atom -5570.210674 kJ/mol
# Density = 1.829172 g / cm^3
# Si number density = 18.333451 Si / 1000 Ang^3
#
#
#
# Elastic Constant Matrix: (Units=GPa)
#
#
# Indices 1 2 3 4 5 6 
#
# 1 193.7837 48.3094 46.6785 0.0000 -0.1504 0.0000
# 2 48.3094 136.1282 8.3430 0.0000 -0.0055 0.0000
# 3 46.6785 8.3430 59.5163 0.0001 -4.3360 0.0000
# 4 0.0000 0.0000 0.0001 4.0269 0.0000 -11.4700
# 5 -0.1504 -0.0055 -4.3360 0.0000 33.3134 0.0000
# 6 0.0000 0.0000 0.0000 -11.4700 0.0000 24.8570
#
#
#
# Elastic Compliance Matrix: (Units=1/GPa)
#
#
# Indices 1 2 3 4 5 6 
#
# 1 0.006946 -0.002147 -0.005194 0.000000 -0.000645 0.000000
# 2 -0.002147 0.008074 0.000557 0.000000 0.000064 0.000000
# 3 -0.005194 0.000557 0.020995 0.000001 0.002709 0.000000
# 4 0.000000 0.000000 0.000001 -0.789991 0.000000 -0.364533
# 5 -0.000645 0.000064 0.002709 0.000000 0.030368 0.000000
# 6 0.000000 0.000000 0.000000 -0.364533 0.000000 -0.127980
#
#
# Mechanical properties :
#
#
# Convention : Reuss Voigt Hill
#
# Bulk Modulus (GPa) = 44.54978 66.23221 55.39100
# Shear Modulus (GPa) = -6.02019 31.51260 12.74621
#
# Velocity S-wave (km/s) = -1.81407 4.15041 2.63961
# Velocity P-wave (km/s) = 4.46819 7.69238 6.29037
#
# Compressibility (1/GPa) = 0.02244680
#
# Stress axis : x y z
#
# Youngs Moduli (GPa) = 143.96387 123.85806 47.63022
#
# Poissons Ratio (x) = 0.26590 0.24739
# Poissons Ratio (y) = 0.30906 -0.02651
# Poissons Ratio (z) = 0.74774 -0.06894
#
# Static dielectric constant tensor:
#      x y z
#    x 1.628930 0.000000 0.045550 
#    y 0.000000 1.628140 0.000000 
#    z 0.045550 0.000000 1.674720 
# 
# From -- ./inp_files/238886.got.cif
#   From: 2010.05.17/outbox.cif.g08.bks.cpg/sg15_120_cif.got.tgz:238886.got - 2010.06.03 18:47:42.
