data_PCOD9254790
_publ_section_title
;
Structure prediction by ZEFSAII (Michael W. Deem and Ramdas Pophale) SiO2 
 PCOD9254790
Probable space group: C 2/C
;
_chemical_formula_sum "Si O2"
_cell_formula_units_Z 60
_cell_length_a 8.390479
_cell_length_b 22.127287
_cell_length_c 16.569431
_cell_angle_alpha 90.000000
_cell_angle_beta 53.755038
_cell_angle_gamma 90.000000
_cell_volume 2480.990244
_symmetry_space_group_name_H-M "C 2/C"
_symmetry_group_IT_number 15
_symmetry_cell_setting 'monoclinic'
loop_
_space_group_symop_operation_xyz
x,y,z
-x,y,1/2-z
-x,-y,-z
x,-y,1/2+z
1/2+x,1/2+y,z
1/2-x,1/2+y,1/2-z
1/2-x,1/2-y,-z
1/2+x,1/2-y,1/2+z
loop_
_atom_site_type_symbol
_atom_site_label
_atom_site_fract_x
_atom_site_fract_y
_atom_site_fract_z
Si Si1 0.839842 0.393009 0.090841
Si Si2 0.309626 0.051286 0.762515
Si Si3 0.288590 0.726668 0.304976
Si Si4 0.420804 0.495842 0.366689
Si Si5 0.088572 0.218404 0.632623
Si Si6 0.500000 0.064739 0.250000
Si Si7 0.796467 0.870176 0.946215
Si Si8 0.304491 0.666946 0.122056
O O1 0.761703 0.403948 0.204659
O O2 0.774813 0.455219 0.067669
O O3 0.725560 0.339422 0.081551
O O4 0.068911 0.379994 0.035121
O O5 0.500000 0.077819 0.750000
O O6 0.099317 0.034601 0.864474
O O7 0.397080 0.982878 0.718648
O O8 0.500000 0.758847 0.250000
O O9 0.287793 0.675838 0.373807
O O10 0.280188 0.691796 0.221688
O O11 0.102260 0.770220 0.364584
O O12 0.500000 0.495285 0.250000
O O13 0.380497 0.564386 0.398844
O O14 0.219137 0.279294 0.593877
O O15 0.000000 0.213212 0.750000
O O16 0.664586 0.107902 0.161055
O O17 0.962938 0.845043 0.957007
#
# Coordination Sequence:
#
# PCOD9254790 Si02
#       8
#     8   8   8   8   8   4   8   8
#     4  11  24  37  52  83 124 157 177 237 305 350
#     4   9  20  36  61  81 106 150 201 238 280 341
#     4   9  19  33  61  89 108 148 202 241 268 335
#     4  10  19  36  58  80 112 154 196 239 281 337
#     4  10  20  38  58  80 114 151 198 231 285 339
#     4  10  16  34  64  88 100 136 202 256 272 320
#     4  11  21  35  56  88 119 145 195 238 295 334
#     4  10  18  35  62  85 108 147 194 248 281 322
#
# _framework density 24.183893000000001
#
# number of rings (size 3 to 8) (size 9 to 14) (size 15 to 20)
#    0.400    1.600    3.333    2.800    1.867    1.067 
#    0.000   14.000    0.000    0.000    0.000    0.000 
#    0.000    0.000    0.000    0.000    0.000    0.000 
#
# Total GULP energy -167516.035950 kJ/mol
# GULP energy per Si atom -5583.867865 kJ/mol
# Density = 2.412885 g / cm^3
# Si number density = 24.183893 Si / 1000 Ang^3
#
#
#
# Elastic Constant Matrix: (Units=GPa)
#
#
# Indices 1 2 3 4 5 6 
#
# 1 134.7176 70.4368 35.5753 0.0000 -46.6068 0.0000
# 2 70.4368 107.0880 38.1063 0.0000 -10.4779 0.0000
# 3 35.5753 38.1063 56.8919 0.0000 -27.5978 0.0000
# 4 0.0000 0.0000 0.0000 25.7597 0.0000 -13.5025
# 5 -46.6068 -10.4779 -27.5978 0.0000 47.2567 0.0000
# 6 0.0000 0.0000 0.0000 -13.5025 0.0000 35.9666
#
#
#
# Elastic Compliance Matrix: (Units=1/GPa)
#
#
# Indices 1 2 3 4 5 6 
#
# 1 0.019589 -0.013166 0.006313 0.000000 0.020087 0.000000
# 2 -0.013166 0.021400 -0.014090 0.000000 -0.016468 0.000000
# 3 0.006313 -0.014090 0.034284 0.000000 0.023124 0.000000
# 4 0.000000 0.000000 0.000000 0.048331 0.000000 0.018144
# 5 0.020087 -0.016468 0.023124 0.000000 0.050825 0.000000
# 6 0.000000 0.000000 0.000000 0.018144 0.000000 0.034615
#
#
# Mechanical properties :
#
#
# Convention : Reuss Voigt Hill
#
# Bulk Modulus (GPa) = 29.94989 65.21492 47.58241
# Shear Modulus (GPa) = 19.07976 32.10187 25.59081
#
# Velocity S-wave (km/s) = 2.81186 3.64731 3.25649
# Velocity P-wave (km/s) = 4.79095 6.69044 5.81873
#
# Compressibility (1/GPa) = 0.03338910
#
# Stress axis : x y z
#
# Youngs Moduli (GPa) = 51.04996 46.72877 29.16803
#
# Poissons Ratio (x) = 0.61521 -0.18415
# Poissons Ratio (y) = 0.67210 0.41097
# Poissons Ratio (z) = -0.32229 0.65839
#
# Static dielectric constant tensor:
#      x y z
#    x 1.979370 0.000000 0.005740 
#    y 0.000000 1.869090 0.000000 
#    z 0.005740 0.000000 1.988470 
# 
# From -- ./inp_files/234058.got.cif
#   From: 2010.05.17/outbox.cif.g08.bks.cpg/sg15_118_cif.got.tgz:234058.got - 2010.06.03 18:47:42.
