data_PCOD9254417
_publ_section_title
;
Structure prediction by ZEFSAII (Michael W. Deem and Ramdas Pophale) SiO2 
 PCOD9254417
Probable space group: C 2/C
;
_chemical_formula_sum "Si O2"
_cell_formula_units_Z 52
_cell_length_a 21.221604
_cell_length_b 19.186520
_cell_length_c 8.151520
_cell_angle_alpha 90.000000
_cell_angle_beta 35.960915
_cell_angle_gamma 90.000000
_cell_volume 1949.052970
_symmetry_space_group_name_H-M "C 2/C"
_symmetry_group_IT_number 15
_symmetry_cell_setting 'monoclinic'
loop_
_space_group_symop_operation_xyz
x,y,z
-x,y,1/2-z
-x,-y,-z
x,-y,1/2+z
1/2+x,1/2+y,z
1/2-x,1/2+y,1/2-z
1/2-x,1/2-y,-z
1/2+x,1/2-y,1/2+z
loop_
_atom_site_type_symbol
_atom_site_label
_atom_site_fract_x
_atom_site_fract_y
_atom_site_fract_z
Si Si1 0.000000 0.432795 0.750000
Si Si2 0.500000 0.451922 0.750000
Si Si3 0.500000 0.781343 0.250000
Si Si4 0.127924 0.801505 0.969359
Si Si5 0.086302 0.665709 0.907812
Si Si6 0.850385 0.831634 0.202524
Si Si7 0.695057 0.550283 0.335293
Si Si8 0.816163 0.562304 0.398148
O O1 0.888117 0.413087 0.108062
O O2 0.071626 0.452429 0.756064
O O3 0.562630 0.395653 0.499545
O O4 0.591142 0.506542 0.622976
O O5 0.527177 0.822331 0.359962
O O6 0.398184 0.730633 0.494437
O O7 0.154048 0.733040 0.810057
O O8 0.158945 0.801432 0.094267
O O9 0.000000 0.804291 0.250000
O O10 0.164626 0.875162 0.822624
O O11 0.000000 0.661387 0.250000
O O12 0.735705 0.866683 0.414449
O O13 0.791655 0.569061 0.257461
O O14 0.737883 0.498412 0.113649
#
# Coordination Sequence:
#
# PCOD9254417 Si02
#       8
#     4   4   4   8   8   8   8   8
#     4  10  22  47  58  72 124 169 216 266 292 334
#     4   9  18  27  50  84 128 147 180 249 298 388
#     4  11  16  34  60  92 124 150 198 251 312 380
#     4  10  16  30  53  85 124 155 179 234 305 370
#     4   9  20  36  62  86 117 168 198 247 311 360
#     4   9  18  29  51  89 121 154 192 238 309 379
#     4  10  21  33  57  89 117 157 200 241 318 369
#     4  10  23  38  58  85 118 167 212 253 298 359
#
# _framework density 26.679625000000001
#
# number of rings (size 3 to 8) (size 9 to 14) (size 15 to 20)
#    0.462    1.846    3.846    0.000    2.154    3.692 
#    0.000    9.231    0.000    0.000    0.000    0.000 
#    0.000    0.000    0.000    0.000    0.000    0.000 
#
# Total GULP energy -144754.054978 kJ/mol
# GULP energy per Si atom -5567.463653 kJ/mol
# Density = 2.661890 g / cm^3
# Si number density = 26.679625 Si / 1000 Ang^3
#
#
#
# Elastic Constant Matrix: (Units=GPa)
#
#
# Indices 1 2 3 4 5 6 
#
# 1 150.1324 25.7168 29.1015 0.0000 -13.3473 0.0000
# 2 25.7168 87.3250 19.7839 0.0000 8.7888 0.0000
# 3 29.1015 19.7839 70.8819 0.0000 1.2880 0.0000
# 4 0.0000 0.0000 0.0000 47.8457 0.0000 42.3000
# 5 -13.3473 8.7888 1.2880 0.0000 31.9073 0.0000
# 6 0.0000 0.0000 0.0000 42.3000 0.0000 89.6947
#
#
#
# Elastic Compliance Matrix: (Units=1/GPa)
#
#
# Indices 1 2 3 4 5 6 
#
# 1 0.007907 -0.002113 -0.002729 0.000000 0.004000 0.000000
# 2 -0.002113 0.013131 -0.002718 0.000000 -0.004391 0.000000
# 3 -0.002729 -0.002718 0.016006 0.000000 -0.001039 0.000000
# 4 0.000000 0.000000 0.000000 0.035846 0.000000 -0.016905
# 5 0.004000 -0.004391 -0.001039 0.000000 0.034265 0.000000
# 6 0.000000 0.000000 0.000000 -0.016905 0.000000 0.019121
#
#
# Mechanical properties :
#
#
# Convention : Reuss Voigt Hill
#
# Bulk Modulus (GPa) = 45.61111 50.83818 48.22465
# Shear Modulus (GPa) = 33.62332 49.47201 41.54767
#
# Velocity S-wave (km/s) = 3.55387 4.31083 3.95052
# Velocity P-wave (km/s) = 5.82863 6.62375 6.23887
#
# Compressibility (1/GPa) = 0.02192448
#
# Stress axis : x y z
#
# Youngs Moduli (GPa) = 126.46390 76.15333 62.47643
#
# Poissons Ratio (x) = 0.16090 0.17053
# Poissons Ratio (y) = 0.26721 0.16980
# Poissons Ratio (z) = 0.34517 0.20697
#
# Static dielectric constant tensor:
#      x y z
#    x 2.728850 0.000000 -0.032530 
#    y 0.000000 2.103950 0.000000 
#    z -0.032530 0.000000 2.247080 
# 
# From -- ./inp_files/58601.got.cif
#   From: 2010.05.17/outbox.cif.g08.bks.cpg/sg15_30_cif.got.tgz:58601.got - 2010.06.03 18:47:42.
