data_PCOD9254818
_publ_section_title
;
Structure prediction by ZEFSAII (Michael W. Deem and Ramdas Pophale) SiO2 
 PCOD9254818
Probable space group: C 2/C
;
_chemical_formula_sum "Si O2"
_cell_formula_units_Z 40
_cell_length_a 15.205363
_cell_length_b 20.158126
_cell_length_c 5.642793
_cell_angle_alpha 90.000000
_cell_angle_beta 69.074450
_cell_angle_gamma 90.000000
_cell_volume 1615.507605
_symmetry_space_group_name_H-M "C 2/C"
_symmetry_group_IT_number 15
_symmetry_cell_setting 'monoclinic'
loop_
_space_group_symop_operation_xyz
x,y,z
-x,y,1/2-z
-x,-y,-z
x,-y,1/2+z
1/2+x,1/2+y,z
1/2-x,1/2+y,1/2-z
1/2-x,1/2-y,-z
1/2+x,1/2-y,1/2+z
loop_
_atom_site_type_symbol
_atom_site_label
_atom_site_fract_x
_atom_site_fract_y
_atom_site_fract_z
Si Si1 0.900410 0.119592 0.748330
Si Si2 0.765645 0.193136 0.181954
Si Si3 0.900487 0.747162 0.954110
Si Si4 0.756072 0.462129 0.300542
Si Si5 0.962770 0.576994 0.535766
O O1 0.916810 0.192773 0.624231
O O2 0.844732 0.074260 0.617704
O O3 0.000000 0.094566 0.750000
O O4 0.820345 0.130866 0.024788
O O5 0.833822 0.222198 0.315851
O O6 0.660713 0.186837 0.382970
O O7 0.750000 0.250000 0.000000
O O8 0.000000 0.732627 0.750000
O O9 0.762430 0.490583 0.561091
O O10 0.849674 0.418486 0.162795
O O11 0.000000 0.601913 0.750000
O O12 0.000000 0.500000 0.500000
O O13 0.000000 0.605723 0.250000
#
# Coordination Sequence:
#
# PCOD9254818 Si02
#       5
#     8   8   8   8   8
#     4  11  24  40  63  92 135 179 224 271 335 395
#     4   9  20  38  64  95 122 163 211 266 332 409
#     4  10  19  38  71  93 124 168 211 267 335 407
#     4  12  25  40  65  95 132 179 235 282 326 393
#     4  10  16  35  64  84 108 159 219 264 340 386
#
# _framework density 24.760020000000001
#
# number of rings (size 3 to 8) (size 9 to 14) (size 15 to 20)
#    0.000    1.600    6.000    0.000    2.800    0.800 
#    0.000    0.000   13.200    1.200    0.000    0.000 
#    0.000    0.000    0.000    0.000    0.000    0.000 
#
# Total GULP energy -111771.314148 kJ/mol
# GULP energy per Si atom -5588.565707 kJ/mol
# Density = 2.470366 g / cm^3
# Si number density = 24.760020 Si / 1000 Ang^3
#
#
#
# Elastic Constant Matrix: (Units=GPa)
#
#
# Indices 1 2 3 4 5 6 
#
# 1 195.7700 13.6940 58.0578 0.0000 -14.5048 0.0000
# 2 13.6940 19.1017 30.6487 0.0000 -3.2581 0.0000
# 3 58.0578 30.6487 148.4018 0.0000 -6.9149 0.0000
# 4 0.0000 0.0000 0.0000 12.7978 0.0000 -1.4325
# 5 -14.5048 -3.2581 -6.9149 0.0000 60.7775 0.0000
# 6 0.0000 0.0000 0.0000 -1.4325 0.0000 28.6589
#
#
#
# Elastic Compliance Matrix: (Units=1/GPa)
#
#
# Indices 1 2 3 4 5 6 
#
# 1 0.005861 -0.000621 -0.002112 0.000000 0.001125 0.000000
# 2 -0.000621 0.078703 -0.015906 0.000000 0.002261 0.000000
# 3 -0.002112 -0.015906 0.010844 0.000000 -0.000123 0.000000
# 4 0.000000 0.000000 0.000000 0.078578 0.000000 0.003928
# 5 0.001125 0.002261 -0.000123 0.000000 0.016829 0.000000
# 6 0.000000 0.000000 0.000000 0.003928 0.000000 0.035089
#
#
# Mechanical properties :
#
#
# Convention : Reuss Voigt Hill
#
# Bulk Modulus (GPa) = 17.20265 63.11938 40.16101
# Shear Modulus (GPa) = 17.69531 37.83838 27.76684
#
# Velocity S-wave (km/s) = 2.67624 3.91347 3.35242
# Velocity P-wave (km/s) = 4.06356 6.77998 5.58930
#
# Compressibility (1/GPa) = 0.05813059
#
# Stress axis : x y z
#
# Youngs Moduli (GPa) = 170.61105 12.70594 92.21556
#
# Poissons Ratio (x) = 0.00789 0.19480
# Poissons Ratio (y) = 0.10588 1.46678
# Poissons Ratio (z) = 0.36041 0.20210
#
# Static dielectric constant tensor:
#      x y z
#    x 1.866540 0.000000 -0.042330 
#    y 0.000000 2.019080 0.000000 
#    z -0.042330 0.000000 1.965150 
# 
# From -- ./inp_files/7941.got.cif
#   From: 2010.05.17/outbox.cif.g08.bks.cpg/sg15_4_cif.got.tgz:7941.got - 2010.06.03 18:47:42.
