data_PCOD9254130
_publ_section_title
;
Structure prediction by ZEFSAII (Michael W. Deem and Ramdas Pophale) SiO2 
 PCOD9254130
Probable space group: C 2/C
;
_chemical_formula_sum "Si O2"
_cell_formula_units_Z 48
_cell_length_a 32.407118
_cell_length_b 11.356033
_cell_length_c 16.541121
_cell_angle_alpha 90.000000
_cell_angle_beta 162.242960
_cell_angle_gamma 90.000000
_cell_volume 1856.543942
_symmetry_space_group_name_H-M "C 2/C"
_symmetry_group_IT_number 15
_symmetry_cell_setting 'monoclinic'
loop_
_space_group_symop_operation_xyz
x,y,z
-x,y,1/2-z
-x,-y,-z
x,-y,1/2+z
1/2+x,1/2+y,z
1/2-x,1/2+y,1/2-z
1/2-x,1/2-y,-z
1/2+x,1/2-y,1/2+z
loop_
_atom_site_type_symbol
_atom_site_label
_atom_site_fract_x
_atom_site_fract_y
_atom_site_fract_z
Si Si1 0.000000 0.330470 0.250000
Si Si2 0.714730 0.225318 0.668828
Si Si3 0.470818 0.467135 0.036025
Si Si4 0.196251 0.397128 0.480401
Si Si5 0.344285 0.859307 0.272386
Si Si6 0.000000 0.937447 0.250000
Si Si7 0.874449 0.720887 0.175186
O O1 0.936532 0.395267 0.211328
O O2 0.129984 0.261166 0.528080
O O3 0.675726 0.133076 0.667412
O O4 0.624323 0.347765 0.502224
O O5 0.676074 0.184458 0.507128
O O6 0.526166 0.521835 0.221763
O O7 0.541425 0.341083 0.176543
O O8 0.500000 0.500000 0.000000
O O9 0.310393 0.471693 0.737402
O O10 0.262780 0.264955 0.607926
O O11 0.196820 0.429651 0.385753
O O12 0.507232 0.858381 0.567522
O O13 0.750000 0.750000 0.000000
#
# Coordination Sequence:
#
# PCOD9254130 Si02
#       7
#     4   8   8   8   8   4   8
#     4  10  16  26  46  79 103 134 188 222 254 318
#     4  10  16  29  50  77 107 146 180 219 264 327
#     4  10  20  36  56  78 107 146 190 228 274 338
#     4   9  17  28  48  78 107 134 172 231 270 311
#     4   9  15  28  46  74 110 134 169 220 271 305
#     4  10  16  36  54  73 101 146 188 216 264 334
#     4  10  18  30  51  79 107 143 183 220 273 330
#
# _framework density 25.854492
#
# number of rings (size 3 to 8) (size 9 to 14) (size 15 to 20)
#    0.000    2.333    6.667    1.000    0.000    1.333 
#    0.000    1.667    0.000   11.000    4.333    0.000 
#    0.000    0.000    0.000    0.000    0.000    0.000 
#
# Total GULP energy -133671.989920 kJ/mol
# GULP energy per Si atom -5569.666247 kJ/mol
# Density = 2.579565 g / cm^3
# Si number density = 25.854492 Si / 1000 Ang^3
#
#
#
# Elastic Constant Matrix: (Units=GPa)
#
#
# Indices 1 2 3 4 5 6 
#
# 1 206.1708 17.5513 71.7915 0.0000 -19.8682 0.0000
# 2 17.5513 57.1110 23.9197 0.0000 -0.7613 0.0000
# 3 71.7915 23.9197 166.5175 0.0000 1.6221 0.0000
# 4 0.0000 0.0000 0.0000 4.2953 0.0000 12.6852
# 5 -19.8682 -0.7613 1.6221 0.0000 72.8659 0.0000
# 6 0.0000 0.0000 0.0000 12.6852 0.0000 16.8108
#
#
#
# Elastic Compliance Matrix: (Units=1/GPa)
#
#
# Indices 1 2 3 4 5 6 
#
# 1 0.005934 -0.000769 -0.002464 0.000000 0.001665 0.000000
# 2 -0.000769 0.018735 -0.002360 0.000000 0.000038 0.000000
# 3 -0.002464 -0.002360 0.007415 0.000000 -0.000862 0.000000
# 4 0.000000 0.000000 0.000000 -0.189508 0.000000 0.143000
# 5 0.001665 0.000038 -0.000862 0.000000 0.014197 0.000000
# 6 0.000000 0.000000 0.000000 0.143000 0.000000 -0.048421
#
#
# Mechanical properties :
#
#
# Convention : Reuss Voigt Hill
#
# Bulk Modulus (GPa) = 47.85247 72.92492 60.38870
# Shear Modulus (GPa) = -28.81946 39.89686 5.53870
#
# Velocity S-wave (km/s) = -3.34230 3.93253 1.46523
# Velocity P-wave (km/s) = 1.91152 6.99192 5.12546
#
# Compressibility (1/GPa) = 0.02089756
#
# Stress axis : x y z
#
# Youngs Moduli (GPa) = 168.51002 53.37571 134.85893
#
# Poissons Ratio (x) = 0.04107 0.33232
# Poissons Ratio (y) = 0.12966 0.31825
# Poissons Ratio (z) = 0.41524 0.12596
#
# Static dielectric constant tensor:
#      x y z
#    x 2.228000 0.000000 0.064490 
#    y 0.000000 2.154390 0.000000 
#    z 0.064490 0.000000 1.987830 
# 
# From -- ./inp_files/182996.got.cif
#   From: 2010.05.17/outbox.cif.g08.bks.cpg/sg15_92_cif.got.tgz:182996.got - 2010.06.03 18:47:42.
