data_PCOD9254659
_publ_section_title
;
Structure prediction by ZEFSAII (Michael W. Deem and Ramdas Pophale) SiO2 
 PCOD9254659
Probable space group: C 2/C
;
_chemical_formula_sum "Si O2"
_cell_formula_units_Z 52
_cell_length_a 12.442592
_cell_length_b 22.624945
_cell_length_c 11.693405
_cell_angle_alpha 90.000000
_cell_angle_beta 138.373686
_cell_angle_gamma 90.000000
_cell_volume 2186.672531
_symmetry_space_group_name_H-M "C 2/C"
_symmetry_group_IT_number 15
_symmetry_cell_setting 'monoclinic'
loop_
_space_group_symop_operation_xyz
x,y,z
-x,y,1/2-z
-x,-y,-z
x,-y,1/2+z
1/2+x,1/2+y,z
1/2-x,1/2+y,1/2-z
1/2-x,1/2-y,-z
1/2+x,1/2-y,1/2+z
loop_
_atom_site_type_symbol
_atom_site_label
_atom_site_fract_x
_atom_site_fract_y
_atom_site_fract_z
Si Si1 0.212724 0.089033 0.106008
Si Si2 0.358854 0.061664 0.546163
Si Si3 0.868095 0.329384 0.881871
Si Si4 0.500000 0.550189 0.750000
Si Si5 0.974295 0.765484 0.858017
Si Si6 0.247507 0.478141 0.216731
Si Si7 0.877911 0.113509 0.970778
O O1 0.341729 0.139674 0.238059
O O2 0.269829 0.024528 0.193525
O O3 0.142955 0.087388 0.923027
O O4 0.056632 0.100635 0.063994
O O5 0.500000 0.062081 0.750000
O O6 0.382277 0.114679 0.476320
O O7 0.189827 0.077977 0.474020
O O8 0.361500 0.001821 0.473576
O O9 0.701507 0.294742 0.776025
O O10 0.004479 0.283200 0.026744
O O11 0.577837 0.515380 0.706873
O O12 0.000000 0.741033 0.750000
O O13 0.107116 0.817790 0.984616
O O14 0.258757 0.412183 0.276468
#
# Coordination Sequence:
#
# PCOD9254659 Si02
#       7
#     8   8   8   4   8   8   8
#     4   9  19  33  53  84 105 138 175 226 264 320
#     4  11  22  34  51  76 111 147 178 217 264 327
#     4  10  22  34  54  80 110 138 180 217 278 319
#     4  10  16  32  60  78 104 140 182 218 266 316
#     4  11  20  34  55  79 111 141 171 224 272 328
#     4  10  19  33  53  78 108 139 177 220 267 317
#     4  10  20  33  50  79 107 137 175 218 267 311
#
# _framework density 23.780424
#
# number of rings (size 3 to 8) (size 9 to 14) (size 15 to 20)
#    0.000    1.846    1.538    4.615    2.154    0.615 
#    1.385    0.000    0.000    8.308    0.000    0.000 
#    0.000    0.000    0.000    0.000    0.000    0.000 
#
# Total GULP energy -145082.015612 kJ/mol
# GULP energy per Si atom -5580.077524 kJ/mol
# Density = 2.372630 g / cm^3
# Si number density = 23.780424 Si / 1000 Ang^3
#
#
#
# Elastic Constant Matrix: (Units=GPa)
#
#
# Indices 1 2 3 4 5 6 
#
# 1 47.6436 1.4085 -13.5380 0.0000 6.1757 0.0000
# 2 1.4085 76.0906 56.4317 0.0000 -0.4543 0.0000
# 3 -13.5380 56.4317 153.8762 0.0000 -10.5919 0.0000
# 4 0.0000 0.0000 0.0000 40.6937 0.0000 -6.9981
# 5 6.1757 -0.4543 -10.5919 0.0000 30.7196 0.0000
# 6 0.0000 0.0000 0.0000 -6.9981 0.0000 11.9392
#
#
#
# Elastic Compliance Matrix: (Units=1/GPa)
#
#
# Indices 1 2 3 4 5 6 
#
# 1 0.022257 -0.002336 0.002565 0.000000 -0.003624 0.000000
# 2 -0.002336 0.018426 -0.007080 0.000000 -0.001699 0.000000
# 3 0.002565 -0.007080 0.009504 0.000000 0.002656 0.000000
# 4 0.000000 0.000000 0.000000 0.027329 0.000000 0.016019
# 5 -0.003624 -0.001699 0.002656 0.000000 0.034172 0.000000
# 6 0.000000 0.000000 0.000000 0.016019 0.000000 0.093147
#
#
# Mechanical properties :
#
#
# Convention : Reuss Voigt Hill
#
# Bulk Modulus (GPa) = 27.40827 40.69052 34.04939
# Shear Modulus (GPa) = 21.67335 32.22436 26.94885
#
# Velocity S-wave (km/s) = 3.02221 3.68513 3.37001
# Velocity P-wave (km/s) = 4.87123 5.93759 5.43065
#
# Compressibility (1/GPa) = 0.03648534
#
# Stress axis : x y z
#
# Youngs Moduli (GPa) = 44.92959 54.27082 105.22155
#
# Poissons Ratio (x) = 0.12679 -0.26995
# Poissons Ratio (y) = 0.10497 0.74497
# Poissons Ratio (z) = -0.11527 0.38424
#
# Static dielectric constant tensor:
#      x y z
#    x 1.954400 0.000000 0.042210 
#    y 0.000000 1.923250 0.000000 
#    z 0.042210 0.000000 1.995060 
# 
# From -- ./inp_files/42338.got.cif
#   From: 2010.05.17/outbox.cif.g08.bks.cpg/sg15_22_cif.got.tgz:42338.got - 2010.06.03 18:47:42.
