data_PCOD9254772
_publ_section_title
;
Structure prediction by ZEFSAII (Michael W. Deem and Ramdas Pophale) SiO2 
 PCOD9254772
Probable space group: C 2/C
;
_chemical_formula_sum "Si O2"
_cell_formula_units_Z 44
_cell_length_a 8.741434
_cell_length_b 17.698897
_cell_length_c 13.854602
_cell_angle_alpha 90.000000
_cell_angle_beta 58.284780
_cell_angle_gamma 90.000000
_cell_volume 1823.412043
_symmetry_space_group_name_H-M "C 2/C"
_symmetry_group_IT_number 15
_symmetry_cell_setting 'monoclinic'
loop_
_space_group_symop_operation_xyz
x,y,z
-x,y,1/2-z
-x,-y,-z
x,-y,1/2+z
1/2+x,1/2+y,z
1/2-x,1/2+y,1/2-z
1/2-x,1/2-y,-z
1/2+x,1/2-y,1/2+z
loop_
_atom_site_type_symbol
_atom_site_label
_atom_site_fract_x
_atom_site_fract_y
_atom_site_fract_z
Si Si1 0.116900 0.137892 0.802280
Si Si2 0.490134 0.210344 0.650760
Si Si3 0.548872 0.766916 0.537548
Si Si4 0.717350 0.585486 0.957389
Si Si5 0.000000 0.517840 0.250000
Si Si6 0.115278 0.566839 0.411393
O O1 0.328430 0.147491 0.707367
O O2 0.075372 0.093458 0.916210
O O3 0.000000 0.112115 0.750000
O O4 0.066914 0.223993 0.845125
O O5 0.500000 0.250891 0.750000
O O6 0.467492 0.262487 0.566684
O O7 0.675351 0.164994 0.581850
O O8 0.750000 0.750000 0.500000
O O9 0.492275 0.853789 0.546749
O O10 0.857187 0.527485 0.861776
O O11 0.710295 0.570009 0.074628
O O12 0.122636 0.555632 0.293579
O O13 0.000000 0.500000 0.500000
#
# Coordination Sequence:
#
# PCOD9254772 Si02
#       6
#     8   8   8   8   4   8
#     4  11  20  32  58  84 116 153 187 241 305 348
#     4   9  18  34  52  77 116 146 190 236 289 352
#     4  11  22  35  54  88 118 145 193 254 290 338
#     4   9  18  36  55  86 109 149 201 237 285 351
#     4  10  16  34  62  80 112 150 196 248 272 354
#     4   9  21  34  57  83 111 150 199 236 286 356
#
# _framework density 24.130586000000001
#
# number of rings (size 3 to 8) (size 9 to 14) (size 15 to 20)
#    0.000    2.182    4.545    0.000    1.273    6.545 
#    0.000    0.000    0.000    9.818    0.000   14.000 
#    0.000    0.000    0.000    0.000    0.000    0.000 
#
# Total GULP energy -122473.656775 kJ/mol
# GULP energy per Si atom -5566.984399 kJ/mol
# Density = 2.407566 g / cm^3
# Si number density = 24.130586 Si / 1000 Ang^3
#
#
#
# Elastic Constant Matrix: (Units=GPa)
#
#
# Indices 1 2 3 4 5 6 
#
# 1 163.7671 13.1969 56.4969 0.0000 71.9016 0.0000
# 2 13.1969 46.2675 11.5924 0.0000 16.9403 0.0000
# 3 56.4969 11.5924 89.9791 0.0000 62.2038 0.0000
# 4 0.0000 0.0000 0.0000 21.5824 0.0000 17.3380
# 5 71.9016 16.9403 62.2038 0.0000 70.0373 0.0000
# 6 0.0000 0.0000 0.0000 17.3380 0.0000 18.7278
#
#
#
# Elastic Compliance Matrix: (Units=1/GPa)
#
#
# Indices 1 2 3 4 5 6 
#
# 1 0.011388 0.001341 0.002547 0.000000 -0.014278 0.000000
# 2 0.001341 0.024066 0.002677 0.000000 -0.009576 0.000000
# 3 0.002547 0.002677 0.029597 0.000000 -0.029550 0.000000
# 4 0.000000 0.000000 0.000000 0.180795 0.000000 -0.167378
# 5 -0.014278 -0.009576 -0.029550 0.000000 0.057497 0.000000
# 6 0.000000 0.000000 0.000000 -0.167378 0.000000 0.208353
#
#
# Mechanical properties :
#
#
# Convention : Reuss Voigt Hill
#
# Bulk Modulus (GPa) = 12.79045 51.39844 32.09444
# Shear Modulus (GPa) = 9.53058 36.65135 23.09097
#
# Velocity S-wave (km/s) = 1.98951 3.90150 3.09676
# Velocity P-wave (km/s) = 3.25416 6.45306 5.11036
#
# Compressibility (1/GPa) = 0.07818335
#
# Stress axis : x y z
#
# Youngs Moduli (GPa) = 87.81050 41.55212 33.78667
#
# Poissons Ratio (x) = -0.05573 -0.08607
# Poissons Ratio (y) = -0.11778 -0.09045
# Poissons Ratio (z) = -0.22369 -0.11124
#
# Static dielectric constant tensor:
#      x y z
#    x 2.196090 0.000000 0.097400 
#    y 0.000000 2.000300 0.000000 
#    z 0.097400 0.000000 2.070230 
# 
# From -- ./inp_files/135835.got.cif
#   From: 2010.05.17/outbox.cif.g08.bks.cpg/sg15_68_cif.got.tgz:135835.got - 2010.06.03 18:47:42.
