data_PCOD9254138
_publ_section_title
;
Structure prediction by ZEFSAII (Michael W. Deem and Ramdas Pophale) SiO2 
 PCOD9254138
Probable space group: C 2/C
;
_chemical_formula_sum "Si O2"
_cell_formula_units_Z 48
_cell_length_a 39.352509
_cell_length_b 9.278367
_cell_length_c 5.367690
_cell_angle_alpha 90.000000
_cell_angle_beta 92.969674
_cell_angle_gamma 90.000000
_cell_volume 1957.256716
_symmetry_space_group_name_H-M "C 2/C"
_symmetry_group_IT_number 15
_symmetry_cell_setting 'monoclinic'
loop_
_space_group_symop_operation_xyz
x,y,z
-x,y,1/2-z
-x,-y,-z
x,-y,1/2+z
1/2+x,1/2+y,z
1/2-x,1/2+y,1/2-z
1/2-x,1/2-y,-z
1/2+x,1/2-y,1/2+z
loop_
_atom_site_type_symbol
_atom_site_label
_atom_site_fract_x
_atom_site_fract_y
_atom_site_fract_z
Si Si1 0.514478 0.334425 0.505504
Si Si2 0.876471 0.155479 0.900108
Si Si3 0.404958 0.332387 0.909305
Si Si4 0.261262 0.869702 0.703087
Si Si5 0.195072 0.823354 0.896656
Si Si6 0.173957 0.570115 0.529276
O O1 0.500000 0.266447 0.250000
O O2 0.500000 0.500000 0.500000
O O3 0.555028 0.331480 0.526574
O O4 0.500000 0.266044 0.750000
O O5 0.884373 0.227514 0.637966
O O6 0.837586 0.123599 0.961497
O O7 0.894094 0.999480 0.877295
O O8 0.894356 0.233617 0.140134
O O9 0.250000 0.750000 0.500000
O O10 0.283823 0.775214 0.903834
O O11 0.286362 0.962972 0.536999
O O12 0.224881 0.923525 0.796600
O O13 0.178702 0.725010 0.667160
O O14 0.159517 0.531415 0.246714
#
# Coordination Sequence:
#
# PCOD9254138 Si02
#       6
#     8   8   8   8   8   8
#     4  10  16  26  48  67  95 139 183 210 229 261
#     4  10  20  33  49  65 103 134 165 209 253 292
#     4  10  20  34  45  76 107 137 182 212 226 303
#     4   9  20  37  55  70  96 118 165 212 254 327
#     4  10  21  37  55  74  97 132 162 206 273 316
#     4  11  21  37  55  75  93 118 159 217 257 308
#
# _framework density 24.524118999999999
#
# number of rings (size 3 to 8) (size 9 to 14) (size 15 to 20)
#    0.000    2.000    1.667    5.000    4.667    0.000 
#    6.000    0.000    0.000    0.000    0.000    0.000 
#    0.000    0.000    0.000    0.000    0.000  203.333 
#
# Total GULP energy -133891.118062 kJ/mol
# GULP energy per Si atom -5578.796586 kJ/mol
# Density = 2.446830 g / cm^3
# Si number density = 24.524119 Si / 1000 Ang^3
#
#
#
# Elastic Constant Matrix: (Units=GPa)
#
#
# Indices 1 2 3 4 5 6 
#
# 1 165.4797 1.5787 46.1048 0.0000 -3.5234 0.0000
# 2 1.5787 24.6410 6.4760 0.0000 -6.4416 0.0000
# 3 46.1048 6.4760 236.3577 0.0000 5.5978 0.0000
# 4 0.0000 0.0000 0.0000 13.9687 0.0000 -8.6312
# 5 -3.5234 -6.4416 5.5978 0.0000 45.0777 0.0000
# 6 0.0000 0.0000 0.0000 -8.6312 0.0000 15.0171
#
#
#
# Elastic Compliance Matrix: (Units=1/GPa)
#
#
# Indices 1 2 3 4 5 6 
#
# 1 0.006410 0.000099 -0.001269 0.000000 0.000673 0.000000
# 2 0.000099 0.042562 -0.001334 0.000000 0.006255 0.000000
# 3 -0.001269 -0.001334 0.004535 0.000000 -0.000853 0.000000
# 4 0.000000 0.000000 0.000000 0.111014 0.000000 0.063806
# 5 0.000673 0.006255 -0.000853 0.000000 0.023236 0.000000
# 6 0.000000 0.000000 0.000000 0.063806 0.000000 0.103264
#
#
# Mechanical properties :
#
#
# Convention : Reuss Voigt Hill
#
# Bulk Modulus (GPa) = 20.61872 59.42193 40.02032
# Shear Modulus (GPa) = 16.01561 39.63396 27.82479
#
# Velocity S-wave (km/s) = 2.55827 4.02446 3.37202
# Velocity P-wave (km/s) = 4.14151 6.77331 5.61381
#
# Compressibility (1/GPa) = 0.04849962
#
# Stress axis : x y z
#
# Youngs Moduli (GPa) = 156.00681 23.49501 220.49991
#
# Poissons Ratio (x) = -0.00232 0.27981
# Poissons Ratio (y) = -0.01540 0.29405
# Poissons Ratio (z) = 0.19797 0.03133
#
# Static dielectric constant tensor:
#      x y z
#    x 1.992100 0.000000 0.085160 
#    y 0.000000 2.327980 0.000000 
#    z 0.085160 0.000000 2.262920 
# 
# From -- ./inp_files/18128.got.cif
#   From: 2010.05.17/outbox.cif.g08.bks.cpg/sg15_10_cif.got.tgz:18128.got - 2010.06.03 18:47:42.
