data_PCOD9254489
_publ_section_title
;
Structure prediction by ZEFSAII (Michael W. Deem and Ramdas Pophale) SiO2 
 PCOD9254489
Probable space group: C 2/C
;
_chemical_formula_sum "Si O2"
_cell_formula_units_Z 44
_cell_length_a 13.983564
_cell_length_b 9.385692
_cell_length_c 20.753445
_cell_angle_alpha 90.000000
_cell_angle_beta 142.568779
_cell_angle_gamma 90.000000
_cell_volume 1655.545937
_symmetry_space_group_name_H-M "C 2/C"
_symmetry_group_IT_number 15
_symmetry_cell_setting 'monoclinic'
loop_
_space_group_symop_operation_xyz
x,y,z
-x,y,1/2-z
-x,-y,-z
x,-y,1/2+z
1/2+x,1/2+y,z
1/2-x,1/2+y,1/2-z
1/2-x,1/2-y,-z
1/2+x,1/2-y,1/2+z
loop_
_atom_site_type_symbol
_atom_site_label
_atom_site_fract_x
_atom_site_fract_y
_atom_site_fract_z
Si Si1 0.214258 0.493105 0.462876
Si Si2 0.392912 0.367209 0.305120
Si Si3 0.000000 0.331612 0.750000
Si Si4 0.588318 0.812833 0.995491
Si Si5 0.907215 0.744370 0.519683
Si Si6 0.249045 0.153085 0.313950
O O1 0.124607 0.578434 0.358449
O O2 0.361400 0.401692 0.516409
O O3 0.100935 0.362777 0.425791
O O4 0.219736 0.594749 0.530434
O O5 0.546794 0.325546 0.430419
O O6 0.361999 0.527622 0.267364
O O7 0.408702 0.269457 0.250725
O O8 0.256380 0.298725 0.277186
O O9 0.557979 0.767643 0.052883
O O10 0.427962 0.905629 0.898523
O O11 0.760689 0.694830 0.394536
#
# Coordination Sequence:
#
# PCOD9254489 Si02
#       6
#     8   8   4   8   8   8
#     4  10  16  31  46  83  97 137 174 222 260 320
#     4   8  17  31  47  72 100 131 169 214 262 305
#     4  10  20  28  52  72 104 128 178 216 266 312
#     4   7  17  27  51  67 102 130 177 209 260 311
#     4   8  18  28  52  71 108 132 176 217 265 315
#     4   8  17  31  48  71  99 135 171 210 265 313
#
# _framework density 26.577337
#
# number of rings (size 3 to 8) (size 9 to 14) (size 15 to 20)
#    2.182    1.091    0.000    0.545    5.091    0.000 
#    0.000    3.636    0.000    0.000    0.000    5.091 
#    0.000    0.000    0.000    0.000    0.000    0.000 
#
# Total GULP energy -122671.594813 kJ/mol
# GULP energy per Si atom -5575.981582 kJ/mol
# Density = 2.651685 g / cm^3
# Si number density = 26.577337 Si / 1000 Ang^3
#
#
#
# Elastic Constant Matrix: (Units=GPa)
#
#
# Indices 1 2 3 4 5 6 
#
# 1 89.9971 32.9517 28.8578 0.0000 -13.7547 0.0000
# 2 32.9517 136.2193 22.0484 0.0000 8.6756 0.0000
# 3 28.8578 22.0484 100.7974 0.0000 0.9993 0.0000
# 4 0.0000 0.0000 0.0000 38.0792 0.0000 -0.7998
# 5 -13.7547 8.6756 0.9993 0.0000 27.2858 0.0000
# 6 0.0000 0.0000 0.0000 -0.7998 0.0000 31.9328
#
#
#
# Elastic Compliance Matrix: (Units=1/GPa)
#
#
# Indices 1 2 3 4 5 6 
#
# 1 0.014915 -0.003590 -0.003572 0.000000 0.008791 0.000000
# 2 -0.003590 0.008629 -0.000815 0.000000 -0.004523 0.000000
# 3 -0.003572 -0.000815 0.011141 0.000000 -0.001949 0.000000
# 4 0.000000 0.000000 0.000000 0.026275 0.000000 0.000658
# 5 0.008791 -0.004523 -0.001949 0.000000 0.042590 0.000000
# 6 0.000000 0.000000 0.000000 0.000658 0.000000 0.031332
#
#
# Mechanical properties :
#
#
# Convention : Reuss Voigt Hill
#
# Bulk Modulus (GPa) = 53.38461 54.96998 54.17730
# Shear Modulus (GPa) = 31.83101 35.66995 33.75048
#
# Velocity S-wave (km/s) = 3.46450 3.66747 3.56743
# Velocity P-wave (km/s) = 6.01114 6.21785 6.11537
#
# Compressibility (1/GPa) = 0.01873199
#
# Stress axis : x y z
#
# Youngs Moduli (GPa) = 67.04825 115.88224 89.75741
#
# Poissons Ratio (x) = 0.41597 0.32061
# Poissons Ratio (y) = 0.24068 0.07316
# Poissons Ratio (z) = 0.23949 0.09445
#
# Static dielectric constant tensor:
#      x y z
#    x 2.105040 0.000000 0.032470 
#    y 0.000000 2.046970 0.000000 
#    z 0.032470 0.000000 2.140360 
# 
# From -- ./inp_files/272394.got.cif
#   From: 2010.05.17/outbox.cif.g08.bks.cpg/sg15_137_cif.got.tgz:272394.got - 2010.06.03 18:47:42.
