data_PCOD9254760
_publ_section_title
;
Structure prediction by ZEFSAII (Michael W. Deem and Ramdas Pophale) SiO2 
 PCOD9254760
Probable space group: C 2/C
;
_chemical_formula_sum "Si O2"
_cell_formula_units_Z 48
_cell_length_a 22.717912
_cell_length_b 18.019600
_cell_length_c 8.963948
_cell_angle_alpha 90.000000
_cell_angle_beta 141.471817
_cell_angle_gamma 90.000000
_cell_volume 2285.761328
_symmetry_space_group_name_H-M "C 2/C"
_symmetry_group_IT_number 15
_symmetry_cell_setting 'monoclinic'
loop_
_space_group_symop_operation_xyz
x,y,z
-x,y,1/2-z
-x,-y,-z
x,-y,1/2+z
1/2+x,1/2+y,z
1/2-x,1/2+y,1/2-z
1/2-x,1/2-y,-z
1/2+x,1/2-y,1/2+z
loop_
_atom_site_type_symbol
_atom_site_label
_atom_site_fract_x
_atom_site_fract_y
_atom_site_fract_z
Si Si1 0.290896 0.970335 0.599215
Si Si2 0.849857 0.014704 0.436468
Si Si3 0.089675 0.354292 0.824651
Si Si4 0.978219 0.737260 0.877145
Si Si5 0.097814 0.107610 0.221047
Si Si6 0.688934 0.857163 0.313926
O O1 0.229656 0.944624 0.620041
O O2 0.374626 0.919091 0.711331
O O3 0.328109 0.053809 0.703987
O O4 0.214195 0.973494 0.314086
O O5 0.913621 0.068130 0.461716
O O6 0.898279 0.955761 0.643359
O O7 0.000000 0.375731 0.750000
O O8 0.055731 0.289502 0.649567
O O9 0.170170 0.335536 0.104772
O O10 0.970842 0.825708 0.879856
O O11 0.883000 0.692338 0.733981
O O12 0.000000 0.718830 0.750000
O O13 0.201651 0.146104 0.425715
#
# Coordination Sequence:
#
# PCOD9254760 Si02
#       6
#     8   8   8   8   8   8
#     4  10  16  34  59  93 115 151 207 250 287 352
#     4   8  18  33  66  88 108 146 210 260 288 329
#     4  10  21  36  53  84 130 162 190 238 300 368
#     4  11  25  37  55  85 132 163 194 235 308 372
#     4  10  19  41  62  90 115 153 205 256 295 353
#     4   9  20  38  59  84 122 161 204 241 294 358
#
# _framework density 20.999569000000001
#
# number of rings (size 3 to 8) (size 9 to 14) (size 15 to 20)
#    0.000    2.667    3.333    0.500    4.667    3.333 
#    0.000   11.667    0.000    0.000    0.000    0.000 
#    0.000    0.000    0.000    0.000    0.000    0.000 
#
# Total GULP energy -133881.046975 kJ/mol
# GULP energy per Si atom -5578.376957 kJ/mol
# Density = 2.095177 g / cm^3
# Si number density = 20.999569 Si / 1000 Ang^3
#
#
#
# Elastic Constant Matrix: (Units=GPa)
#
#
# Indices 1 2 3 4 5 6 
#
# 1 87.7125 45.0203 44.2021 0.0000 -38.9036 0.0000
# 2 45.0203 92.4579 44.7904 0.0000 -12.8731 0.0000
# 3 44.2021 44.7904 82.7276 0.0000 -24.9392 0.0000
# 4 0.0000 0.0000 0.0000 17.0207 0.0000 1.0108
# 5 -38.9036 -12.8731 -24.9392 0.0000 25.4528 0.0000
# 6 0.0000 0.0000 0.0000 1.0108 0.0000 37.2287
#
#
#
# Elastic Compliance Matrix: (Units=1/GPa)
#
#
# Indices 1 2 3 4 5 6 
#
# 1 0.048720 -0.015710 0.003587 0.000000 0.070036 0.000000
# 2 -0.015710 0.019731 -0.009252 0.000000 -0.023098 0.000000
# 3 0.003587 -0.009252 0.021888 0.000000 0.022250 0.000000
# 4 0.000000 0.000000 0.000000 0.058847 0.000000 -0.001598
# 5 0.070036 -0.023098 0.022250 0.000000 0.156455 0.000000
# 6 0.000000 0.000000 0.000000 -0.001598 0.000000 0.026904
#
#
# Mechanical properties :
#
#
# Convention : Reuss Voigt Hill
#
# Bulk Modulus (GPa) = 21.01282 58.99151 40.00216
# Shear Modulus (GPa) = 12.78256 24.53278 18.65767
#
# Velocity S-wave (km/s) = 2.46987 3.42168 2.98397
# Velocity P-wave (km/s) = 4.26166 6.61538 5.56440
#
# Compressibility (1/GPa) = 0.04758999
#
# Stress axis : x y z
#
# Youngs Moduli (GPa) = 20.52551 50.68052 45.68703
#
# Poissons Ratio (x) = 0.79617 -0.16389
# Poissons Ratio (y) = 0.32245 0.42271
# Poissons Ratio (z) = -0.07363 0.46891
#
# Static dielectric constant tensor:
#      x y z
#    x 1.779130 0.000000 0.019840 
#    y 0.000000 1.758980 0.000000 
#    z 0.019840 0.000000 1.787550 
# 
# From -- ./inp_files/63315.got.cif
#   From: 2010.05.17/outbox.cif.g08.bks.cpg/sg15_32_cif.got.tgz:63315.got - 2010.06.03 18:47:42.
