data_PCOD9254468
_publ_section_title
;
Structure prediction by ZEFSAII (Michael W. Deem and Ramdas Pophale) SiO2 
 PCOD9254468
Probable space group: C 2/C
;
_chemical_formula_sum "Si O2"
_cell_formula_units_Z 52
_cell_length_a 14.791681
_cell_length_b 25.285741
_cell_length_c 11.922780
_cell_angle_alpha 90.000000
_cell_angle_beta 32.374581
_cell_angle_gamma 90.000000
_cell_volume 2387.764124
_symmetry_space_group_name_H-M "C 2/C"
_symmetry_group_IT_number 15
_symmetry_cell_setting 'monoclinic'
loop_
_space_group_symop_operation_xyz
x,y,z
-x,y,1/2-z
-x,-y,-z
x,-y,1/2+z
1/2+x,1/2+y,z
1/2-x,1/2+y,1/2-z
1/2-x,1/2-y,-z
1/2+x,1/2-y,1/2+z
loop_
_atom_site_type_symbol
_atom_site_label
_atom_site_fract_x
_atom_site_fract_y
_atom_site_fract_z
Si Si1 0.000000 0.201307 0.250000
Si Si2 0.285013 0.831534 0.164630
Si Si3 0.187165 0.444715 0.751206
Si Si4 0.585394 0.759074 0.938780
Si Si5 0.000000 0.605043 0.750000
Si Si6 0.816564 0.438749 0.255272
Si Si7 0.231315 0.147885 0.188625
Si Si8 0.500000 0.888343 0.750000
O O1 0.909690 0.238319 0.437109
O O2 0.890338 0.164172 0.284126
O O3 0.124186 0.793003 0.324163
O O4 0.243374 0.884938 0.278959
O O5 0.418569 0.792643 0.086370
O O6 0.383201 0.852698 0.952960
O O7 0.262567 0.503547 0.675969
O O8 0.299408 0.402960 0.702477
O O9 0.128169 0.423699 0.691050
O O10 0.004626 0.444380 0.004951
O O11 0.733383 0.802166 0.769806
O O12 0.853609 0.570702 0.847159
O O13 0.089765 0.638843 0.561643
#
# Coordination Sequence:
#
# PCOD9254468 Si02
#       8
#     4   8   8   8   4   8   8   4
#     4  12  25  34  61  84 127 152 189 230 320 352
#     4  11  23  37  60  84 126 151 204 234 295 338
#     4   9  18  33  57  82 122 141 195 243 297 328
#     4  12  22  39  54  88 119 156 187 250 285 361
#     4  10  16  30  58  82 116 138 188 228 306 344
#     4   9  17  31  53  89 111 147 179 252 287 351
#     4  11  21  36  54  87 115 152 185 243 289 362
#     4  10  19  38  57  88 113 164 195 248 280 348
#
# _framework density 21.777695999999999
#
# number of rings (size 3 to 8) (size 9 to 14) (size 15 to 20)
#    0.000    1.538    6.154    2.308    0.000    1.846 
#    0.000    0.000    0.000    3.692    0.000    0.000 
#    0.000    0.000    0.000    0.000    0.000    0.000 
#
# Total GULP energy -144890.215280 kJ/mol
# GULP energy per Si atom -5572.700588 kJ/mol
# Density = 2.172813 g / cm^3
# Si number density = 21.777696 Si / 1000 Ang^3
#
#
#
# Elastic Constant Matrix: (Units=GPa)
#
#
# Indices 1 2 3 4 5 6 
#
# 1 64.5165 52.6282 7.5061 -0.0005 1.2388 0.0004
# 2 52.6282 208.1683 29.9425 -0.0002 3.2902 0.0001
# 3 7.5061 29.9425 42.6994 -0.0019 9.1662 0.0007
# 4 -0.0005 -0.0002 -0.0019 13.7633 0.0006 -4.5152
# 5 1.2388 3.2902 9.1662 0.0006 26.9040 -0.0003
# 6 0.0004 0.0001 0.0007 -4.5152 -0.0003 28.9878
#
#
#
# Elastic Compliance Matrix: (Units=1/GPa)
#
#
# Indices 1 2 3 4 5 6 
#
# 1 0.019530 -0.004948 0.000107 0.000001 -0.000331 0.000000
# 2 -0.004948 0.006607 -0.003926 -0.000001 0.000757 0.000000
# 3 0.000107 -0.003926 0.028108 0.000004 -0.009101 0.000000
# 4 0.000001 -0.000001 0.000004 0.076570 -0.000003 0.011927
# 5 -0.000331 0.000757 -0.009101 -0.000003 0.040193 0.000000
# 6 0.000000 0.000000 0.000000 0.011927 0.000000 0.036355
#
#
# Mechanical properties :
#
#
# Convention : Reuss Voigt Hill
#
# Bulk Modulus (GPa) = 27.23927 55.05978 41.14952
# Shear Modulus (GPa) = 21.08529 28.95152 25.01841
#
# Velocity S-wave (km/s) = 3.11498 3.65006 3.39309
# Velocity P-wave (km/s) = 5.04703 6.56517 5.85551
#
# Compressibility (1/GPa) = 0.03671170
#
# Stress axis : x y z
#
# Youngs Moduli (GPa) = 51.20404 151.34514 35.57759
#
# Poissons Ratio (x) = 0.74880 -0.00382
# Poissons Ratio (y) = 0.25334 0.13969
# Poissons Ratio (z) = -0.00550 0.59422
#
# Static dielectric constant tensor:
#      x y z
#    x 1.961290 0.000000 -0.099000 
#    y 0.000000 1.911080 0.000000 
#    z -0.099000 0.000000 1.877870 
# 
# From -- ./inp_files/100637.got.cif
#   From: 2010.05.17/outbox.cif.g08.bks.cpg/sg15_51_cif.got.tgz:100637.got - 2010.06.03 18:47:42.
