data_PCOD9254042
_publ_section_title
;
Structure prediction by ZEFSAII (Michael W. Deem and Ramdas Pophale) SiO2 
 PCOD9254042
Probable space group: C 2/C
;
_chemical_formula_sum "Si O2"
_cell_formula_units_Z 64
_cell_length_a 23.818685
_cell_length_b 21.376123
_cell_length_c 5.626731
_cell_angle_alpha 90.000000
_cell_angle_beta 76.335733
_cell_angle_gamma 90.000000
_cell_volume 2783.771431
_symmetry_space_group_name_H-M "C 2/C"
_symmetry_group_IT_number 15
_symmetry_cell_setting 'monoclinic'
loop_
_space_group_symop_operation_xyz
x,y,z
-x,y,1/2-z
-x,-y,-z
x,-y,1/2+z
1/2+x,1/2+y,z
1/2-x,1/2+y,1/2-z
1/2-x,1/2-y,-z
1/2+x,1/2-y,1/2+z
loop_
_atom_site_type_symbol
_atom_site_label
_atom_site_fract_x
_atom_site_fract_y
_atom_site_fract_z
Si Si1 0.568363 0.927480 0.681639
Si Si2 0.184498 0.727210 0.065502
Si Si3 0.099171 0.151412 0.650830
Si Si4 0.936512 0.194247 0.313488
Si Si5 0.204223 0.073191 0.545770
Si Si6 0.749162 0.569667 0.000831
Si Si7 0.182708 0.725243 0.567291
Si Si8 0.113063 0.570642 0.636938
O O1 0.500000 0.926034 0.750000
O O2 0.589524 0.900962 0.407238
O O3 0.589954 0.999197 0.660049
O O4 0.589523 0.900962 0.913719
O O5 0.144065 0.789099 0.105935
O O6 0.176329 0.692436 0.320937
O O7 0.250000 0.750000 0.000000
O O8 0.176329 0.692436 0.826405
O O9 0.066057 0.157398 0.434448
O O10 0.137043 0.088717 0.612955
O O11 0.066057 0.157397 0.933440
O O12 0.874310 0.230172 0.375690
O O13 0.000000 0.227856 0.250000
O O14 0.227553 0.099480 0.270200
O O15 0.222937 0.000714 0.527055
O O16 0.227555 0.099480 0.774677
O O17 0.817878 0.565267 0.932120
O O18 0.250000 0.750000 0.500000
#
# Coordination Sequence:
#
# PCOD9254042 Si02
#       8
#     8   8   8   8   8   8   8   8
#     4  10  16  22  33  51  75 105 132 161 203 271
#     4   8  14  25  41  63  91 121 145 171 216 268
#     4  10  19  30  47  69  93 125 155 190 232 289
#     4  10  19  31  46  69  98 129 157 188 236 289
#     4  10  18  30  44  64  85 110 153 190 237 295
#     4  10  19  30  45  62  81 114 147 198 253 288
#     4   8  14  25  42  63  90 125 154 177 212 265
#     4  10  16  25  36  51  75 103 130 165 219 267
#
# _framework density 22.990394999999999
#
# number of rings (size 3 to 8) (size 9 to 14) (size 15 to 20)
#    0.000    2.500    0.000    6.750    0.000    0.000 
#    0.000    0.000    0.000    0.000    0.000   35.000 
#    0.000    0.000    0.000 1044.000    0.000    0.000 
#
# Total GULP energy -178248.397342 kJ/mol
# GULP energy per Si atom -5570.262417 kJ/mol
# Density = 2.293807 g / cm^3
# Si number density = 22.990395 Si / 1000 Ang^3
#
#
#
# Elastic Constant Matrix: (Units=GPa)
#
#
# Indices 1 2 3 4 5 6 
#
# 1 168.7523 33.5922 73.5073 0.0000 -8.0804 0.0000
# 2 33.5922 43.5776 13.8967 0.0000 -7.4069 0.0000
# 3 73.5073 13.8967 266.7481 0.0000 44.9356 0.0000
# 4 0.0000 0.0000 0.0000 -17.9071 0.0000 -20.6694
# 5 -8.0804 -7.4069 44.9356 0.0000 56.8180 0.0000
# 6 0.0000 0.0000 0.0000 -20.6694 0.0000 37.0502
#
#
#
# Elastic Compliance Matrix: (Units=1/GPa)
#
#
# Indices 1 2 3 4 5 6 
#
# 1 0.008075 -0.005073 -0.002357 0.000000 0.002351 0.000000
# 2 -0.005073 0.027623 -0.000607 0.000000 0.003359 0.000000
# 3 -0.002357 -0.000607 0.005191 0.000000 -0.004520 0.000000
# 4 0.000000 0.000000 0.000000 -0.033970 0.000000 -0.018951
# 5 0.002351 0.003359 -0.004520 0.000000 0.021947 0.000000
# 6 0.000000 0.000000 0.000000 -0.018951 0.000000 0.016418
#
#
# Mechanical properties :
#
#
# Convention : Reuss Voigt Hill
#
# Bulk Modulus (GPa) = 40.29855 80.11894 60.20874
# Shear Modulus (GPa) = 71.80662 39.06434 55.43548
#
# Velocity S-wave (km/s) = 5.59474 4.12656 4.91577
# Velocity P-wave (km/s) = 7.70073 7.59139 7.64626
#
# Compressibility (1/GPa) = 0.02481479
#
# Stress axis : x y z
#
# Youngs Moduli (GPa) = 123.83852 36.20169 192.62591
#
# Poissons Ratio (x) = 0.18367 0.45401
# Poissons Ratio (y) = 0.62829 0.11691
# Poissons Ratio (z) = 0.29188 0.02197
#
# Static dielectric constant tensor:
#      x y z
#    x 1.910450 0.000000 0.011040 
#    y 0.000000 1.836330 0.000000 
#    z 0.011040 0.000000 1.939810 
# 
# From -- ./inp_files/14652.got.cif
#   From: 2010.05.17/outbox.cif.g08.bks.cpg/sg15_8_cif.got.tgz:14652.got - 2010.06.03 18:47:42.
