data_PCOD9254486
_publ_section_title
;
Structure prediction by ZEFSAII (Michael W. Deem and Ramdas Pophale) SiO2 
 PCOD9254486
Probable space group: C 2/C
;
_chemical_formula_sum "Si O2"
_cell_formula_units_Z 56
_cell_length_a 24.296111
_cell_length_b 12.611673
_cell_length_c 24.243268
_cell_angle_alpha 90.000000
_cell_angle_beta 153.797340
_cell_angle_gamma 90.000000
_cell_volume 3280.031885
_symmetry_space_group_name_H-M "C 2/C"
_symmetry_group_IT_number 15
_symmetry_cell_setting 'monoclinic'
loop_
_space_group_symop_operation_xyz
x,y,z
-x,y,1/2-z
-x,-y,-z
x,-y,1/2+z
1/2+x,1/2+y,z
1/2-x,1/2+y,1/2-z
1/2-x,1/2-y,-z
1/2+x,1/2-y,1/2+z
loop_
_atom_site_type_symbol
_atom_site_label
_atom_site_fract_x
_atom_site_fract_y
_atom_site_fract_z
Si Si1 0.702010 0.881521 0.014835
Si Si2 0.136298 0.351754 0.618397
Si Si3 0.127425 0.745173 0.618443
Si Si4 0.739753 0.548566 0.821564
Si Si5 0.231329 0.874069 0.547784
Si Si6 0.434888 0.134765 0.323304
Si Si7 0.990092 0.124804 0.580679
O O1 0.728175 0.913879 0.975788
O O2 0.563933 0.904734 0.913456
O O3 0.787300 0.933896 0.138140
O O4 0.718005 0.754077 0.031579
O O5 0.258420 0.278112 0.739322
O O6 0.181345 0.445056 0.619801
O O7 0.100810 0.400257 0.647028
O O8 0.009468 0.293441 0.484371
O O9 0.182731 0.649530 0.631091
O O10 0.093855 0.841816 0.546971
O O11 0.605695 0.549955 0.671332
O O12 0.331809 0.892107 0.685707
O O13 0.100023 0.915567 0.452367
O O14 0.450626 0.262427 0.345842
#
# Coordination Sequence:
#
# PCOD9254486 Si02
#       7
#     8   8   8   8   8   8   8
#     4  10  19  26  45  69  98 134 181 196 247 319
#     4  11  22  33  58  70 108 142 180 223 269 307
#     4  11  19  38  48  75 104 143 174 222 258 314
#     4  12  20  33  50  78 102 145 179 216 263 319
#     4  10  17  29  44  65 100 144 161 208 253 305
#     4  10  16  31  43  67  97 141 168 208 244 308
#     4  10  17  30  49  67 108 129 176 210 252 308
#
# _framework density 17.073004999999998
#
# number of rings (size 3 to 8) (size 9 to 14) (size 15 to 20)
#    0.000    1.429   10.000    0.857    0.000    1.143 
#    0.000    0.000    0.000    0.000    0.000    0.000 
#    0.000   10.286    0.000    0.000    0.000    0.000 
#
# Total GULP energy -155965.581080 kJ/mol
# GULP energy per Si atom -5570.199324 kJ/mol
# Density = 1.703415 g / cm^3
# Si number density = 17.073005 Si / 1000 Ang^3
#
#
#
# Elastic Constant Matrix: (Units=GPa)
#
#
# Indices 1 2 3 4 5 6 
#
# 1 57.2710 14.3550 15.5227 0.0001 9.1124 0.0001
# 2 14.3550 13.5716 6.9969 0.0006 4.1032 0.0003
# 3 15.5227 6.9969 75.3107 0.0009 21.4089 0.0005
# 4 0.0001 0.0006 0.0009 9.7497 0.0005 2.1571
# 5 9.1124 4.1032 21.4089 0.0005 27.4946 0.0003
# 6 0.0001 0.0003 0.0005 2.1571 0.0003 15.8951
#
#
#
# Elastic Compliance Matrix: (Units=1/GPa)
#
#
# Indices 1 2 3 4 5 6 
#
# 1 0.024480 -0.023972 -0.001964 0.000001 -0.003007 0.000000
# 2 -0.023972 0.102135 -0.003177 -0.000005 -0.004824 -0.000001
# 3 -0.001964 -0.003177 0.017541 -0.000001 -0.012534 0.000000
# 4 0.000001 -0.000005 -0.000001 0.105742 -0.000001 -0.014350
# 5 -0.003007 -0.004824 -0.012534 -0.000001 0.047847 0.000000
# 6 0.000000 -0.000001 0.000000 -0.014350 0.000000 0.064860
#
#
# Mechanical properties :
#
#
# Convention : Reuss Voigt Hill
#
# Bulk Modulus (GPa) = 11.63716 24.43359 18.03538
# Shear Modulus (GPa) = 11.12412 17.91312 14.51862
#
# Velocity S-wave (km/s) = 2.55534 3.24266 2.91930
# Velocity P-wave (km/s) = 3.94173 5.32561 4.68505
#
# Compressibility (1/GPa) = 0.08593163
#
# Stress axis : x y z
#
# Youngs Moduli (GPa) = 40.84956 9.79095 57.00837
#
# Poissons Ratio (x) = 0.23471 0.11196
# Poissons Ratio (y) = 0.97923 0.18111
# Poissons Ratio (z) = 0.08022 0.03110
#
# Static dielectric constant tensor:
#      x y z
#    x 1.586730 0.000000 0.016500 
#    y 0.000000 1.572110 0.000000 
#    z 0.016500 0.000000 1.664150 
# 
# From -- ./inp_files/211239.got.cif
#   From: 2010.05.17/outbox.cif.g08.bks.cpg/sg15_106_cif.got.tgz:211239.got - 2010.06.03 18:47:42.
