data_PCOD9254089
_publ_section_title
;
Structure prediction by ZEFSAII (Michael W. Deem and Ramdas Pophale) SiO2 
 PCOD9254089
Probable space group: C 2/C
;
_chemical_formula_sum "Si O2"
_cell_formula_units_Z 48
_cell_length_a 10.111656
_cell_length_b 15.229105
_cell_length_c 21.252043
_cell_angle_alpha 90.000000
_cell_angle_beta 144.833412
_cell_angle_gamma 90.000000
_cell_volume 1884.891841
_symmetry_space_group_name_H-M "C 2/C"
_symmetry_group_IT_number 15
_symmetry_cell_setting 'monoclinic'
loop_
_space_group_symop_operation_xyz
x,y,z
-x,y,1/2-z
-x,-y,-z
x,-y,1/2+z
1/2+x,1/2+y,z
1/2-x,1/2+y,1/2-z
1/2-x,1/2-y,-z
1/2+x,1/2-y,1/2+z
loop_
_atom_site_type_symbol
_atom_site_label
_atom_site_fract_x
_atom_site_fract_y
_atom_site_fract_z
Si Si1 0.310958 0.368253 0.268214
Si Si2 0.718198 0.835859 0.030274
Si Si3 0.756020 0.764925 0.638357
Si Si4 0.179577 0.634669 0.948465
Si Si5 0.349466 0.055660 0.110991
Si Si6 0.148324 0.931590 0.667147
O O1 0.560632 0.340563 0.340117
O O2 0.271450 0.307836 0.315868
O O3 0.335053 0.470567 0.297628
O O4 0.088748 0.353170 0.137625
O O5 0.456443 0.830593 0.948887
O O6 0.746004 0.915041 0.992360
O O7 0.750000 0.750000 0.000000
O O8 0.757693 0.714108 0.572974
O O9 0.000000 0.807933 0.750000
O O10 0.145530 0.549259 0.890042
O O11 0.397620 0.611949 0.077713
O O12 0.599497 0.102721 0.212683
O O13 0.189355 0.075544 0.107752
#
# Coordination Sequence:
#
# PCOD9254089 Si02
#       6
#     8   8   8   8   8   8
#     4   9  16  25  40  66  93 124 150 194 239 284
#     4  10  18  28  42  65  97 129 163 199 237 293
#     4   9  17  28  44  64  92 133 165 193 241 295
#     4  10  16  26  44  66  97 125 159 195 244 290
#     4  10  18  25  41  67 100 127 156 199 240 291
#     4  10  16  25  41  65  97 128 147 195 254 283
#
# _framework density 25.465651999999999
#
# number of rings (size 3 to 8) (size 9 to 14) (size 15 to 20)
#    0.000    2.333    3.333    2.500    0.000    0.000 
#    0.000    0.000    0.000    9.000    0.000    7.000 
#    0.000    0.000   19.667    0.000    0.000   24.167 
#
# Total GULP energy -133889.278401 kJ/mol
# GULP energy per Si atom -5578.719933 kJ/mol
# Density = 2.540769 g / cm^3
# Si number density = 25.465652 Si / 1000 Ang^3
#
#
#
# Elastic Constant Matrix: (Units=GPa)
#
#
# Indices 1 2 3 4 5 6 
#
# 1 56.2159 16.4641 40.8813 -0.0001 7.9623 -0.0001
# 2 16.4641 50.9955 13.3776 0.0000 1.0188 0.0000
# 3 40.8813 13.3776 188.6920 -0.0002 24.9985 0.0000
# 4 -0.0001 0.0000 -0.0002 35.4300 -0.0001 14.0317
# 5 7.9623 1.0188 24.9985 -0.0001 46.4512 0.0000
# 6 -0.0001 0.0000 0.0000 14.0317 0.0000 7.6216
#
#
#
# Elastic Compliance Matrix: (Units=1/GPa)
#
#
# Indices 1 2 3 4 5 6 
#
# 1 0.022985 -0.006252 -0.004342 0.000000 -0.001466 0.000000
# 2 -0.006252 0.021687 -0.000282 0.000000 0.000748 0.000000
# 3 -0.004342 -0.000282 0.006634 0.000000 -0.002820 0.000000
# 4 0.000000 0.000000 0.000000 0.104198 0.000000 -0.191834
# 5 -0.001466 0.000748 -0.002820 0.000000 0.023280 0.000000
# 6 0.000000 0.000000 0.000000 -0.191834 0.000000 0.484380
#
#
# Mechanical properties :
#
#
# Convention : Reuss Voigt Hill
#
# Bulk Modulus (GPa) = 33.83775 48.59437 41.21606
# Shear Modulus (GPa) = 7.19663 32.91259 20.05461
#
# Velocity S-wave (km/s) = 1.68290 3.59894 2.80932
# Velocity P-wave (km/s) = 4.13433 6.03271 5.17137
#
# Compressibility (1/GPa) = 0.02955279
#
# Stress axis : x y z
#
# Youngs Moduli (GPa) = 43.50615 46.11006 150.73856
#
# Poissons Ratio (x) = 0.28830 0.65457
# Poissons Ratio (y) = 0.27202 0.04251
# Poissons Ratio (z) = 0.18892 0.01300
#
# Static dielectric constant tensor:
#      x y z
#    x 2.035320 0.000000 0.069150 
#    y 0.000000 1.586340 0.000000 
#    z 0.069150 0.000000 2.057370 
# 
# From -- ./inp_files/199326.got.cif
#   From: 2010.05.17/outbox.cif.g08.bks.cpg/sg15_100_cif.got.tgz:199326.got - 2010.06.03 18:47:42.
