data_PCOD9254182
_publ_section_title
;
Structure prediction by ZEFSAII (Michael W. Deem and Ramdas Pophale) SiO2 
 PCOD9254182
Probable space group: C 2/C
;
_chemical_formula_sum "Si O2"
_cell_formula_units_Z 64
_cell_length_a 22.793621
_cell_length_b 23.125478
_cell_length_c 7.460465
_cell_angle_alpha 90.000000
_cell_angle_beta 60.033384
_cell_angle_gamma 90.000000
_cell_volume 3406.799448
_symmetry_space_group_name_H-M "C 2/C"
_symmetry_group_IT_number 15
_symmetry_cell_setting 'monoclinic'
loop_
_space_group_symop_operation_xyz
x,y,z
-x,y,1/2-z
-x,-y,-z
x,-y,1/2+z
1/2+x,1/2+y,z
1/2-x,1/2+y,1/2-z
1/2-x,1/2-y,-z
1/2+x,1/2-y,1/2+z
loop_
_atom_site_type_symbol
_atom_site_label
_atom_site_fract_x
_atom_site_fract_y
_atom_site_fract_z
Si Si1 0.484801 0.764502 0.472422
Si Si2 0.256486 0.661218 0.731145
Si Si3 0.629198 0.224947 0.844402
Si Si4 0.209560 0.159475 0.248456
Si Si5 0.116444 0.937681 0.802696
Si Si6 0.485324 0.636386 0.575583
Si Si7 0.143946 0.929154 0.341745
Si Si8 0.162924 0.276876 0.862761
O O1 0.500000 0.787871 0.250000
O O2 0.549416 0.782349 0.491147
O O3 0.488041 0.694470 0.456405
O O4 0.407727 0.781478 0.633869
O O5 0.178126 0.678451 0.862300
O O6 0.271195 0.659777 0.493413
O O7 0.283766 0.602840 0.779809
O O8 0.301117 0.715515 0.731220
O O9 0.657028 0.287986 0.858818
O O10 0.643890 0.223931 0.605439
O O11 0.169940 0.100010 0.335293
O O12 0.278650 0.174862 0.246549
O O13 0.125968 0.925155 0.579006
O O14 0.132891 0.004609 0.806208
O O15 0.041296 0.913369 0.955433
O O16 0.500000 0.658445 0.750000
O O17 0.412297 0.608224 0.672174
#
# Coordination Sequence:
#
# PCOD9254182 Si02
#       8
#     8   8   8   8   8   8   8   8
#     4  10  16  27  49  72  93 119 152 185 224 265
#     4   8  14  25  43  66  91 114 144 184 226 264
#     4   8  13  23  43  70  91 112 143 184 226 265
#     4   8  14  25  43  66  91 114 144 184 226 264
#     4  11  21  34  49  65  88 121 157 190 223 261
#     4  12  23  33  44  64  95 125 155 185 217 265
#     4  11  21  34  49  65  88 121 157 190 223 261
#     4   8  13  23  43  70  91 112 143 184 226 265
#
# _framework density 18.785959999999999
#
# number of rings (size 3 to 8) (size 9 to 14) (size 15 to 20)
#    0.000    2.500    2.500    3.750    0.000    0.000 
#    0.000    0.000    0.000    4.500    0.000    0.875 
#    0.000    0.000    0.000    0.000    0.000    0.000 
#
# Total GULP energy -178492.327759 kJ/mol
# GULP energy per Si atom -5577.885242 kJ/mol
# Density = 1.874320 g / cm^3
# Si number density = 18.785960 Si / 1000 Ang^3
#
#
#
# Elastic Constant Matrix: (Units=GPa)
#
#
# Indices 1 2 3 4 5 6 
#
# 1 164.1969 42.4134 25.4787 0.0000 -35.9456 0.0000
# 2 42.4134 49.5866 2.0271 0.0000 -10.0658 0.0000
# 3 25.4787 2.0271 36.6216 0.0000 -0.7403 0.0000
# 4 0.0000 0.0000 0.0000 19.8165 0.0000 12.8483
# 5 -35.9456 -10.0658 -0.7403 0.0000 27.7840 0.0000
# 6 0.0000 0.0000 0.0000 12.8483 0.0000 55.9878
#
#
#
# Elastic Compliance Matrix: (Units=1/GPa)
#
#
# Indices 1 2 3 4 5 6 
#
# 1 0.011918 -0.007332 -0.007632 0.000000 0.012559 0.000000
# 2 -0.007332 0.026319 0.003648 0.000000 0.000146 0.000000
# 3 -0.007632 0.003648 0.032259 0.000000 -0.007693 0.000000
# 4 0.000000 0.000000 0.000000 0.059284 0.000000 -0.013605
# 5 0.012559 0.000146 -0.007693 0.000000 0.052088 0.000000
# 6 0.000000 0.000000 0.000000 -0.013605 0.000000 0.020983
#
#
# Mechanical properties :
#
#
# Convention : Reuss Voigt Hill
#
# Bulk Modulus (GPa) = 20.89346 43.36038 32.12692
# Shear Modulus (GPa) = 20.70923 32.75006 26.72965
#
# Velocity S-wave (km/s) = 3.32381 4.17985 3.77616
# Velocity P-wave (km/s) = 5.08687 6.81368 6.01259
#
# Compressibility (1/GPa) = 0.04786187
#
# Stress axis : x y z
#
# Youngs Moduli (GPa) = 83.90706 37.99543 30.99944
#
# Poissons Ratio (x) = 0.27860 0.23659
# Poissons Ratio (y) = 0.61525 -0.11307
# Poissons Ratio (z) = 0.64037 -0.13859
#
# Static dielectric constant tensor:
#      x y z
#    x 1.691210 0.000000 0.017600 
#    y 0.000000 2.045640 0.000000 
#    z 0.017600 0.000000 1.723630 
# 
# From -- ./inp_files/63258.got.cif
#   From: 2010.05.17/outbox.cif.g08.bks.cpg/sg15_32_cif.got.tgz:63258.got - 2010.06.03 18:47:42.
