data_PCOD9254981
_publ_section_title
;
Structure prediction by ZEFSAII (Michael W. Deem and Ramdas Pophale) SiO2 
 PCOD9254981
Probable space group: C 2/C
;
_chemical_formula_sum "Si O2"
_cell_formula_units_Z 56
_cell_length_a 5.689940
_cell_length_b 31.195471
_cell_length_c 13.465705
_cell_angle_alpha 90.000000
_cell_angle_beta 99.171833
_cell_angle_gamma 90.000000
_cell_volume 2359.608560
_symmetry_space_group_name_H-M "C 2/C"
_symmetry_group_IT_number 15
_symmetry_cell_setting 'monoclinic'
loop_
_space_group_symop_operation_xyz
x,y,z
-x,y,1/2-z
-x,-y,-z
x,-y,1/2+z
1/2+x,1/2+y,z
1/2-x,1/2+y,1/2-z
1/2-x,1/2-y,-z
1/2+x,1/2-y,1/2+z
loop_
_atom_site_type_symbol
_atom_site_label
_atom_site_fract_x
_atom_site_fract_y
_atom_site_fract_z
Si Si1 0.297920 0.438885 0.607673
Si Si2 0.702471 0.682527 0.035030
Si Si3 0.536130 0.763321 0.414602
Si Si4 0.812495 0.578305 0.629136
Si Si5 0.801370 0.588732 0.110182
Si Si6 0.333783 0.329178 0.335419
Si Si7 0.303018 0.541265 0.607314
O O1 0.239720 0.420596 0.493404
O O2 0.563199 0.424022 0.653104
O O3 0.293618 0.490235 0.600631
O O4 0.070031 0.424133 0.655210
O O5 0.488414 0.669927 0.946845
O O6 0.886650 0.703037 0.969672
O O7 0.621915 0.720276 0.105281
O O8 0.794787 0.639652 0.091733
O O9 0.750000 0.750000 0.500000
O O10 0.665066 0.788083 0.334700
O O11 0.802557 0.626085 0.670314
O O12 0.574608 0.554116 0.652124
O O13 0.075864 0.557752 0.655317
O O14 0.748834 0.562751 0.003430
O O15 0.500000 0.326571 0.250000
#
# Coordination Sequence:
#
# PCOD9254981 Si02
#       7
#     8   8   8   8   8   8   8
#     4  10  17  27  45  72 103 140 168 213 266 307
#     4  10  19  35  53  76 102 150 177 237 282 339
#     4   9  20  35  54  72 101 141 185 227 287 339
#     4  10  18  30  45  69 103 143 177 213 257 313
#     4  10  17  26  46  70 104 133 175 211 273 317
#     4  11  22  35  52  77 110 152 184 221 277 353
#     4  10  17  28  46  68 105 141 171 211 264 303
#
# _framework density 23.732748999999998
#
# number of rings (size 3 to 8) (size 9 to 14) (size 15 to 20)
#    0.000    2.000    2.857    6.000    2.000    0.571 
#    0.000    0.000    0.000    0.000    0.000    0.000 
#    0.000    6.857    5.143    0.000    0.000    0.000 
#
# Total GULP energy -156505.447871 kJ/mol
# GULP energy per Si atom -5589.480281 kJ/mol
# Density = 2.367873 g / cm^3
# Si number density = 23.732749 Si / 1000 Ang^3
#
#
#
# Elastic Constant Matrix: (Units=GPa)
#
#
# Indices 1 2 3 4 5 6 
#
# 1 219.3456 68.6180 49.5329 0.0000 -23.1018 0.0000
# 2 68.6180 196.3632 46.8422 0.0000 -27.0235 0.0000
# 3 49.5329 46.8422 101.5086 0.0000 -36.4330 0.0000
# 4 0.0000 0.0000 0.0000 -0.5481 0.0000 -29.2783
# 5 -23.1018 -27.0235 -36.4330 0.0000 34.5088 0.0000
# 6 0.0000 0.0000 0.0000 -29.2783 0.0000 30.1578
#
#
#
# Elastic Compliance Matrix: (Units=1/GPa)
#
#
# Indices 1 2 3 4 5 6 
#
# 1 0.005469 -0.001391 -0.001777 0.000000 0.000695 0.000000
# 2 -0.001391 0.006240 -0.001258 0.000000 0.002628 0.000000
# 3 -0.001777 -0.001258 0.016936 0.000000 0.015706 0.000000
# 4 0.000000 0.000000 0.000000 -0.034516 0.000000 -0.033509
# 5 0.000695 0.002628 0.015706 0.000000 0.048083 0.000000
# 6 0.000000 0.000000 0.000000 -0.033509 0.000000 0.000627
#
#
# Mechanical properties :
#
#
# Convention : Reuss Voigt Hill
#
# Bulk Modulus (GPa) = 50.52258 94.13374 72.32816
# Shear Modulus (GPa) = 85.77860 36.30532 61.04196
#
# Velocity S-wave (km/s) = 6.01847 3.91545 5.07705
# Velocity P-wave (km/s) = 8.34448 7.75830 8.05672
#
# Compressibility (1/GPa) = 0.01979313
#
# Stress axis : x y z
#
# Youngs Moduli (GPa) = 182.85504 160.24464 59.04618
#
# Poissons Ratio (x) = 0.22297 0.10492
# Poissons Ratio (y) = 0.25444 0.07426
# Poissons Ratio (z) = 0.32491 0.20154
#
# Static dielectric constant tensor:
#      x y z
#    x 1.812780 0.000000 0.014600 
#    y 0.000000 1.779270 0.000000 
#    z 0.014600 0.000000 1.929790 
# 
# From -- ./inp_files/186110.got.cif
#   From: 2010.05.17/outbox.cif.g08.bks.cpg/sg15_94_cif.got.tgz:186110.got - 2010.06.03 18:47:42.
