data_PCOD9254983
_publ_section_title
;
Structure prediction by ZEFSAII (Michael W. Deem and Ramdas Pophale) SiO2 
 PCOD9254983
Probable space group: C 2/C
;
_chemical_formula_sum "Si O2"
_cell_formula_units_Z 64
_cell_length_a 22.728314
_cell_length_b 17.178865
_cell_length_c 9.281593
_cell_angle_alpha 90.000000
_cell_angle_beta 59.555776
_cell_angle_gamma 90.000000
_cell_volume 3124.304490
_symmetry_space_group_name_H-M "C 2/C"
_symmetry_group_IT_number 15
_symmetry_cell_setting 'monoclinic'
loop_
_space_group_symop_operation_xyz
x,y,z
-x,y,1/2-z
-x,-y,-z
x,-y,1/2+z
1/2+x,1/2+y,z
1/2-x,1/2+y,1/2-z
1/2-x,1/2-y,-z
1/2+x,1/2-y,1/2+z
loop_
_atom_site_type_symbol
_atom_site_label
_atom_site_fract_x
_atom_site_fract_y
_atom_site_fract_z
Si Si1 0.127081 0.753471 0.786071
Si Si2 0.328790 0.576650 0.867573
Si Si3 0.450335 0.595618 0.485543
Si Si4 0.747881 0.822997 0.269924
Si Si5 0.024042 0.729021 0.569879
Si Si6 0.059597 0.928169 0.074824
Si Si7 0.338573 0.820162 0.569359
Si Si8 0.282320 0.399094 0.917127
O O1 0.171862 0.709252 0.849292
O O2 0.142225 0.709100 0.616100
O O3 0.160650 0.837678 0.709791
O O4 0.047061 0.745568 0.923567
O O5 0.390596 0.588384 0.677240
O O6 0.267623 0.629550 0.886847
O O7 0.366030 0.599653 0.970576
O O8 0.306460 0.487387 0.889755
O O9 0.448047 0.683230 0.432032
O O10 0.437052 0.521494 0.402361
O O11 0.525244 0.582191 0.462429
O O12 0.795884 0.747738 0.197931
O O13 0.764428 0.872991 0.103899
O O14 0.088376 0.677826 0.439839
O O15 0.000000 0.692920 0.750000
O O16 0.000000 0.893793 0.250000
O O17 0.284576 0.888333 0.602208
#
# Coordination Sequence:
#
# PCOD9254983 Si02
#       8
#     8   8   8   8   8   8   8   8
#     4   8  17  27  46  67  92 115 151 189 232 268
#     4  11  19  27  45  64  89 128 154 180 226 274
#     4  10  19  29  40  62  96 121 148 182 219 275
#     4   9  16  32  45  64  91 122 151 191 226 268
#     4  10  17  26  49  72  88 118 147 187 233 271
#     4   9  20  28  35  58  92 126 147 174 213 275
#     4   8  15  30  45  64  92 116 152 189 231 267
#     4   9  18  29  43  67  93 122 150 189 227 274
#
# _framework density 20.484559999999998
#
# number of rings (size 3 to 8) (size 9 to 14) (size 15 to 20)
#    0.000    2.750    1.250    2.625    8.750    0.000 
#    0.000    0.000    0.000    1.500    0.000    0.000 
#    0.000    0.000    0.000    0.000    0.000    0.000 
#
# Total GULP energy -178240.303369 kJ/mol
# GULP energy per Si atom -5570.009480 kJ/mol
# Density = 2.043794 g / cm^3
# Si number density = 20.484560 Si / 1000 Ang^3
#
#
#
# Elastic Constant Matrix: (Units=GPa)
#
#
# Indices 1 2 3 4 5 6 
#
# 1 168.1657 40.7052 9.7980 0.0000 -26.6578 0.0000
# 2 40.7052 38.4896 -1.1898 0.0000 -2.0512 0.0000
# 3 9.7980 -1.1898 24.6291 0.0000 -9.0858 0.0000
# 4 0.0000 0.0000 0.0000 14.9744 0.0000 -0.0003
# 5 -26.6578 -2.0512 -9.0858 0.0000 28.9506 0.0000
# 6 0.0000 0.0000 0.0000 -0.0003 0.0000 27.8097
#
#
#
# Elastic Compliance Matrix: (Units=1/GPa)
#
#
# Indices 1 2 3 4 5 6 
#
# 1 0.009631 -0.009820 -0.001460 0.000000 0.007715 0.000000
# 2 -0.009820 0.036197 0.003693 0.000000 -0.005318 0.000000
# 3 -0.001460 0.003693 0.046326 0.000000 0.013456 0.000000
# 4 0.000000 0.000000 0.000000 0.066781 0.000000 0.000001
# 5 0.007715 -0.005318 0.013456 0.000000 0.045491 0.000000
# 6 0.000000 0.000000 0.000000 0.000001 0.000000 0.035959
#
#
# Mechanical properties :
#
#
# Convention : Reuss Voigt Hill
#
# Bulk Modulus (GPa) = 12.99026 36.65679 24.82352
# Shear Modulus (GPa) = 17.77978 26.47836 22.12907
#
# Velocity S-wave (km/s) = 2.94931 3.59918 3.29033
# Velocity P-wave (km/s) = 4.23712 5.93345 5.15553
#
# Compressibility (1/GPa) = 0.07698075
#
# Stress axis : x y z
#
# Youngs Moduli (GPa) = 103.82647 27.62671 21.58627
#
# Poissons Ratio (x) = 0.27129 0.03152
# Poissons Ratio (y) = 1.01956 -0.07972
# Poissons Ratio (z) = 0.15159 -0.10203
#
# Static dielectric constant tensor:
#      x y z
#    x 1.859650 0.000000 0.002670 
#    y 0.000000 1.720310 0.000000 
#    z 0.002670 0.000000 1.795160 
# 
# From -- ./inp_files/119075.got.cif
#   From: 2010.05.17/outbox.cif.g08.bks.cpg/sg15_60_cif.got.tgz:119075.got - 2010.06.03 18:47:42.
