data_PCOD9254301
_publ_section_title
;
Structure prediction by ZEFSAII (Michael W. Deem and Ramdas Pophale) SiO2 
 PCOD9254301
Probable space group: C 2/C
;
_chemical_formula_sum "Si O2"
_cell_formula_units_Z 40
_cell_length_a 20.981416
_cell_length_b 26.686614
_cell_length_c 5.398099
_cell_angle_alpha 90.000000
_cell_angle_beta 75.091315
_cell_angle_gamma 90.000000
_cell_volume 2920.772719
_symmetry_space_group_name_H-M "C 2/C"
_symmetry_group_IT_number 15
_symmetry_cell_setting 'monoclinic'
loop_
_space_group_symop_operation_xyz
x,y,z
-x,y,1/2-z
-x,-y,-z
x,-y,1/2+z
1/2+x,1/2+y,z
1/2-x,1/2+y,1/2-z
1/2-x,1/2-y,-z
1/2+x,1/2-y,1/2+z
loop_
_atom_site_type_symbol
_atom_site_label
_atom_site_fract_x
_atom_site_fract_y
_atom_site_fract_z
Si Si1 0.578963 0.468939 0.171036
Si Si2 0.422472 0.303498 0.827528
Si Si3 0.627704 0.643014 0.622297
Si Si4 0.770890 0.690919 0.479111
Si Si5 0.683169 0.215891 0.566831
O O1 0.500000 0.458759 0.250000
O O2 0.593603 0.500000 0.406394
O O3 0.615914 0.416135 0.134086
O O4 0.500000 0.293011 0.750000
O O5 0.403874 0.333837 0.596348
O O6 0.377905 0.253623 0.872097
O O7 0.403875 0.333838 0.095901
O O8 0.704216 0.659140 0.545786
O O9 0.750000 0.750000 0.500000
O O10 0.811999 0.684171 0.687984
O O11 0.811999 0.684171 0.188018
O O12 0.750000 0.250000 0.500000
#
# Coordination Sequence:
#
# PCOD9254301 Si02
#       5
#     8   8   8   8   8
#     4  10  21  35  45  57  83 115 148 191 232 254
#     4  12  21  28  43  67  88 110 148 189 213 249
#     4  12  20  32  48  64  82 113 154 190 223 258
#     4  10  16  29  47  62  82 109 139 180 210 270
#     4  10  16  30  42  58  87 113 134 176 212 261
#
# _framework density 13.695005999999999
#
# number of rings (size 3 to 8) (size 9 to 14) (size 15 to 20)
#    0.000    1.200    8.000    3.000    0.000    1.600 
#    0.000    0.000    0.000    0.000    0.000    0.000 
#    0.000    0.000    0.000    0.000    0.000   20.000 
#
# Total GULP energy -111494.246246 kJ/mol
# GULP energy per Si atom -5574.712312 kJ/mol
# Density = 1.366384 g / cm^3
# Si number density = 13.695006 Si / 1000 Ang^3
#
#
#
# Elastic Constant Matrix: (Units=GPa)
#
#
# Indices 1 2 3 4 5 6 
#
# 1 84.3499 68.4932 58.9487 0.0000 -0.7079 0.0000
# 2 68.4932 80.3929 49.7090 0.0000 -5.0287 0.0000
# 3 58.9487 49.7090 154.4411 0.0000 19.4737 0.0000
# 4 0.0000 0.0000 0.0000 12.6329 0.0000 -2.2444
# 5 -0.7079 -5.0287 19.4737 0.0000 16.7812 0.0000
# 6 0.0000 0.0000 0.0000 -2.2444 0.0000 21.0170
#
#
#
# Elastic Compliance Matrix: (Units=1/GPa)
#
#
# Indices 1 2 3 4 5 6 
#
# 1 0.042116 -0.032715 -0.005310 0.000000 -0.001864 0.000000
# 2 -0.032715 0.043435 -0.003468 0.000000 0.015660 0.000000
# 3 -0.005310 -0.003468 0.011453 0.000000 -0.014554 0.000000
# 4 0.000000 0.000000 0.000000 0.080689 0.000000 0.008617
# 5 -0.001864 0.015660 -0.014554 0.000000 0.081094 0.000000
# 6 0.000000 0.000000 0.000000 0.008617 0.000000 0.048501
#
#
# Mechanical properties :
#
#
# Convention : Reuss Voigt Hill
#
# Bulk Modulus (GPa) = 71.33724 74.83172 73.08448
# Shear Modulus (GPa) = 12.65992 19.55510 16.10751
#
# Velocity S-wave (km/s) = 3.04372 3.78286 3.43324
# Velocity P-wave (km/s) = 8.03464 8.59303 8.31852
#
# Compressibility (1/GPa) = 0.01401792
#
# Stress axis : x y z
#
# Youngs Moduli (GPa) = 23.74393 23.02274 87.31199
#
# Poissons Ratio (x) = 0.75319 0.46366
# Poissons Ratio (y) = 0.77679 0.30278
# Poissons Ratio (z) = 0.12609 0.07984
#
# Static dielectric constant tensor:
#      x y z
#    x 1.442140 0.000000 0.076660 
#    y 0.000000 1.406750 0.000000 
#    z 0.076660 0.000000 1.728470 
# 
# From -- ./inp_files/10132.got.cif
#   From: 2010.05.17/outbox.cif.g08.bks.cpg/sg15_6_cif.got.tgz:10132.got - 2010.06.03 18:47:42.
