data_PCOD9254813
_publ_section_title
;
Structure prediction by ZEFSAII (Michael W. Deem and Ramdas Pophale) SiO2 
 PCOD9254813
Probable space group: C 2/C
;
_chemical_formula_sum "Si O2"
_cell_formula_units_Z 52
_cell_length_a 17.220150
_cell_length_b 12.997491
_cell_length_c 14.039984
_cell_angle_alpha 90.000000
_cell_angle_beta 45.756448
_cell_angle_gamma 90.000000
_cell_volume 2251.162286
_symmetry_space_group_name_H-M "C 2/C"
_symmetry_group_IT_number 15
_symmetry_cell_setting 'monoclinic'
loop_
_space_group_symop_operation_xyz
x,y,z
-x,y,1/2-z
-x,-y,-z
x,-y,1/2+z
1/2+x,1/2+y,z
1/2-x,1/2+y,1/2-z
1/2-x,1/2-y,-z
1/2+x,1/2-y,1/2+z
loop_
_atom_site_type_symbol
_atom_site_label
_atom_site_fract_x
_atom_site_fract_y
_atom_site_fract_z
Si Si1 0.168386 0.487701 0.293527
Si Si2 0.823047 0.917972 0.502567
Si Si3 0.475825 0.430468 0.640215
Si Si4 0.550939 0.886875 0.041615
Si Si5 0.503273 0.290102 0.057082
Si Si6 0.500000 0.248097 0.750000
Si Si7 0.308798 0.612878 0.804297
O O1 0.241162 0.542902 0.152846
O O2 0.147011 0.553671 0.407741
O O3 0.225818 0.385980 0.287588
O O4 0.050629 0.461514 0.352241
O O5 0.770388 0.896100 0.445415
O O6 0.886858 0.815580 0.481606
O O7 0.918668 0.005922 0.412488
O O8 0.502664 0.384119 0.514201
O O9 0.443859 0.328972 0.727447
O O10 0.377338 0.508443 0.727284
O O11 0.508052 0.810361 0.996001
O O12 0.572494 0.822836 0.119070
O O13 0.399580 0.299277 0.214529
#
# Coordination Sequence:
#
# PCOD9254813 Si02
#       7
#     8   8   8   8   8   4   8
#     4  11  24  45  58  88 128 167 206 245 316 358
#     4  11  20  36  66  92 121 161 202 248 307 372
#     4  10  16  35  60  97 126 143 185 262 321 352
#     4  10  26  43  61  83 130 170 197 263 300 363
#     4  10  19  39  59  92 124 155 199 252 309 356
#     4  10  20  40  66  94 118 154 204 254 330 354
#     4  11  20  36  66  92 121 161 202 248 307 372
#
# _framework density 23.09918
#
# number of rings (size 3 to 8) (size 9 to 14) (size 15 to 20)
#    0.000    1.538    4.615    2.308    2.154    1.231 
#    0.000    6.154    0.000    0.000    0.000    0.000 
#    0.000    0.000    0.000    0.000    0.000    0.000 
#
# Total GULP energy -145150.580912 kJ/mol
# GULP energy per Si atom -5582.714650 kJ/mol
# Density = 2.304660 g / cm^3
# Si number density = 23.099180 Si / 1000 Ang^3
#
#
#
# Elastic Constant Matrix: (Units=GPa)
#
#
# Indices 1 2 3 4 5 6 
#
# 1 44.6888 -4.8091 40.2037 0.0000 8.9962 0.0000
# 2 -4.8091 44.8164 17.3935 0.0000 -2.4368 0.0000
# 3 40.2037 17.3935 137.3671 0.0000 3.3006 0.0000
# 4 0.0000 0.0000 0.0000 14.1388 0.0000 4.0980
# 5 8.9962 -2.4368 3.3006 0.0000 39.9819 0.0000
# 6 0.0000 0.0000 0.0000 4.0980 0.0000 9.3442
#
#
#
# Elastic Compliance Matrix: (Units=1/GPa)
#
#
# Indices 1 2 3 4 5 6 
#
# 1 0.034181 0.007516 -0.010803 0.000000 -0.006341 0.000000
# 2 0.007516 0.025232 -0.005402 0.000000 0.000293 0.000000
# 3 -0.010803 -0.005402 0.011097 0.000000 0.001186 0.000000
# 4 0.000000 0.000000 0.000000 0.081027 0.000000 -0.035535
# 5 -0.006341 0.000293 0.001186 0.000000 0.026358 0.000000
# 6 0.000000 0.000000 0.000000 -0.035535 0.000000 0.122603
#
#
# Mechanical properties :
#
#
# Convention : Reuss Voigt Hill
#
# Bulk Modulus (GPa) = 18.82086 36.93870 27.87978
# Shear Modulus (GPa) = 14.89927 24.29860 19.59894
#
# Velocity S-wave (km/s) = 2.54247 3.24686 2.91601
# Velocity P-wave (km/s) = 4.09687 5.48472 4.84079
#
# Compressibility (1/GPa) = 0.05313253
#
# Stress axis : x y z
#
# Youngs Moduli (GPa) = 29.25571 39.63211 90.11394
#
# Poissons Ratio (x) = -0.29787 0.97353
# Poissons Ratio (y) = -0.21988 0.48676
# Poissons Ratio (z) = 0.31606 0.21408
#
# Static dielectric constant tensor:
#      x y z
#    x 1.885030 0.000000 0.006690 
#    y 0.000000 1.892690 0.000000 
#    z 0.006690 0.000000 1.861560 
# 
# From -- ./inp_files/161831.got.cif
#   From: 2010.05.17/outbox.cif.g08.bks.cpg/sg15_81_cif.got.tgz:161831.got - 2010.06.03 18:47:42.
