data_PCOD9254048
_publ_section_title
;
Structure prediction by ZEFSAII (Michael W. Deem and Ramdas Pophale) SiO2 
 PCOD9254048
Probable space group: C 2/C
;
_chemical_formula_sum "Si O2"
_cell_formula_units_Z 56
_cell_length_a 14.164324
_cell_length_b 28.698068
_cell_length_c 6.809239
_cell_angle_alpha 90.000000
_cell_angle_beta 131.381793
_cell_angle_gamma 90.000000
_cell_volume 2076.798184
_symmetry_space_group_name_H-M "C 2/C"
_symmetry_group_IT_number 15
_symmetry_cell_setting 'monoclinic'
loop_
_space_group_symop_operation_xyz
x,y,z
-x,y,1/2-z
-x,-y,-z
x,-y,1/2+z
1/2+x,1/2+y,z
1/2-x,1/2+y,1/2-z
1/2-x,1/2-y,-z
1/2+x,1/2-y,1/2+z
loop_
_atom_site_type_symbol
_atom_site_label
_atom_site_fract_x
_atom_site_fract_y
_atom_site_fract_z
Si Si1 0.589883 0.690085 0.635235
Si Si2 0.463868 0.590304 0.961983
Si Si3 0.578755 0.207134 0.057042
Si Si4 0.479356 0.890827 0.984262
Si Si5 0.300828 0.698736 0.111144
Si Si6 0.286263 0.951645 0.251636
Si Si7 0.263245 0.440941 0.768623
O O1 0.582066 0.638166 0.705087
O O2 0.611251 0.745088 0.719180
O O3 0.441677 0.695458 0.380232
O O4 0.687559 0.679808 0.591929
O O5 0.500000 0.598416 0.250000
O O6 0.586508 0.568102 0.027087
O O7 0.338864 0.559121 0.794941
O O8 0.500000 0.220240 0.750000
O O9 0.505744 0.163871 0.049376
O O10 0.706536 0.183608 0.150136
O O11 0.500000 0.891811 0.250000
O O12 0.583369 0.924605 0.031735
O O13 0.337077 0.908303 0.760350
O O14 0.250000 0.750000 0.000000
O O15 0.287706 0.007434 0.251773
O O16 0.258859 0.934762 0.994125
#
# Coordination Sequence:
#
# PCOD9254048 Si02
#       7
#     8   8   8   8   8   8   8
#     4  10  16  23  37  58  91 126 151 182 222 282
#     4  10  18  28  46  67  94 126 158 190 236 284
#     4  10  16  22  36  59  90 123 151 177 220 282
#     4   9  19  28  46  67  94 125 158 191 237 285
#     4   9  14  21  31  51  82 124 154 175 207 270
#     4  10  21  34  51  69  94 123 159 204 241 282
#     4  10  20  36  49  70  93 124 158 202 243 282
#
# _framework density 26.964586000000001
#
# number of rings (size 3 to 8) (size 9 to 14) (size 15 to 20)
#    0.000    2.286    4.286    1.714    6.000    0.000 
#    0.000    0.000    0.000    0.000    0.000    0.000 
#    0.000    6.857    0.000    0.000    0.000    0.000 
#
# Total GULP energy -156090.515476 kJ/mol
# GULP energy per Si atom -5574.661267 kJ/mol
# Density = 2.690321 g / cm^3
# Si number density = 26.964586 Si / 1000 Ang^3
#
#
#
# Elastic Constant Matrix: (Units=GPa)
#
#
# Indices 1 2 3 4 5 6 
#
# 1 134.5270 21.0422 22.0631 0.0000 7.6504 0.0000
# 2 21.0422 173.1349 4.5541 0.0000 24.1390 0.0000
# 3 22.0631 4.5541 87.7259 0.0000 20.7678 0.0000
# 4 0.0000 0.0000 0.0000 23.8531 0.0000 9.0599
# 5 7.6504 24.1390 20.7678 0.0000 42.7982 0.0000
# 6 0.0000 0.0000 0.0000 9.0599 0.0000 48.0131
#
#
#
# Elastic Compliance Matrix: (Units=1/GPa)
#
#
# Indices 1 2 3 4 5 6 
#
# 1 0.007893 -0.000915 -0.001950 0.000000 0.000051 0.000000
# 2 -0.000915 0.006401 0.000806 0.000000 -0.003838 0.000000
# 3 -0.001950 0.000806 0.013414 0.000000 -0.006615 0.000000
# 4 0.000000 0.000000 0.000000 0.045160 0.000000 -0.008522
# 5 0.000051 -0.003838 -0.006615 0.000000 0.028731 0.000000
# 6 0.000000 0.000000 0.000000 -0.008522 0.000000 0.022436
#
#
# Mechanical properties :
#
#
# Convention : Reuss Voigt Hill
#
# Bulk Modulus (GPa) = 42.38904 54.52293 48.45598
# Shear Modulus (GPa) = 36.76043 46.11478 41.43760
#
# Velocity S-wave (km/s) = 3.69628 4.13994 3.92438
# Velocity P-wave (km/s) = 5.82846 6.56630 6.20835
#
# Compressibility (1/GPa) = 0.02359101
#
# Stress axis : x y z
#
# Youngs Moduli (GPa) = 126.68695 156.22634 74.55035
#
# Poissons Ratio (x) = 0.14298 0.14536
# Poissons Ratio (y) = 0.11595 -0.06012
# Poissons Ratio (z) = 0.24702 -0.12599
#
# Static dielectric constant tensor:
#      x y z
#    x 1.986130 0.000000 -0.070270 
#    y 0.000000 0.824680 0.000000 
#    z -0.070270 0.000000 2.196270 
# 
# From -- ./inp_files/44610.got.cif
#   From: 2010.05.17/outbox.cif.g08.bks.cpg/sg15_23_cif.got.tgz:44610.got - 2010.06.03 18:47:42.
