data_PCOD9254952
_publ_section_title
;
Structure prediction by ZEFSAII (Michael W. Deem and Ramdas Pophale) SiO2 
 PCOD9254952
Probable space group: C 2/C
;
_chemical_formula_sum "Si O2"
_cell_formula_units_Z 64
_cell_length_a 15.431455
_cell_length_b 11.763764
_cell_length_c 14.017065
_cell_angle_alpha 90.000000
_cell_angle_beta 110.787268
_cell_angle_gamma 90.000000
_cell_volume 2378.907453
_symmetry_space_group_name_H-M "C 2/C"
_symmetry_group_IT_number 15
_symmetry_cell_setting 'monoclinic'
loop_
_space_group_symop_operation_xyz
x,y,z
-x,y,1/2-z
-x,-y,-z
x,-y,1/2+z
1/2+x,1/2+y,z
1/2-x,1/2+y,1/2-z
1/2-x,1/2-y,-z
1/2+x,1/2-y,1/2+z
loop_
_atom_site_type_symbol
_atom_site_label
_atom_site_fract_x
_atom_site_fract_y
_atom_site_fract_z
Si Si1 0.376083 0.775285 0.456174
Si Si2 0.391908 0.478231 0.471180
Si Si3 0.156738 0.236984 0.833790
Si Si4 0.892768 0.724092 0.705461
Si Si5 0.145141 0.982249 0.816350
Si Si6 0.149059 0.480287 0.549728
Si Si7 0.574397 0.248049 0.994282
Si Si8 0.193540 0.513637 0.340430
O O1 0.269141 0.770421 0.382833
O O2 0.376592 0.741623 0.568031
O O3 0.466130 0.720301 0.443264
O O4 0.401322 0.905260 0.445950
O O5 0.500000 0.500000 0.500000
O O6 0.379660 0.483844 0.580561
O O7 0.376625 0.348923 0.432760
O O8 0.305157 0.537561 0.385902
O O9 0.142296 0.367579 0.791120
O O10 0.120928 0.114504 0.778340
O O11 0.887224 0.858129 0.735929
O O12 0.873434 0.738501 0.585686
O O13 0.836247 0.609996 0.714311
O O14 0.000000 0.688844 0.750000
O O15 0.255503 0.972816 0.856171
O O16 0.091668 0.370053 0.549703
O O17 0.171761 0.496991 0.445642
#
# Coordination Sequence:
#
# PCOD9254952 Si02
#       8
#     8   8   8   8   8   8   8   8
#     4   9  15  25  44  73 102 119 139 177 239 304
#     4  10  17  25  44  75 102 120 143 187 245 297
#     4   9  16  28  47  70  97 122 140 179 243 298
#     4  10  21  35  48  62  88 131 172 200 224 260
#     4   9  17  30  47  68  93 120 152 189 234 284
#     4   8  15  26  44  70  96 120 143 183 243 293
#     4  10  17  26  44  69  96 122 154 193 229 278
#     4   9  17  30  47  69  97 125 153 187 236 291
#
# _framework density 26.903106999999999
#
# number of rings (size 3 to 8) (size 9 to 14) (size 15 to 20)
#    0.000    2.750    0.000    4.875    0.000    3.000 
#    0.000    0.625    0.000    9.000    0.000    0.000 
#    0.000    0.000    0.000    0.000    0.000    0.000 
#
# Total GULP energy -178298.258802 kJ/mol
# GULP energy per Si atom -5571.820588 kJ/mol
# Density = 2.684187 g / cm^3
# Si number density = 26.903107 Si / 1000 Ang^3
#
#
#
# Elastic Constant Matrix: (Units=GPa)
#
#
# Indices 1 2 3 4 5 6 
#
# 1 99.6819 35.2192 33.9404 0.0000 4.0223 0.0000
# 2 35.2192 246.9152 40.3087 0.0000 8.7033 0.0000
# 3 33.9404 40.3087 64.8919 0.0000 -12.3990 0.0000
# 4 0.0000 0.0000 0.0000 -1.2485 0.0000 21.9290
# 5 4.0223 8.7033 -12.3990 0.0000 42.1266 0.0000
# 6 0.0000 0.0000 0.0000 21.9290 0.0000 18.9126
#
#
#
# Elastic Compliance Matrix: (Units=1/GPa)
#
#
# Indices 1 2 3 4 5 6 
#
# 1 0.012705 -0.000579 -0.006882 0.000000 -0.003119 0.000000
# 2 -0.000579 0.004675 -0.002941 0.000000 -0.001776 0.000000
# 3 -0.006882 -0.002941 0.022334 0.000000 0.007838 0.000000
# 4 0.000000 0.000000 0.000000 -0.037488 0.000000 0.043467
# 5 -0.003119 -0.001776 0.007838 0.000000 0.026710 0.000000
# 6 0.000000 0.000000 0.000000 0.043467 0.000000 0.002475
#
#
# Mechanical properties :
#
#
# Convention : Reuss Voigt Hill
#
# Bulk Modulus (GPa) = 52.87651 70.04727 61.46189
# Shear Modulus (GPa) = 85.44530 32.09286 58.76908
#
# Velocity S-wave (km/s) = 5.64175 3.45759 4.67890
# Velocity P-wave (km/s) = 7.88265 6.48331 7.21698
#
# Compressibility (1/GPa) = 0.01891199
#
# Stress axis : x y z
#
# Youngs Moduli (GPa) = 78.70659 213.89409 44.77514
#
# Poissons Ratio (x) = 0.12382 0.30813
# Poissons Ratio (y) = 0.04556 0.13167
# Poissons Ratio (z) = 0.54163 0.62899
#
# Static dielectric constant tensor:
#      x y z
#    x 2.097760 0.000000 -0.055910 
#    y 0.000000 2.225660 0.000000 
#    z -0.055910 0.000000 2.056940 
# 
# From -- ./inp_files/298687.got.cif
#   From: 2010.05.17/outbox.cif.g08.bks.cpg/sg15_150_cif.got.tgz:298687.got - 2010.06.03 18:47:42.
