data_PCOD9254170
_publ_section_title
;
Structure prediction by ZEFSAII (Michael W. Deem and Ramdas Pophale) SiO2 
 PCOD9254170
Probable space group: C 2/C
;
_chemical_formula_sum "Si O2"
_cell_formula_units_Z 64
_cell_length_a 17.989926
_cell_length_b 22.803938
_cell_length_c 10.673307
_cell_angle_alpha 90.000000
_cell_angle_beta 69.614841
_cell_angle_gamma 90.000000
_cell_volume 4104.406066
_symmetry_space_group_name_H-M "C 2/C"
_symmetry_group_IT_number 15
_symmetry_cell_setting 'monoclinic'
loop_
_space_group_symop_operation_xyz
x,y,z
-x,y,1/2-z
-x,-y,-z
x,-y,1/2+z
1/2+x,1/2+y,z
1/2-x,1/2+y,1/2-z
1/2-x,1/2-y,-z
1/2+x,1/2-y,1/2+z
loop_
_atom_site_type_symbol
_atom_site_label
_atom_site_fract_x
_atom_site_fract_y
_atom_site_fract_z
Si Si1 0.283284 0.335646 0.373493
Si Si2 0.952728 0.485497 0.399445
Si Si3 0.199948 0.786649 0.862632
Si Si4 0.475783 0.728865 0.127128
Si Si5 0.859105 0.407552 0.993049
Si Si6 0.370610 0.171649 0.238606
Si Si7 0.938294 0.198799 0.680487
Si Si8 0.012262 0.363379 0.048220
O O1 0.227398 0.280156 0.372384
O O2 0.312365 0.319266 0.496864
O O3 0.227564 0.391944 0.407010
O O4 0.357931 0.338223 0.238338
O O5 0.874122 0.524468 0.454392
O O6 0.949009 0.415209 0.392307
O O7 0.000000 0.507407 0.250000
O O8 0.000000 0.500000 0.500000
O O9 0.278370 0.816913 0.756983
O O10 0.117335 0.783337 0.839374
O O11 0.500000 0.706707 0.250000
O O12 0.522900 0.702774 0.979371
O O13 0.496686 0.798570 0.110054
O O14 0.871043 0.367576 0.862451
O O15 0.927572 0.386369 0.047817
O O16 0.409134 0.235654 0.238168
O O17 0.425900 0.143129 0.102133
O O18 0.000000 0.179189 0.750000
#
# Coordination Sequence:
#
# PCOD9254170 Si02
#       8
#     8   8   8   8   8   8   8   8
#     4   9  16  27  46  69  89 116 160 213 239 263
#     4  10  20  31  46  66  91 125 164 197 226 272
#     4   9  16  28  44  68  92 119 162 204 233 281
#     4  11  20  30  45  65  98 133 157 187 238 294
#     4  10  16  27  47  67  91 120 163 205 237 273
#     4   9  17  26  47  69  90 123 166 199 236 272
#     4  10  17  28  46  69  91 121 161 198 234 286
#     4  10  18  30  43  64  95 133 160 188 235 279
#
# _framework density 15.592999000000001
#
# number of rings (size 3 to 8) (size 9 to 14) (size 15 to 20)
#    0.000    2.250    2.500    4.500    0.000    0.000 
#    0.000    5.625    0.000    0.000    0.000    0.000 
#    0.000    2.000    0.000    0.125    0.000    0.125 
#
# Total GULP energy -178174.811352 kJ/mol
# GULP energy per Si atom -5567.962855 kJ/mol
# Density = 1.555751 g / cm^3
# Si number density = 15.592999 Si / 1000 Ang^3
#
#
#
# Elastic Constant Matrix: (Units=GPa)
#
#
# Indices 1 2 3 4 5 6 
#
# 1 99.5065 22.0354 43.0209 0.0000 -7.3762 0.0000
# 2 22.0354 41.1163 11.5859 0.0000 -7.4865 0.0000
# 3 43.0209 11.5859 65.2753 0.0000 -0.5158 0.0000
# 4 0.0000 0.0000 0.0000 10.0324 0.0000 -5.6028
# 5 -7.3762 -7.4865 -0.5158 0.0000 21.3638 0.0000
# 6 0.0000 0.0000 0.0000 -5.6028 0.0000 21.8548
#
#
#
# Elastic Compliance Matrix: (Units=1/GPa)
#
#
# Indices 1 2 3 4 5 6 
#
# 1 0.015405 -0.005049 -0.009231 0.000000 0.003327 0.000000
# 2 -0.005049 0.029053 -0.001762 0.000000 0.008395 0.000000
# 3 -0.009231 -0.001762 0.021690 0.000000 -0.003281 0.000000
# 4 0.000000 0.000000 0.000000 0.116333 0.000000 0.029823
# 5 0.003327 0.008395 -0.003281 0.000000 0.050819 0.000000
# 6 0.000000 0.000000 0.000000 0.029823 0.000000 0.053402
#
#
# Mechanical properties :
#
#
# Convention : Reuss Voigt Hill
#
# Bulk Modulus (GPa) = 29.35717 39.90918 34.63318
# Shear Modulus (GPa) = 15.14503 19.26724 17.20614
#
# Velocity S-wave (km/s) = 3.11990 3.51897 3.32543
# Velocity P-wave (km/s) = 5.64326 6.49313 6.08306
#
# Compressibility (1/GPa) = 0.03406323
#
# Stress axis : x y z
#
# Youngs Moduli (GPa) = 64.91358 34.42043 46.10382
#
# Poissons Ratio (x) = 0.17380 0.42556
# Poissons Ratio (y) = 0.32777 0.08126
# Poissons Ratio (z) = 0.59919 0.06066
#
# Static dielectric constant tensor:
#      x y z
#    x 1.517040 0.000000 -0.018360 
#    y 0.000000 1.537910 0.000000 
#    z -0.018360 0.000000 1.508870 
# 
# From -- ./inp_files/100477.got.cif
#   From: 2010.05.17/outbox.cif.g08.bks.cpg/sg15_51_cif.got.tgz:100477.got - 2010.06.03 18:47:42.
