data_PCOD9254882
_publ_section_title
;
Structure prediction by ZEFSAII (Michael W. Deem and Ramdas Pophale) SiO2 
 PCOD9254882
Probable space group: C 2/C
;
_chemical_formula_sum "Si O2"
_cell_formula_units_Z 60
_cell_length_a 9.841445
_cell_length_b 19.887292
_cell_length_c 15.222755
_cell_angle_alpha 90.000000
_cell_angle_beta 80.153909
_cell_angle_gamma 90.000000
_cell_volume 2935.508394
_symmetry_space_group_name_H-M "C 2/C"
_symmetry_group_IT_number 15
_symmetry_cell_setting 'monoclinic'
loop_
_space_group_symop_operation_xyz
x,y,z
-x,y,1/2-z
-x,-y,-z
x,-y,1/2+z
1/2+x,1/2+y,z
1/2-x,1/2+y,1/2-z
1/2-x,1/2-y,-z
1/2+x,1/2-y,1/2+z
loop_
_atom_site_type_symbol
_atom_site_label
_atom_site_fract_x
_atom_site_fract_y
_atom_site_fract_z
Si Si1 0.394199 0.819558 0.834889
Si Si2 0.773685 0.055424 0.229566
Si Si3 0.318439 0.206879 0.650785
Si Si4 0.054596 0.294466 0.979215
Si Si5 0.835042 0.592336 0.764117
Si Si6 0.940655 0.908751 0.877383
Si Si7 0.180961 0.151763 0.949780
Si Si8 0.500000 0.285376 0.750000
O O1 0.500000 0.794821 0.750000
O O2 0.309100 0.881454 0.802431
O O3 0.295918 0.757635 0.871416
O O4 0.485003 0.837022 0.909406
O O5 0.820126 0.066668 0.325554
O O6 0.918739 0.052091 0.160453
O O7 0.690717 0.986905 0.233879
O O8 0.445937 0.206637 0.570538
O O9 0.280302 0.131765 0.683723
O O10 0.371404 0.240857 0.736086
O O11 0.195371 0.325646 0.999204
O O12 0.090696 0.218805 0.943299
O O13 0.751290 0.621800 0.855977
O O14 0.000000 0.604542 0.750000
O O15 0.968814 0.833685 0.835284
O O16 0.904770 0.901586 0.982795
#
# Coordination Sequence:
#
# PCOD9254882 Si02
#       8
#     8   8   8   8   8   8   8   4
#     4  12  23  38  63  93 127 170 213 265 316 380
#     4  10  23  44  63  91 131 169 217 253 328 385
#     4  12  21  41  62  93 131 166 208 267 330 370
#     4  11  23  38  64 101 127 159 214 269 322 389
#     4  12  25  42  62  93 135 171 207 271 321 378
#     4  10  20  42  72  89 118 172 216 261 304 391
#     4  11  22  41  67  97 126 163 222 262 320 383
#     4  10  16  36  72  88 118 156 212 256 316 374
#
# _framework density 20.439391000000001
#
# number of rings (size 3 to 8) (size 9 to 14) (size 15 to 20)
#    0.000    1.067    6.000    2.400    1.867    0.533 
#    9.600    1.333    0.000    0.000    0.000    0.000 
#    0.000    0.000    0.000    0.000    0.000    0.000 
#
# Total GULP energy -167554.517779 kJ/mol
# GULP energy per Si atom -5585.150593 kJ/mol
# Density = 2.039287 g / cm^3
# Si number density = 20.439391 Si / 1000 Ang^3
#
#
#
# Elastic Constant Matrix: (Units=GPa)
#
#
# Indices 1 2 3 4 5 6 
#
# 1 58.8882 16.4047 5.1863 0.0000 0.6680 0.0000
# 2 16.4047 73.5967 17.8181 0.0000 -8.2132 0.0000
# 3 5.1863 17.8181 77.9298 0.0000 -24.1584 0.0000
# 4 0.0000 0.0000 0.0000 11.3722 0.0000 -7.8735
# 5 0.6680 -8.2132 -24.1584 0.0000 30.5026 0.0000
# 6 0.0000 0.0000 0.0000 -7.8735 0.0000 24.3255
#
#
#
# Elastic Compliance Matrix: (Units=1/GPa)
#
#
# Indices 1 2 3 4 5 6 
#
# 1 0.018230 -0.004079 -0.000987 0.000000 -0.002280 0.000000
# 2 -0.004079 0.015362 -0.002559 0.000000 0.002199 0.000000
# 3 -0.000987 -0.002559 0.017596 0.000000 0.013269 0.000000
# 4 0.000000 0.000000 0.000000 0.113330 0.000000 0.036682
# 5 -0.002280 0.002199 0.013269 0.000000 0.043935 0.000000
# 6 0.000000 0.000000 0.000000 0.036682 0.000000 0.052982
#
#
# Mechanical properties :
#
#
# Convention : Reuss Voigt Hill
#
# Bulk Modulus (GPa) = 27.82609 32.13698 29.98153
# Shear Modulus (GPa) = 17.32105 24.64043 20.98074
#
# Velocity S-wave (km/s) = 2.91423 3.47585 3.20736
# Velocity P-wave (km/s) = 4.99672 5.64499 5.33072
#
# Compressibility (1/GPa) = 0.03593750
#
# Stress axis : x y z
#
# Youngs Moduli (GPa) = 54.85334 65.09678 56.83001
#
# Poissons Ratio (x) = 0.26552 0.05611
# Poissons Ratio (y) = 0.22374 0.14544
# Poissons Ratio (z) = 0.05416 0.16660
#
# Static dielectric constant tensor:
#      x y z
#    x 1.740230 0.000000 0.006810 
#    y 0.000000 1.759590 0.000000 
#    z 0.006810 0.000000 1.756000 
# 
# From -- ./inp_files/192087.got.cif
#   From: 2010.05.17/outbox.cif.g08.bks.cpg/sg15_97_cif.got.tgz:192087.got - 2010.06.03 18:47:42.
