data_PCOD9254331
_publ_section_title
;
Structure prediction by ZEFSAII (Michael W. Deem and Ramdas Pophale) SiO2 
 PCOD9254331
Probable space group: C 2/C
;
_chemical_formula_sum "Si O2"
_cell_formula_units_Z 56
_cell_length_a 22.253817
_cell_length_b 9.440763
_cell_length_c 20.810909
_cell_angle_alpha 90.000000
_cell_angle_beta 134.201047
_cell_angle_gamma 90.000000
_cell_volume 3134.439896
_symmetry_space_group_name_H-M "C 2/C"
_symmetry_group_IT_number 15
_symmetry_cell_setting 'monoclinic'
loop_
_space_group_symop_operation_xyz
x,y,z
-x,y,1/2-z
-x,-y,-z
x,-y,1/2+z
1/2+x,1/2+y,z
1/2-x,1/2+y,1/2-z
1/2-x,1/2-y,-z
1/2+x,1/2-y,1/2+z
loop_
_atom_site_type_symbol
_atom_site_label
_atom_site_fract_x
_atom_site_fract_y
_atom_site_fract_z
Si Si1 0.576892 0.723397 0.266850
Si Si2 0.839419 0.959162 0.950950
Si Si3 0.344499 0.904465 0.950220
Si Si4 0.982021 0.825918 0.570328
Si Si5 0.714254 0.593513 0.455926
Si Si6 0.273819 0.171418 0.701810
Si Si7 0.625474 0.188762 0.593181
O O1 0.500000 0.788049 0.250000
O O2 0.535308 0.648416 0.174287
O O3 0.629182 0.620413 0.352481
O O4 0.646092 0.826031 0.286654
O O5 0.844642 0.794577 0.940177
O O6 0.780996 0.033943 0.854093
O O7 0.929778 0.035744 0.012906
O O8 0.803674 0.005363 0.993589
O O9 0.284761 0.966838 0.961089
O O10 0.283719 0.805900 0.861043
O O11 0.386199 0.031233 0.942208
O O12 0.412610 0.796795 0.030218
O O13 0.043573 0.761608 0.562956
O O14 0.750000 0.750000 0.500000
O O15 0.307483 0.180941 0.798819
#
# Coordination Sequence:
#
# PCOD9254331 Si02
#       7
#     8   8   8   8   8   8   8
#     4  10  16  29  56  84  95 128 184 227 249 301
#     4  11  20  35  56  81 108 140 181 221 261 319
#     4  10  20  36  56  78 111 143 176 223 263 314
#     4  10  20  34  55  79 105 144 178 216 259 320
#     4  11  18  35  59  81 101 138 180 223 262 309
#     4   9  20  34  55  78 105 144 180 215 260 318
#     4  11  22  34  52  84 112 141 176 218 272 313
#
# _framework density 17.866029000000001
#
# number of rings (size 3 to 8) (size 9 to 14) (size 15 to 20)
#    0.000    1.714    5.714    1.714    0.000    0.571 
#    0.000    0.000    0.000    0.000    3.714    0.000 
#    0.000    0.000    0.000    0.000    0.000    0.000 
#
# Total GULP energy -156121.506807 kJ/mol
# GULP energy per Si atom -5575.768100 kJ/mol
# Density = 1.782537 g / cm^3
# Si number density = 17.866029 Si / 1000 Ang^3
#
#
#
# Elastic Constant Matrix: (Units=GPa)
#
#
# Indices 1 2 3 4 5 6 
#
# 1 53.2189 4.8876 19.8762 0.0000 -6.7976 0.0000
# 2 4.8876 55.4721 17.5542 0.0000 -4.7924 0.0000
# 3 19.8762 17.5542 94.1725 0.0000 3.9351 0.0000
# 4 0.0000 0.0000 0.0000 7.6317 0.0000 -2.8988
# 5 -6.7976 -4.7924 3.9351 0.0000 25.2446 0.0000
# 6 0.0000 0.0000 0.0000 -2.8988 0.0000 19.3376
#
#
#
# Elastic Compliance Matrix: (Units=1/GPa)
#
#
# Indices 1 2 3 4 5 6 
#
# 1 0.021414 0.000209 -0.004833 0.000000 0.006559 0.000000
# 2 0.000209 0.019617 -0.003884 0.000000 0.004386 0.000000
# 3 -0.004833 -0.003884 0.012530 0.000000 -0.003992 0.000000
# 4 0.000000 0.000000 0.000000 0.138943 0.000000 0.020828
# 5 0.006559 0.004386 -0.003992 0.000000 0.042833 0.000000
# 6 0.000000 0.000000 0.000000 0.020828 0.000000 0.054835
#
#
# Mechanical properties :
#
#
# Convention : Reuss Voigt Hill
#
# Bulk Modulus (GPa) = 27.36352 31.94439 29.65396
# Shear Modulus (GPa) = 15.65594 21.14583 18.40088
#
# Velocity S-wave (km/s) = 2.96344 3.44405 3.21274
# Velocity P-wave (km/s) = 5.20178 5.80810 5.51328
#
# Compressibility (1/GPa) = 0.03654501
#
# Stress axis : x y z
#
# Youngs Moduli (GPa) = 46.69882 50.97708 79.81094
#
# Poissons Ratio (x) = -0.01067 0.38570
# Poissons Ratio (y) = -0.00977 0.30999
# Poissons Ratio (z) = 0.22568 0.19800
#
# Static dielectric constant tensor:
#      x y z
#    x 1.661440 0.000000 0.001410 
#    y 0.000000 1.560190 0.000000 
#    z 0.001410 0.000000 1.619020 
# 
# From -- ./inp_files/251951.got.cif
#   From: 2010.05.17/outbox.cif.g08.bks.cpg/sg15_126_cif.got.tgz:251951.got - 2010.06.03 18:47:42.
