data_PCOD9254966
_publ_section_title
;
Structure prediction by ZEFSAII (Michael W. Deem and Ramdas Pophale) SiO2 
 PCOD9254966
Probable space group: C 2/C
;
_chemical_formula_sum "Si O2"
_cell_formula_units_Z 40
_cell_length_a 25.915036
_cell_length_b 7.091364
_cell_length_c 12.669058
_cell_angle_alpha 90.000000
_cell_angle_beta 139.761544
_cell_angle_gamma 90.000000
_cell_volume 1503.967307
_symmetry_space_group_name_H-M "C 2/C"
_symmetry_group_IT_number 15
_symmetry_cell_setting 'monoclinic'
loop_
_space_group_symop_operation_xyz
x,y,z
-x,y,1/2-z
-x,-y,-z
x,-y,1/2+z
1/2+x,1/2+y,z
1/2-x,1/2+y,1/2-z
1/2-x,1/2-y,-z
1/2+x,1/2-y,1/2+z
loop_
_atom_site_type_symbol
_atom_site_label
_atom_site_fract_x
_atom_site_fract_y
_atom_site_fract_z
Si Si1 0.746735 0.046601 0.545254
Si Si2 0.898855 0.149549 0.917796
Si Si3 0.953173 0.759957 0.944510
Si Si4 0.370741 0.398376 0.603874
Si Si5 0.092550 0.334441 0.911458
O O1 0.750000 0.250000 0.500000
O O2 0.816620 0.068531 0.741935
O O3 0.779711 0.914341 0.503121
O O4 0.659809 0.040345 0.459991
O O5 0.953053 0.961848 0.003907
O O6 0.885224 0.203387 0.016142
O O7 0.953337 0.288486 0.931273
O O8 0.915527 0.796755 0.770846
O O9 0.900782 0.651683 0.949966
O O10 0.394840 0.619288 0.616272
O O11 0.000000 0.385358 0.750000
#
# Coordination Sequence:
#
# PCOD9254966 Si02
#       5
#     8   8   8   8   8
#     4   9  17  27  40  62  88 112 138 171 211 252
#     4   9  15  25  42  63  86 108 137 175 213 251
#     4   9  15  24  41  64  85 108 136 173 216 252
#     4   9  16  27  44  64  85 108 138 177 216 250
#     4  10  17  26  41  62  87 113 141 171 209 255
#
# _framework density 26.596323000000002
#
# number of rings (size 3 to 8) (size 9 to 14) (size 15 to 20)
#    0.000    2.800    0.000    6.600    0.000    0.000 
#    0.000    1.000    0.000    1.200    0.000    0.000 
#    0.000    0.000    0.000    0.000    0.000    0.000 
#
# Total GULP energy -111508.423310 kJ/mol
# GULP energy per Si atom -5575.421165 kJ/mol
# Density = 2.653579 g / cm^3
# Si number density = 26.596323 Si / 1000 Ang^3
#
#
#
# Elastic Constant Matrix: (Units=GPa)
#
#
# Indices 1 2 3 4 5 6 
#
# 1 301.0045 41.8090 85.0160 0.0000 10.3248 0.0000
# 2 41.8090 36.0588 3.2255 0.0000 7.6871 0.0000
# 3 85.0160 3.2255 76.7071 0.0000 -0.7427 0.0000
# 4 0.0000 0.0000 0.0000 11.9639 0.0000 -0.3092
# 5 10.3248 7.6871 -0.7427 0.0000 64.7256 0.0000
# 6 0.0000 0.0000 0.0000 -0.3092 0.0000 49.0429
#
#
#
# Elastic Compliance Matrix: (Units=1/GPa)
#
#
# Indices 1 2 3 4 5 6 
#
# 1 0.006026 -0.006353 -0.006414 0.000000 -0.000280 0.000000
# 2 -0.006353 0.035268 0.005528 0.000000 -0.003112 0.000000
# 3 -0.006414 0.005528 0.019919 0.000000 0.000595 0.000000
# 4 0.000000 0.000000 0.000000 0.083599 0.000000 0.000527
# 5 -0.000280 -0.003112 0.000595 0.000000 0.015871 0.000000
# 6 0.000000 0.000000 0.000000 0.000527 0.000000 0.020394
#
#
# Mechanical properties :
#
#
# Convention : Reuss Voigt Hill
#
# Bulk Modulus (GPa) = 21.39755 74.87460 48.13607
# Shear Modulus (GPa) = 23.68185 44.06114 33.87149
#
# Velocity S-wave (km/s) = 2.98722 4.07463 3.57254
# Velocity P-wave (km/s) = 4.46775 7.09578 5.92920
#
# Compressibility (1/GPa) = 0.04673433
#
# Stress axis : x y z
#
# Youngs Moduli (GPa) = 165.94944 28.35448 50.20356
#
# Poissons Ratio (x) = 0.18015 0.32202
# Poissons Ratio (y) = 1.05434 -0.27755
# Poissons Ratio (z) = 1.06444 -0.15676
#
# Static dielectric constant tensor:
#      x y z
#    x 2.153710 0.000000 0.029180 
#    y 0.000000 2.161870 0.000000 
#    z 0.029180 0.000000 2.002040 
# 
# From -- ./inp_files/94660.got.cif
#   From: 2010.05.17/outbox.cif.g08.bks.cpg/sg15_48_cif.got.tgz:94660.got - 2010.06.03 18:47:42.
