data_PCOD9254647
_publ_section_title
;
Structure prediction by ZEFSAII (Michael W. Deem and Ramdas Pophale) SiO2 
 PCOD9254647
Probable space group: C 2/C
;
_chemical_formula_sum "Si O2"
_cell_formula_units_Z 64
_cell_length_a 17.644384
_cell_length_b 14.246910
_cell_length_c 10.362238
_cell_angle_alpha 90.000000
_cell_angle_beta 95.920969
_cell_angle_gamma 90.000000
_cell_volume 2590.941684
_symmetry_space_group_name_H-M "C 2/C"
_symmetry_group_IT_number 15
_symmetry_cell_setting 'monoclinic'
loop_
_space_group_symop_operation_xyz
x,y,z
-x,y,1/2-z
-x,-y,-z
x,-y,1/2+z
1/2+x,1/2+y,z
1/2-x,1/2+y,1/2-z
1/2-x,1/2-y,-z
1/2+x,1/2-y,1/2+z
loop_
_atom_site_type_symbol
_atom_site_label
_atom_site_fract_x
_atom_site_fract_y
_atom_site_fract_z
Si Si1 0.920480 0.378097 0.508854
Si Si2 0.687683 0.909996 0.229717
Si Si3 0.334359 0.341407 0.402745
Si Si4 0.818859 0.130189 0.455706
Si Si5 0.051331 0.577759 0.885389
Si Si6 0.672042 0.780101 0.811574
Si Si7 0.421629 0.512313 0.315428
Si Si8 0.779052 0.046623 0.106777
O O1 0.851963 0.358300 0.397505
O O2 0.928626 0.489718 0.522442
O O3 0.894649 0.344372 0.642205
O O4 0.999761 0.349302 0.456387
O O5 0.766515 0.870142 0.292621
O O6 0.630393 0.894622 0.336464
O O7 0.707971 0.015397 0.182936
O O8 0.350305 0.242484 0.339595
O O9 0.403437 0.415203 0.389341
O O10 0.297834 0.356763 0.536715
O O11 0.756739 0.176881 0.348975
O O12 0.831657 0.194547 0.582996
O O13 0.899226 0.098263 0.407323
O O14 0.779277 0.032554 0.493865
O O15 0.000000 0.551348 0.750000
O O16 0.500000 0.513664 0.250000
O O17 0.354555 0.523743 0.199938
#
# Coordination Sequence:
#
# PCOD9254647 Si02
#       8
#     8   8   8   8   8   8   8   8
#     4  10  19  33  57  82 119 162 201 254 306 370
#     4  10  16  32  58  87 113 152 200 256 296 365
#     4  10  21  35  59  96 118 157 206 251 311 375
#     4  10  20  36  62  88 118 152 207 252 310 369
#     4   9  20  33  53  87 116 156 208 250 301 367
#     4  11  19  37  58  90 120 160 202 254 311 371
#     4  10  22  40  63  91 119 160 209 266 309 386
#     4  10  19  36  61  95 116 162 209 252 309 377
#
# _framework density 24.701443999999999
#
# number of rings (size 3 to 8) (size 9 to 14) (size 15 to 20)
#    0.000    2.000    3.750    1.500    3.500    2.000 
#    0.000    4.375    0.000    0.000    0.000    0.000 
#    0.000    0.000    0.000    0.000    0.000    0.000 
#
# Total GULP energy -178494.450024 kJ/mol
# GULP energy per Si atom -5577.951563 kJ/mol
# Density = 2.464522 g / cm^3
# Si number density = 24.701444 Si / 1000 Ang^3
#
#
#
# Elastic Constant Matrix: (Units=GPa)
#
#
# Indices 1 2 3 4 5 6 
#
# 1 133.1490 11.8724 19.0538 0.0000 -42.8076 0.0000
# 2 11.8724 26.4065 -2.3627 0.0000 -6.6402 0.0000
# 3 19.0538 -2.3627 56.4488 0.0000 -17.3498 0.0000
# 4 0.0000 0.0000 0.0000 45.6971 0.0000 -7.4270
# 5 -42.8076 -6.6402 -17.3498 0.0000 48.8917 0.0000
# 6 0.0000 0.0000 0.0000 -7.4270 0.0000 18.8434
#
#
#
# Elastic Compliance Matrix: (Units=1/GPa)
#
#
# Indices 1 2 3 4 5 6 
#
# 1 0.010669 -0.002734 -0.001076 0.000000 0.008589 0.000000
# 2 -0.002734 0.040602 0.004020 0.000000 0.004547 0.000000
# 3 -0.001076 0.004020 0.020344 0.000000 0.006823 0.000000
# 4 0.000000 0.000000 0.000000 0.023381 0.000000 0.009216
# 5 0.008589 0.004547 0.006823 0.000000 0.031012 0.000000
# 6 0.000000 0.000000 0.000000 0.009216 0.000000 0.056701
#
#
# Mechanical properties :
#
#
# Convention : Reuss Voigt Hill
#
# Bulk Modulus (GPa) = 13.88216 30.34792 22.11504
# Shear Modulus (GPa) = 24.23653 35.18249 29.70951
#
# Velocity S-wave (km/s) = 3.13578 3.77810 3.47182
# Velocity P-wave (km/s) = 4.32931 5.59862 5.00438
#
# Compressibility (1/GPa) = 0.07203489
#
# Stress axis : x y z
#
# Youngs Moduli (GPa) = 93.72662 24.62955 49.15531
#
# Poissons Ratio (x) = 0.06733 0.05289
# Poissons Ratio (y) = 0.25621 -0.19759
# Poissons Ratio (z) = 0.10085 -0.09900
#
# Static dielectric constant tensor:
#      x y z
#    x 2.013700 0.000000 -0.110050 
#    y 0.000000 2.173300 0.000000 
#    z -0.110050 0.000000 2.096710 
# 
# From -- ./inp_files/105742.got.cif
#   From: 2010.05.17/outbox.cif.g08.bks.cpg/sg15_53_cif.got.tgz:105742.got - 2010.06.03 18:47:42.
