data_PCOD9254121
_publ_section_title
;
Structure prediction by ZEFSAII (Michael W. Deem and Ramdas Pophale) SiO2 
 PCOD9254121
Probable space group: C 2/C
;
_chemical_formula_sum "Si O2"
_cell_formula_units_Z 40
_cell_length_a 18.652367
_cell_length_b 24.142019
_cell_length_c 8.877732
_cell_angle_alpha 90.000000
_cell_angle_beta 157.212311
_cell_angle_gamma 90.000000
_cell_volume 1548.376919
_symmetry_space_group_name_H-M "C 2/C"
_symmetry_group_IT_number 15
_symmetry_cell_setting 'monoclinic'
loop_
_space_group_symop_operation_xyz
x,y,z
-x,y,1/2-z
-x,-y,-z
x,-y,1/2+z
1/2+x,1/2+y,z
1/2-x,1/2+y,1/2-z
1/2-x,1/2-y,-z
1/2+x,1/2-y,1/2+z
loop_
_atom_site_type_symbol
_atom_site_label
_atom_site_fract_x
_atom_site_fract_y
_atom_site_fract_z
Si Si1 0.350404 0.927133 0.711005
Si Si2 0.943655 0.683649 0.316698
Si Si3 0.987704 0.194930 0.911421
Si Si4 0.260019 0.990249 0.253394
Si Si5 0.585537 0.421910 0.646266
O O1 0.477280 0.873616 0.970369
O O2 0.337264 0.944077 0.513220
O O3 0.399436 0.976018 0.917479
O O4 0.131185 0.920061 0.317699
O O5 0.034120 0.741433 0.542312
O O6 0.000000 0.677326 0.250000
O O7 0.720119 0.688990 0.917663
O O8 0.000000 0.191788 0.750000
O O9 0.115334 0.144314 0.215626
O O10 0.177670 0.038594 0.200554
O O11 0.131782 0.955517 0.887707
#
# Coordination Sequence:
#
# PCOD9254121 Si02
#       5
#     8   8   8   8   8
#     4  10  17  28  45  69  99 130 161 201 249 298
#     4   9  18  31  47  69  98 132 170 204 240 293
#     4   9  17  30  50  72  92 127 172 209 242 286
#     4  10  18  27  46  77 104 124 158 207 256 294
#     4  10  16  26  45  74 102 122 156 209 256 292
#
# _framework density 25.833503
#
# number of rings (size 3 to 8) (size 9 to 14) (size 15 to 20)
#    0.000    2.400    0.000    7.200    0.000    0.000 
#    0.000    1.000    0.000    4.800    0.000   47.600 
#    0.000    8.000    0.000    0.000    0.000    0.000 
#
# Total GULP energy -111568.702826 kJ/mol
# GULP energy per Si atom -5578.435141 kJ/mol
# Density = 2.577471 g / cm^3
# Si number density = 25.833503 Si / 1000 Ang^3
#
#
#
# Elastic Constant Matrix: (Units=GPa)
#
#
# Indices 1 2 3 4 5 6 
#
# 1 179.1478 57.7903 33.9591 0.0000 16.7758 0.0000
# 2 57.7903 246.0648 37.0683 0.0000 -2.1557 0.0000
# 3 33.9591 37.0683 87.9825 0.0000 15.7078 0.0000
# 4 0.0000 0.0000 0.0000 9.7945 0.0000 7.8769
# 5 16.7758 -2.1557 15.7078 0.0000 44.1628 0.0000
# 6 0.0000 0.0000 0.0000 7.8769 0.0000 34.9467
#
#
#
# Elastic Compliance Matrix: (Units=1/GPa)
#
#
# Indices 1 2 3 4 5 6 
#
# 1 0.006489 -0.001299 -0.001608 0.000000 -0.001956 0.000000
# 2 -0.001299 0.004635 -0.001687 0.000000 0.001320 0.000000
# 3 -0.001608 -0.001687 0.013458 0.000000 -0.004258 0.000000
# 4 0.000000 0.000000 0.000000 0.124702 0.000000 -0.028107
# 5 -0.001956 0.001320 -0.004258 0.000000 0.024966 0.000000
# 6 0.000000 0.000000 0.000000 -0.028107 0.000000 0.034950
#
#
# Mechanical properties :
#
#
# Convention : Reuss Voigt Hill
#
# Bulk Modulus (GPa) = 64.96277 85.64784 75.30530
# Shear Modulus (GPa) = 22.36958 43.40597 32.88778
#
# Velocity S-wave (km/s) = 2.94583 4.10350 3.57188
# Velocity P-wave (km/s) = 6.06398 7.46172 6.79887
#
# Compressibility (1/GPa) = 0.01539343
#
# Stress axis : x y z
#
# Youngs Moduli (GPa) = 154.10675 215.76310 74.30788
#
# Poissons Ratio (x) = 0.28025 0.11949
# Poissons Ratio (y) = 0.20017 0.12535
# Poissons Ratio (z) = 0.24782 0.36398
#
# Static dielectric constant tensor:
#      x y z
#    x 2.039450 0.000000 0.129490 
#    y 0.000000 2.161320 0.000000 
#    z 0.129490 0.000000 2.255210 
# 
# From -- ./inp_files/51704.got.cif
#   From: 2010.05.17/outbox.cif.g08.bks.cpg/sg15_26_cif.got.tgz:51704.got - 2010.06.03 18:47:42.
