data_PCOD9254380
_publ_section_title
;
Structure prediction by ZEFSAII (Michael W. Deem and Ramdas Pophale) SiO2 
 PCOD9254380
Probable space group: C 2/C
;
_chemical_formula_sum "Si O2"
_cell_formula_units_Z 56
_cell_length_a 14.384444
_cell_length_b 15.739803
_cell_length_c 18.487001
_cell_angle_alpha 90.000000
_cell_angle_beta 139.639312
_cell_angle_gamma 90.000000
_cell_volume 2710.589960
_symmetry_space_group_name_H-M "C 2/C"
_symmetry_group_IT_number 15
_symmetry_cell_setting 'monoclinic'
loop_
_space_group_symop_operation_xyz
x,y,z
-x,y,1/2-z
-x,-y,-z
x,-y,1/2+z
1/2+x,1/2+y,z
1/2-x,1/2+y,1/2-z
1/2-x,1/2-y,-z
1/2+x,1/2-y,1/2+z
loop_
_atom_site_type_symbol
_atom_site_label
_atom_site_fract_x
_atom_site_fract_y
_atom_site_fract_z
Si Si1 0.191592 0.573531 0.167609
Si Si2 0.423305 0.717749 0.283833
Si Si3 0.619661 0.545707 0.619855
Si Si4 0.473995 0.110622 0.652562
Si Si5 0.665293 0.621795 0.499543
Si Si6 0.116859 0.550519 0.492887
Si Si7 0.082620 0.943290 0.375146
O O1 0.289128 0.653825 0.202963
O O2 0.272280 0.523818 0.281208
O O3 0.026736 0.604573 0.079159
O O4 0.178095 0.499533 0.098970
O O5 0.500000 0.715837 0.250000
O O6 0.413440 0.816502 0.300468
O O7 0.532203 0.681229 0.407448
O O8 0.500000 0.500000 0.500000
O O9 0.687321 0.602150 0.596884
O O10 0.530173 0.589907 0.631704
O O11 0.500000 0.082984 0.750000
O O12 0.315889 0.153495 0.557781
O O13 0.453482 0.026728 0.594414
O O14 0.622386 0.537502 0.428293
O O15 0.256436 0.594022 0.539751
O O16 0.000000 0.946573 0.250000
#
# Coordination Sequence:
#
# PCOD9254380 Si02
#       7
#     8   8   8   8   8   8   8
#     4  11  20  33  53  78 116 153 192 241 289 341
#     4  11  20  33  55  78 111 157 197 222 286 357
#     4  10  18  29  51  76 109 154 193 238 283 335
#     4  10  21  34  50  78 118 155 188 227 285 350
#     4  10  18  30  49  75 110 149 191 235 277 338
#     4  10  21  34  52  80 116 153 194 241 286 342
#     4  10  16  30  50  74 107 152 190 231 284 340
#
# _framework density 20.65971
#
# number of rings (size 3 to 8) (size 9 to 14) (size 15 to 20)
#    0.000    1.714    4.286    3.429    0.000    1.143 
#    0.000    0.000    0.000    0.000    0.000    0.000 
#    4.286    9.429    0.000    0.000    0.000    0.000 
#
# Total GULP energy -155927.704467 kJ/mol
# GULP energy per Si atom -5568.846588 kJ/mol
# Density = 2.061269 g / cm^3
# Si number density = 20.659710 Si / 1000 Ang^3
#
#
#
# Elastic Constant Matrix: (Units=GPa)
#
#
# Indices 1 2 3 4 5 6 
#
# 1 75.3898 -1.6796 16.0224 0.0000 21.2774 0.0000
# 2 -1.6796 23.2153 18.2763 0.0000 6.4110 0.0000
# 3 16.0224 18.2763 111.6154 0.0001 4.3015 0.0000
# 4 0.0000 0.0000 0.0001 13.8396 0.0000 0.2625
# 5 21.2774 6.4110 4.3015 0.0000 50.8597 0.0000
# 6 0.0000 0.0000 0.0000 0.2625 0.0000 12.3944
#
#
#
# Elastic Compliance Matrix: (Units=1/GPa)
#
#
# Indices 1 2 3 4 5 6 
#
# 1 0.016019 0.005423 -0.002912 0.000000 -0.007139 0.000000
# 2 0.005423 0.052908 -0.009127 0.000000 -0.008166 0.000000
# 3 -0.002912 -0.009127 0.010816 0.000000 0.001454 0.000000
# 4 0.000000 0.000000 0.000000 0.072285 0.000000 -0.001531
# 5 -0.007139 -0.008166 0.001454 0.000000 0.023555 0.000000
# 6 0.000000 0.000000 0.000000 -0.001531 0.000000 0.080714
#
#
# Mechanical properties :
#
#
# Convention : Reuss Voigt Hill
#
# Bulk Modulus (GPa) = 15.03531 30.60650 22.82091
# Shear Modulus (GPa) = 17.14095 27.25885 22.19990
#
# Velocity S-wave (km/s) = 2.88354 3.63632 3.28159
# Velocity P-wave (km/s) = 4.28717 5.69888 5.04267
#
# Compressibility (1/GPa) = 0.06651009
#
# Stress axis : x y z
#
# Youngs Moduli (GPa) = 62.42578 18.90084 92.45678
#
# Poissons Ratio (x) = -0.10250 0.26927
# Poissons Ratio (y) = -0.33855 0.84386
# Poissons Ratio (z) = 0.18181 0.17251
#
# Static dielectric constant tensor:
#      x y z
#    x 1.918190 0.000000 0.063630 
#    y 0.000000 1.758720 0.000000 
#    z 0.063630 0.000000 1.773080 
# 
# From -- ./inp_files/206308.got.cif
#   From: 2010.05.17/outbox.cif.g08.bks.cpg/sg15_104_cif.got.tgz:206308.got - 2010.06.03 18:47:42.
