data_PCOD9254313
_publ_section_title
;
Structure prediction by ZEFSAII (Michael W. Deem and Ramdas Pophale) SiO2 
 PCOD9254313
Probable space group: C 2/C
;
_chemical_formula_sum "Si O2"
_cell_formula_units_Z 40
_cell_length_a 6.875830
_cell_length_b 24.966219
_cell_length_c 13.314110
_cell_angle_alpha 90.000000
_cell_angle_beta 39.513247
_cell_angle_gamma 90.000000
_cell_volume 1454.194010
_symmetry_space_group_name_H-M "C 2/C"
_symmetry_group_IT_number 15
_symmetry_cell_setting 'monoclinic'
loop_
_space_group_symop_operation_xyz
x,y,z
-x,y,1/2-z
-x,-y,-z
x,-y,1/2+z
1/2+x,1/2+y,z
1/2-x,1/2+y,1/2-z
1/2-x,1/2-y,-z
1/2+x,1/2-y,1/2+z
loop_
_atom_site_type_symbol
_atom_site_label
_atom_site_fract_x
_atom_site_fract_y
_atom_site_fract_z
Si Si1 0.852420 0.659264 0.197514
Si Si2 0.430950 0.940907 0.396775
Si Si3 0.267620 0.956643 0.749078
Si Si4 0.231839 0.324521 0.043603
Si Si5 0.375185 0.276402 0.188050
O O1 0.972738 0.716810 0.110268
O O2 0.000000 0.656245 0.250000
O O3 0.859877 0.598258 0.154103
O O4 0.503593 0.669391 0.140988
O O5 0.500000 0.941813 0.250000
O O6 0.078416 0.953805 0.569662
O O7 0.468381 0.877670 0.398515
O O8 0.655674 0.988872 0.340995
O O9 0.500000 0.955591 0.750000
O O10 0.988656 0.277583 0.143893
O O11 0.394548 0.319041 0.088908
O O12 0.500000 0.286876 0.250000
#
# Coordination Sequence:
#
# PCOD9254313 Si02
#       5
#     8   8   8   8   8
#     4   9  19  33  52  81 115 143 184 227 275 329
#     4  10  16  29  50  78 108 137 182 228 273 322
#     4   9  17  27  47  79 109 136 183 230 266 328
#     4  10  20  36  56  85 111 143 188 227 275 333
#     4  10  20  35  56  80 112 147 183 228 275 329
#
# _framework density 27.506646
#
# number of rings (size 3 to 8) (size 9 to 14) (size 15 to 20)
#    0.000    2.400    2.000    3.000    0.000    3.200 
#    0.000    0.000    0.000    0.000    5.200   19.600 
#    0.000    0.000    0.000    0.000    0.000    0.000 
#
# Total GULP energy -111543.678018 kJ/mol
# GULP energy per Si atom -5577.183901 kJ/mol
# Density = 2.744404 g / cm^3
# Si number density = 27.506646 Si / 1000 Ang^3
#
#
#
# Elastic Constant Matrix: (Units=GPa)
#
#
# Indices 1 2 3 4 5 6 
#
# 1 107.1398 15.2707 29.4153 0.0000 4.0772 0.0000
# 2 15.2707 235.6135 9.4571 0.0000 -1.5062 0.0000
# 3 29.4153 9.4571 127.3660 0.0000 18.0255 0.0000
# 4 0.0000 0.0000 0.0000 -0.2900 0.0000 -40.7667
# 5 4.0772 -1.5062 18.0255 0.0000 42.5442 0.0000
# 6 0.0000 0.0000 0.0000 -40.7667 0.0000 -87.4456
#
#
#
# Elastic Compliance Matrix: (Units=1/GPa)
#
#
# Indices 1 2 3 4 5 6 
#
# 1 0.010038 -0.000559 -0.002274 0.000000 -0.000018 0.000000
# 2 -0.000559 0.004292 -0.000232 0.000000 0.000304 0.000000
# 3 -0.002274 -0.000232 0.008898 0.000000 -0.003560 0.000000
# 4 0.000000 0.000000 0.000000 0.053432 0.000000 -0.024910
# 5 -0.000018 0.000304 -0.003560 0.000000 0.025026 0.000000
# 6 0.000000 0.000000 0.000000 -0.024910 0.000000 0.000177
#
#
# Mechanical properties :
#
#
# Convention : Reuss Voigt Hill
#
# Bulk Modulus (GPa) = 58.49480 64.26728 61.38104
# Shear Modulus (GPa) = 43.97755 18.69347 31.33551
#
# Velocity S-wave (km/s) = 4.00283 2.60974 3.37886
# Velocity P-wave (km/s) = 6.53264 5.70052 6.13072
#
# Compressibility (1/GPa) = 0.01709554
#
# Stress axis : x y z
#
# Youngs Moduli (GPa) = 99.61714 233.00390 112.38802
#
# Poissons Ratio (x) = 0.13035 0.25560
# Poissons Ratio (y) = 0.05573 0.02613
# Poissons Ratio (z) = 0.22656 0.05417
#
# Static dielectric constant tensor:
#      x y z
#    x 2.213230 0.000000 0.061980 
#    y 0.000000 2.273100 0.000000 
#    z 0.061980 0.000000 2.201440 
# 
# From -- ./inp_files/80080.got.cif
#   From: 2010.05.17/outbox.cif.g08.bks.cpg/sg15_41_cif.got.tgz:80080.got - 2010.06.03 18:47:42.
