data_PCOD9254312
_publ_section_title
;
Structure prediction by ZEFSAII (Michael W. Deem and Ramdas Pophale) SiO2 
 PCOD9254312
Probable space group: C 2/C
;
_chemical_formula_sum "Si O2"
_cell_formula_units_Z 40
_cell_length_a 15.156917
_cell_length_b 7.184284
_cell_length_c 16.688880
_cell_angle_alpha 90.000000
_cell_angle_beta 54.502140
_cell_angle_gamma 90.000000
_cell_volume 1479.514273
_symmetry_space_group_name_H-M "C 2/C"
_symmetry_group_IT_number 15
_symmetry_cell_setting 'monoclinic'
loop_
_space_group_symop_operation_xyz
x,y,z
-x,y,1/2-z
-x,-y,-z
x,-y,1/2+z
1/2+x,1/2+y,z
1/2-x,1/2+y,1/2-z
1/2-x,1/2-y,-z
1/2+x,1/2-y,1/2+z
loop_
_atom_site_type_symbol
_atom_site_label
_atom_site_fract_x
_atom_site_fract_y
_atom_site_fract_z
Si Si1 0.513098 0.778184 0.009564
Si Si2 0.416302 0.155605 0.863047
Si Si3 0.746609 0.637559 0.833192
Si Si4 0.168286 0.222114 0.707461
Si Si5 0.580031 0.740714 0.595119
O O1 0.628862 0.708408 0.918269
O O2 0.425931 0.685882 0.995061
O O3 0.518214 0.736568 0.101645
O O4 0.500000 0.000000 0.000000
O O5 0.500000 0.107466 0.750000
O O6 0.320805 0.243642 0.860594
O O7 0.387373 0.959175 0.919190
O O8 0.788239 0.430391 0.824473
O O9 0.746754 0.644915 0.735474
O O10 0.154499 0.148207 0.623758
O O11 0.044712 0.223261 0.807353
#
# Coordination Sequence:
#
# PCOD9254312 Si02
#       5
#     8   8   8   8   8
#     4   9  18  28  51  84 103 133 177 227 254 302
#     4  10  16  29  50  78 103 134 176 226 260 299
#     4  10  18  30  52  81 107 136 177 218 258 314
#     4   9  16  29  52  76 106 138 173 214 259 307
#     4   8  14  30  49  72 102 137 169 213 255 306
#
# _framework density 27.035903000000001
#
# number of rings (size 3 to 8) (size 9 to 14) (size 15 to 20)
#    0.000    2.800    4.000    0.600    0.000    0.000 
#    0.000    0.000    8.800    2.400    0.000    0.000 
#    0.000    0.000    0.000    0.000    0.000    0.000 
#
# Total GULP energy -111513.222320 kJ/mol
# GULP energy per Si atom -5575.661116 kJ/mol
# Density = 2.697437 g / cm^3
# Si number density = 27.035903 Si / 1000 Ang^3
#
#
#
# Elastic Constant Matrix: (Units=GPa)
#
#
# Indices 1 2 3 4 5 6 
#
# 1 281.7444 57.2686 85.7252 0.0000 102.7875 0.0000
# 2 57.2686 67.7300 9.3320 0.0001 -14.1496 -0.0001
# 3 85.7252 9.3320 92.2584 0.0000 41.4906 0.0000
# 4 0.0000 0.0001 0.0000 16.6246 0.0000 1.3687
# 5 102.7875 -14.1496 41.4906 0.0000 75.0372 0.0000
# 6 0.0000 -0.0001 0.0000 1.3687 0.0000 27.5182
#
#
#
# Elastic Compliance Matrix: (Units=1/GPa)
#
#
# Indices 1 2 3 4 5 6 
#
# 1 0.020211 -0.023098 -0.002707 0.000000 -0.030545 0.000000
# 2 -0.023098 0.042839 -0.000976 0.000000 0.040258 0.000000
# 3 -0.002707 -0.000976 0.015796 0.000000 -0.005210 0.000000
# 4 0.000000 0.000000 0.000000 0.060399 0.000000 -0.003004
# 5 -0.030545 0.040258 -0.005210 0.000000 0.065639 0.000000
# 6 0.000000 0.000000 0.000000 -0.003004 0.000000 0.036489
#
#
# Mechanical properties :
#
#
# Convention : Reuss Voigt Hill
#
# Bulk Modulus (GPa) = 39.54820 82.93161 61.23991
# Shear Modulus (GPa) = 16.48179 43.12978 29.80579
#
# Velocity S-wave (km/s) = 2.47174 3.99843 3.32392
# Velocity P-wave (km/s) = 4.77554 7.21511 6.11815
#
# Compressibility (1/GPa) = 0.02528560
#
# Stress axis : x y z
#
# Youngs Moduli (GPa) = 49.47685 23.34300 63.30568
#
# Poissons Ratio (x) = 0.53917 0.17138
# Poissons Ratio (y) = 1.14281 0.06177
# Poissons Ratio (z) = 0.13395 0.02278
#
# Static dielectric constant tensor:
#      x y z
#    x 2.392330 0.000000 0.086910 
#    y 0.000000 2.181900 0.000000 
#    z 0.086910 0.000000 2.138930 
# 
# From -- ./inp_files/202490.got.cif
#   From: 2010.05.17/outbox.cif.g08.bks.cpg/sg15_102_cif.got.tgz:202490.got - 2010.06.03 18:47:42.
