data_PCOD9254014
_publ_section_title
;
Structure prediction by ZEFSAII (Michael W. Deem and Ramdas Pophale) SiO2 
 PCOD9254014
Probable space group: C 2/C
;
_chemical_formula_sum "Si O2"
_cell_formula_units_Z 48
_cell_length_a 7.970663
_cell_length_b 13.932768
_cell_length_c 21.094622
_cell_angle_alpha 90.000000
_cell_angle_beta 47.729931
_cell_angle_gamma 90.000000
_cell_volume 1733.504974
_symmetry_space_group_name_H-M "C 2/C"
_symmetry_group_IT_number 15
_symmetry_cell_setting 'monoclinic'
loop_
_space_group_symop_operation_xyz
x,y,z
-x,y,1/2-z
-x,-y,-z
x,-y,1/2+z
1/2+x,1/2+y,z
1/2-x,1/2+y,1/2-z
1/2-x,1/2-y,-z
1/2+x,1/2-y,1/2+z
loop_
_atom_site_type_symbol
_atom_site_label
_atom_site_fract_x
_atom_site_fract_y
_atom_site_fract_z
Si Si1 0.224292 0.765995 0.150953
Si Si2 0.525226 0.800253 0.966228
Si Si3 0.772638 0.536853 0.019826
Si Si4 0.444465 0.212344 0.831957
Si Si5 0.598379 0.560212 0.291652
Si Si6 0.408921 0.922408 0.872008
O O1 0.406562 0.820960 0.147513
O O2 0.233484 0.650184 0.135603
O O3 0.000000 0.778709 0.250000
O O4 0.286589 0.797726 0.063154
O O5 0.694814 0.851469 0.973115
O O6 0.675703 0.708229 0.911626
O O7 0.507324 0.855995 0.904706
O O8 0.547211 0.510756 0.116075
O O9 0.778709 0.500830 0.946652
O O10 0.000000 0.500000 0.000000
O O11 0.500000 0.168935 0.750000
O O12 0.541637 0.324278 0.803655
O O13 0.500000 0.521974 0.250000
O O14 0.866366 0.543615 0.220819
#
# Coordination Sequence:
#
# PCOD9254014 Si02
#       6
#     8   8   8   8   8   8
#     4  12  23  35  58  91 122 159 206 264 312 370
#     4  10  20  37  57  87 120 158 205 251 310 374
#     4   9  18  33  58  88 114 163 209 248 297 376
#     4  10  18  37  61  80 107 160 206 243 303 380
#     4  10  15  32  60  78 111 158 208 241 300 379
#     4  11  20  37  59  88 122 156 207 260 313 367
#
# _framework density 27.689565000000002
#
# number of rings (size 3 to 8) (size 9 to 14) (size 15 to 20)
#    0.000    1.667    8.333    1.000    0.000    0.000 
#    6.000    3.333    0.000    1.000    0.000    0.000 
#    0.000    0.000    0.000    0.000    0.000    0.000 
#
# Total GULP energy -133967.269131 kJ/mol
# GULP energy per Si atom -5581.969547 kJ/mol
# Density = 2.762654 g / cm^3
# Si number density = 27.689565 Si / 1000 Ang^3
#
#
#
# Elastic Constant Matrix: (Units=GPa)
#
#
# Indices 1 2 3 4 5 6 
#
# 1 104.8609 6.6223 38.7821 0.0001 7.1649 0.0002
# 2 6.6223 56.5442 23.2912 -0.0001 -2.4206 0.0002
# 3 38.7821 23.2912 255.8141 0.0008 -2.7561 -0.0004
# 4 0.0001 -0.0001 0.0008 26.7733 -0.0003 14.5204
# 5 7.1649 -2.4206 -2.7561 -0.0003 26.4410 0.0000
# 6 0.0002 0.0002 -0.0004 14.5204 0.0000 32.2379
#
#
#
# Elastic Compliance Matrix: (Units=1/GPa)
#
#
# Indices 1 2 3 4 5 6 
#
# 1 0.010357 -0.000709 -0.001538 0.000000 -0.003032 0.000000
# 2 -0.000709 0.018483 -0.001557 0.000000 0.001722 0.000000
# 3 -0.001538 -0.001557 0.004292 0.000000 0.000722 0.000000
# 4 0.000000 0.000000 0.000000 0.049424 0.000001 -0.022261
# 5 -0.003032 0.001722 0.000722 0.000001 0.038875 0.000000
# 6 0.000000 0.000000 0.000000 -0.022261 0.000000 0.041046
#
#
# Mechanical properties :
#
#
# Convention : Reuss Voigt Hill
#
# Bulk Modulus (GPa) = 39.17892 61.62340 50.40116
# Shear Modulus (GPa) = 27.99652 40.32534 34.16093
#
# Velocity S-wave (km/s) = 3.18321 3.82034 3.51623
# Velocity P-wave (km/s) = 5.26217 6.46246 5.89296
#
# Compressibility (1/GPa) = 0.02552393
#
# Stress axis : x y z
#
# Youngs Moduli (GPa) = 96.55013 54.10283 233.00161
#
# Poissons Ratio (x) = 0.03837 0.35843
# Poissons Ratio (y) = 0.06847 0.36274
# Poissons Ratio (z) = 0.14852 0.08423
#
# Static dielectric constant tensor:
#      x y z
#    x 2.201010 0.000000 0.168350 
#    y 0.000000 2.369010 -0.000010 
#    z 0.168350 -0.000010 2.853300 
# 
# From -- ./inp_files/191776.got.cif
#   From: 2010.05.17/outbox.cif.g08.bks.cpg/sg15_96_cif.got.tgz:191776.got - 2010.06.03 18:47:42.
