data_PCOD9254641
_publ_section_title
;
Structure prediction by ZEFSAII (Michael W. Deem and Ramdas Pophale) SiO2 
 PCOD9254641
Probable space group: C 2/C
;
_chemical_formula_sum "Si O2"
_cell_formula_units_Z 64
_cell_length_a 12.285700
_cell_length_b 22.027368
_cell_length_c 12.424772
_cell_angle_alpha 90.000000
_cell_angle_beta 69.803913
_cell_angle_gamma 90.000000
_cell_volume 3155.679593
_symmetry_space_group_name_H-M "C 2/C"
_symmetry_group_IT_number 15
_symmetry_cell_setting 'monoclinic'
loop_
_space_group_symop_operation_xyz
x,y,z
-x,y,1/2-z
-x,-y,-z
x,-y,1/2+z
1/2+x,1/2+y,z
1/2-x,1/2+y,1/2-z
1/2-x,1/2-y,-z
1/2+x,1/2-y,1/2+z
loop_
_atom_site_type_symbol
_atom_site_label
_atom_site_fract_x
_atom_site_fract_y
_atom_site_fract_z
Si Si1 0.534008 0.643002 0.626610
Si Si2 0.704103 0.675790 0.903574
Si Si3 0.103549 0.451668 0.629072
Si Si4 0.480903 0.150334 0.034056
Si Si5 0.106563 0.271685 0.634223
Si Si6 0.395092 0.914297 0.363511
Si Si7 0.221545 0.187983 0.152539
Si Si8 0.303321 0.365967 0.624345
O O1 0.500000 0.608956 0.750000
O O2 0.416576 0.669367 0.615652
O O3 0.612025 0.699937 0.639862
O O4 0.604036 0.618209 0.500200
O O5 0.783871 0.617704 0.850786
O O6 0.765175 0.738901 0.847590
O O7 0.687148 0.675731 0.039861
O O8 0.131437 0.519432 0.577799
O O9 0.213871 0.422063 0.650268
O O10 0.000000 0.452273 0.750000
O O11 0.054535 0.405851 0.555677
O O12 0.558742 0.208380 0.033891
O O13 0.352289 0.161587 0.125271
O O14 0.448322 0.135432 0.924848
O O15 0.222792 0.308004 0.618326
O O16 0.000000 0.291467 0.750000
O O17 0.500000 0.926622 0.250000
O O18 0.152174 0.154884 0.272669
#
# Coordination Sequence:
#
# PCOD9254641 Si02
#       8
#     8   8   8   8   8   8   8   8
#     4  11  23  37  54  81 122 158 197 247 302 356
#     4  10  22  38  55  82 128 158 190 247 305 369
#     4  10  19  36  60  90 115 144 198 257 291 348
#     4  10  16  32  58  83 115 145 188 237 303 338
#     4  10  17  32  57  86 115 145 190 248 296 349
#     4  10  23  36  54  85 121 159 190 239 304 361
#     4  10  18  36  59  85 117 159 193 248 305 352
#     4  11  20  34  61  89 109 156 208 245 296 358
#
# _framework density 20.280891
#
# number of rings (size 3 to 8) (size 9 to 14) (size 15 to 20)
#    0.000    1.750    3.750    2.250    0.000    3.500 
#    0.000    0.625    0.000    0.000    0.000    0.000 
#    0.000    0.000    0.000    0.000    0.000    0.000 
#
# Total GULP energy -178191.701835 kJ/mol
# GULP energy per Si atom -5568.490682 kJ/mol
# Density = 2.023473 g / cm^3
# Si number density = 20.280891 Si / 1000 Ang^3
#
#
#
# Elastic Constant Matrix: (Units=GPa)
#
#
# Indices 1 2 3 4 5 6 
#
# 1 36.3589 12.3271 21.4328 0.0000 7.7208 0.0000
# 2 12.3271 56.6839 7.6681 0.0000 -9.5519 0.0000
# 3 21.4328 7.6681 99.0254 0.0000 -2.0006 0.0000
# 4 0.0000 0.0000 0.0000 14.2734 0.0000 1.4297
# 5 7.7208 -9.5519 -2.0006 0.0000 27.3435 0.0000
# 6 0.0000 0.0000 0.0000 1.4297 0.0000 37.0897
#
#
#
# Elastic Compliance Matrix: (Units=1/GPa)
#
#
# Indices 1 2 3 4 5 6 
#
# 1 0.038684 -0.009861 -0.007911 0.000000 -0.014947 0.000000
# 2 -0.009861 0.021433 0.000683 0.000000 0.010322 0.000000
# 3 -0.007911 0.000683 0.011825 0.000000 0.003338 0.000000
# 4 0.000000 0.000000 0.000000 0.070332 0.000000 -0.002711
# 5 -0.014947 0.010322 0.003338 0.000000 0.044642 0.000000
# 6 0.000000 0.000000 0.000000 -0.002711 0.000000 0.027066
#
#
# Mechanical properties :
#
#
# Convention : Reuss Voigt Hill
#
# Bulk Modulus (GPa) = 26.47999 30.54715 28.51357
# Shear Modulus (GPa) = 19.17551 25.78398 22.47974
#
# Velocity S-wave (km/s) = 3.07823 3.56946 3.33291
# Velocity P-wave (km/s) = 5.07139 5.66417 5.37595
#
# Compressibility (1/GPa) = 0.03776437
#
# Stress axis : x y z
#
# Youngs Moduli (GPa) = 25.85029 46.65679 84.56508
#
# Poissons Ratio (x) = 0.46009 0.66900
# Poissons Ratio (y) = 0.25491 -0.05777
# Poissons Ratio (z) = 0.20450 -0.03187
#
# Static dielectric constant tensor:
#      x y z
#    x 1.712500 0.000000 0.026180 
#    y 0.000000 1.746110 0.000000 
#    z 0.026180 0.000000 1.737180 
# 
# From -- ./inp_files/91262.got.cif
#   From: 2010.05.17/outbox.cif.g08.bks.cpg/sg15_46_cif.got.tgz:91262.got - 2010.06.03 18:47:42.
