data_PCOD9254556
_publ_section_title
;
Structure prediction by ZEFSAII (Michael W. Deem and Ramdas Pophale) SiO2 
 PCOD9254556
Probable space group: C 2/C
;
_chemical_formula_sum "Si O2"
_cell_formula_units_Z 60
_cell_length_a 25.755598
_cell_length_b 7.312892
_cell_length_c 23.189312
_cell_angle_alpha 90.000000
_cell_angle_beta 145.990136
_cell_angle_gamma 90.000000
_cell_volume 2442.986910
_symmetry_space_group_name_H-M "C 2/C"
_symmetry_group_IT_number 15
_symmetry_cell_setting 'monoclinic'
loop_
_space_group_symop_operation_xyz
x,y,z
-x,y,1/2-z
-x,-y,-z
x,-y,1/2+z
1/2+x,1/2+y,z
1/2-x,1/2+y,1/2-z
1/2-x,1/2-y,-z
1/2+x,1/2-y,1/2+z
loop_
_atom_site_type_symbol
_atom_site_label
_atom_site_fract_x
_atom_site_fract_y
_atom_site_fract_z
Si Si1 0.005452 0.615183 0.409257
Si Si2 0.166725 0.569009 0.334967
Si Si3 0.771759 0.994532 0.334236
Si Si4 0.130343 0.456674 0.925559
Si Si5 0.821066 0.870768 0.642397
Si Si6 0.544671 0.260498 0.012360
Si Si7 0.000000 0.764767 0.750000
Si Si8 0.346361 0.658370 0.291807
O O1 0.088664 0.655535 0.440695
O O2 0.040076 0.429891 0.473210
O O3 0.921100 0.603034 0.286485
O O4 0.970896 0.729508 0.433351
O O5 0.253553 0.614182 0.374017
O O6 0.145486 0.647380 0.378566
O O7 0.185154 0.351804 0.363819
O O8 0.862085 0.865519 0.419376
O O9 0.681164 0.868894 0.242533
O O10 0.783268 0.103904 0.286692
O O11 0.056401 0.624341 0.844304
O O12 0.230158 0.543830 0.031496
O O13 0.921900 0.890835 0.706923
O O14 0.825305 0.936074 0.712288
O O15 0.452626 0.363018 0.906162
#
# Coordination Sequence:
#
# PCOD9254556 Si02
#       8
#     8   8   8   8   8   8   4   8
#     4  11  19  35  59  85 119 153 204 245 303 363
#     4  10  18  34  52  86 115 152 195 248 297 349
#     4  11  23  39  60  86 123 157 199 252 304 368
#     4  11  19  31  54  84 117 153 198 248 298 360
#     4  10  20  30  53  84 117 151 191 245 308 352
#     4  11  23  36  59  86 118 161 198 249 305 363
#     4  10  16  32  48  82 122 148 186 252 298 354
#     4  11  23  40  58  90 120 156 199 249 307 360
#
# _framework density 24.560098
#
# number of rings (size 3 to 8) (size 9 to 14) (size 15 to 20)
#    0.000    1.333    5.333    4.400    3.733    1.067 
#    0.000    0.000    0.000    0.800   10.400    0.000 
#    0.000    0.000    0.000    0.000    0.000    0.000 
#
# Total GULP energy -167564.429184 kJ/mol
# GULP energy per Si atom -5585.480973 kJ/mol
# Density = 2.450420 g / cm^3
# Si number density = 24.560098 Si / 1000 Ang^3
#
#
#
# Elastic Constant Matrix: (Units=GPa)
#
#
# Indices 1 2 3 4 5 6 
#
# 1 224.7840 14.9138 78.8436 0.0000 -6.9256 0.0000
# 2 14.9138 31.8961 20.3157 0.0000 6.2372 0.0000
# 3 78.8436 20.3157 163.9519 0.0000 -2.1382 0.0000
# 4 0.0000 0.0000 0.0000 23.3355 0.0000 3.1035
# 5 -6.9256 6.2372 -2.1382 0.0000 42.8784 0.0000
# 6 0.0000 0.0000 0.0000 3.1035 0.0000 -1.0191
#
#
#
# Elastic Compliance Matrix: (Units=1/GPa)
#
#
# Indices 1 2 3 4 5 6 
#
# 1 0.005412 -0.001151 -0.002448 0.000000 0.000920 0.000000
# 2 -0.001151 0.035466 -0.003913 0.000000 -0.005540 -0.000001
# 3 -0.002448 -0.003913 0.007769 0.000000 0.000561 0.000000
# 4 0.000000 0.000000 0.000000 0.030500 0.000000 0.092883
# 5 0.000920 -0.005540 0.000561 0.000000 0.024304 0.000000
# 6 0.000000 -0.000001 0.000000 0.092883 0.000000 -0.698393
#
#
# Mechanical properties :
#
#
# Convention : Reuss Voigt Hill
#
# Bulk Modulus (GPa) = 29.74264 72.08648 50.91456
# Shear Modulus (GPa) = -8.79184 33.47623 12.34220
#
# Velocity S-wave (km/s) = -1.89407 3.69593 2.24415
# Velocity P-wave (km/s) = 2.71166 6.90130 5.24314
#
# Compressibility (1/GPa) = 0.03362176
#
# Stress axis : x y z
#
# Youngs Moduli (GPa) = 184.77239 28.19614 128.71983
#
# Poissons Ratio (x) = 0.03246 0.31511
# Poissons Ratio (y) = 0.21270 0.50372
# Poissons Ratio (z) = 0.45232 0.11034
#
# Static dielectric constant tensor:
#      x y z
#    x 2.150720 0.000000 0.012300 
#    y 0.000000 2.045500 0.000000 
#    z 0.012300 0.000000 1.936870 
# 
# From -- ./inp_files/283410.got.cif
#   From: 2010.05.17/outbox.cif.g08.bks.cpg/sg15_142_cif.got.tgz:283410.got - 2010.06.03 18:47:42.
