data_PCOD9254449
_publ_section_title
;
Structure prediction by ZEFSAII (Michael W. Deem and Ramdas Pophale) SiO2 
 PCOD9254449
Probable space group: C 2/C
;
_chemical_formula_sum "Si O2"
_cell_formula_units_Z 56
_cell_length_a 10.078492
_cell_length_b 11.113764
_cell_length_c 23.837799
_cell_angle_alpha 90.000000
_cell_angle_beta 49.940448
_cell_angle_gamma 90.000000
_cell_volume 2043.608401
_symmetry_space_group_name_H-M "C 2/C"
_symmetry_group_IT_number 15
_symmetry_cell_setting 'monoclinic'
loop_
_space_group_symop_operation_xyz
x,y,z
-x,y,1/2-z
-x,-y,-z
x,-y,1/2+z
1/2+x,1/2+y,z
1/2-x,1/2+y,1/2-z
1/2-x,1/2-y,-z
1/2+x,1/2-y,1/2+z
loop_
_atom_site_type_symbol
_atom_site_label
_atom_site_fract_x
_atom_site_fract_y
_atom_site_fract_z
Si Si1 0.095924 0.929282 0.115420
Si Si2 0.500000 0.592451 0.250000
Si Si3 0.500000 0.101701 0.750000
Si Si4 0.455439 0.242398 0.962368
Si Si5 0.303652 0.265383 0.320384
Si Si6 0.133874 0.505934 0.051806
Si Si7 0.681641 0.978272 0.799833
Si Si8 0.318735 0.631587 0.600920
O O1 0.155756 0.806806 0.127566
O O2 0.924494 0.915555 0.124904
O O3 0.080999 0.021882 0.171975
O O4 0.240916 0.958064 0.030881
O O5 0.675144 0.624915 0.234795
O O6 0.605676 0.014285 0.761281
O O7 0.631569 0.177657 0.675263
O O8 0.613153 0.298695 0.882165
O O9 0.477734 0.102571 0.945280
O O10 0.250000 0.250000 0.000000
O O11 0.442756 0.284496 0.029684
O O12 0.500000 0.224149 0.250000
O O13 0.261800 0.388318 0.295578
O O14 0.253470 0.465245 0.072139
O O15 0.976029 0.576021 0.121490
#
# Coordination Sequence:
#
# PCOD9254449 Si02
#       8
#     8   4   4   8   8   8   8   8
#     4  11  19  33  55  85 111 142 191 243 286 339
#     4  10  18  30  49  78 108 135 182 232 278 322
#     4  10  16  30  55  78 104 141 204 230 268 342
#     4   9  20  36  54  80 114 149 193 232 293 350
#     4  10  18  33  56  82 106 147 193 232 282 342
#     4   9  20  33  55  81 115 145 182 235 298 338
#     4   9  16  30  48  77 104 141 179 233 272 334
#     4  10  19  34  57  83 113 151 193 240 284 353
#
# _framework density 27.402512000000002
#
# number of rings (size 3 to 8) (size 9 to 14) (size 15 to 20)
#    0.000    2.286    4.286    1.286    0.000    5.714 
#    0.000    0.714    0.000    3.429    1.857    0.000 
#    0.000    0.000    0.000    0.000    0.000    0.000 
#
# Total GULP energy -155907.471358 kJ/mol
# GULP energy per Si atom -5568.123977 kJ/mol
# Density = 2.734014 g / cm^3
# Si number density = 27.402512 Si / 1000 Ang^3
#
#
#
# Elastic Constant Matrix: (Units=GPa)
#
#
# Indices 1 2 3 4 5 6 
#
# 1 120.4885 22.3923 52.0917 0.0000 -15.8880 0.0000
# 2 22.3923 41.9693 5.3384 0.0000 3.8074 0.0000
# 3 52.0917 5.3384 186.2092 0.0000 -36.7125 0.0000
# 4 0.0000 0.0000 0.0000 11.4655 0.0000 -6.5326
# 5 -15.8880 3.8074 -36.7125 0.0000 59.6426 0.0000
# 6 0.0000 0.0000 0.0000 -6.5326 0.0000 3.2549
#
#
#
# Elastic Compliance Matrix: (Units=1/GPa)
#
#
# Indices 1 2 3 4 5 6 
#
# 1 0.010613 -0.005496 -0.002487 0.000000 0.001647 0.000000
# 2 -0.005496 0.027021 0.000153 0.000000 -0.003095 0.000000
# 3 -0.002487 0.000153 0.006748 0.000000 0.003482 0.000000
# 4 0.000000 0.000000 0.000000 -0.607758 0.000000 -1.219765
# 5 0.001647 -0.003095 0.003482 0.000000 0.019546 0.000000
# 6 0.000000 0.000000 0.000000 -1.219765 0.000000 -2.140832
#
#
# Mechanical properties :
#
#
# Convention : Reuss Voigt Hill
#
# Bulk Modulus (GPa) = 34.81645 56.47910 45.64777
# Shear Modulus (GPa) = -1.88010 32.79558 15.45774
#
# Velocity S-wave (km/s) = -0.82921 3.46325 2.37765
# Velocity P-wave (km/s) = 3.43749 6.05374 4.92261
#
# Compressibility (1/GPa) = 0.02872205
#
# Stress axis : x y z
#
# Youngs Moduli (GPa) = 94.22209 37.00890 148.19251
#
# Poissons Ratio (x) = 0.20339 0.36851
# Poissons Ratio (y) = 0.51782 -0.02261
# Poissons Ratio (z) = 0.23430 -0.00565
#
# Static dielectric constant tensor:
#      x y z
#    x 2.124770 0.000000 -0.071250 
#    y 0.000000 2.433320 0.000000 
#    z -0.071250 0.000000 2.236690 
# 
# From -- ./inp_files/232625.got.cif
#   From: 2010.05.17/outbox.cif.g08.bks.cpg/sg15_117_cif.got.tgz:232625.got - 2010.06.03 18:47:42.
