data_PCOD9254053
_publ_section_title
;
Structure prediction by ZEFSAII (Michael W. Deem and Ramdas Pophale) SiO2 
 PCOD9254053
Probable space group: C 2/C
;
_chemical_formula_sum "Si O2"
_cell_formula_units_Z 40
_cell_length_a 25.006626
_cell_length_b 7.834130
_cell_length_c 8.296590
_cell_angle_alpha 90.000000
_cell_angle_beta 82.380329
_cell_angle_gamma 90.000000
_cell_volume 1610.993110
_symmetry_space_group_name_H-M "C 2/C"
_symmetry_group_IT_number 15
_symmetry_cell_setting 'monoclinic'
loop_
_space_group_symop_operation_xyz
x,y,z
-x,y,1/2-z
-x,-y,-z
x,-y,1/2+z
1/2+x,1/2+y,z
1/2-x,1/2+y,1/2-z
1/2-x,1/2-y,-z
1/2+x,1/2-y,1/2+z
loop_
_atom_site_type_symbol
_atom_site_label
_atom_site_fract_x
_atom_site_fract_y
_atom_site_fract_z
Si Si1 0.057707 0.747816 0.189094
Si Si2 0.446290 0.622133 0.178467
Si Si3 0.834595 0.785144 0.745187
Si Si4 0.175700 0.350078 0.584568
Si Si5 0.216864 0.999051 0.487557
O O1 0.115247 0.650610 0.177767
O O2 0.000000 0.659044 0.250000
O O3 0.059031 0.917430 0.299777
O O4 0.054687 0.818361 0.006301
O O5 0.500000 0.671599 0.250000
O O6 0.395106 0.709261 0.283213
O O7 0.829435 0.643004 0.609007
O O8 0.826357 0.952348 0.631532
O O9 0.796296 0.833220 0.906813
O O10 0.205331 0.168093 0.603986
O O11 0.222895 0.482432 0.605042
#
# Coordination Sequence:
#
# PCOD9254053 Si02
#       5
#     8   8   8   8   8
#     4  10  17  25  39  59  82 112 138 161 200 246
#     4  10  16  23  35  59  85 111 138 157 191 252
#     4   9  15  27  43  60  83 118 135 166 206 239
#     4   8  17  28  43  59  86 110 142 166 204 245
#     4   9  16  29  44  58  85 111 141 170 203 243
#
# _framework density 24.829404
#
# number of rings (size 3 to 8) (size 9 to 14) (size 15 to 20)
#    1.200    1.600    2.000    2.400    0.000    0.000 
#    0.000    1.000    0.000    0.000    0.000    1.400 
#    0.000    0.000    0.000    8.800    0.000    0.000 
#
# Total GULP energy -111383.096483 kJ/mol
# GULP energy per Si atom -5569.154824 kJ/mol
# Density = 2.477289 g / cm^3
# Si number density = 24.829404 Si / 1000 Ang^3
#
#
#
# Elastic Constant Matrix: (Units=GPa)
#
#
# Indices 1 2 3 4 5 6 
#
# 1 233.6369 18.1619 28.8141 0.0000 -25.2987 0.0000
# 2 18.1619 60.5883 9.9190 0.0000 -3.2004 0.0000
# 3 28.8141 9.9190 50.7906 0.0000 -17.3197 0.0000
# 4 0.0000 0.0000 0.0000 12.2814 0.0000 -10.3996
# 5 -25.2987 -3.2004 -17.3197 0.0000 50.4425 0.0000
# 6 0.0000 0.0000 0.0000 -10.3996 0.0000 -6.2162
#
#
#
# Elastic Compliance Matrix: (Units=1/GPa)
#
#
# Indices 1 2 3 4 5 6 
#
# 1 0.004780 -0.001027 -0.001943 0.000000 0.001665 0.000000
# 2 -0.001027 0.017271 -0.002936 0.000000 -0.000427 0.000000
# 3 -0.001943 -0.002936 0.023749 0.000000 0.006994 0.000000
# 4 0.000000 0.000000 0.000000 0.033693 0.000000 -0.056368
# 5 0.001665 -0.000427 0.006994 0.000000 0.023034 0.000000
# 6 0.000000 0.000000 0.000000 -0.056368 0.000000 -0.066568
#
#
# Mechanical properties :
#
#
# Convention : Reuss Voigt Hill
#
# Bulk Modulus (GPa) = 29.42257 50.97843 40.20050
# Shear Modulus (GPa) = 84.60121 30.50958 57.55540
#
# Velocity S-wave (km/s) = 5.84354 3.50918 4.81982
# Velocity P-wave (km/s) = 7.57660 6.08237 6.87023
#
# Compressibility (1/GPa) = 0.03398751
#
# Stress axis : x y z
#
# Youngs Moduli (GPa) = 209.20862 57.90156 42.10623
#
# Poissons Ratio (x) = 0.05945 0.08183
# Poissons Ratio (y) = 0.21480 0.12363
# Poissons Ratio (z) = 0.40659 0.17000
#
# Static dielectric constant tensor:
#      x y z
#    x 2.020800 0.000000 -0.035270 
#    y 0.000000 2.070020 0.000000 
#    z -0.035270 0.000000 1.995500 
# 
# From -- ./inp_files/64569.got.cif
#   From: 2010.05.17/outbox.cif.g08.bks.cpg/sg15_33_cif.got.tgz:64569.got - 2010.06.03 18:47:42.
