data_PCOD9254175
_publ_section_title
;
Structure prediction by ZEFSAII (Michael W. Deem and Ramdas Pophale) SiO2 
 PCOD9254175
Probable space group: C 2/C
;
_chemical_formula_sum "Si O2"
_cell_formula_units_Z 48
_cell_length_a 7.068668
_cell_length_b 30.913419
_cell_length_c 13.571280
_cell_angle_alpha 90.000000
_cell_angle_beta 137.039326
_cell_angle_gamma 90.000000
_cell_volume 2021.011979
_symmetry_space_group_name_H-M "C 2/C"
_symmetry_group_IT_number 15
_symmetry_cell_setting 'monoclinic'
loop_
_space_group_symop_operation_xyz
x,y,z
-x,y,1/2-z
-x,-y,-z
x,-y,1/2+z
1/2+x,1/2+y,z
1/2-x,1/2+y,1/2-z
1/2-x,1/2-y,-z
1/2+x,1/2-y,1/2+z
loop_
_atom_site_type_symbol
_atom_site_label
_atom_site_fract_x
_atom_site_fract_y
_atom_site_fract_z
Si Si1 0.278861 0.803926 0.284633
Si Si2 0.949008 0.233550 0.488392
Si Si3 0.543268 0.089964 0.116576
Si Si4 0.306405 0.098285 0.817150
Si Si5 0.000000 0.025925 0.250000
Si Si6 0.472560 0.535031 0.573133
Si Si7 0.500000 0.165727 0.250000
O O1 0.482527 0.773100 0.425111
O O2 0.364108 0.853492 0.302622
O O3 0.000000 0.804494 0.250000
O O4 0.200329 0.784500 0.148702
O O5 0.750000 0.250000 0.500000
O O6 0.768742 0.195726 0.369072
O O7 0.561846 0.135464 0.178890
O O8 0.790501 0.056560 0.228975
O O9 0.517285 0.091399 0.987700
O O10 0.253508 0.070221 0.042802
O O11 0.000000 0.100339 0.750000
O O12 0.247065 0.060464 0.715482
O O13 0.145264 0.992948 0.380259
O O14 0.500000 0.500000 0.500000
#
# Coordination Sequence:
#
# PCOD9254175 Si02
#       7
#     8   8   8   8   4   8   4
#     4   9  16  26  46  76 121 149 181 237 311 361
#     4  10  16  27  47  85 125 147 187 247 312 372
#     4  11  23  39  58  87 122 164 203 261 312 370
#     4   9  18  35  56  81 122 157 189 254 312 361
#     4  12  24  42  57  84 124 164 211 260 310 378
#     4  11  22  40  65  87 120 161 207 258 321 375
#     4  12  20  32  59  88 120 156 209 252 318 378
#
# _framework density 23.750478000000001
#
# number of rings (size 3 to 8) (size 9 to 14) (size 15 to 20)
#    0.000    1.667    5.000    5.500    0.000    0.000 
#    0.000    0.000    0.000    0.000    0.000    4.667 
#    0.000    0.000    0.000    0.000    0.000    0.000 
#
# Total GULP energy -134082.993899 kJ/mol
# GULP energy per Si atom -5586.791412 kJ/mol
# Density = 2.369642 g / cm^3
# Si number density = 23.750478 Si / 1000 Ang^3
#
#
#
# Elastic Constant Matrix: (Units=GPa)
#
#
# Indices 1 2 3 4 5 6 
#
# 1 54.5099 26.3243 25.7196 0.0000 -13.7798 0.0000
# 2 26.3243 166.9276 73.4094 0.0000 -26.4413 0.0000
# 3 25.7196 73.4094 120.6720 0.0000 -22.9140 0.0000
# 4 0.0000 0.0000 0.0000 61.8503 0.0000 -22.2780
# 5 -13.7798 -26.4413 -22.9140 0.0000 29.0007 0.0000
# 6 0.0000 0.0000 0.0000 -22.2780 0.0000 13.6600
#
#
#
# Elastic Compliance Matrix: (Units=1/GPa)
#
#
# Indices 1 2 3 4 5 6 
#
# 1 0.021983 -0.001169 -0.002580 0.000000 0.007341 0.000000
# 2 -0.001169 0.008688 -0.004280 0.000000 0.003984 0.000000
# 3 -0.002580 -0.004280 0.012314 0.000000 0.004602 0.000000
# 4 0.000000 0.000000 0.000000 0.039189 0.000000 0.063913
# 5 0.007341 0.003984 0.004602 0.000000 0.045239 0.000000
# 6 0.000000 0.000000 0.000000 0.063913 0.000000 0.177441
#
#
# Mechanical properties :
#
#
# Convention : Reuss Voigt Hill
#
# Bulk Modulus (GPa) = 37.13706 65.89066 51.51386
# Shear Modulus (GPa) = 15.15668 35.34596 25.25132
#
# Velocity S-wave (km/s) = 2.52893 3.86193 3.26420
# Velocity P-wave (km/s) = 4.91911 6.90573 5.99528
#
# Compressibility (1/GPa) = 0.02692728
#
# Stress axis : x y z
#
# Youngs Moduli (GPa) = 45.48966 115.09931 81.20787
#
# Poissons Ratio (x) = 0.13458 0.20953
# Poissons Ratio (y) = 0.05319 0.34753
# Poissons Ratio (z) = 0.11737 0.49257
#
# Static dielectric constant tensor:
#      x y z
#    x 2.009660 0.000000 -0.042210 
#    y 0.000000 1.874010 0.000000 
#    z -0.042210 0.000000 1.946150 
# 
# From -- ./inp_files/139115.got.cif
#   From: 2010.05.17/outbox.cif.g08.bks.cpg/sg15_70_cif.got.tgz:139115.got - 2010.06.03 18:47:42.
