data_PCOD9254584
_publ_section_title
;
Structure prediction by ZEFSAII (Michael W. Deem and Ramdas Pophale) SiO2 
 PCOD9254584
Probable space group: C 2/C
;
_chemical_formula_sum "Si O2"
_cell_formula_units_Z 40
_cell_length_a 13.512832
_cell_length_b 7.018026
_cell_length_c 17.270788
_cell_angle_alpha 90.000000
_cell_angle_beta 101.001706
_cell_angle_gamma 90.000000
_cell_volume 1607.746475
_symmetry_space_group_name_H-M "C 2/C"
_symmetry_group_IT_number 15
_symmetry_cell_setting 'monoclinic'
loop_
_space_group_symop_operation_xyz
x,y,z
-x,y,1/2-z
-x,-y,-z
x,-y,1/2+z
1/2+x,1/2+y,z
1/2-x,1/2+y,1/2-z
1/2-x,1/2-y,-z
1/2+x,1/2-y,1/2+z
loop_
_atom_site_type_symbol
_atom_site_label
_atom_site_fract_x
_atom_site_fract_y
_atom_site_fract_z
Si Si1 0.750000 0.750000 0.000000
Si Si2 0.824806 0.804873 0.690013
Si Si3 0.956487 0.747543 0.570358
Si Si4 0.986703 0.200083 0.582333
Si Si5 0.663404 0.906454 0.147389
Si Si6 0.500000 0.385348 0.250000
O O1 0.627727 0.750069 0.959096
O O2 0.779775 0.709248 0.912519
O O3 0.864818 0.717558 0.615199
O O4 0.821268 0.673355 0.763906
O O5 0.716977 0.891346 0.656545
O O6 0.903478 0.975146 0.724026
O O7 0.942192 0.727370 0.476722
O O8 0.046200 0.615905 0.611988
O O9 0.991847 0.967534 0.583416
O O10 0.008207 0.241439 0.674756
#
# Coordination Sequence:
#
# PCOD9254584 Si02
#       6
#     4   8   8   8   8   4
#     4  10  18  30  56  94 120 156 218 246 304 390
#     4  11  20  34  58  88 121 162 207 252 310 369
#     4   9  17  32  53  83 119 155 199 249 302 361
#     4   9  16  28  52  86 116 153 198 252 298 358
#     4  11  20  33  59  89 124 162 210 256 311 371
#     4  10  16  32  52  82 118 150 196 246 298 352
#
# _framework density 24.879545
#
# number of rings (size 3 to 8) (size 9 to 14) (size 15 to 20)
#    0.000    2.000    8.000    0.000    0.000    0.000 
#    0.000    0.000    4.400    4.800    0.000    9.800 
#    0.000    0.000    0.000    0.000    0.000    0.000 
#
# Total GULP energy -111399.379639 kJ/mol
# GULP energy per Si atom -5569.968982 kJ/mol
# Density = 2.482292 g / cm^3
# Si number density = 24.879545 Si / 1000 Ang^3
#
#
#
# Elastic Constant Matrix: (Units=GPa)
#
#
# Indices 1 2 3 4 5 6 
#
# 1 79.5440 40.4378 91.8850 0.0000 -13.7655 0.0000
# 2 40.4378 56.5058 41.5355 0.0000 -9.6123 0.0000
# 3 91.8850 41.5355 257.4479 0.0000 -38.6816 0.0000
# 4 0.0000 0.0000 0.0000 23.1757 0.0000 1.3550
# 5 -13.7655 -9.6123 -38.6816 0.0000 60.8737 0.0000
# 6 0.0000 0.0000 0.0000 1.3550 0.0000 26.2723
#
#
#
# Elastic Compliance Matrix: (Units=1/GPa)
#
#
# Indices 1 2 3 4 5 6 
#
# 1 0.029833 -0.015408 -0.008307 0.000000 -0.000965 0.000000
# 2 -0.015408 0.028120 0.001223 0.000000 0.001733 0.000000
# 3 -0.008307 0.001223 0.007074 0.000000 0.002810 0.000000
# 4 0.000000 0.000000 0.000000 0.043279 0.000000 -0.002232
# 5 -0.000965 0.001733 0.002810 0.000000 0.018268 0.000000
# 6 0.000000 0.000000 0.000000 -0.002232 0.000000 0.038178
#
#
# Mechanical properties :
#
#
# Convention : Reuss Voigt Hill
#
# Bulk Modulus (GPa) = 49.89263 82.35717 66.12490
# Shear Modulus (GPa) = 23.10349 36.70695 29.90522
#
# Velocity S-wave (km/s) = 3.05062 3.84524 3.47075
# Velocity P-wave (km/s) = 5.70137 7.27247 6.53431
#
# Compressibility (1/GPa) = 0.02004304
#
# Stress axis : x y z
#
# Youngs Moduli (GPa) = 33.51960 35.56212 141.36412
#
# Poissons Ratio (x) = 0.54794 1.17430
# Poissons Ratio (y) = 0.51647 -0.17287
# Poissons Ratio (z) = 0.27844 -0.04349
#
# Static dielectric constant tensor:
#      x y z
#    x 1.938940 0.000000 -0.044390 
#    y 0.000000 1.994970 0.000000 
#    z -0.044390 0.000000 1.985130 
# 
# From -- ./inp_files/195253.got.cif
#   From: 2010.05.17/outbox.cif.g08.bks.cpg/sg15_98_cif.got.tgz:195253.got - 2010.06.03 18:47:42.
