data_PCOD9254655
_publ_section_title
;
Structure prediction by ZEFSAII (Michael W. Deem and Ramdas Pophale) SiO2 
 PCOD9254655
Probable space group: C 2/C
;
_chemical_formula_sum "Si O2"
_cell_formula_units_Z 40
_cell_length_a 26.005665
_cell_length_b 11.196843
_cell_length_c 5.406114
_cell_angle_alpha 90.000000
_cell_angle_beta 79.280491
_cell_angle_gamma 90.000000
_cell_volume 1546.689724
_symmetry_space_group_name_H-M "C 2/C"
_symmetry_group_IT_number 15
_symmetry_cell_setting 'monoclinic'
loop_
_space_group_symop_operation_xyz
x,y,z
-x,y,1/2-z
-x,-y,-z
x,-y,1/2+z
1/2+x,1/2+y,z
1/2-x,1/2+y,1/2-z
1/2-x,1/2-y,-z
1/2+x,1/2-y,1/2+z
loop_
_atom_site_type_symbol
_atom_site_label
_atom_site_fract_x
_atom_site_fract_y
_atom_site_fract_z
Si Si1 0.929307 0.073218 0.600119
Si Si2 0.693634 0.856792 0.301401
Si Si3 0.194423 0.074539 0.823185
Si Si4 0.969137 0.340269 0.528863
Si Si5 0.149935 0.625484 0.340742
O O1 0.867152 0.100558 0.644314
O O2 0.958774 0.197955 0.547294
O O3 0.940303 0.989474 0.353271
O O4 0.755373 0.839813 0.258225
O O5 0.663687 0.812165 0.569789
O O6 0.680353 0.998976 0.303974
O O7 0.669123 0.808859 0.070775
O O8 0.202603 0.980712 0.589184
O O9 0.911556 0.397832 0.582615
O O10 0.000000 0.372116 0.750000
O O11 0.000000 0.366486 0.250000
#
# Coordination Sequence:
#
# PCOD9254655 Si02
#       5
#     8   8   8   8   8
#     4  10  23  40  65  89 115 150 207 243 298 364
#     4  10  17  35  60  87 122 159 189 223 296 360
#     4  10  16  32  59  89 119 152 182 239 288 353
#     4  12  26  44  60  83 122 158 202 261 296 322
#     4  10  20  35  59  88 118 160 194 237 287 354
#
# _framework density 25.861681999999998
#
# number of rings (size 3 to 8) (size 9 to 14) (size 15 to 20)
#    0.000    1.600    4.000    2.400    0.000    2.400 
#    0.000   14.000    0.000    0.000    0.000    0.000 
#    0.000    0.000    0.000    0.000    0.000    0.000 
#
# Total GULP energy -112104.443535 kJ/mol
# GULP energy per Si atom -5605.222177 kJ/mol
# Density = 2.580282 g / cm^3
# Si number density = 25.861682 Si / 1000 Ang^3
#
#
#
# Elastic Constant Matrix: (Units=GPa)
#
#
# Indices 1 2 3 4 5 6 
#
# 1 157.7373 9.1161 78.7327 0.0000 -38.9067 0.0000
# 2 9.1161 88.7113 33.4762 0.0000 -4.1059 0.0000
# 3 78.7327 33.4762 237.2598 0.0000 -9.0603 0.0000
# 4 0.0000 0.0000 0.0000 164.4863 0.0000 28.9168
# 5 -38.9067 -4.1059 -9.0603 0.0000 40.8101 0.0000
# 6 0.0000 0.0000 0.0000 28.9168 0.0000 33.7829
#
#
#
# Elastic Compliance Matrix: (Units=1/GPa)
#
#
# Indices 1 2 3 4 5 6 
#
# 1 0.010048 0.000540 -0.003069 0.000000 0.008953 0.000000
# 2 0.000540 0.011964 -0.001817 0.000000 0.001315 0.000000
# 3 -0.003069 -0.001817 0.005417 0.000000 -0.001906 0.000000
# 4 0.000000 0.000000 0.000000 0.007156 0.000000 -0.006126
# 5 0.008953 0.001315 -0.001906 0.000000 0.032748 0.000000
# 6 0.000000 0.000000 0.000000 -0.006126 0.000000 0.034844
#
#
# Mechanical properties :
#
#
# Convention : Reuss Voigt Hill
#
# Bulk Modulus (GPa) = 53.37049 80.70649 67.03849
# Shear Modulus (GPa) = 42.69318 71.97476 57.33397
#
# Velocity S-wave (km/s) = 4.06745 5.28120 4.71355
# Velocity P-wave (km/s) = 6.53762 8.27423 7.45665
#
# Compressibility (1/GPa) = 0.01873695
#
# Stress axis : x y z
#
# Youngs Moduli (GPa) = 99.51779 83.58728 184.61366
#
# Poissons Ratio (x) = -0.04512 0.56654
# Poissons Ratio (y) = -0.05372 0.33543
# Poissons Ratio (z) = 0.30540 0.15187
#
# Static dielectric constant tensor:
#      x y z
#    x 1.952740 0.000000 0.034530 
#    y 0.000000 2.164710 0.000000 
#    z 0.034530 0.000000 2.026450 
# 
# From -- ./inp_files/15005.got.cif
#   From: 2010.05.17/outbox.cif.g08.bks.cpg/sg15_8_cif.got.tgz:15005.got - 2010.06.03 18:47:42.
