data_PCOD9254564
_publ_section_title
;
Structure prediction by ZEFSAII (Michael W. Deem and Ramdas Pophale) SiO2 
 PCOD9254564
Probable space group: C 2/C
;
_chemical_formula_sum "Si O2"
_cell_formula_units_Z 44
_cell_length_a 13.223905
_cell_length_b 17.463502
_cell_length_c 17.578580
_cell_angle_alpha 90.000000
_cell_angle_beta 153.099048
_cell_angle_gamma 90.000000
_cell_volume 1836.728594
_symmetry_space_group_name_H-M "C 2/C"
_symmetry_group_IT_number 15
_symmetry_cell_setting 'monoclinic'
loop_
_space_group_symop_operation_xyz
x,y,z
-x,y,1/2-z
-x,-y,-z
x,-y,1/2+z
1/2+x,1/2+y,z
1/2-x,1/2+y,1/2-z
1/2-x,1/2-y,-z
1/2+x,1/2-y,1/2+z
loop_
_atom_site_type_symbol
_atom_site_label
_atom_site_fract_x
_atom_site_fract_y
_atom_site_fract_z
Si Si1 0.269291 0.790268 0.683123
Si Si2 0.907044 0.430415 0.600645
Si Si3 0.648183 0.242160 0.016455
Si Si4 0.962591 0.863521 0.345711
Si Si5 0.000000 0.643337 0.750000
Si Si6 0.009997 0.420785 0.415722
O O1 0.463029 0.851008 0.829011
O O2 0.368543 0.706819 0.733605
O O3 0.096793 0.776239 0.635953
O O4 0.113957 0.822485 0.511975
O O5 0.641914 0.418517 0.427349
O O6 0.000000 0.448198 0.750000
O O7 0.952122 0.488301 0.560425
O O8 0.639844 0.153450 0.037476
O O9 0.750000 0.250000 0.000000
O O10 0.815139 0.303098 0.165715
O O11 0.749004 0.906699 0.237547
O O12 0.921896 0.592929 0.627577
#
# Coordination Sequence:
#
# PCOD9254564 Si02
#       6
#     8   8   8   8   4   8
#     4  10  20  37  57  84 112 149 195 233 279 340
#     4  10  21  34  56  85 114 143 186 244 287 326
#     4   9  19  31  52  77 108 150 181 229 278 344
#     4  10  21  37  60  85 113 155 192 233 281 345
#     4  10  16  32  50  76 108 144 184 228 280 340
#     4  10  19  32  53  83 112 138 189 239 287 322
#
# _framework density 23.955635000000001
#
# number of rings (size 3 to 8) (size 9 to 14) (size 15 to 20)
#    0.000    2.182    2.727    0.545    0.000    5.818 
#    0.000    0.000    4.000    2.182    0.000    0.000 
#    0.000    0.000    0.000    0.000    0.000    0.000 
#
# Total GULP energy -122594.813161 kJ/mol
# GULP energy per Si atom -5572.491507 kJ/mol
# Density = 2.390111 g / cm^3
# Si number density = 23.955635 Si / 1000 Ang^3
#
#
#
# Elastic Constant Matrix: (Units=GPa)
#
#
# Indices 1 2 3 4 5 6 
#
# 1 77.3898 20.0223 36.9995 0.0010 27.9867 0.0000
# 2 20.0223 105.5703 31.9521 0.0240 33.0322 -0.0084
# 3 36.9995 31.9521 87.2677 0.0337 40.4295 -0.0206
# 4 0.0010 0.0240 0.0337 23.1404 -0.0047 12.0035
# 5 27.9867 33.0322 40.4295 -0.0047 48.0557 -0.0013
# 6 0.0000 -0.0084 -0.0206 12.0035 -0.0013 40.4996
#
#
#
# Elastic Compliance Matrix: (Units=1/GPa)
#
#
# Indices 1 2 3 4 5 6 
#
# 1 0.017334 0.000056 -0.004384 0.000007 -0.006445 -0.000004
# 2 0.000056 0.012116 -0.000961 -0.000016 -0.007552 0.000007
# 3 -0.004384 -0.000961 0.019960 -0.000042 -0.013579 0.000022
# 4 0.000007 -0.000016 -0.000042 0.051066 0.000047 -0.015135
# 5 -0.006445 -0.007552 -0.013579 0.000047 0.041178 -0.000021
# 6 -0.000004 0.000007 0.000022 -0.015135 -0.000021 0.029177
#
#
# Mechanical properties :
#
#
# Convention : Reuss Voigt Hill
#
# Bulk Modulus (GPa) = 25.75155 49.79728 37.77442
# Shear Modulus (GPa) = 25.72645 34.42274 30.07459
#
# Velocity S-wave (km/s) = 3.28063 3.79481 3.54705
# Velocity P-wave (km/s) = 5.01229 6.32718 5.70772
#
# Compressibility (1/GPa) = 0.03883261
#
# Stress axis : x y z
#
# Youngs Moduli (GPa) = 57.69096 82.53830 50.09897
#
# Poissons Ratio (x) = -0.00462 0.21961
# Poissons Ratio (y) = -0.00323 0.04814
# Poissons Ratio (z) = 0.25289 0.07932
#
# Static dielectric constant tensor:
#      x y z
#    x 2.007890 0.000000 -0.124310 
#    y 0.000000 2.050680 -0.000010 
#    z -0.124310 -0.000010 2.014630 
# 
# From -- ./inp_files/48895.got.cif
#   From: 2010.05.17/outbox.cif.g08.bks.cpg/sg15_25_cif.got.tgz:48895.got - 2010.06.03 18:47:42.
