data_PCOD9254440
_publ_section_title
;
Structure prediction by ZEFSAII (Michael W. Deem and Ramdas Pophale) SiO2 
 PCOD9254440
Probable space group: C 2/C
;
_chemical_formula_sum "Si O2"
_cell_formula_units_Z 64
_cell_length_a 9.635358
_cell_length_b 20.466363
_cell_length_c 20.600569
_cell_angle_alpha 90.000000
_cell_angle_beta 120.168641
_cell_angle_gamma 90.000000
_cell_volume 3512.188781
_symmetry_space_group_name_H-M "C 2/C"
_symmetry_group_IT_number 15
_symmetry_cell_setting 'monoclinic'
loop_
_space_group_symop_operation_xyz
x,y,z
-x,y,1/2-z
-x,-y,-z
x,-y,1/2+z
1/2+x,1/2+y,z
1/2-x,1/2+y,1/2-z
1/2-x,1/2-y,-z
1/2+x,1/2-y,1/2+z
loop_
_atom_site_type_symbol
_atom_site_label
_atom_site_fract_x
_atom_site_fract_y
_atom_site_fract_z
Si Si1 0.096244 0.233903 0.529232
Si Si2 0.688334 0.649764 0.440400
Si Si3 0.859168 0.306729 0.270152
Si Si4 0.099389 0.154155 0.208417
Si Si5 0.001904 0.773223 0.148955
Si Si6 0.006332 0.428975 0.533216
Si Si7 0.844030 0.328753 0.404566
Si Si8 0.451369 0.881534 0.811640
O O1 0.244775 0.283298 0.578237
O O2 0.170082 0.171802 0.510438
O O3 0.997975 0.222017 0.570514
O O4 0.973019 0.272470 0.453714
O O5 0.513989 0.629782 0.375301
O O6 0.822835 0.599543 0.451069
O O7 0.869988 0.230895 0.294956
O O8 0.671695 0.308737 0.204797
O O9 0.883819 0.349616 0.340382
O O10 0.000000 0.317655 0.250000
O O11 0.260480 0.116707 0.260791
O O12 0.000000 0.149761 0.250000
O O13 0.005874 0.696045 0.168901
O O14 0.839129 0.803812 0.138283
O O15 0.874983 0.383654 0.466036
O O16 0.000000 0.500000 0.500000
O O17 0.996158 0.418527 0.609354
O O18 0.500000 0.902525 0.750000
#
# Coordination Sequence:
#
# PCOD9254440 Si02
#       8
#     8   8   8   8   8   8   8   8
#     4  10  19  29  55  91 123 148 187 239 307 365
#     4  10  18  33  57  87 114 154 201 241 289 354
#     4  10  20  31  54  89 126 155 184 235 305 380
#     4  10  16  30  54  88 122 143 184 240 298 354
#     4  11  20  34  55  97 132 147 183 240 328 378
#     4  11  25  43  61  80 117 172 214 246 294 350
#     4  11  21  36  58  86 124 157 189 245 310 367
#     4  11  22  35  61  95 120 147 191 253 310 361
#
# _framework density 18.222256000000002
#
# number of rings (size 3 to 8) (size 9 to 14) (size 15 to 20)
#    0.000    1.500    5.000    3.750    3.500    0.000 
#    0.000    0.625    5.500    1.500    0.000    0.000 
#    0.000    0.000    0.000    0.000    0.000    0.000 
#
# Total GULP energy -178203.832046 kJ/mol
# GULP energy per Si atom -5568.869751 kJ/mol
# Density = 1.818078 g / cm^3
# Si number density = 18.222256 Si / 1000 Ang^3
#
#
#
# Elastic Constant Matrix: (Units=GPa)
#
#
# Indices 1 2 3 4 5 6 
#
# 1 85.4803 24.4542 46.5933 0.0000 -4.7904 0.0000
# 2 24.4542 40.7736 39.9892 0.0000 -8.5780 0.0000
# 3 46.5933 39.9892 114.2360 0.0000 -6.2881 0.0000
# 4 0.0000 0.0000 0.0000 9.3152 0.0000 -0.6645
# 5 -4.7904 -8.5780 -6.2881 0.0000 46.4138 0.0000
# 6 0.0000 0.0000 0.0000 -0.6645 0.0000 11.8453
#
#
#
# Elastic Compliance Matrix: (Units=1/GPa)
#
#
# Indices 1 2 3 4 5 6 
#
# 1 0.015626 -0.004729 -0.004712 0.000000 0.000100 0.000000
# 2 -0.004729 0.040052 -0.011799 0.000000 0.005316 0.000000
# 3 -0.004712 -0.011799 0.014770 0.000000 -0.000666 0.000000
# 4 0.000000 0.000000 0.000000 0.107782 0.000000 0.006046
# 5 0.000100 0.005316 -0.000666 0.000000 0.022448 0.000000
# 6 0.000000 0.000000 0.000000 0.006046 0.000000 0.084761
#
#
# Mechanical properties :
#
#
# Convention : Reuss Voigt Hill
#
# Bulk Modulus (GPa) = 35.75671 51.39595 43.57633
# Shear Modulus (GPa) = 14.82616 22.14508 18.48562
#
# Velocity S-wave (km/s) = 2.85551 3.48986 3.18850
# Velocity P-wave (km/s) = 5.52604 6.67122 6.12545
#
# Compressibility (1/GPa) = 0.02796678
#
# Stress axis : x y z
#
# Youngs Moduli (GPa) = 63.99750 24.96726 67.70654
#
# Poissons Ratio (x) = 0.11806 0.31906
# Poissons Ratio (y) = 0.30263 0.79889
# Poissons Ratio (z) = 0.30158 0.29460
#
# Static dielectric constant tensor:
#      x y z
#    x 1.642920 0.000000 -0.014340 
#    y 0.000000 1.621800 0.000000 
#    z -0.014340 0.000000 1.702490 
# 
# From -- ./inp_files/233879.got.cif
#   From: 2010.05.17/outbox.cif.g08.bks.cpg/sg15_117_cif.got.tgz:233879.got - 2010.06.03 18:47:42.
