data_PCOD9254347
_publ_section_title
;
Structure prediction by ZEFSAII (Michael W. Deem and Ramdas Pophale) SiO2 
 PCOD9254347
Probable space group: C 2/C
;
_chemical_formula_sum "Si O2"
_cell_formula_units_Z 40
_cell_length_a 14.868788
_cell_length_b 21.876828
_cell_length_c 5.217078
_cell_angle_alpha 90.000000
_cell_angle_beta 93.190777
_cell_angle_gamma 90.000000
_cell_volume 1694.390307
_symmetry_space_group_name_H-M "C 2/C"
_symmetry_group_IT_number 15
_symmetry_cell_setting 'monoclinic'
loop_
_space_group_symop_operation_xyz
x,y,z
-x,y,1/2-z
-x,-y,-z
x,-y,1/2+z
1/2+x,1/2+y,z
1/2-x,1/2+y,1/2-z
1/2-x,1/2-y,-z
1/2+x,1/2-y,1/2+z
loop_
_atom_site_type_symbol
_atom_site_label
_atom_site_fract_x
_atom_site_fract_y
_atom_site_fract_z
Si Si1 0.605523 0.525782 0.523795
Si Si2 0.052225 0.846477 0.999865
Si Si3 0.181226 0.324680 0.741056
Si Si4 0.608037 0.040673 0.270583
Si Si5 0.851176 0.743370 0.781957
O O1 0.500000 0.500000 0.500000
O O2 0.647828 0.488486 0.760075
O O3 0.615221 0.597142 0.586428
O O4 0.084480 0.784322 0.882413
O O5 0.000000 0.876269 0.750000
O O6 0.000000 0.833487 0.250000
O O7 0.161514 0.395609 0.768327
O O8 0.177170 0.306281 0.438410
O O9 0.277598 0.296073 0.837477
O O10 0.120734 0.288952 0.948465
O O11 0.500000 0.055583 0.250000
O O12 0.626068 0.001804 0.528268
#
# Coordination Sequence:
#
# PCOD9254347 Si02
#       5
#     8   8   8   8   8
#     4  10  16  30  47  65  98 151 175 215 281 310
#     4  12  21  33  53  81 114 142 201 246 273 339
#     4  10  21  43  61  80 124 154 198 238 301 367
#     4  10  21  38  65  95 120 151 192 255 321 370
#     4  10  23  38  59  85 114 169 193 240 295 348
#
# _framework density 23.607309000000001
#
# number of rings (size 3 to 8) (size 9 to 14) (size 15 to 20)
#    0.000    1.600    4.000    2.400    0.000    2.400 
#    0.000    2.000    0.000    0.000    0.000    0.000 
#    0.000    0.000    0.000    0.000    0.000    0.000 
#
# Total GULP energy -111470.381154 kJ/mol
# GULP energy per Si atom -5573.519058 kJ/mol
# Density = 2.355358 g / cm^3
# Si number density = 23.607309 Si / 1000 Ang^3
#
#
#
# Elastic Constant Matrix: (Units=GPa)
#
#
# Indices 1 2 3 4 5 6 
#
# 1 22.7898 46.8619 31.1959 0.0000 -4.6671 0.0000
# 2 46.8619 172.6925 58.3516 0.0000 -13.8454 0.0000
# 3 31.1959 58.3516 163.4075 0.0000 -22.0562 0.0000
# 4 0.0000 0.0000 0.0000 40.1812 0.0000 -8.2060
# 5 -4.6671 -13.8454 -22.0562 0.0000 14.6622 0.0000
# 6 0.0000 0.0000 0.0000 -8.2060 0.0000 20.6018
#
#
#
# Elastic Compliance Matrix: (Units=1/GPa)
#
#
# Indices 1 2 3 4 5 6 
#
# 1 0.119724 -0.028553 -0.013998 0.000000 -0.009910 0.000000
# 2 -0.028553 0.013530 0.001402 0.000000 0.005796 0.000000
# 3 -0.013998 0.001402 0.009873 0.000000 0.011721 0.000000
# 4 0.000000 0.000000 0.000000 0.027091 0.000000 0.010791
# 5 -0.009910 0.005796 0.011721 0.000000 0.088153 0.000000
# 6 0.000000 0.000000 0.000000 0.010791 0.000000 0.052838
#
#
# Mechanical properties :
#
#
# Convention : Reuss Voigt Hill
#
# Bulk Modulus (GPa) = 16.43950 70.18984 43.31467
# Shear Modulus (GPa) = 12.08365 29.92105 21.00235
#
# Velocity S-wave (km/s) = 2.26489 3.56399 2.98594
# Velocity P-wave (km/s) = 3.71732 6.83614 5.50233
#
# Compressibility (1/GPa) = 0.06082909
#
# Stress axis : x y z
#
# Youngs Moduli (GPa) = 8.35258 73.91096 101.28296
#
# Poissons Ratio (x) = 2.11038 1.41773
# Poissons Ratio (y) = 0.23849 -0.14200
# Poissons Ratio (z) = 0.11692 -0.10362
#
# Static dielectric constant tensor:
#      x y z
#    x 2.185760 0.000000 0.002300 
#    y 0.000000 1.841620 0.000000 
#    z 0.002300 0.000000 2.018760 
# 
# From -- ./inp_files/9802.got.cif
#   From: 2010.05.17/outbox.cif.g08.bks.cpg/sg15_5_cif.got.tgz:9802.got - 2010.06.03 18:47:42.
