data_PCOD9254037
_publ_section_title
;
Structure prediction by ZEFSAII (Michael W. Deem and Ramdas Pophale) SiO2 
 PCOD9254037
Probable space group: C 2/C
;
_chemical_formula_sum "Si O2"
_cell_formula_units_Z 56
_cell_length_a 10.737928
_cell_length_b 35.086324
_cell_length_c 9.621808
_cell_angle_alpha 90.000000
_cell_angle_beta 142.200652
_cell_angle_gamma 90.000000
_cell_volume 2221.791453
_symmetry_space_group_name_H-M "C 2/C"
_symmetry_group_IT_number 15
_symmetry_cell_setting 'monoclinic'
loop_
_space_group_symop_operation_xyz
x,y,z
-x,y,1/2-z
-x,-y,-z
x,-y,1/2+z
1/2+x,1/2+y,z
1/2-x,1/2+y,1/2-z
1/2-x,1/2-y,-z
1/2+x,1/2-y,1/2+z
loop_
_atom_site_type_symbol
_atom_site_label
_atom_site_fract_x
_atom_site_fract_y
_atom_site_fract_z
Si Si1 0.259698 0.582355 0.211052
Si Si2 0.753603 0.368863 0.309356
Si Si3 0.851797 0.983651 0.986711
Si Si4 0.766539 0.849579 0.899323
Si Si5 0.229466 0.299799 0.366918
Si Si6 0.746273 0.567201 0.600913
Si Si7 0.703657 0.715048 0.266450
O O1 0.229578 0.550599 0.306130
O O2 0.191323 0.621854 0.215248
O O3 0.502682 0.576690 0.396776
O O4 0.178966 0.581222 0.983188
O O5 0.812755 0.358764 0.518024
O O6 0.826815 0.338297 0.260309
O O7 0.508018 0.360981 0.106248
O O8 0.804387 0.410930 0.294595
O O9 0.000000 0.974205 0.250000
O O10 0.721635 0.021922 0.890279
O O11 0.000000 0.000000 0.000000
O O12 0.725370 0.807005 0.807955
O O13 0.177525 0.294664 0.484906
O O14 0.476049 0.300163 0.585775
O O15 0.189016 0.260623 0.247565
#
# Coordination Sequence:
#
# PCOD9254037 Si02
#       7
#     8   8   8   8   8   8   8
#     4   9  16  22  33  45  69  99 134 172 205 246
#     4   9  17  25  38  54  76 101 135 172 210 248
#     4  10  16  22  30  46  68 100 137 174 209 246
#     4   9  17  25  37  56  74 102 134 174 207 251
#     4   9  17  30  46  63  83 111 138 178 210 262
#     4   9  15  24  31  46  68 100 134 170 206 247
#     4   9  17  30  46  63  84 108 143 172 217 254
#
# _framework density 25.204888
#
# number of rings (size 3 to 8) (size 9 to 14) (size 15 to 20)
#    0.000    2.857    2.857    0.857    6.000    4.000 
#    0.000    0.000    0.000    0.000    0.000    0.000 
#    0.000    0.000    0.000    1.286    0.000   12.286 
#
# Total GULP energy -156202.592714 kJ/mol
# GULP energy per Si atom -5578.664026 kJ/mol
# Density = 2.514752 g / cm^3
# Si number density = 25.204888 Si / 1000 Ang^3
#
#
#
# Elastic Constant Matrix: (Units=GPa)
#
#
# Indices 1 2 3 4 5 6 
#
# 1 75.3211 19.7847 23.4882 0.0000 -18.2764 0.0000
# 2 19.7847 113.1810 62.0088 0.0000 -24.7636 0.0000
# 3 23.4882 62.0088 165.2232 0.0000 -20.5489 0.0000
# 4 0.0000 0.0000 0.0000 66.8399 0.0000 -7.4824
# 5 -18.2764 -24.7636 -20.5489 0.0000 45.7309 0.0000
# 6 0.0000 0.0000 0.0000 -7.4824 0.0000 18.3728
#
#
#
# Elastic Compliance Matrix: (Units=1/GPa)
#
#
# Indices 1 2 3 4 5 6 
#
# 1 0.015099 -0.000890 -0.001188 0.000000 0.005018 0.000000
# 2 -0.000890 0.012075 -0.003852 0.000000 0.004452 0.000000
# 3 -0.001188 -0.003852 0.007783 0.000000 0.000937 0.000000
# 4 0.000000 0.000000 0.000000 0.015676 0.000000 0.006384
# 5 0.005018 0.004452 0.000937 0.000000 0.026704 0.000000
# 6 0.000000 0.000000 0.000000 0.006384 0.000000 0.057028
#
#
# Mechanical properties :
#
#
# Convention : Reuss Voigt Hill
#
# Bulk Modulus (GPa) = 43.29579 62.69877 52.99728
# Shear Modulus (GPa) = 32.48333 42.75162 37.61748
#
# Velocity S-wave (km/s) = 3.59384 4.12292 3.86744
# Velocity P-wave (km/s) = 5.86820 6.89886 6.40430
#
# Compressibility (1/GPa) = 0.02309694
#
# Stress axis : x y z
#
# Youngs Moduli (GPa) = 66.23173 82.81283 128.47905
#
# Poissons Ratio (x) = 0.07374 0.15265
# Poissons Ratio (y) = 0.05897 0.49485
# Poissons Ratio (z) = 0.07869 0.31896
#
# Static dielectric constant tensor:
#      x y z
#    x 2.076740 0.000000 0.168440 
#    y 0.000000 2.012580 0.000000 
#    z 0.168440 0.000000 2.090820 
# 
# From -- ./inp_files/44325.got.cif
#   From: 2010.05.17/outbox.cif.g08.bks.cpg/sg15_23_cif.got.tgz:44325.got - 2010.06.03 18:47:42.
