data_PCOD9254492
_publ_section_title
;
Structure prediction by ZEFSAII (Michael W. Deem and Ramdas Pophale) SiO2 
 PCOD9254492
Probable space group: C 2/C
;
_chemical_formula_sum "Si O2"
_cell_formula_units_Z 56
_cell_length_a 6.924329
_cell_length_b 16.944375
_cell_length_c 18.792240
_cell_angle_alpha 90.000000
_cell_angle_beta 80.560058
_cell_angle_gamma 90.000000
_cell_volume 2175.005837
_symmetry_space_group_name_H-M "C 2/C"
_symmetry_group_IT_number 15
_symmetry_cell_setting 'monoclinic'
loop_
_space_group_symop_operation_xyz
x,y,z
-x,y,1/2-z
-x,-y,-z
x,-y,1/2+z
1/2+x,1/2+y,z
1/2-x,1/2+y,1/2-z
1/2-x,1/2-y,-z
1/2+x,1/2-y,1/2+z
loop_
_atom_site_type_symbol
_atom_site_label
_atom_site_fract_x
_atom_site_fract_y
_atom_site_fract_z
Si Si1 0.355611 0.160331 0.653458
Si Si2 0.775943 0.083371 0.236262
Si Si3 0.417700 0.335383 0.594418
Si Si4 0.639016 0.822311 0.876085
Si Si5 0.406488 0.645364 0.565246
Si Si6 0.499821 0.908294 0.014214
Si Si7 0.749573 0.905773 0.205979
O O1 0.356535 0.247140 0.620690
O O2 0.340436 0.106933 0.584811
O O3 0.210837 0.148404 0.727765
O O4 0.561122 0.133802 0.678379
O O5 0.791068 0.109714 0.153492
O O6 0.651864 0.139976 0.296603
O O7 0.000000 0.086956 0.250000
O O8 0.713698 0.992295 0.240412
O O9 0.642131 0.339281 0.608417
O O10 0.439389 0.351034 0.508893
O O11 0.603147 0.729873 0.893648
O O12 0.491010 0.864350 0.939592
O O13 0.202479 0.624690 0.536628
O O14 0.406506 0.586682 0.632776
O O15 0.500000 0.000000 0.000000
#
# Coordination Sequence:
#
# PCOD9254492 Si02
#       7
#     8   8   8   8   8   8   8
#     4  10  18  32  54  78 105 128 179 209 259 301
#     4  10  22  32  49  78 111 132 169 213 269 299
#     4  10  17  31  53  78  97 129 174 219 245 298
#     4  10  16  31  48  74 103 128 173 217 249 297
#     4  10  18  32  53  74 104 133 175 213 257 303
#     4  10  17  26  47  80 109 129 159 217 262 295
#     4  10  20  31  49  81 105 136 162 223 262 302
#
# _framework density 25.747057999999999
#
# number of rings (size 3 to 8) (size 9 to 14) (size 15 to 20)
#    0.000    2.000    4.286    2.571    4.000    0.571 
#    0.000    0.000    0.000    0.000   29.714    5.000 
#    0.000    0.000    0.000    0.000    0.000    0.000 
#
# Total GULP energy -156439.327253 kJ/mol
# GULP energy per Si atom -5587.118830 kJ/mol
# Density = 2.568846 g / cm^3
# Si number density = 25.747058 Si / 1000 Ang^3
#
#
#
# Elastic Constant Matrix: (Units=GPa)
#
#
# Indices 1 2 3 4 5 6 
#
# 1 113.9538 -4.9482 53.7035 0.0000 -3.3820 0.0000
# 2 -4.9482 94.9257 56.3623 0.0000 1.7332 0.0000
# 3 53.7035 56.3623 260.5156 0.0000 -11.8663 0.0000
# 4 0.0000 0.0000 0.0000 85.5935 0.0000 -51.2823
# 5 -3.3820 1.7332 -11.8663 0.0000 49.3963 0.0000
# 6 0.0000 0.0000 0.0000 -51.2823 0.0000 47.9949
#
#
#
# Elastic Compliance Matrix: (Units=1/GPa)
#
#
# Indices 1 2 3 4 5 6 
#
# 1 0.010044 0.002010 -0.002505 0.000000 0.000015 0.000000
# 2 0.002010 0.012545 -0.003177 0.000000 -0.001066 0.000000
# 3 -0.002505 -0.003177 0.005095 0.000000 0.001164 0.000000
# 4 0.000000 0.000000 0.000000 0.032469 0.000000 0.034693
# 5 0.000015 -0.001066 0.001164 0.000000 0.020563 0.000000
# 6 0.000000 0.000000 0.000000 0.034693 0.000000 0.057905
#
#
# Mechanical properties :
#
#
# Convention : Reuss Voigt Hill
#
# Bulk Modulus (GPa) = 49.16095 75.51447 62.33771
# Shear Modulus (GPa) = 32.73461 60.88212 46.80836
#
# Velocity S-wave (km/s) = 3.56953 4.86802 4.26844
# Velocity P-wave (km/s) = 6.01032 7.80960 6.96828
#
# Compressibility (1/GPa) = 0.02034135
#
# Stress axis : x y z
#
# Youngs Moduli (GPa) = 99.56554 79.71159 196.26128
#
# Poissons Ratio (x) = -0.16025 0.49157
# Poissons Ratio (y) = -0.20017 0.62355
# Poissons Ratio (z) = 0.24938 0.25325
#
# Static dielectric constant tensor:
#      x y z
#    x 2.656190 0.000000 0.271340 
#    y 0.000000 2.057620 0.000000 
#    z 0.271340 0.000000 2.298940 
# 
# From -- ./inp_files/238333.got.cif
#   From: 2010.05.17/outbox.cif.g08.bks.cpg/sg15_120_cif.got.tgz:238333.got - 2010.06.03 18:47:42.
