data_PCOD9254167
_publ_section_title
;
Structure prediction by ZEFSAII (Michael W. Deem and Ramdas Pophale) SiO2 
 PCOD9254167
Probable space group: C 2/C
;
_chemical_formula_sum "Si O2"
_cell_formula_units_Z 48
_cell_length_a 17.664241
_cell_length_b 7.940271
_cell_length_c 22.889063
_cell_angle_alpha 90.000000
_cell_angle_beta 36.125978
_cell_angle_gamma 90.000000
_cell_volume 1892.728303
_symmetry_space_group_name_H-M "C 2/C"
_symmetry_group_IT_number 15
_symmetry_cell_setting 'monoclinic'
loop_
_space_group_symop_operation_xyz
x,y,z
-x,y,1/2-z
-x,-y,-z
x,-y,1/2+z
1/2+x,1/2+y,z
1/2-x,1/2+y,1/2-z
1/2-x,1/2-y,-z
1/2+x,1/2-y,1/2+z
loop_
_atom_site_type_symbol
_atom_site_label
_atom_site_fract_x
_atom_site_fract_y
_atom_site_fract_z
Si Si1 0.599538 0.434683 0.817239
Si Si2 0.782066 0.572687 0.045616
Si Si3 0.129979 0.788131 0.199282
Si Si4 0.430186 0.833769 0.352172
Si Si5 0.597894 0.715619 0.432565
Si Si6 0.120379 0.593076 0.384999
O O1 0.600960 0.604047 0.776825
O O2 0.519003 0.302401 0.829431
O O3 0.552627 0.422773 0.913597
O O4 0.747474 0.370436 0.729686
O O5 0.685358 0.421781 0.117883
O O6 0.698138 0.736902 0.086267
O O7 0.846391 0.609341 0.067186
O O8 0.882229 0.537694 0.931427
O O9 0.258149 0.678026 0.133019
O O10 0.000000 0.725240 0.250000
O O11 0.500000 0.886986 0.250000
O O12 0.501716 0.784129 0.543469
O O13 0.605193 0.891156 0.389765
#
# Coordination Sequence:
#
# PCOD9254167 Si02
#       6
#     8   8   8   8   8   8
#     4  10  16  27  46  70  99 129 159 199 244 287
#     4   9  16  23  40  65  96 125 150 192 233 287
#     4  10  18  33  49  74  98 125 169 201 239 293
#     4  11  15  22  38  70  98 126 149 190 241 292
#     4   9  18  29  47  72  96 129 163 205 240 288
#     4   9  17  29  44  68  99 127 167 197 239 294
#
# _framework density 25.360218
#
# number of rings (size 3 to 8) (size 9 to 14) (size 15 to 20)
#    0.000    2.667    6.667    0.000    0.000    0.000 
#    0.000    0.000    0.000    5.000    0.000    9.333 
#    0.000    0.000    0.000    0.000    0.000    0.000 
#
# Total GULP energy -133845.609792 kJ/mol
# GULP energy per Si atom -5576.900408 kJ/mol
# Density = 2.530250 g / cm^3
# Si number density = 25.360218 Si / 1000 Ang^3
#
#
#
# Elastic Constant Matrix: (Units=GPa)
#
#
# Indices 1 2 3 4 5 6 
#
# 1 84.3784 15.2927 1.9570 -0.0006 -11.6478 0.0000
# 2 15.2927 59.1287 9.1147 -0.0014 7.8932 -0.0005
# 3 1.9570 9.1147 119.2127 0.0004 29.5890 0.0001
# 4 -0.0006 -0.0014 0.0004 -103.2578 0.0000 -89.9591
# 5 -11.6478 7.8932 29.5890 0.0000 47.4303 0.0000
# 6 0.0000 -0.0005 0.0001 -89.9591 0.0000 -71.6123
#
#
#
# Elastic Compliance Matrix: (Units=1/GPa)
#
#
# Indices 1 2 3 4 5 6 
#
# 1 0.013201 -0.003859 -0.001048 0.000000 0.004538 -0.000001
# 2 -0.003859 0.018477 -0.000415 0.000001 -0.003763 -0.000002
# 3 -0.001048 -0.000415 0.010038 0.000000 -0.006451 0.000000
# 4 0.000000 0.000001 0.000000 0.102580 0.000000 -0.128860
# 5 0.004538 -0.003763 -0.006451 0.000000 0.026848 0.000000
# 6 -0.000001 -0.000002 0.000000 -0.128860 0.000000 0.147910
#
#
# Mechanical properties :
#
#
# Convention : Reuss Voigt Hill
#
# Bulk Modulus (GPa) = 32.18254 35.04984 33.61619
# Shear Modulus (GPa) = 14.70346 -9.73091 2.48628
#
# Velocity S-wave (km/s) = 2.41048 -1.96097 0.99122
# Velocity P-wave (km/s) = 4.52382 2.95357 3.82025
#
# Compressibility (1/GPa) = 0.03107275
#
# Stress axis : x y z
#
# Youngs Moduli (GPa) = 75.74941 54.12250 99.61762
#
# Poissons Ratio (x) = 0.20884 0.10440
# Poissons Ratio (y) = 0.29228 0.04137
# Poissons Ratio (z) = 0.07939 0.02247
#
# Static dielectric constant tensor:
#      x y z
#    x 2.036770 0.000000 -0.014600 
#    y 0.000000 2.051860 0.000000 
#    z -0.014600 0.000000 2.134790 
# 
# From -- ./inp_files/248287.got.cif
#   From: 2010.05.17/outbox.cif.g08.bks.cpg/sg15_125_cif.got.tgz:248287.got - 2010.06.03 18:47:42.
