data_PCOD9254652
_publ_section_title
;
Structure prediction by ZEFSAII (Michael W. Deem and Ramdas Pophale) SiO2 
 PCOD9254652
Probable space group: C 2/C
;
_chemical_formula_sum "Si O2"
_cell_formula_units_Z 56
_cell_length_a 7.672539
_cell_length_b 14.496028
_cell_length_c 20.569197
_cell_angle_alpha 90.000000
_cell_angle_beta 95.689946
_cell_angle_gamma 90.000000
_cell_volume 2276.461954
_symmetry_space_group_name_H-M "C 2/C"
_symmetry_group_IT_number 15
_symmetry_cell_setting 'monoclinic'
loop_
_space_group_symop_operation_xyz
x,y,z
-x,y,1/2-z
-x,-y,-z
x,-y,1/2+z
1/2+x,1/2+y,z
1/2-x,1/2+y,1/2-z
1/2-x,1/2-y,-z
1/2+x,1/2-y,1/2+z
loop_
_atom_site_type_symbol
_atom_site_label
_atom_site_fract_x
_atom_site_fract_y
_atom_site_fract_z
Si Si1 0.649502 0.867847 0.042168
Si Si2 0.314766 0.721064 0.666703
Si Si3 0.594192 0.759553 0.565536
Si Si4 0.498504 0.393696 0.980690
Si Si5 0.294381 0.942570 0.257950
Si Si6 0.726603 0.582269 0.149139
Si Si7 0.881481 0.444808 0.887517
O O1 0.664420 0.814911 0.111127
O O2 0.639588 0.976029 0.058993
O O3 0.507257 0.821642 0.991828
O O4 0.827190 0.852488 0.009587
O O5 0.483737 0.726369 0.625331
O O6 0.307260 0.648019 0.723687
O O7 0.271054 0.823500 0.688627
O O8 0.642560 0.668583 0.524809
O O9 0.703045 0.845361 0.599805
O O10 0.435816 0.398134 0.903808
O O11 0.500000 0.500000 0.000000
O O12 0.500000 0.922327 0.250000
O O13 0.207094 0.994977 0.194592
O O14 0.301758 0.012523 0.319133
O O15 0.908439 0.565687 0.116031
#
# Coordination Sequence:
#
# PCOD9254652 Si02
#       7
#     8   8   8   8   8   8   8
#     4  10  16  32  59  83 103 133 177 218 267 318
#     4   9  16  31  57  73 101 138 177 213 256 327
#     4  10  17  32  57  82 101 139 177 215 268 315
#     4  11  21  33  50  76 115 145 167 204 266 336
#     4   9  19  33  53  79 101 135 183 228 264 298
#     4  10  18  35  54  77 106 142 175 222 264 310
#     4   9  18  30  60  86 100 124 183 238 260 300
#
# _framework density 24.599578000000001
#
# number of rings (size 3 to 8) (size 9 to 14) (size 15 to 20)
#    0.000    2.286    4.286    1.286    0.000    0.000 
#    2.571    0.714   12.571    0.000    0.000    0.000 
#    0.000    0.000    0.000    0.000    0.000    0.000 
#
# Total GULP energy -156241.807489 kJ/mol
# GULP energy per Si atom -5580.064553 kJ/mol
# Density = 2.454359 g / cm^3
# Si number density = 24.599578 Si / 1000 Ang^3
#
#
#
# Elastic Constant Matrix: (Units=GPa)
#
#
# Indices 1 2 3 4 5 6 
#
# 1 72.5903 38.8921 27.4086 0.0000 -9.5681 0.0000
# 2 38.8921 181.1228 63.9666 0.0000 -11.5391 0.0000
# 3 27.4086 63.9666 102.1943 0.0000 -16.2832 0.0000
# 4 0.0000 0.0000 0.0000 59.9352 0.0000 -8.4974
# 5 -9.5681 -11.5391 -16.2832 0.0000 14.9537 0.0000
# 6 0.0000 0.0000 0.0000 -8.4974 0.0000 27.2189
#
#
#
# Elastic Compliance Matrix: (Units=1/GPa)
#
#
# Indices 1 2 3 4 5 6 
#
# 1 0.016703 -0.002509 -0.001833 0.000000 0.006755 0.000000
# 2 -0.002509 0.007472 -0.004043 0.000000 -0.000241 0.000000
# 3 -0.001833 -0.004043 0.014668 0.000000 0.011680 0.000000
# 4 0.000000 0.000000 0.000000 0.017457 0.000000 0.005450
# 5 0.006755 -0.000241 0.011680 0.000000 0.083728 0.000000
# 6 0.000000 0.000000 0.000000 0.005450 0.000000 0.038441
#
#
# Mechanical properties :
#
#
# Convention : Reuss Voigt Hill
#
# Bulk Modulus (GPa) = 45.30155 68.49356 56.89755
# Shear Modulus (GPa) = 24.67970 35.46423 30.07197
#
# Velocity S-wave (km/s) = 3.17086 3.80104 3.50016
# Velocity P-wave (km/s) = 5.64459 6.86787 6.28606
#
# Compressibility (1/GPa) = 0.02207430
#
# Stress axis : x y z
#
# Youngs Moduli (GPa) = 59.87094 133.82964 68.17383
#
# Poissons Ratio (x) = 0.33575 0.12496
# Poissons Ratio (y) = 0.15020 0.27560
# Poissons Ratio (z) = 0.10974 0.54103
#
# Static dielectric constant tensor:
#      x y z
#    x 2.077490 0.000000 -0.007970 
#    y 0.000000 2.032520 0.000000 
#    z -0.007970 0.000000 1.973140 
# 
# From -- ./inp_files/268459.got.cif
#   From: 2010.05.17/outbox.cif.g08.bks.cpg/sg15_135_cif.got.tgz:268459.got - 2010.06.03 18:47:42.
