data_PCOD9254098
_publ_section_title
;
Structure prediction by ZEFSAII (Michael W. Deem and Ramdas Pophale) SiO2 
 PCOD9254098
Probable space group: C 2/C
;
_chemical_formula_sum "Si O2"
_cell_formula_units_Z 44
_cell_length_a 18.783860
_cell_length_b 8.695171
_cell_length_c 12.697034
_cell_angle_alpha 90.000000
_cell_angle_beta 119.590330
_cell_angle_gamma 90.000000
_cell_volume 1803.324723
_symmetry_space_group_name_H-M "C 2/C"
_symmetry_group_IT_number 15
_symmetry_cell_setting 'monoclinic'
loop_
_space_group_symop_operation_xyz
x,y,z
-x,y,1/2-z
-x,-y,-z
x,-y,1/2+z
1/2+x,1/2+y,z
1/2-x,1/2+y,1/2-z
1/2-x,1/2-y,-z
1/2+x,1/2-y,1/2+z
loop_
_atom_site_type_symbol
_atom_site_label
_atom_site_fract_x
_atom_site_fract_y
_atom_site_fract_z
Si Si1 0.500000 0.416333 0.250000
Si Si2 0.829943 0.967841 0.055905
Si Si3 0.575139 0.917564 0.439429
Si Si4 0.185463 0.402210 0.332086
Si Si5 0.202351 0.324695 0.111562
Si Si6 0.574267 0.150584 0.163314
O O1 0.423928 0.506952 0.145453
O O2 0.541622 0.297422 0.199543
O O3 0.786122 0.900219 0.129146
O O4 0.823805 0.827350 0.968896
O O5 0.768817 0.089917 0.959222
O O6 0.614235 0.855144 0.361182
O O7 0.574463 0.809129 0.540243
O O8 0.636054 0.051194 0.524376
O O9 0.489820 0.008719 0.367972
O O10 0.197414 0.308746 0.233612
O O11 0.157067 0.574227 0.270847
#
# Coordination Sequence:
#
# PCOD9254098 Si02
#       6
#     4   8   8   8   8   8
#     4  12  18  32  52  74 106 136 174 216 244 310
#     4  10  20  33  51  78  99 137 178 209 252 308
#     4   9  16  26  44  77 106 131 163 200 273 319
#     4  10  18  31  51  76 106 135 168 216 260 305
#     4   9  17  32  52  74 105 134 173 212 254 306
#     4  10  16  25  45  74 106 133 163 205 258 313
#
# _framework density 24.399376
#
# number of rings (size 3 to 8) (size 9 to 14) (size 15 to 20)
#    0.000    2.182    3.636    2.182    0.000    0.000 
#    0.000    0.909    0.000   17.455    0.000    0.000 
#    0.000    1.455    0.000    0.000    0.000    0.000 
#
# Total GULP energy -123014.016314 kJ/mol
# GULP energy per Si atom -5591.546196 kJ/mol
# Density = 2.434384 g / cm^3
# Si number density = 24.399376 Si / 1000 Ang^3
#
#
#
# Elastic Constant Matrix: (Units=GPa)
#
#
# Indices 1 2 3 4 5 6 
#
# 1 129.3263 13.4256 95.8487 0.0000 -4.5267 0.0000
# 2 13.4256 49.5372 23.7948 0.0000 -6.4159 0.0000
# 3 95.8487 23.7948 145.6692 0.0000 -3.4122 0.0000
# 4 0.0000 0.0000 0.0000 13.8851 0.0000 -4.0786
# 5 -4.5267 -6.4159 -3.4122 0.0000 81.2690 0.0000
# 6 0.0000 0.0000 0.0000 -4.0786 0.0000 16.3224
#
#
#
# Elastic Compliance Matrix: (Units=1/GPa)
#
#
# Indices 1 2 3 4 5 6 
#
# 1 0.015136 0.000802 -0.010079 0.000000 0.000483 0.000000
# 2 0.000802 0.022153 -0.004108 0.000000 0.001621 0.000000
# 3 -0.010079 -0.004108 0.014161 0.000000 -0.000291 0.000000
# 4 0.000000 0.000000 0.000000 0.077724 0.000000 0.019421
# 5 0.000483 0.001621 -0.000291 0.000000 0.012447 0.000000
# 6 0.000000 0.000000 0.000000 0.019421 0.000000 0.066118
#
#
# Mechanical properties :
#
#
# Convention : Reuss Voigt Hill
#
# Bulk Modulus (GPa) = 40.52034 65.63012 53.07523
# Shear Modulus (GPa) = 20.59843 35.05955 27.82899
#
# Velocity S-wave (km/s) = 2.90870 3.79476 3.38088
# Velocity P-wave (km/s) = 5.28430 6.79389 6.08608
#
# Compressibility (1/GPa) = 0.02467897
#
# Stress axis : x y z
#
# Youngs Moduli (GPa) = 66.06792 45.14095 70.61682
#
# Poissons Ratio (x) = -0.03619 0.71174
# Poissons Ratio (y) = -0.05297 0.29011
# Poissons Ratio (z) = 0.66589 0.18545
#
# Static dielectric constant tensor:
#      x y z
#    x 2.001240 0.000000 -0.002980 
#    y 0.000000 1.929730 0.000000 
#    z -0.002980 0.000000 1.965260 
# 
# From -- ./inp_files/104327.got.cif
#   From: 2010.05.17/outbox.cif.g08.bks.cpg/sg15_53_cif.got.tgz:104327.got - 2010.06.03 18:47:42.
