data_PCOD9254822
_publ_section_title
;
Structure prediction by ZEFSAII (Michael W. Deem and Ramdas Pophale) SiO2 
 PCOD9254822
Probable space group: C 2/C
;
_chemical_formula_sum "Si O2"
_cell_formula_units_Z 48
_cell_length_a 25.298568
_cell_length_b 17.105233
_cell_length_c 5.535423
_cell_angle_alpha 90.000000
_cell_angle_beta 60.394251
_cell_angle_gamma 90.000000
_cell_volume 2082.658404
_symmetry_space_group_name_H-M "C 2/C"
_symmetry_group_IT_number 15
_symmetry_cell_setting 'monoclinic'
loop_
_space_group_symop_operation_xyz
x,y,z
-x,y,1/2-z
-x,-y,-z
x,-y,1/2+z
1/2+x,1/2+y,z
1/2-x,1/2+y,1/2-z
1/2-x,1/2-y,-z
1/2+x,1/2-y,1/2+z
loop_
_atom_site_type_symbol
_atom_site_label
_atom_site_fract_x
_atom_site_fract_y
_atom_site_fract_z
Si Si1 0.709741 0.018756 0.337178
Si Si2 0.430571 0.034052 0.141102
Si Si3 0.234415 0.685191 0.338373
Si Si4 0.154194 0.193877 0.747365
Si Si5 0.537465 0.214977 0.414752
Si Si6 0.149456 0.965844 0.512779
O O1 0.706978 0.103015 0.480801
O O2 0.689980 0.962877 0.604140
O O3 0.779710 0.990716 0.138394
O O4 0.435707 0.127017 0.131846
O O5 0.404532 0.999088 0.448400
O O6 0.500000 0.000000 0.000000
O O7 0.250000 0.750000 0.500000
O O8 0.186056 0.728851 0.280343
O O9 0.296735 0.664835 0.058566
O O10 0.090459 0.221043 0.786072
O O11 0.146348 0.126354 0.963924
O O12 0.500000 0.218543 0.250000
O O13 0.500000 0.225667 0.750000
O O14 0.123171 0.991841 0.831221
#
# Coordination Sequence:
#
# PCOD9254822 Si02
#       6
#     8   8   8   8   8   8
#     4  10  19  36  62  87 123 175 212 251 316 407
#     4  10  16  35  65  85 117 171 217 251 316 384
#     4  11  23  41  66  98 137 167 218 273 339 393
#     4  11  26  40  66 102 132 173 217 279 330 388
#     4  12  25  43  67  96 132 172 221 270 326 385
#     4  10  19  37  64  90 119 177 216 246 327 405
#
# _framework density 23.047466
#
# number of rings (size 3 to 8) (size 9 to 14) (size 15 to 20)
#    0.000    1.333    6.667    2.000    4.667    0.000 
#    0.000    1.667    0.000    3.000    0.000    0.000 
#    0.000    0.000    0.000    0.000    0.000    0.000 
#
# Total GULP energy -134044.299153 kJ/mol
# GULP energy per Si atom -5585.179131 kJ/mol
# Density = 2.299501 g / cm^3
# Si number density = 23.047466 Si / 1000 Ang^3
#
#
#
# Elastic Constant Matrix: (Units=GPa)
#
#
# Indices 1 2 3 4 5 6 
#
# 1 109.3485 25.6995 55.0061 0.0000 44.7009 0.0000
# 2 25.6995 85.6112 10.2957 0.0000 11.5362 0.0000
# 3 55.0061 10.2957 71.4607 0.0000 36.2448 0.0000
# 4 0.0000 0.0000 0.0000 30.3435 0.0000 11.6719
# 5 44.7009 11.5362 36.2448 0.0000 40.3480 0.0000
# 6 0.0000 0.0000 0.0000 11.6719 0.0000 35.8704
#
#
#
# Elastic Compliance Matrix: (Units=1/GPa)
#
#
# Indices 1 2 3 4 5 6 
#
# 1 0.019186 -0.003017 -0.007330 0.000000 -0.013809 0.000000
# 2 -0.003017 0.012623 0.001174 0.000000 -0.001321 0.000000
# 3 -0.007330 0.001174 0.028506 0.000000 -0.017822 0.000000
# 4 0.000000 0.000000 0.000000 0.037671 0.000000 -0.012258
# 5 -0.013809 -0.001321 -0.017822 0.000000 0.056471 0.000000
# 6 0.000000 0.000000 0.000000 -0.012258 0.000000 0.031867
#
#
# Mechanical properties :
#
#
# Convention : Reuss Voigt Hill
#
# Bulk Modulus (GPa) = 23.82703 49.82476 36.82589
# Shear Modulus (GPa) = 22.86646 33.00699 27.93672
#
# Velocity S-wave (km/s) = 3.15325 3.78846 3.48536
# Velocity P-wave (km/s) = 4.85984 6.38763 5.67538
#
# Compressibility (1/GPa) = 0.04196915
#
# Stress axis : x y z
#
# Youngs Moduli (GPa) = 52.12003 79.21865 35.08030
#
# Poissons Ratio (x) = 0.23902 0.25713
# Poissons Ratio (y) = 0.15726 -0.04117
# Poissons Ratio (z) = 0.38203 -0.09298
#
# Static dielectric constant tensor:
#      x y z
#    x 1.921740 0.000000 -0.002950 
#    y 0.000000 1.888470 0.000000 
#    z -0.002950 0.000000 1.977780 
# 
# From -- ./inp_files/15324.got.cif
#   From: 2010.05.17/outbox.cif.g08.bks.cpg/sg15_8_cif.got.tgz:15324.got - 2010.06.03 18:47:42.
