data_PCOD9254791
_publ_section_title
;
Structure prediction by ZEFSAII (Michael W. Deem and Ramdas Pophale) SiO2 
 PCOD9254791
Probable space group: C 2/C
;
_chemical_formula_sum "Si O2"
_cell_formula_units_Z 48
_cell_length_a 19.500915
_cell_length_b 12.497404
_cell_length_c 15.096312
_cell_angle_alpha 90.000000
_cell_angle_beta 145.262837
_cell_angle_gamma 90.000000
_cell_volume 2096.417400
_symmetry_space_group_name_H-M "C 2/C"
_symmetry_group_IT_number 15
_symmetry_cell_setting 'monoclinic'
loop_
_space_group_symop_operation_xyz
x,y,z
-x,y,1/2-z
-x,-y,-z
x,-y,1/2+z
1/2+x,1/2+y,z
1/2-x,1/2+y,1/2-z
1/2-x,1/2-y,-z
1/2+x,1/2-y,1/2+z
loop_
_atom_site_type_symbol
_atom_site_label
_atom_site_fract_x
_atom_site_fract_y
_atom_site_fract_z
Si Si1 0.189302 0.025029 0.172022
Si Si2 0.622725 0.797382 0.831179
Si Si3 0.500000 0.006950 0.750000
Si Si4 0.541247 0.364496 0.128349
Si Si5 0.281441 0.380155 0.441691
Si Si6 0.000000 0.003483 0.750000
Si Si7 0.826313 0.362143 0.975237
O O1 0.257086 0.070796 0.328251
O O2 0.105542 0.928401 0.118904
O O3 0.268899 0.964969 0.182941
O O4 0.101622 0.117558 0.038865
O O5 0.500000 0.757035 0.750000
O O6 0.605904 0.922966 0.834352
O O7 0.594759 0.753275 0.702725
O O8 0.750000 0.750000 0.000000
O O9 0.457164 0.084241 0.625388
O O10 0.569534 0.428566 0.249610
O O11 0.410517 0.430146 0.601090
O O12 0.218757 0.371307 0.470588
O O13 0.305120 0.261557 0.430522
#
# Coordination Sequence:
#
# PCOD9254791 Si02
#       7
#     8   8   4   8   8   4   8
#     4  10  22  38  65  98 128 175 236 292 338 425
#     4  10  22  38  65 102 136 185 233 287 358 429
#     4  10  24  40  70  96 136 188 228 294 368 432
#     4  10  19  37  61  96 131 165 232 292 337 413
#     4  10  23  38  67  92 127 179 223 284 349 421
#     4  10  16  34  66  90 116 168 218 274 328 400
#     4  11  22  45  62  92 137 179 230 287 358 435
#
# _framework density 22.896204000000001
#
# number of rings (size 3 to 8) (size 9 to 14) (size 15 to 20)
#    0.500    1.333    2.500    1.500    0.000    1.333 
#    3.000    0.833    0.000    0.000    0.000    0.000 
#    0.000    0.000    0.000    0.000    0.000    0.000 
#
# Total GULP energy -133706.526912 kJ/mol
# GULP energy per Si atom -5571.105288 kJ/mol
# Density = 2.284409 g / cm^3
# Si number density = 22.896204 Si / 1000 Ang^3
#
#
#
# Elastic Constant Matrix: (Units=GPa)
#
#
# Indices 1 2 3 4 5 6 
#
# 1 78.2716 24.5665 16.8130 0.0000 -7.8449 0.0000
# 2 24.5665 82.6080 37.3891 0.0000 -1.6615 0.0000
# 3 16.8130 37.3891 121.9449 0.0000 -3.7546 0.0000
# 4 0.0000 0.0000 0.0000 33.5905 0.0000 -2.9717
# 5 -7.8449 -1.6615 -3.7546 0.0000 30.5805 0.0000
# 6 0.0000 0.0000 0.0000 -2.9717 0.0000 30.4032
#
#
#
# Elastic Compliance Matrix: (Units=1/GPa)
#
#
# Indices 1 2 3 4 5 6 
#
# 1 0.014501 -0.003932 -0.000688 0.000000 0.003422 0.000000
# 2 -0.003932 0.015124 -0.004116 0.000000 -0.000692 0.000000
# 3 -0.000688 -0.004116 0.009581 0.000000 0.000776 0.000000
# 4 0.000000 0.000000 0.000000 0.030030 0.000000 0.002935
# 5 0.003422 -0.000692 0.000776 0.000000 0.033636 0.000000
# 6 0.000000 0.000000 0.000000 0.002935 0.000000 0.033178
#
#
# Mechanical properties :
#
#
# Convention : Reuss Voigt Hill
#
# Bulk Modulus (GPa) = 46.01339 48.92909 47.47124
# Shear Modulus (GPa) = 31.10074 32.51855 31.80965
#
# Velocity S-wave (km/s) = 3.68956 3.77272 3.73137
# Velocity P-wave (km/s) = 6.18794 6.35565 6.27235
#
# Compressibility (1/GPa) = 0.02173280
#
# Stress axis : x y z
#
# Youngs Moduli (GPa) = 68.96101 66.12083 104.36989
#
# Poissons Ratio (x) = 0.25999 0.07184
# Poissons Ratio (y) = 0.27116 0.42961
# Poissons Ratio (z) = 0.04747 0.27217
#
# Static dielectric constant tensor:
#      x y z
#    x 2.013810 0.000000 -0.011130 
#    y 0.000000 1.930340 0.000000 
#    z -0.011130 0.000000 1.866110 
# 
# From -- ./inp_files/167941.got.cif
#   From: 2010.05.17/outbox.cif.g08.bks.cpg/sg15_84_cif.got.tgz:167941.got - 2010.06.03 18:47:42.
