data_PCOD9254583
_publ_section_title
;
Structure prediction by ZEFSAII (Michael W. Deem and Ramdas Pophale) SiO2 
 PCOD9254583
Probable space group: C 2/C
;
_chemical_formula_sum "Si O2"
_cell_formula_units_Z 56
_cell_length_a 10.095135
_cell_length_b 15.744631
_cell_length_c 13.005184
_cell_angle_alpha 90.000000
_cell_angle_beta 93.622116
_cell_angle_gamma 90.000000
_cell_volume 2062.969048
_symmetry_space_group_name_H-M "C 2/C"
_symmetry_group_IT_number 15
_symmetry_cell_setting 'monoclinic'
loop_
_space_group_symop_operation_xyz
x,y,z
-x,y,1/2-z
-x,-y,-z
x,-y,1/2+z
1/2+x,1/2+y,z
1/2-x,1/2+y,1/2-z
1/2-x,1/2-y,-z
1/2+x,1/2-y,1/2+z
loop_
_atom_site_type_symbol
_atom_site_label
_atom_site_fract_x
_atom_site_fract_y
_atom_site_fract_z
Si Si1 0.540574 0.317607 0.367431
Si Si2 0.500000 0.524238 0.250000
Si Si3 0.748784 0.472171 0.625347
Si Si4 0.870669 0.493527 0.423412
Si Si5 0.554158 0.651558 0.435221
Si Si6 0.186583 0.318063 0.624639
Si Si7 0.000000 0.551795 0.750000
Si Si8 0.198354 0.773901 0.656990
O O1 0.500000 0.344785 0.250000
O O2 0.505069 0.378642 0.459520
O O3 0.447642 0.235584 0.385292
O O4 0.692582 0.289486 0.382373
O O5 0.368126 0.492175 0.305331
O O6 0.556264 0.583626 0.344136
O O7 0.754162 0.487980 0.502537
O O8 0.742083 0.370491 0.632818
O O9 0.885071 0.506855 0.678696
O O10 0.854724 0.583576 0.363603
O O11 0.904361 0.419512 0.341444
O O12 0.000000 0.500000 0.500000
O O13 0.705801 0.676657 0.460514
O O14 0.452863 0.724853 0.389383
O O15 0.274040 0.274225 0.719417
#
# Coordination Sequence:
#
# PCOD9254583 Si02
#       8
#     8   4   8   8   8   8   4   8
#     4  10  22  33  59  88 116 157 195 244 304 357
#     4  10  20  36  60  83 114 155 202 240 294 352
#     4  10  19  34  58  87 110 150 195 240 291 348
#     4  10  20  31  60  88 119 150 195 252 293 352
#     4  11  19  37  59  85 117 150 202 249 292 353
#     4  11  19  36  59  87 113 153 198 242 293 360
#     4  10  16  32  52  81 110 139 186 230 278 336
#     4  10  19  35  60  85 115 151 203 238 292 359
#
# _framework density 27.145341999999999
#
# number of rings (size 3 to 8) (size 9 to 14) (size 15 to 20)
#    0.000    1.714    4.286    2.571    2.000    0.000 
#    0.000    6.429   14.143    4.286    0.000    0.000 
#    0.000    0.000    0.000    0.000    0.000    0.000 
#
# Total GULP energy -156130.496254 kJ/mol
# GULP energy per Si atom -5576.089152 kJ/mol
# Density = 2.708356 g / cm^3
# Si number density = 27.145342 Si / 1000 Ang^3
#
#
#
# Elastic Constant Matrix: (Units=GPa)
#
#
# Indices 1 2 3 4 5 6 
#
# 1 188.8430 41.9900 46.9777 0.0000 -31.7747 0.0000
# 2 41.9900 39.6962 21.4448 0.0000 -11.4125 0.0000
# 3 46.9777 21.4448 164.7331 0.0000 -45.6040 0.0000
# 4 0.0000 0.0000 0.0000 27.3523 0.0000 -1.1525
# 5 -31.7747 -11.4125 -45.6040 0.0000 63.1858 0.0000
# 6 0.0000 0.0000 0.0000 -1.1525 0.0000 27.9118
#
#
#
# Elastic Compliance Matrix: (Units=1/GPa)
#
#
# Indices 1 2 3 4 5 6 
#
# 1 0.007303 -0.006806 -0.000650 0.000000 0.001974 0.000000
# 2 -0.006806 0.033882 -0.002153 0.000000 0.001143 0.000000
# 3 -0.000650 -0.002153 0.007921 0.000000 0.005001 0.000000
# 4 0.000000 0.000000 0.000000 0.036624 0.000000 0.001512
# 5 0.001974 0.001143 0.005001 0.000000 0.020635 0.000000
# 6 0.000000 0.000000 0.000000 0.001512 0.000000 0.035890
#
#
# Mechanical properties :
#
#
# Convention : Reuss Voigt Hill
#
# Bulk Modulus (GPa) = 33.45978 68.23302 50.84640
# Shear Modulus (GPa) = 29.16564 42.54730 35.85647
#
# Velocity S-wave (km/s) = 3.28140 3.96332 3.63837
# Velocity P-wave (km/s) = 5.16814 6.79225 6.03508
#
# Compressibility (1/GPa) = 0.02988663
#
# Stress axis : x y z
#
# Youngs Moduli (GPa) = 136.93836 29.51379 126.25406
#
# Poissons Ratio (x) = 0.20087 0.08208
# Poissons Ratio (y) = 0.93198 0.27189
# Poissons Ratio (z) = 0.08902 0.06356
#
# Static dielectric constant tensor:
#      x y z
#    x 2.197310 0.000000 -0.097850 
#    y 0.000000 2.204670 0.000000 
#    z -0.097850 0.000000 2.226520 
# 
# From -- ./inp_files/90389.got.cif
#   From: 2010.05.17/outbox.cif.g08.bks.cpg/sg15_46_cif.got.tgz:90389.got - 2010.06.03 18:47:42.
