data_PCOD9254965
_publ_section_title
;
Structure prediction by ZEFSAII (Michael W. Deem and Ramdas Pophale) SiO2 
 PCOD9254965
Probable space group: C 2/C
;
_chemical_formula_sum "Si O2"
_cell_formula_units_Z 64
_cell_length_a 5.228088
_cell_length_b 33.388698
_cell_length_c 24.726780
_cell_angle_alpha 90.000000
_cell_angle_beta 76.109527
_cell_angle_gamma 90.000000
_cell_volume 4190.059653
_symmetry_space_group_name_H-M "C 2/C"
_symmetry_group_IT_number 15
_symmetry_cell_setting 'monoclinic'
loop_
_space_group_symop_operation_xyz
x,y,z
-x,y,1/2-z
-x,-y,-z
x,-y,1/2+z
1/2+x,1/2+y,z
1/2-x,1/2+y,1/2-z
1/2-x,1/2-y,-z
1/2+x,1/2-y,1/2+z
loop_
_atom_site_type_symbol
_atom_site_label
_atom_site_fract_x
_atom_site_fract_y
_atom_site_fract_z
Si Si1 0.240601 0.554196 0.006743
Si Si2 0.898296 0.052913 0.313315
Si Si3 0.395297 0.722753 0.416475
Si Si4 0.581453 0.822088 0.603711
Si Si5 0.228494 0.354673 0.476814
Si Si6 0.166629 0.975683 0.567850
Si Si7 0.398476 0.106266 0.313039
Si Si8 0.253009 0.809225 0.455363
O O1 0.264650 0.597908 0.979797
O O2 0.438008 0.547854 0.047130
O O3 0.942981 0.546535 0.041973
O O4 0.310069 0.519482 0.960072
O O5 0.885969 0.023949 0.365543
O O6 0.611111 0.072442 0.319255
O O7 0.000000 0.036865 0.250000
O O8 0.110831 0.087040 0.319195
O O9 0.697153 0.710673 0.393354
O O10 0.338346 0.769937 0.418186
O O11 0.319588 0.707481 0.480882
O O12 0.202744 0.698423 0.386744
O O13 0.653358 0.839653 0.541012
O O14 0.597184 0.858575 0.644083
O O15 0.494966 0.331701 0.447450
O O16 0.990707 0.340247 0.451137
O O17 0.500000 0.121589 0.250000
#
# Coordination Sequence:
#
# PCOD9254965 Si02
#       8
#     8   8   8   8   8   8   8   8
#     4  10  20  30  45  65  89 121 147 180 222 266
#     4  10  19  31  47  64  87 118 149 183 219 256
#     4   9  17  27  39  58  80 110 139 165 204 240
#     4  10  17  26  42  58  81 112 141 170 204 252
#     4  10  17  26  41  60  81 111 144 170 206 250
#     4  10  19  32  45  63  91 117 149 183 218 268
#     4  10  20  31  44  65  89 114 147 184 214 246
#     4   9  17  27  39  57  84 107 135 173 199 240
#
# _framework density 15.274246
#
# number of rings (size 3 to 8) (size 9 to 14) (size 15 to 20)
#    0.000    2.250    0.000    4.500    0.000    5.000 
#    0.000    0.000    0.000    0.000    0.000    0.000 
#    0.000    6.000    0.000    0.000    0.000    0.000 
#
# Total GULP energy -178432.297281 kJ/mol
# GULP energy per Si atom -5576.009290 kJ/mol
# Density = 1.523948 g / cm^3
# Si number density = 15.274246 Si / 1000 Ang^3
#
#
#
# Elastic Constant Matrix: (Units=GPa)
#
#
# Indices 1 2 3 4 5 6 
#
# 1 54.0054 -8.6247 -4.7534 0.0000 3.4140 0.0000
# 2 -8.6247 42.1401 1.8888 0.0000 -2.5562 0.0000
# 3 -4.7534 1.8888 53.3604 0.0000 8.7523 0.0000
# 4 0.0000 0.0000 0.0000 14.8369 0.0000 3.1882
# 5 3.4140 -2.5562 8.7523 0.0000 11.7154 0.0000
# 6 0.0000 0.0000 0.0000 3.1882 0.0000 13.0830
#
#
#
# Elastic Compliance Matrix: (Units=1/GPa)
#
#
# Indices 1 2 3 4 5 6 
#
# 1 0.019769 0.003490 0.002801 0.000000 -0.007092 0.000000
# 2 0.003490 0.024844 -0.001471 0.000000 0.005503 0.000000
# 3 0.002801 -0.001471 0.021914 0.000000 -0.017509 0.000000
# 4 0.000000 0.000000 0.000000 0.071124 0.000000 -0.017332
# 5 -0.007092 0.005503 -0.017509 0.000000 0.101705 0.000000
# 6 0.000000 0.000000 0.000000 -0.017332 0.000000 0.080659
#
#
# Mechanical properties :
#
#
# Convention : Reuss Voigt Hill
#
# Bulk Modulus (GPa) = 13.12903 14.05858 13.59380
# Shear Modulus (GPa) = 14.89140 18.66009 16.77575
#
# Velocity S-wave (km/s) = 3.12578 3.49903 3.31766
# Velocity P-wave (km/s) = 4.65205 5.05454 4.85747
#
# Compressibility (1/GPa) = 0.07616712
#
# Stress axis : x y z
#
# Youngs Moduli (GPa) = 50.58452 40.25046 45.63327
#
# Poissons Ratio (x) = -0.14049 -0.12780
# Poissons Ratio (y) = -0.17656 0.06713
# Poissons Ratio (z) = -0.14167 0.05921
#
# Static dielectric constant tensor:
#      x y z
#    x 1.526060 0.000000 0.000920 
#    y 0.000000 1.486990 0.000000 
#    z 0.000920 0.000000 1.494820 
# 
# From -- ./inp_files/262061.got.cif
#   From: 2010.05.17/outbox.cif.g08.bks.cpg/sg15_132_cif.got.tgz:262061.got - 2010.06.03 18:47:42.
