data_PCOD9254701
_publ_section_title
;
Structure prediction by ZEFSAII (Michael W. Deem and Ramdas Pophale) SiO2 
 PCOD9254701
Probable space group: C 2/C
;
_chemical_formula_sum "Si O2"
_cell_formula_units_Z 40
_cell_length_a 24.196359
_cell_length_b 9.336421
_cell_length_c 15.685997
_cell_angle_alpha 90.000000
_cell_angle_beta 152.263368
_cell_angle_gamma 90.000000
_cell_volume 1649.211834
_symmetry_space_group_name_H-M "C 2/C"
_symmetry_group_IT_number 15
_symmetry_cell_setting 'monoclinic'
loop_
_space_group_symop_operation_xyz
x,y,z
-x,y,1/2-z
-x,-y,-z
x,-y,1/2+z
1/2+x,1/2+y,z
1/2-x,1/2+y,1/2-z
1/2-x,1/2-y,-z
1/2+x,1/2-y,1/2+z
loop_
_atom_site_type_symbol
_atom_site_label
_atom_site_fract_x
_atom_site_fract_y
_atom_site_fract_z
Si Si1 0.874609 0.538423 0.615236
Si Si2 0.841418 0.479611 0.756422
Si Si3 0.466007 0.300823 0.420108
Si Si4 0.193949 0.026170 0.219652
Si Si5 0.378132 0.307640 0.119900
O O1 0.857827 0.574630 0.692911
O O2 0.769383 0.571692 0.406015
O O3 0.880572 0.364155 0.618496
O O4 0.000000 0.594128 0.750000
O O5 0.951004 0.367780 0.914100
O O6 0.790060 0.518393 0.779083
O O7 0.731283 0.377442 0.575753
O O8 0.400175 0.394202 0.401595
O O9 0.600113 0.343666 0.581029
O O10 0.386851 0.343089 0.230564
O O11 0.500000 0.366489 0.250000
#
# Coordination Sequence:
#
# PCOD9254701 Si02
#       5
#     8   8   8   8   8
#     4  10  21  36  57  85 117 148 191 242 286 338
#     4  11  20  35  59  85 120 151 189 238 296 332
#     4  10  20  34  54  91 120 145 190 246 283 338
#     4  11  21  34  59  87 117 150 195 240 286 345
#     4  10  16  33  58  87 118 146 184 240 294 324
#
# _framework density 24.254010999999998
#
# number of rings (size 3 to 8) (size 9 to 14) (size 15 to 20)
#    0.000    1.600    6.000    1.200    0.000    0.800 
#    0.000    0.000    0.000    4.800    0.000    0.000 
#    0.000    0.000    0.000    0.000    0.000    0.000 
#
# Total GULP energy -111616.576131 kJ/mol
# GULP energy per Si atom -5580.828807 kJ/mol
# Density = 2.419881 g / cm^3
# Si number density = 24.254011 Si / 1000 Ang^3
#
#
#
# Elastic Constant Matrix: (Units=GPa)
#
#
# Indices 1 2 3 4 5 6 
#
# 1 157.7069 12.7152 4.1674 0.0000 13.6761 0.0000
# 2 12.7152 39.8936 4.2942 0.0000 3.4784 0.0000
# 3 4.1674 4.2942 82.5573 0.0000 -5.8395 0.0000
# 4 0.0000 0.0000 0.0000 16.0232 0.0000 2.9690
# 5 13.6761 3.4784 -5.8395 0.0000 43.9459 0.0000
# 6 0.0000 0.0000 0.0000 2.9690 0.0000 11.4856
#
#
#
# Elastic Compliance Matrix: (Units=1/GPa)
#
#
# Indices 1 2 3 4 5 6 
#
# 1 0.006677 -0.001915 -0.000377 0.000000 -0.001976 0.000000
# 2 -0.001915 0.025968 -0.001370 0.000000 -0.001641 0.000000
# 3 -0.000377 -0.001370 0.012335 0.000000 0.001865 0.000000
# 4 0.000000 0.000000 0.000000 0.065549 0.000000 -0.016944
# 5 -0.001976 -0.001641 0.001865 0.000000 0.023748 0.000000
# 6 0.000000 0.000000 0.000000 -0.016944 0.000000 0.091445
#
#
# Mechanical properties :
#
#
# Convention : Reuss Voigt Hill
#
# Bulk Modulus (GPa) = 26.55728 35.83459 31.19594
# Shear Modulus (GPa) = 20.35847 31.55634 25.95740
#
# Velocity S-wave (km/s) = 2.90036 3.61096 3.27499
# Velocity P-wave (km/s) = 4.71058 5.67381 5.21448
#
# Compressibility (1/GPa) = 0.03765446
#
# Stress axis : x y z
#
# Youngs Moduli (GPa) = 149.77611 38.50940 81.07000
#
# Poissons Ratio (x) = 0.07375 0.03058
# Poissons Ratio (y) = 0.28684 0.11108
# Poissons Ratio (z) = 0.05650 0.05276
#
# Static dielectric constant tensor:
#      x y z
#    x 2.038220 0.000000 -0.005420 
#    y 0.000000 2.018770 0.000000 
#    z -0.005420 0.000000 1.966580 
# 
# From -- ./inp_files/173220.got.cif
#   From: 2010.05.17/outbox.cif.g08.bks.cpg/sg15_87_cif.got.tgz:173220.got - 2010.06.03 18:47:42.
