data_PCOD9254847
_publ_section_title
;
Structure prediction by ZEFSAII (Michael W. Deem and Ramdas Pophale) SiO2 
 PCOD9254847
Probable space group: C 2/C
;
_chemical_formula_sum "Si O2"
_cell_formula_units_Z 44
_cell_length_a 16.141509
_cell_length_b 11.524224
_cell_length_c 9.143593
_cell_angle_alpha 90.000000
_cell_angle_beta 92.479745
_cell_angle_gamma 90.000000
_cell_volume 1699.283488
_symmetry_space_group_name_H-M "C 2/C"
_symmetry_group_IT_number 15
_symmetry_cell_setting 'monoclinic'
loop_
_space_group_symop_operation_xyz
x,y,z
-x,y,1/2-z
-x,-y,-z
x,-y,1/2+z
1/2+x,1/2+y,z
1/2-x,1/2+y,1/2-z
1/2-x,1/2-y,-z
1/2+x,1/2-y,1/2+z
loop_
_atom_site_type_symbol
_atom_site_label
_atom_site_fract_x
_atom_site_fract_y
_atom_site_fract_z
Si Si1 0.841592 0.081024 0.742994
Si Si2 0.307787 0.842384 0.092117
Si Si3 0.093070 0.522488 0.578971
Si Si4 0.083997 0.131732 0.427581
Si Si5 0.000000 0.375630 0.750000
Si Si6 0.072730 0.227273 0.995450
O O1 0.746933 0.103778 0.782472
O O2 0.864845 0.169183 0.613615
O O3 0.870030 0.959676 0.674368
O O4 0.016339 0.136712 0.079496
O O5 0.386585 0.759256 0.122056
O O6 0.250000 0.750000 0.000000
O O7 0.337050 0.948261 0.994102
O O8 0.107352 0.659353 0.578094
O O9 0.000000 0.500000 0.500000
O O10 0.078298 0.459461 0.733174
O O11 0.111999 0.102975 0.597675
O O12 0.993935 0.288680 0.616153
#
# Coordination Sequence:
#
# PCOD9254847 Si02
#       6
#     8   8   8   8   4   8
#     4  11  24  40  67  92 134 175 221 273 352 410
#     4  10  21  41  64  93 133 178 217 274 348 415
#     4  10  20  36  62  95 121 168 227 273 322 406
#     4  11  22  44  63  96 126 179 225 274 336 418
#     4  10  16  36  60  90 122 162 214 268 326 384
#     4  11  20  39  65  89 129 170 223 274 336 403
#
# _framework density 25.893266000000001
#
# number of rings (size 3 to 8) (size 9 to 14) (size 15 to 20)
#    0.000    1.455    5.455    1.636    2.545    0.000 
#    6.545    0.909    0.000    0.000    0.000    0.000 
#    0.000    0.000    0.000    0.000    0.000    0.000 
#
# Total GULP energy -122934.511487 kJ/mol
# GULP energy per Si atom -5587.932340 kJ/mol
# Density = 2.583433 g / cm^3
# Si number density = 25.893266 Si / 1000 Ang^3
#
#
#
# Elastic Constant Matrix: (Units=GPa)
#
#
# Indices 1 2 3 4 5 6 
#
# 1 98.5334 37.1267 69.8653 0.0000 -39.1794 0.0000
# 2 37.1267 124.7148 73.4825 0.0000 -34.7936 0.0000
# 3 69.8653 73.4825 161.6492 0.0000 -55.1917 0.0000
# 4 0.0000 0.0000 0.0000 57.3804 0.0000 -23.4366
# 5 -39.1794 -34.7936 -55.1917 0.0000 74.9623 0.0000
# 6 0.0000 0.0000 0.0000 -23.4366 0.0000 44.6724
#
#
#
# Elastic Compliance Matrix: (Units=1/GPa)
#
#
# Indices 1 2 3 4 5 6 
#
# 1 0.015608 -0.000473 -0.005103 0.000000 0.004181 0.000000
# 2 -0.000473 0.011171 -0.004258 0.000000 0.001803 0.000000
# 3 -0.005103 -0.004258 0.011678 0.000000 0.003954 0.000000
# 4 0.000000 0.000000 0.000000 0.022180 0.000000 0.011637
# 5 0.004181 0.001803 0.003954 0.000000 0.019273 0.000000
# 6 0.000000 0.000000 0.000000 0.011637 0.000000 0.028490
#
#
# Mechanical properties :
#
#
# Convention : Reuss Voigt Hill
#
# Bulk Modulus (GPa) = 53.22762 82.87184 68.04973
# Shear Modulus (GPa) = 37.22130 49.03121 43.12626
#
# Velocity S-wave (km/s) = 3.79554 4.35626 4.08553
# Velocity P-wave (km/s) = 6.30946 7.57478 6.97089
#
# Compressibility (1/GPa) = 0.01878724
#
# Stress axis : x y z
#
# Youngs Moduli (GPa) = 64.06981 89.51779 85.63392
#
# Poissons Ratio (x) = 0.04235 0.43702
# Poissons Ratio (y) = 0.03031 0.36464
# Poissons Ratio (z) = 0.32697 0.38118
#
# Static dielectric constant tensor:
#      x y z
#    x 2.183890 0.000000 0.106440 
#    y 0.000000 2.066290 0.000000 
#    z 0.106440 0.000000 2.266150 
# 
# From -- ./inp_files/109984.got.cif
#   From: 2010.05.17/outbox.cif.g08.bks.cpg/sg15_55_cif.got.tgz:109984.got - 2010.06.03 18:47:42.
