data_PCOD9254727
_publ_section_title
;
Structure prediction by ZEFSAII (Michael W. Deem and Ramdas Pophale) SiO2 
 PCOD9254727
Probable space group: C 2/C
;
_chemical_formula_sum "Si O2"
_cell_formula_units_Z 56
_cell_length_a 8.575263
_cell_length_b 27.894468
_cell_length_c 17.836478
_cell_angle_alpha 90.000000
_cell_angle_beta 134.576863
_cell_angle_gamma 90.000000
_cell_volume 3039.088788
_symmetry_space_group_name_H-M "C 2/C"
_symmetry_group_IT_number 15
_symmetry_cell_setting 'monoclinic'
loop_
_space_group_symop_operation_xyz
x,y,z
-x,y,1/2-z
-x,-y,-z
x,-y,1/2+z
1/2+x,1/2+y,z
1/2-x,1/2+y,1/2-z
1/2-x,1/2-y,-z
1/2+x,1/2-y,1/2+z
loop_
_atom_site_type_symbol
_atom_site_label
_atom_site_fract_x
_atom_site_fract_y
_atom_site_fract_z
Si Si1 0.921974 0.165004 0.934061
Si Si2 0.817126 0.116788 0.131245
Si Si3 0.458557 0.709060 0.368890
Si Si4 0.500000 0.217269 0.750000
Si Si5 0.134555 0.623927 0.441246
Si Si6 0.000000 0.678036 0.250000
Si Si7 0.333158 0.434471 0.489215
Si Si8 0.182979 0.469237 0.874613
O O1 0.720468 0.186083 0.819995
O O2 0.848588 0.114648 0.947095
O O3 0.975155 0.202337 0.020918
O O4 0.140546 0.150827 0.960639
O O5 0.590194 0.133754 0.091483
O O6 0.000000 0.096700 0.250000
O O7 0.942276 0.161550 0.135941
O O8 0.758771 0.079592 0.046799
O O9 0.523113 0.751418 0.334098
O O10 0.195477 0.707817 0.280246
O O11 0.104286 0.644239 0.347366
O O12 0.154531 0.566908 0.435359
O O13 0.579759 0.455085 0.577833
O O14 0.191150 0.475851 0.403465
O O15 0.000000 0.461798 0.750000
#
# Coordination Sequence:
#
# PCOD9254727 Si02
#       8
#     8   8   8   4   8   4   8   8
#     4   9  22  36  55  78 111 141 183 219 273 326
#     4  11  18  33  58  82 112 143 180 226 274 311
#     4  10  20  35  56  82 106 138 182 229 264 330
#     4  12  20  38  57  80 104 148 177 232 274 324
#     4  10  18  32  55  84 109 142 180 228 265 317
#     4  10  16  34  55  82 106 138 179 226 272 320
#     4   9  21  35  50  84 110 142 182 224 261 324
#     4  10  18  33  57  80 110 145 185 215 263 327
#
# _framework density 18.426576000000001
#
# number of rings (size 3 to 8) (size 9 to 14) (size 15 to 20)
#    0.000    2.000    2.857    2.143    1.000    0.571 
#    0.000    9.286    0.000    0.000    0.000    0.000 
#    0.000    0.000    0.000    0.000    0.000    0.000 
#
# Total GULP energy -155958.069327 kJ/mol
# GULP energy per Si atom -5569.931047 kJ/mol
# Density = 1.838464 g / cm^3
# Si number density = 18.426576 Si / 1000 Ang^3
#
#
#
# Elastic Constant Matrix: (Units=GPa)
#
#
# Indices 1 2 3 4 5 6 
#
# 1 92.7172 17.2158 12.9822 0.0000 17.2833 0.0000
# 2 17.2158 64.1473 32.7034 0.0000 8.9026 0.0000
# 3 12.9822 32.7034 63.3256 0.0000 16.1885 0.0000
# 4 0.0000 0.0000 0.0000 23.1957 0.0000 6.3505
# 5 17.2833 8.9026 16.1885 0.0000 23.8117 0.0000
# 6 0.0000 0.0000 0.0000 6.3505 0.0000 9.7319
#
#
#
# Elastic Compliance Matrix: (Units=1/GPa)
#
#
# Indices 1 2 3 4 5 6 
#
# 1 0.012825 -0.002749 0.001098 0.000000 -0.009028 0.000000
# 2 -0.002749 0.021756 -0.011018 0.000000 0.001352 0.000000
# 3 0.001098 -0.011018 0.024700 0.000000 -0.013470 0.000000
# 4 0.000000 0.000000 0.000000 0.052489 0.000000 -0.034251
# 5 -0.009028 0.001352 -0.013470 0.000000 0.057201 0.000000
# 6 0.000000 0.000000 0.000000 -0.034251 0.000000 0.125105
#
#
# Mechanical properties :
#
#
# Convention : Reuss Voigt Hill
#
# Bulk Modulus (GPa) = 29.46006 38.44366 33.95186
# Shear Modulus (GPa) = 15.11819 21.83376 18.47598
#
# Velocity S-wave (km/s) = 2.86747 3.44598 3.16995
# Velocity P-wave (km/s) = 5.19477 6.06148 5.64478
#
# Compressibility (1/GPa) = 0.03394426
#
# Stress axis : x y z
#
# Youngs Moduli (GPa) = 77.97284 45.96375 40.48650
#
# Poissons Ratio (x) = 0.12635 -0.04447
# Poissons Ratio (y) = 0.21435 0.44606
# Poissons Ratio (z) = -0.08564 0.50641
#
# Static dielectric constant tensor:
#      x y z
#    x 1.662490 0.000000 0.017940 
#    y 0.000000 1.650910 0.000000 
#    z 0.017940 0.000000 1.654860 
# 
# From -- ./inp_files/137316.got.cif
#   From: 2010.05.17/outbox.cif.g08.bks.cpg/sg15_69_cif.got.tgz:137316.got - 2010.06.03 18:47:42.
