data_PCOD9254581
_publ_section_title
;
Structure prediction by ZEFSAII (Michael W. Deem and Ramdas Pophale) SiO2 
 PCOD9254581
Probable space group: C 2/C
;
_chemical_formula_sum "Si O2"
_cell_formula_units_Z 60
_cell_length_a 24.155228
_cell_length_b 12.577749
_cell_length_c 10.493600
_cell_angle_alpha 90.000000
_cell_angle_beta 113.695090
_cell_angle_gamma 90.000000
_cell_volume 2919.378319
_symmetry_space_group_name_H-M "C 2/C"
_symmetry_group_IT_number 15
_symmetry_cell_setting 'monoclinic'
loop_
_space_group_symop_operation_xyz
x,y,z
-x,y,1/2-z
-x,-y,-z
x,-y,1/2+z
1/2+x,1/2+y,z
1/2-x,1/2+y,1/2-z
1/2-x,1/2-y,-z
1/2+x,1/2-y,1/2+z
loop_
_atom_site_type_symbol
_atom_site_label
_atom_site_fract_x
_atom_site_fract_y
_atom_site_fract_z
Si Si1 0.920998 0.788447 0.308076
Si Si2 0.000000 0.615197 0.250000
Si Si3 0.387875 0.038321 0.989832
Si Si4 0.443651 0.189724 0.854600
Si Si5 0.110894 0.889611 0.585514
Si Si6 0.064672 0.993431 0.791671
Si Si7 0.914196 0.309028 0.050330
Si Si8 0.816712 0.258193 0.508173
O O1 0.965313 0.691206 0.316609
O O2 0.951755 0.897743 0.298000
O O3 0.901199 0.781576 0.435783
O O4 0.863984 0.774564 0.162228
O O5 0.946384 0.551214 0.135196
O O6 0.336708 0.122402 0.985174
O O7 0.375889 0.913566 0.979188
O O8 0.412382 0.084135 0.879568
O O9 0.434417 0.287941 0.943263
O O10 0.513914 0.170155 0.897935
O O11 0.409103 0.219064 0.692820
O O12 0.091595 0.970489 0.453701
O O13 0.170704 0.827221 0.593243
O O14 0.107712 0.940556 0.723751
O O15 0.000000 0.933691 0.750000
O O16 0.750000 0.250000 0.500000
#
# Coordination Sequence:
#
# PCOD9254581 Si02
#       8
#     8   4   8   8   8   8   8   8
#     4  10  20  33  56  82 114 154 205 242 302 360
#     4  10  16  32  52  78 118 154 194 238 296 376
#     4  10  20  33  56  83 117 157 197 241 309 366
#     4  10  21  33  50  86 133 156 191 242 306 367
#     4  10  23  38  59  87 116 168 201 255 306 364
#     4  11  21  35  58  86 120 158 206 244 305 375
#     4  11  21  30  54  87 124 162 189 240 303 378
#     4   9  21  43  63  80 113 158 206 260 307 357
#
# _framework density 20.552320000000002
#
# number of rings (size 3 to 8) (size 9 to 14) (size 15 to 20)
#    0.000    1.867    2.000    3.200    7.467    0.000 
#    0.000    2.667    0.000    3.200    0.000    0.000 
#    0.000    0.000    0.000    0.000    0.000    0.000 
#
# Total GULP energy -167327.985560 kJ/mol
# GULP energy per Si atom -5577.599519 kJ/mol
# Density = 2.050554 g / cm^3
# Si number density = 20.552320 Si / 1000 Ang^3
#
#
#
# Elastic Constant Matrix: (Units=GPa)
#
#
# Indices 1 2 3 4 5 6 
#
# 1 101.8394 27.6102 16.8266 0.0000 -15.5140 0.0000
# 2 27.6102 82.7890 19.5411 0.0000 -14.9617 0.0000
# 3 16.8266 19.5411 90.2389 0.0000 -37.2767 0.0000
# 4 0.0000 0.0000 0.0000 28.5938 0.0000 -15.4497
# 5 -15.5140 -14.9617 -37.2767 0.0000 25.5216 0.0000
# 6 0.0000 0.0000 0.0000 -15.4497 0.0000 20.0280
#
#
#
# Elastic Compliance Matrix: (Units=1/GPa)
#
#
# Indices 1 2 3 4 5 6 
#
# 1 0.011494 -0.002822 0.001691 0.000000 0.007802 0.000000
# 2 -0.002822 0.014231 0.000459 0.000000 0.007298 0.000000
# 3 0.001691 0.000459 0.028244 0.000000 0.042550 0.000000
# 4 0.000000 0.000000 0.000000 0.059967 0.000000 0.046259
# 5 0.007802 0.007298 0.042550 0.000000 0.110351 0.000000
# 6 0.000000 0.000000 0.000000 0.046259 0.000000 0.085614
#
#
# Mechanical properties :
#
#
# Convention : Reuss Voigt Hill
#
# Bulk Modulus (GPa) = 19.00291 44.75814 31.88052
# Shear Modulus (GPa) = 15.20744 28.88797 22.04770
#
# Velocity S-wave (km/s) = 2.72313 3.75318 3.27885
# Velocity P-wave (km/s) = 4.37646 6.37234 5.46627
#
# Compressibility (1/GPa) = 0.05262352
#
# Stress axis : x y z
#
# Youngs Moduli (GPa) = 87.00419 70.27123 35.40593
#
# Poissons Ratio (x) = 0.19833 -0.05986
# Poissons Ratio (y) = 0.24555 -0.01626
# Poissons Ratio (z) = -0.14711 -0.03227
#
# Static dielectric constant tensor:
#      x y z
#    x 1.719220 0.000000 -0.063570 
#    y 0.000000 1.802580 0.000000 
#    z -0.063570 0.000000 1.806540 
# 
# From -- ./inp_files/117637.got.cif
#   From: 2010.05.17/outbox.cif.g08.bks.cpg/sg15_59_cif.got.tgz:117637.got - 2010.06.03 18:47:42.
