data_PCOD9254206
_publ_section_title
;
Structure prediction by ZEFSAII (Michael W. Deem and Ramdas Pophale) SiO2 
 PCOD9254206
Probable space group: C 2/C
;
_chemical_formula_sum "Si O2"
_cell_formula_units_Z 64
_cell_length_a 21.391011
_cell_length_b 18.415346
_cell_length_c 18.752856
_cell_angle_alpha 90.000000
_cell_angle_beta 156.158667
_cell_angle_gamma 90.000000
_cell_volume 2985.936397
_symmetry_space_group_name_H-M "C 2/C"
_symmetry_group_IT_number 15
_symmetry_cell_setting 'monoclinic'
loop_
_space_group_symop_operation_xyz
x,y,z
-x,y,1/2-z
-x,-y,-z
x,-y,1/2+z
1/2+x,1/2+y,z
1/2-x,1/2+y,1/2-z
1/2-x,1/2-y,-z
1/2+x,1/2-y,1/2+z
loop_
_atom_site_type_symbol
_atom_site_label
_atom_site_fract_x
_atom_site_fract_y
_atom_site_fract_z
Si Si1 0.396821 0.960143 0.978281
Si Si2 0.669362 0.560713 0.364251
Si Si3 0.914413 0.778757 0.430993
Si Si4 0.878544 0.379727 0.190993
Si Si5 0.560268 0.721915 0.232035
Si Si6 0.779456 0.072833 0.772472
Si Si7 0.225284 0.850682 0.693038
Si Si8 0.445583 0.531780 0.552367
O O1 0.307336 0.969595 0.959571
O O2 0.292241 0.908622 0.819452
O O3 0.381793 0.037601 0.922509
O O4 0.548141 0.918308 0.163476
O O5 0.734751 0.576174 0.510473
O O6 0.630873 0.641859 0.294006
O O7 0.531977 0.504678 0.208222
O O8 0.786215 0.841919 0.291503
O O9 0.855866 0.710417 0.324875
O O10 0.944065 0.762271 0.545260
O O11 0.075182 0.811004 0.569480
O O12 0.838673 0.295643 0.162849
O O13 0.000000 0.377461 0.250000
O O14 0.500000 0.717581 0.250000
O O15 0.912236 0.054636 0.851826
O O16 0.848426 0.031368 0.912452
O O17 0.165834 0.897891 0.563630
#
# Coordination Sequence:
#
# PCOD9254206 Si02
#       8
#     8   8   8   8   8   8   8   8
#     4   9  15  28  45  67  90 120 160 199 234 271
#     4  10  16  28  44  60  92 124 166 194 226 274
#     4  11  19  32  48  70  95 130 161 196 237 281
#     4   9  18  25  38  64  93 124 151 189 229 267
#     4  11  20  28  38  63  99 135 157 189 221 279
#     4   8  14  26  47  65  85 115 158 205 234 270
#     4  10  19  30  50  70  95 123 163 199 241 280
#     4   8  14  27  46  67  82 118 163 203 231 271
#
# _framework density 21.433810999999999
#
# number of rings (size 3 to 8) (size 9 to 14) (size 15 to 20)
#    0.000    2.500    3.750    1.875    0.000    1.000 
#    0.000    0.000    0.000    4.500    0.000    0.875 
#    0.000    3.000    0.000    0.375    0.000    0.000 
#
# Total GULP energy -178548.318510 kJ/mol
# GULP energy per Si atom -5579.634953 kJ/mol
# Density = 2.138503 g / cm^3
# Si number density = 21.433811 Si / 1000 Ang^3
#
#
#
# Elastic Constant Matrix: (Units=GPa)
#
#
# Indices 1 2 3 4 5 6 
#
# 1 44.7996 8.3356 17.7243 0.0019 -1.3625 0.0001
# 2 8.3356 92.1127 61.1050 0.0161 -20.9663 0.0111
# 3 17.7243 61.1050 125.3412 0.0055 -22.3469 0.0036
# 4 0.0019 0.0161 0.0055 51.1568 0.0029 -5.8829
# 5 -1.3625 -20.9663 -22.3469 0.0029 27.7716 0.0013
# 6 0.0001 0.0111 0.0036 -5.8829 0.0013 15.4673
#
#
#
# Elastic Compliance Matrix: (Units=1/GPa)
#
#
# Indices 1 2 3 4 5 6 
#
# 1 0.023723 -0.000186 -0.003597 0.000000 -0.001872 0.000001
# 2 -0.000186 0.017225 -0.007068 -0.000007 0.007308 -0.000014
# 3 -0.003597 -0.007068 0.012784 0.000001 0.004774 0.000002
# 4 0.000000 -0.000007 0.000001 0.020442 -0.000007 0.007775
# 5 -0.001872 0.007308 0.004774 -0.000007 0.045275 -0.000013
# 6 0.000001 -0.000014 0.000002 0.007775 -0.000013 0.067610
#
#
# Mechanical properties :
#
#
# Convention : Reuss Voigt Hill
#
# Bulk Modulus (GPa) = 31.22279 48.50926 39.86603
# Shear Modulus (GPa) = 22.78546 30.55171 26.66858
#
# Velocity S-wave (km/s) = 3.26400 3.77954 3.53119
# Velocity P-wave (km/s) = 5.36690 6.45971 5.93849
#
# Compressibility (1/GPa) = 0.03202788
#
# Stress axis : x y z
#
# Youngs Moduli (GPa) = 42.15377 58.05391 78.22297
#
# Poissons Ratio (x) = 0.01082 0.28140
# Poissons Ratio (y) = 0.00785 0.55290
# Poissons Ratio (z) = 0.15165 0.41034
#
# Static dielectric constant tensor:
#      x y z
#    x 1.813710 0.000000 0.059320 
#    y 0.000000 1.796540 0.000000 
#    z 0.059320 0.000000 1.839870 
# 
# From -- ./inp_files/284809.got.cif
#   From: 2010.05.17/outbox.cif.g08.bks.cpg/sg15_143_cif.got.tgz:284809.got - 2010.06.03 18:47:42.
