data_PCOD9254865
_publ_section_title
;
Structure prediction by ZEFSAII (Michael W. Deem and Ramdas Pophale) SiO2 
 PCOD9254865
Probable space group: C 2/C
;
_chemical_formula_sum "Si O2"
_cell_formula_units_Z 44
_cell_length_a 11.982994
_cell_length_b 15.040351
_cell_length_c 26.734229
_cell_angle_alpha 90.000000
_cell_angle_beta 30.001042
_cell_angle_gamma 90.000000
_cell_volume 2409.210024
_symmetry_space_group_name_H-M "C 2/C"
_symmetry_group_IT_number 15
_symmetry_cell_setting 'monoclinic'
loop_
_space_group_symop_operation_xyz
x,y,z
-x,y,1/2-z
-x,-y,-z
x,-y,1/2+z
1/2+x,1/2+y,z
1/2-x,1/2+y,1/2-z
1/2-x,1/2-y,-z
1/2+x,1/2-y,1/2+z
loop_
_atom_site_type_symbol
_atom_site_label
_atom_site_fract_x
_atom_site_fract_y
_atom_site_fract_z
Si Si1 0.293489 0.760713 0.423962
Si Si2 0.883228 0.052049 0.499806
Si Si3 0.873900 0.381251 0.922600
Si Si4 0.000000 0.213025 0.750000
Si Si5 0.693816 0.342115 0.802075
Si Si6 0.854717 0.288844 0.036580
O O1 0.250000 0.750000 0.500000
O O2 0.270494 0.865702 0.422064
O O3 0.529873 0.711452 0.328085
O O4 0.089625 0.716277 0.473654
O O5 0.057222 0.094201 0.392634
O O6 0.738244 0.976511 0.530115
O O7 0.000000 0.000000 0.500000
O O8 0.732264 0.311383 0.943111
O O9 0.114732 0.389925 0.803654
O O10 0.883910 0.337656 0.972995
O O11 0.824800 0.272397 0.786568
O O12 0.838660 0.167933 0.853561
#
# Coordination Sequence:
#
# PCOD9254865 Si02
#       6
#     8   8   8   4   8   8
#     4  10  19  37  63  88 116 164 203 243 302 369
#     4  11  19  38  63  92 120 155 210 258 299 350
#     4  10  22  38  57  92 127 153 197 257 303 358
#     4  10  16  36  64  80 112 168 204 230 294 372
#     4  10  21  38  60  86 125 165 194 247 318 358
#     4  10  19  37  61  85 121 160 195 245 304 364
#
# _framework density 18.263248000000001
#
# number of rings (size 3 to 8) (size 9 to 14) (size 15 to 20)
#    0.000    1.818    5.455    1.091    0.000    0.727 
#    9.818    5.455    0.000    0.000    0.000    0.000 
#    0.000    0.000    0.000    0.000    0.000    0.000 
#
# Total GULP energy -122591.252343 kJ/mol
# GULP energy per Si atom -5572.329652 kJ/mol
# Density = 1.822168 g / cm^3
# Si number density = 18.263248 Si / 1000 Ang^3
#
#
#
# Elastic Constant Matrix: (Units=GPa)
#
#
# Indices 1 2 3 4 5 6 
#
# 1 116.8981 30.5750 44.5731 0.0000 -20.7578 -0.0002
# 2 30.5750 72.4467 34.2723 -0.0023 -12.9145 0.0006
# 3 44.5731 34.2723 108.9281 0.0002 -7.9202 -0.0014
# 4 0.0000 -0.0023 0.0002 25.6904 -0.0008 -0.5305
# 5 -20.7578 -12.9145 -7.9202 -0.0008 34.3567 0.0001
# 6 -0.0002 0.0006 -0.0014 -0.5305 0.0001 21.7118
#
#
#
# Elastic Compliance Matrix: (Units=1/GPa)
#
#
# Indices 1 2 3 4 5 6 
#
# 1 0.011435 -0.002181 -0.003611 0.000000 0.005257 0.000000
# 2 -0.002181 0.017525 -0.004311 0.000002 0.004276 -0.000001
# 3 -0.003611 -0.004311 0.011938 -0.000001 -0.001050 0.000001
# 4 0.000000 0.000002 -0.000001 0.038945 0.000001 0.000952
# 5 0.005257 0.004276 -0.001050 0.000001 0.033648 0.000000
# 6 0.000000 -0.000001 0.000001 0.000952 0.000000 0.046081
#
#
# Mechanical properties :
#
#
# Convention : Reuss Voigt Hill
#
# Bulk Modulus (GPa) = 48.32428 57.45708 52.89068
# Shear Modulus (GPa) = 26.78462 28.94195 27.86329
#
# Velocity S-wave (km/s) = 3.83376 3.98516 3.91019
# Velocity P-wave (km/s) = 6.79075 7.25976 7.02917
#
# Compressibility (1/GPa) = 0.02069353
#
# Stress axis : x y z
#
# Youngs Moduli (GPa) = 87.44997 57.06084 83.76711
#
# Poissons Ratio (x) = 0.12444 0.30247
# Poissons Ratio (y) = 0.19071 0.36109
# Poissons Ratio (z) = 0.31577 0.24597
#
# Static dielectric constant tensor:
#      x y z
#    x 1.637150 0.000000 -0.019730 
#    y 0.000000 1.636510 -0.000010 
#    z -0.019730 -0.000010 1.649730 
# 
# From -- ./inp_files/198064.got.cif
#   From: 2010.05.17/outbox.cif.g08.bks.cpg/sg15_100_cif.got.tgz:198064.got - 2010.06.03 18:47:42.
