data_PCOD9254640
_publ_section_title
;
Structure prediction by ZEFSAII (Michael W. Deem and Ramdas Pophale) SiO2 
 PCOD9254640
Probable space group: C 2/C
;
_chemical_formula_sum "Si O2"
_cell_formula_units_Z 44
_cell_length_a 12.721431
_cell_length_b 17.045233
_cell_length_c 8.591646
_cell_angle_alpha 90.000000
_cell_angle_beta 104.921854
_cell_angle_gamma 90.000000
_cell_volume 1800.185855
_symmetry_space_group_name_H-M "C 2/C"
_symmetry_group_IT_number 15
_symmetry_cell_setting 'monoclinic'
loop_
_space_group_symop_operation_xyz
x,y,z
-x,y,1/2-z
-x,-y,-z
x,-y,1/2+z
1/2+x,1/2+y,z
1/2-x,1/2+y,1/2-z
1/2-x,1/2-y,-z
1/2+x,1/2-y,1/2+z
loop_
_atom_site_type_symbol
_atom_site_label
_atom_site_fract_x
_atom_site_fract_y
_atom_site_fract_z
Si Si1 0.395367 0.821072 0.481501
Si Si2 0.636514 0.143558 0.206648
Si Si3 0.582963 0.969636 0.161166
Si Si4 0.500000 0.726671 0.250000
Si Si5 0.831869 0.108382 0.077513
Si Si6 0.082417 0.030489 0.665109
O O1 0.336441 0.807748 0.625951
O O2 0.519171 0.834320 0.593089
O O3 0.348530 0.902789 0.395828
O O4 0.416396 0.768029 0.338485
O O5 0.723473 0.146952 0.102570
O O6 0.631910 0.049878 0.247081
O O7 0.500000 0.929648 0.250000
O O8 0.500000 0.000000 0.000000
O O9 0.426831 0.671569 0.113881
O O10 0.866831 0.040044 0.213944
O O11 0.827258 0.073826 0.902911
O O12 0.000000 0.076324 0.750000
O O13 0.000000 0.000000 0.500000
#
# Coordination Sequence:
#
# PCOD9254640 Si02
#       6
#     8   8   8   4   8   8
#     4  10  22  39  59  87 130 168 196 249 313 380
#     4  10  22  39  60  94 121 155 214 259 309 359
#     4  10  16  32  58  83 113 152 194 251 304 351
#     4  12  24  42  60  80 132 182 204 244 302 374
#     4  11  23  39  67  94 122 158 210 267 305 368
#     4   9  18  41  63  90 117 154 208 262 314 343
#
# _framework density 24.441921000000001
#
# number of rings (size 3 to 8) (size 9 to 14) (size 15 to 20)
#    0.000    1.818    7.273    0.000    2.545    1.455 
#    3.273    0.000    0.000    0.000    0.000    0.000 
#    0.000    0.000    0.000    0.000    0.000    0.000 
#
# Total GULP energy -122641.387161 kJ/mol
# GULP energy per Si atom -5574.608507 kJ/mol
# Density = 2.438629 g / cm^3
# Si number density = 24.441921 Si / 1000 Ang^3
#
#
#
# Elastic Constant Matrix: (Units=GPa)
#
#
# Indices 1 2 3 4 5 6 
#
# 1 58.4829 -10.5625 25.4943 0.0000 -16.9986 0.0000
# 2 -10.5625 46.6357 25.1320 0.0000 1.2562 0.0000
# 3 25.4943 25.1320 163.4107 0.0000 -21.4003 0.0000
# 4 0.0000 0.0000 0.0000 11.3537 0.0000 -1.3423
# 5 -16.9986 1.2562 -21.4003 0.0000 50.0185 0.0000
# 6 0.0000 0.0000 0.0000 -1.3423 0.0000 10.9961
#
#
#
# Elastic Compliance Matrix: (Units=1/GPa)
#
#
# Indices 1 2 3 4 5 6 
#
# 1 0.021525 0.006695 -0.003657 0.000000 0.005582 0.000000
# 2 0.006695 0.025705 -0.005068 0.000000 -0.000539 0.000000
# 3 -0.003657 -0.005068 0.007758 0.000000 0.002204 0.000000
# 4 0.000000 0.000000 0.000000 0.089367 0.000000 0.010909
# 5 0.005582 -0.000539 0.002204 0.000000 0.022846 0.000000
# 6 0.000000 0.000000 0.000000 0.010909 0.000000 0.092273
#
#
# Mechanical properties :
#
#
# Convention : Reuss Voigt Hill
#
# Bulk Modulus (GPa) = 19.63533 38.73967 29.18750
# Shear Modulus (GPa) = 17.82469 29.70470 23.76470
#
# Velocity S-wave (km/s) = 2.70342 3.48992 3.12154
# Velocity P-wave (km/s) = 4.21848 5.66776 4.99595
#
# Compressibility (1/GPa) = 0.05092860
#
# Stress axis : x y z
#
# Youngs Moduli (GPa) = 46.45767 38.90269 128.89577
#
# Poissons Ratio (x) = -0.26047 0.47135
# Poissons Ratio (y) = -0.31106 0.65331
# Poissons Ratio (z) = 0.16989 0.19718
#
# Static dielectric constant tensor:
#      x y z
#    x 1.904820 0.000000 0.073160 
#    y 0.000000 1.999070 0.000000 
#    z 0.073160 0.000000 1.823610 
# 
# From -- ./inp_files/39165.got.cif
#   From: 2010.05.17/outbox.cif.g08.bks.cpg/sg15_20_cif.got.tgz:39165.got - 2010.06.03 18:47:42.
