data_PCOD9254195
_publ_section_title
;
Structure prediction by ZEFSAII (Michael W. Deem and Ramdas Pophale) SiO2 
 PCOD9254195
Probable space group: C 2/C
;
_chemical_formula_sum "Si O2"
_cell_formula_units_Z 64
_cell_length_a 14.663963
_cell_length_b 17.480936
_cell_length_c 11.518967
_cell_angle_alpha 90.000000
_cell_angle_beta 62.303308
_cell_angle_gamma 90.000000
_cell_volume 2614.442697
_symmetry_space_group_name_H-M "C 2/C"
_symmetry_group_IT_number 15
_symmetry_cell_setting 'monoclinic'
loop_
_space_group_symop_operation_xyz
x,y,z
-x,y,1/2-z
-x,-y,-z
x,-y,1/2+z
1/2+x,1/2+y,z
1/2-x,1/2+y,1/2-z
1/2-x,1/2-y,-z
1/2+x,1/2-y,1/2+z
loop_
_atom_site_type_symbol
_atom_site_label
_atom_site_fract_x
_atom_site_fract_y
_atom_site_fract_z
Si Si1 0.017840 0.668056 0.055348
Si Si2 0.625092 0.441383 0.682056
Si Si3 0.307074 0.800719 0.872580
Si Si4 0.380530 0.528035 0.578951
Si Si5 0.396652 0.886434 0.232051
Si Si6 0.625514 0.268342 0.655821
Si Si7 0.370855 0.290824 0.109778
Si Si8 0.383329 0.058136 0.260898
O O1 0.084954 0.679634 0.129514
O O2 0.986118 0.754372 0.047004
O O3 0.921210 0.610646 0.130345
O O4 0.079429 0.629514 0.915712
O O5 0.500000 0.440661 0.750000
O O6 0.656269 0.486834 0.779336
O O7 0.657670 0.473424 0.535085
O O8 0.659817 0.352642 0.674456
O O9 0.318457 0.750177 0.750947
O O10 0.285593 0.890483 0.862425
O O11 0.250000 0.750000 0.000000
O O12 0.500000 0.500000 0.500000
O O13 0.374658 0.618575 0.611721
O O14 0.500000 0.886682 0.250000
O O15 0.337562 0.810329 0.306822
O O16 0.349862 0.970444 0.269831
O O17 0.500000 0.269267 0.750000
O O18 0.652823 0.261856 0.505014
O O19 0.500000 0.048155 0.250000
#
# Coordination Sequence:
#
# PCOD9254195 Si02
#       8
#     8   8   8   8   8   8   8   8
#     4  10  18  31  53  83 112 137 183 234 272 340
#     4   8  15  25  37  64 103 140 169 207 270 325
#     4  10  22  38  53  72 109 153 190 227 270 325
#     4   9  17  26  44  70 105 137 172 222 277 323
#     4  10  16  27  52  88 118 140 164 223 298 337
#     4   9  15  27  47  80 113 137 164 212 285 348
#     4  10  18  33  53  82 107 139 184 228 279 335
#     4   8  17  31  52  86 111 136 182 231 280 335
#
# _framework density 24.479405
#
# number of rings (size 3 to 8) (size 9 to 14) (size 15 to 20)
#    0.000    2.750    2.500    2.250    0.000    3.000 
#    0.000    0.000    0.000    5.250    0.000    0.000 
#    0.000    0.000    0.000    0.000    0.000    0.000 
#
# Total GULP energy -178177.465118 kJ/mol
# GULP energy per Si atom -5568.045785 kJ/mol
# Density = 2.442369 g / cm^3
# Si number density = 24.479405 Si / 1000 Ang^3
#
#
#
# Elastic Constant Matrix: (Units=GPa)
#
#
# Indices 1 2 3 4 5 6 
#
# 1 65.6274 31.3981 22.3708 0.0000 21.8640 0.0000
# 2 31.3981 241.4032 120.6012 0.0000 20.9941 0.0000
# 3 22.3708 120.6012 186.5852 0.0000 8.9787 0.0000
# 4 0.0000 0.0000 0.0000 35.4651 0.0000 -0.1799
# 5 21.8640 20.9941 8.9787 0.0000 35.1507 0.0000
# 6 0.0000 0.0000 0.0000 -0.1799 0.0000 33.0095
#
#
#
# Elastic Compliance Matrix: (Units=1/GPa)
#
#
# Indices 1 2 3 4 5 6 
#
# 1 0.019957 -0.000998 -0.001194 0.000000 -0.011513 0.000000
# 2 -0.000998 0.006427 -0.003928 0.000000 -0.002214 0.000000
# 3 -0.001194 -0.003928 0.007991 0.000000 0.001047 0.000000
# 4 0.000000 0.000000 0.000000 0.028198 0.000000 0.000154
# 5 -0.011513 -0.002214 0.001047 0.000000 0.036665 0.000000
# 6 0.000000 0.000000 0.000000 0.000154 0.000000 0.030295
#
#
# Mechanical properties :
#
#
# Convention : Reuss Voigt Hill
#
# Bulk Modulus (GPa) = 45.17519 93.59513 69.38516
# Shear Modulus (GPa) = 33.52283 42.00810 37.76547
#
# Velocity S-wave (km/s) = 3.70460 4.14703 3.93204
# Velocity P-wave (km/s) = 6.06573 7.82609 7.00146
#
# Compressibility (1/GPa) = 0.02213604
#
# Stress axis : x y z
#
# Youngs Moduli (GPa) = 50.10656 155.58679 125.13848
#
# Poissons Ratio (x) = 0.15532 0.14936
# Poissons Ratio (y) = 0.05002 0.49155
# Poissons Ratio (z) = 0.05981 0.61116
#
# Static dielectric constant tensor:
#      x y z
#    x 2.073060 0.000000 -0.003810 
#    y 0.000000 1.807100 0.000000 
#    z -0.003810 0.000000 2.145910 
# 
# From -- ./inp_files/113471.got.cif
#   From: 2010.05.17/outbox.cif.g08.bks.cpg/sg15_57_cif.got.tgz:113471.got - 2010.06.03 18:47:42.
