data_PCOD9254127
_publ_section_title
;
Structure prediction by ZEFSAII (Michael W. Deem and Ramdas Pophale) SiO2 
 PCOD9254127
Probable space group: C 2/C
;
_chemical_formula_sum "Si O2"
_cell_formula_units_Z 52
_cell_length_a 16.428230
_cell_length_b 28.627555
_cell_length_c 10.206858
_cell_angle_alpha 90.000000
_cell_angle_beta 29.648463
_cell_angle_gamma 90.000000
_cell_volume 2374.591716
_symmetry_space_group_name_H-M "C 2/C"
_symmetry_group_IT_number 15
_symmetry_cell_setting 'monoclinic'
loop_
_space_group_symop_operation_xyz
x,y,z
-x,y,1/2-z
-x,-y,-z
x,-y,1/2+z
1/2+x,1/2+y,z
1/2-x,1/2+y,1/2-z
1/2-x,1/2-y,-z
1/2+x,1/2-y,1/2+z
loop_
_atom_site_type_symbol
_atom_site_label
_atom_site_fract_x
_atom_site_fract_y
_atom_site_fract_z
Si Si1 0.644144 0.693633 0.948215
Si Si2 0.500000 0.162433 0.750000
Si Si3 0.610473 0.904484 0.720716
Si Si4 0.802491 0.314094 0.789547
Si Si5 0.617472 0.992067 0.209956
Si Si6 0.799276 0.603731 0.842541
Si Si7 0.541401 0.744550 0.521447
O O1 0.500000 0.705077 0.250000
O O2 0.564193 0.710017 0.923760
O O3 0.690570 0.638863 0.906457
O O4 0.805737 0.724601 0.751675
O O5 0.587386 0.185842 0.500348
O O6 0.349601 0.132123 0.901569
O O7 0.500000 0.891986 0.750000
O O8 0.729654 0.864211 0.602754
O O9 0.685855 0.955602 0.590987
O O10 0.472949 0.903790 0.026763
O O11 0.639710 0.287118 0.983644
O O12 0.912576 0.284943 0.737273
O O13 0.500000 0.980321 0.250000
O O14 0.743915 0.949717 0.060272
O O15 0.500000 0.000000 0.500000
#
# Coordination Sequence:
#
# PCOD9254127 Si02
#       7
#     8   4   8   8   8   8   8
#     4  11  20  31  48  78 111 149 170 213 266 328
#     4  10  16  26  46  74 106 132 150 216 262 310
#     4   9  18  34  54  77 101 135 181 228 264 313
#     4  10  20  32  49  76 106 138 174 221 262 315
#     4   9  17  30  53  83 106 135 175 227 275 319
#     4  10  18  31  50  80 109 131 171 221 267 317
#     4  10  21  30  49  72 111 142 180 210 265 320
#
# _framework density 21.898503000000002
#
# number of rings (size 3 to 8) (size 9 to 14) (size 15 to 20)
#    0.000    2.154    3.846    1.385    4.308    0.000 
#    0.000    0.769    0.000    0.923    0.000    0.000 
#    0.000    0.000    0.000    0.000    0.000    0.000 
#
# Total GULP energy -144846.647084 kJ/mol
# GULP energy per Si atom -5571.024888 kJ/mol
# Density = 2.184866 g / cm^3
# Si number density = 21.898503 Si / 1000 Ang^3
#
#
#
# Elastic Constant Matrix: (Units=GPa)
#
#
# Indices 1 2 3 4 5 6 
#
# 1 96.5150 67.2442 18.6797 0.0000 -12.1381 0.0001
# 2 67.2442 176.0697 29.6992 0.0000 -21.6546 0.0001
# 3 18.6797 29.6992 59.8661 0.0000 -11.6017 0.0000
# 4 0.0000 0.0000 0.0000 11.2163 0.0000 0.7597
# 5 -12.1381 -21.6546 -11.6017 0.0000 30.3231 -0.0001
# 6 0.0001 0.0001 0.0000 0.7597 -0.0001 27.6119
#
#
#
# Elastic Compliance Matrix: (Units=1/GPa)
#
#
# Indices 1 2 3 4 5 6 
#
# 1 0.014377 -0.005017 -0.001702 0.000000 0.001521 0.000000
# 2 -0.005017 0.008315 -0.001942 0.000000 0.003187 0.000000
# 3 -0.001702 -0.001942 0.019223 0.000000 0.005286 0.000000
# 4 0.000000 0.000000 0.000000 0.089323 0.000000 -0.002458
# 5 0.001521 0.003187 0.005286 0.000000 0.037885 0.000000
# 6 0.000000 0.000000 0.000000 -0.002458 0.000000 0.036284
#
#
# Mechanical properties :
#
#
# Convention : Reuss Voigt Hill
#
# Bulk Modulus (GPa) = 40.66245 62.63301 51.64773
# Shear Modulus (GPa) = 21.65184 28.28544 24.96864
#
# Velocity S-wave (km/s) = 3.14783 3.59787 3.38035
# Velocity P-wave (km/s) = 5.64098 6.77666 6.23473
#
# Compressibility (1/GPa) = 0.02459271
#
# Stress axis : x y z
#
# Youngs Moduli (GPa) = 69.55513 120.26389 52.02075
#
# Poissons Ratio (x) = 0.60332 0.08856
# Poissons Ratio (y) = 0.34893 0.10103
# Poissons Ratio (z) = 0.11842 0.23357
#
# Static dielectric constant tensor:
#      x y z
#    x 1.840270 0.000000 0.049230 
#    y 0.000000 1.943720 0.000000 
#    z 0.049230 0.000000 1.764280 
# 
# From -- ./inp_files/108329.got.cif
#   From: 2010.05.17/outbox.cif.g08.bks.cpg/sg15_55_cif.got.tgz:108329.got - 2010.06.03 18:47:42.
