data_PCOD9254057
_publ_section_title
;
Structure prediction by ZEFSAII (Michael W. Deem and Ramdas Pophale) SiO2 
 PCOD9254057
Probable space group: C 2/C
;
_chemical_formula_sum "Si O2"
_cell_formula_units_Z 56
_cell_length_a 22.000221
_cell_length_b 6.727117
_cell_length_c 13.777633
_cell_angle_alpha 90.000000
_cell_angle_beta 104.919935
_cell_angle_gamma 90.000000
_cell_volume 1970.319130
_symmetry_space_group_name_H-M "C 2/C"
_symmetry_group_IT_number 15
_symmetry_cell_setting 'monoclinic'
loop_
_space_group_symop_operation_xyz
x,y,z
-x,y,1/2-z
-x,-y,-z
x,-y,1/2+z
1/2+x,1/2+y,z
1/2-x,1/2+y,1/2-z
1/2-x,1/2-y,-z
1/2+x,1/2-y,1/2+z
loop_
_atom_site_type_symbol
_atom_site_label
_atom_site_fract_x
_atom_site_fract_y
_atom_site_fract_z
Si Si1 0.523673 0.767469 0.020561
Si Si2 0.840356 0.923937 0.970234
Si Si3 0.288597 0.959045 0.135766
Si Si4 0.050433 0.141736 0.693703
Si Si5 0.095579 0.441827 0.197895
Si Si6 0.692150 0.017682 0.078195
Si Si7 0.679791 0.426573 0.317721
O O1 0.589323 0.660586 0.016281
O O2 0.541555 0.787891 0.142460
O O3 0.476797 0.658777 0.926196
O O4 0.500000 0.000000 0.000000
O O5 0.788446 0.064616 0.892519
O O6 0.804624 0.716579 0.944146
O O7 0.840044 0.986639 0.081594
O O8 0.306581 0.188657 0.169603
O O9 0.343619 0.855769 0.222040
O O10 0.305098 0.906608 0.030521
O O11 0.064103 0.369860 0.735480
O O12 0.119676 0.048658 0.725176
O O13 0.000000 0.063172 0.750000
O O14 0.128898 0.537234 0.113996
O O15 0.754516 0.042217 0.169299
#
# Coordination Sequence:
#
# PCOD9254057 Si02
#       7
#     8   8   8   8   8   8   8
#     4   9  16  23  33  57  91 108 126 157 201 264
#     4   8  12  22  36  53  76 106 132 165 203 250
#     4   8  14  23  38  54  74 106 137 169 205 236
#     4  10  16  23  37  58  88 112 124 148 209 263
#     4   9  17  24  35  56  84 109 132 163 204 241
#     4   8  14  24  37  54  78  99 138 172 200 236
#     4   8  13  22  37  54  74 107 131 162 203 248
#
# _framework density 28.421793000000001
#
# number of rings (size 3 to 8) (size 9 to 14) (size 15 to 20)
#    0.000    3.429    1.429    1.714    2.000    0.000 
#    0.000    0.000    0.000    0.000    0.000   17.000 
#    0.000    0.000    0.000    0.000    0.000    0.000 
#
# Total GULP energy -155919.202140 kJ/mol
# GULP energy per Si atom -5568.542934 kJ/mol
# Density = 2.835710 g / cm^3
# Si number density = 28.421793 Si / 1000 Ang^3
#
#
#
# Elastic Constant Matrix: (Units=GPa)
#
#
# Indices 1 2 3 4 5 6 
#
# 1 179.4293 55.7480 93.6373 0.0000 33.3637 0.0000
# 2 55.7480 103.7089 49.1072 0.0000 14.4946 0.0000
# 3 93.6373 49.1072 186.3945 0.0000 74.4941 0.0000
# 4 0.0000 0.0000 0.0000 52.3006 0.0000 24.4014
# 5 33.3637 14.4946 74.4941 0.0000 79.5732 0.0000
# 6 0.0000 0.0000 0.0000 24.4014 0.0000 39.1014
#
#
#
# Elastic Compliance Matrix: (Units=1/GPa)
#
#
# Indices 1 2 3 4 5 6 
#
# 1 0.008221 -0.002793 -0.003547 0.000000 0.000382 0.000000
# 2 -0.002793 0.012030 -0.002171 0.000000 0.001012 0.000000
# 3 -0.003547 -0.002171 0.011131 0.000000 -0.008538 0.000000
# 4 0.000000 0.000000 0.000000 0.026974 0.000000 -0.016833
# 5 0.000382 0.001012 -0.008538 0.000000 0.020215 0.000000
# 6 0.000000 0.000000 0.000000 -0.016833 0.000000 0.036079
#
#
# Mechanical properties :
#
#
# Convention : Reuss Voigt Hill
#
# Bulk Modulus (GPa) = 69.63418 96.27972 82.95695
# Shear Modulus (GPa) = 36.64111 52.26438 44.45274
#
# Velocity S-wave (km/s) = 3.59443 4.29287 3.95908
# Velocity P-wave (km/s) = 6.46374 7.64987 7.08169
#
# Compressibility (1/GPa) = 0.01436076
#
# Stress axis : x y z
#
# Youngs Moduli (GPa) = 121.64178 83.12405 89.84034
#
# Poissons Ratio (x) = 0.23217 0.31864
# Poissons Ratio (y) = 0.33975 0.19502
# Poissons Ratio (z) = 0.43143 0.18044
#
# Static dielectric constant tensor:
#      x y z
#    x 2.190190 0.000000 0.033220 
#    y 0.000000 2.356110 0.000000 
#    z 0.033220 0.000000 2.230130 
# 
# From -- ./inp_files/167318.got.cif
#   From: 2010.05.17/outbox.cif.g08.bks.cpg/sg15_84_cif.got.tgz:167318.got - 2010.06.03 18:47:42.
