data_PCOD9254459
_publ_section_title
;
Structure prediction by ZEFSAII (Michael W. Deem and Ramdas Pophale) SiO2 
 PCOD9254459
Probable space group: C 2/C
;
_chemical_formula_sum "Si O2"
_cell_formula_units_Z 52
_cell_length_a 13.667099
_cell_length_b 17.142119
_cell_length_c 14.594377
_cell_angle_alpha 90.000000
_cell_angle_beta 137.918581
_cell_angle_gamma 90.000000
_cell_volume 2291.509873
_symmetry_space_group_name_H-M "C 2/C"
_symmetry_group_IT_number 15
_symmetry_cell_setting 'monoclinic'
loop_
_space_group_symop_operation_xyz
x,y,z
-x,y,1/2-z
-x,-y,-z
x,-y,1/2+z
1/2+x,1/2+y,z
1/2-x,1/2+y,1/2-z
1/2-x,1/2-y,-z
1/2+x,1/2-y,1/2+z
loop_
_atom_site_type_symbol
_atom_site_label
_atom_site_fract_x
_atom_site_fract_y
_atom_site_fract_z
Si Si1 0.589377 0.059746 0.895739
Si Si2 0.000000 0.107324 0.750000
Si Si3 0.584803 0.375710 0.500354
Si Si4 0.105351 0.730759 0.958276
Si Si5 0.809280 0.178316 0.251701
Si Si6 0.309942 0.447788 0.400797
Si Si7 0.252401 0.001997 0.835639
O O1 0.500000 0.023185 0.750000
O O2 0.539307 0.144691 0.891808
O O3 0.737374 0.081208 0.942744
O O4 0.620007 0.003897 0.001517
O O5 0.938529 0.152380 0.618949
O O6 0.875110 0.052806 0.707475
O O7 0.691005 0.325455 0.637868
O O8 0.434752 0.389755 0.452542
O O9 0.636553 0.465953 0.533753
O O10 0.967358 0.785076 0.839940
O O11 0.250000 0.750000 0.000000
O O12 0.176339 0.722373 0.109600
O O13 0.800004 0.087602 0.214222
O O14 0.215964 0.463406 0.242986
#
# Coordination Sequence:
#
# PCOD9254459 Si02
#       7
#     8   4   8   8   8   8   8
#     4  11  21  32  48  74 113 150 175 213 273 347
#     4  10  16  30  56  84 100 124 190 228 286 302
#     4   9  17  30  54  78 103 138 179 246 263 314
#     4  11  22  33  49  74 106 147 183 214 264 325
#     4  10  21  34  50  77 111 142 181 222 275 315
#     4   9  17  31  48  76 107 139 184 218 282 312
#     4   9  20  31  52  79 105 142 177 234 262 320
#
# _framework density 22.692463
#
# number of rings (size 3 to 8) (size 9 to 14) (size 15 to 20)
#    0.000    2.154    1.538    3.231    4.308    0.615 
#    0.000    0.000    0.000    0.923    0.000    0.000 
#    0.000    0.000    0.000    0.000    0.000    0.000 
#
# Total GULP energy -145025.935211 kJ/mol
# GULP energy per Si atom -5577.920585 kJ/mol
# Density = 2.264081 g / cm^3
# Si number density = 22.692463 Si / 1000 Ang^3
#
#
#
# Elastic Constant Matrix: (Units=GPa)
#
#
# Indices 1 2 3 4 5 6 
#
# 1 43.2606 0.4008 9.3256 -0.0001 -18.7488 0.0000
# 2 0.4008 44.9338 12.9380 0.0000 3.6339 0.0000
# 3 9.3256 12.9380 159.0951 -0.0002 -38.1713 -0.0001
# 4 -0.0001 0.0000 -0.0002 24.7243 -0.0002 -0.0859
# 5 -18.7488 3.6339 -38.1713 -0.0002 46.7615 -0.0001
# 6 0.0000 0.0000 -0.0001 -0.0859 -0.0001 15.4985
#
#
#
# Elastic Compliance Matrix: (Units=1/GPa)
#
#
# Indices 1 2 3 4 5 6 
#
# 1 0.028324 -0.001726 0.001538 0.000000 0.012746 0.000000
# 2 -0.001726 0.023539 -0.003007 0.000000 -0.004976 0.000000
# 3 0.001538 -0.003007 0.008262 0.000000 0.007595 0.000000
# 4 0.000000 0.000000 0.000000 0.040447 0.000000 0.000224
# 5 0.012746 -0.004976 0.007595 0.000000 0.033082 0.000000
# 6 0.000000 0.000000 0.000000 0.000224 0.000000 0.064523
#
#
# Mechanical properties :
#
#
# Convention : Reuss Voigt Hill
#
# Bulk Modulus (GPa) = 18.60981 32.51313 25.56147
# Shear Modulus (GPa) = 22.47404 32.37187 27.42295
#
# Velocity S-wave (km/s) = 3.15044 3.78106 3.48006
# Velocity P-wave (km/s) = 4.63167 5.78107 5.23799
#
# Compressibility (1/GPa) = 0.05373510
#
# Stress axis : x y z
#
# Youngs Moduli (GPa) = 35.30536 42.48346 121.03448
#
# Poissons Ratio (x) = 0.07334 -0.18619
# Poissons Ratio (y) = 0.06095 0.36394
# Poissons Ratio (z) = -0.05431 0.12774
#
# Static dielectric constant tensor:
#      x y z
#    x 1.919580 0.000000 0.015730 
#    y 0.000000 1.826100 0.000000 
#    z 0.015730 0.000000 2.005460 
# 
# From -- ./inp_files/155535.got.cif
#   From: 2010.05.17/outbox.cif.g08.bks.cpg/sg15_78_cif.got.tgz:155535.got - 2010.06.03 18:47:42.
