data_PCOD9254828
_publ_section_title
;
Structure prediction by ZEFSAII (Michael W. Deem and Ramdas Pophale) SiO2 
 PCOD9254828
Probable space group: C 2/C
;
_chemical_formula_sum "Si O2"
_cell_formula_units_Z 44
_cell_length_a 12.940470
_cell_length_b 17.520298
_cell_length_c 14.525841
_cell_angle_alpha 90.000000
_cell_angle_beta 42.834836
_cell_angle_gamma 90.000000
_cell_volume 2239.080700
_symmetry_space_group_name_H-M "C 2/C"
_symmetry_group_IT_number 15
_symmetry_cell_setting 'monoclinic'
loop_
_space_group_symop_operation_xyz
x,y,z
-x,y,1/2-z
-x,-y,-z
x,-y,1/2+z
1/2+x,1/2+y,z
1/2-x,1/2+y,1/2-z
1/2-x,1/2-y,-z
1/2+x,1/2-y,1/2+z
loop_
_atom_site_type_symbol
_atom_site_label
_atom_site_fract_x
_atom_site_fract_y
_atom_site_fract_z
Si Si1 0.000000 0.527013 0.250000
Si Si2 0.478859 0.089399 0.595373
Si Si3 0.323202 0.536351 0.001316
Si Si4 0.503904 0.594812 0.043011
Si Si5 0.735896 0.507419 0.167182
Si Si6 0.431323 0.254602 0.893606
O O1 0.009937 0.471888 0.330541
O O2 0.158047 0.570150 0.133268
O O3 0.625574 0.067625 0.437751
O O4 0.499570 0.173995 0.619692
O O5 0.321232 0.067902 0.649364
O O6 0.446632 0.586190 0.975780
O O7 0.343065 0.453444 0.037657
O O8 0.331837 0.517192 0.887765
O O9 0.383105 0.549655 0.188139
O O10 0.526469 0.679789 0.061925
O O11 0.500000 0.276403 0.750000
O O12 0.250000 0.250000 0.000000
#
# Coordination Sequence:
#
# PCOD9254828 Si02
#       6
#     4   8   8   8   8   8
#     4  10  16  36  54  82 108 144 198 232 280 340
#     4  10  20  34  60  85 114 154 194 240 292 349
#     4  10  21  34  59  81 114 154 197 242 286 345
#     4  11  22  38  56  89 120 154 195 249 297 345
#     4  10  20  38  58  87 115 154 202 243 284 351
#     4  12  24  38  59  89 126 155 192 249 309 359
#
# _framework density 19.650921
#
# number of rings (size 3 to 8) (size 9 to 14) (size 15 to 20)
#    0.000    1.455    2.727    4.909    0.000    0.000 
#    0.000    0.909    0.000    0.000    4.727    0.000 
#    0.000    0.000    0.000    0.000    0.000    0.000 
#
# Total GULP energy -122765.740859 kJ/mol
# GULP energy per Si atom -5580.260948 kJ/mol
# Density = 1.960619 g / cm^3
# Si number density = 19.650921 Si / 1000 Ang^3
#
#
#
# Elastic Constant Matrix: (Units=GPa)
#
#
# Indices 1 2 3 4 5 6 
#
# 1 137.6313 29.5667 6.7086 -0.0001 6.6989 0.0000
# 2 29.5667 53.0623 -26.1976 -0.0002 9.5566 0.0001
# 3 6.7086 -26.1976 65.3482 -0.0002 -17.5793 0.0001
# 4 -0.0001 -0.0002 -0.0002 14.4652 0.0001 4.7513
# 5 6.6989 9.5566 -17.5793 0.0001 29.9610 0.0000
# 6 0.0000 0.0001 0.0001 4.7513 0.0000 29.8605
#
#
#
# Elastic Compliance Matrix: (Units=1/GPa)
#
#
# Indices 1 2 3 4 5 6 
#
# 1 0.009029 -0.006703 -0.004253 0.000000 -0.002376 0.000000
# 2 -0.006703 0.028611 0.012000 0.000001 -0.000586 0.000000
# 3 -0.004253 0.012000 0.023483 0.000000 0.010902 0.000000
# 4 0.000000 0.000001 0.000000 0.072944 0.000000 -0.011607
# 5 -0.002376 -0.000586 0.010902 0.000000 0.040491 0.000000
# 6 0.000000 0.000000 0.000000 -0.011607 0.000000 0.035336
#
#
# Mechanical properties :
#
#
# Convention : Reuss Voigt Hill
#
# Bulk Modulus (GPa) = 15.82001 30.68856 23.25429
# Shear Modulus (GPa) = 21.84596 31.25493 26.55044
#
# Velocity S-wave (km/s) = 3.33784 3.99244 3.67972
# Velocity P-wave (km/s) = 4.78778 6.07483 5.46930
#
# Compressibility (1/GPa) = 0.06321107
#
# Stress axis : x y z
#
# Youngs Moduli (GPa) = 110.75820 34.95169 42.58448
#
# Poissons Ratio (x) = 0.23427 0.18112
# Poissons Ratio (y) = 0.74238 -0.51103
# Poissons Ratio (z) = 0.47108 -0.41943
#
# Static dielectric constant tensor:
#      x y z
#    x 1.804840 0.000000 -0.034560 
#    y 0.000000 1.649560 0.000000 
#    z -0.034560 0.000000 1.788990 
# 
# From -- ./inp_files/86143.got.cif
#   From: 2010.05.17/outbox.cif.g08.bks.cpg/sg15_44_cif.got.tgz:86143.got - 2010.06.03 18:47:42.
