data_PCOD9254717
_publ_section_title
;
Structure prediction by ZEFSAII (Michael W. Deem and Ramdas Pophale) SiO2 
 PCOD9254717
Probable space group: C 2/C
;
_chemical_formula_sum "Si O2"
_cell_formula_units_Z 40
_cell_length_a 16.600953
_cell_length_b 18.411797
_cell_length_c 17.339642
_cell_angle_alpha 90.000000
_cell_angle_beta 161.059409
_cell_angle_gamma 90.000000
_cell_volume 1720.288290
_symmetry_space_group_name_H-M "C 2/C"
_symmetry_group_IT_number 15
_symmetry_cell_setting 'monoclinic'
loop_
_space_group_symop_operation_xyz
x,y,z
-x,y,1/2-z
-x,-y,-z
x,-y,1/2+z
1/2+x,1/2+y,z
1/2-x,1/2+y,1/2-z
1/2-x,1/2-y,-z
1/2+x,1/2-y,1/2+z
loop_
_atom_site_type_symbol
_atom_site_label
_atom_site_fract_x
_atom_site_fract_y
_atom_site_fract_z
Si Si1 0.651682 0.714819 0.067732
Si Si2 0.000000 0.684696 0.250000
Si Si3 0.410452 0.054014 0.058184
Si Si4 0.000000 0.053230 0.250000
Si Si5 0.181372 0.581866 0.843336
Si Si6 0.139597 0.925826 0.153176
O O1 0.888772 0.742078 0.331884
O O2 0.765500 0.718885 0.083847
O O3 0.568788 0.632957 0.011830
O O4 0.098038 0.629555 0.405606
O O5 0.328352 0.061741 0.895288
O O6 0.211393 0.000204 0.914531
O O7 0.647355 0.005119 0.296815
O O8 0.060460 0.097708 0.380884
O O9 0.199788 0.607697 0.772682
O O10 0.000000 0.604955 0.750000
O O11 0.000000 0.000000 0.000000
#
# Coordination Sequence:
#
# PCOD9254717 Si02
#       6
#     8   4   8   4   8   8
#     4  12  29  51  71 105 151 200 239 292 359 446
#     4  12  22  44  73 102 146 207 236 270 348 452
#     4  11  20  35  63 102 146 183 229 298 345 424
#     4  10  16  34  53  94 148 169 222 284 378 404
#     4  10  21  37  60  99 145 176 230 311 370 412
#     4  12  24  42  72 105 138 187 250 302 363 417
#
# _framework density 23.251916999999999
#
# number of rings (size 3 to 8) (size 9 to 14) (size 15 to 20)
#    0.000    0.800    5.000    4.800    0.000    3.200 
#    0.000    0.000    0.000    1.200    0.000    0.000 
#    0.000    0.000    0.000    0.000    0.000    0.000 
#
# Total GULP energy -111353.575880 kJ/mol
# GULP energy per Si atom -5567.678794 kJ/mol
# Density = 2.319899 g / cm^3
# Si number density = 23.251917 Si / 1000 Ang^3
#
#
#
# Elastic Constant Matrix: (Units=GPa)
#
#
# Indices 1 2 3 4 5 6 
#
# 1 151.3345 -0.4275 43.4434 -0.0043 -16.5797 -0.0035
# 2 -0.4275 57.9162 11.8652 -0.0373 9.1620 0.0046
# 3 43.4434 11.8652 101.1978 -0.1422 -24.8341 -0.0118
# 4 -0.0043 -0.0373 -0.1422 19.7127 -0.0514 5.6269
# 5 -16.5797 9.1620 -24.8341 -0.0514 52.0627 0.0085
# 6 -0.0035 0.0046 -0.0118 5.6269 0.0085 32.1373
#
#
#
# Elastic Compliance Matrix: (Units=1/GPa)
#
#
# Indices 1 2 3 4 5 6 
#
# 1 0.007597 0.000565 -0.003124 -0.000018 0.000830 0.000003
# 2 0.000565 0.018785 -0.003638 -0.000003 -0.004861 -0.000002
# 3 -0.003124 -0.003638 0.013095 0.000107 0.005892 -0.000015
# 4 -0.000018 -0.000003 0.000107 0.053399 0.000100 -0.009350
# 5 0.000830 -0.004861 0.005892 0.000100 0.023138 -0.000021
# 6 0.000003 -0.000002 -0.000015 -0.009350 -0.000021 0.032754
#
#
# Mechanical properties :
#
#
# Convention : Reuss Voigt Hill
#
# Bulk Modulus (GPa) = 36.92337 46.69007 41.80672
# Shear Modulus (GPa) = 29.37907 37.82037 33.59972
#
# Velocity S-wave (km/s) = 3.55845 4.03742 3.80548
# Velocity P-wave (km/s) = 5.72692 6.46978 6.10965
#
# Compressibility (1/GPa) = 0.02708312
#
# Stress axis : x y z
#
# Youngs Moduli (GPa) = 131.62759 53.23462 76.36316
#
# Poissons Ratio (x) = -0.03007 0.23856
# Poissons Ratio (y) = -0.07434 0.27780
# Poissons Ratio (z) = 0.41121 0.19366
#
# Static dielectric constant tensor:
#      x y z
#    x 2.097420 0.000190 0.273150 
#    y 0.000190 1.884790 0.000280 
#    z 0.273150 0.000280 2.494410 
# 
# From -- ./inp_files/211917.got.cif
#   From: 2010.05.17/outbox.cif.g08.bks.cpg/sg15_106_cif.got.tgz:211917.got - 2010.06.03 18:47:42.
