data_PCOD9254538
_publ_section_title
;
Structure prediction by ZEFSAII (Michael W. Deem and Ramdas Pophale) SiO2 
 PCOD9254538
Probable space group: C 2/C
;
_chemical_formula_sum "Si O2"
_cell_formula_units_Z 52
_cell_length_a 27.996883
_cell_length_b 14.848576
_cell_length_c 16.667118
_cell_angle_alpha 90.000000
_cell_angle_beta 17.450560
_cell_angle_gamma 90.000000
_cell_volume 2077.813006
_symmetry_space_group_name_H-M "C 2/C"
_symmetry_group_IT_number 15
_symmetry_cell_setting 'monoclinic'
loop_
_space_group_symop_operation_xyz
x,y,z
-x,y,1/2-z
-x,-y,-z
x,-y,1/2+z
1/2+x,1/2+y,z
1/2-x,1/2+y,1/2-z
1/2-x,1/2-y,-z
1/2+x,1/2-y,1/2+z
loop_
_atom_site_type_symbol
_atom_site_label
_atom_site_fract_x
_atom_site_fract_y
_atom_site_fract_z
Si Si1 0.622306 0.722866 0.618917
Si Si2 0.938540 0.185116 0.611397
Si Si3 0.159573 0.976122 0.340952
Si Si4 0.354045 0.093201 0.924896
Si Si5 0.500000 0.583230 0.250000
Si Si6 0.177934 0.664300 0.698595
Si Si7 0.511993 0.084805 0.107596
O O1 0.500000 0.687946 0.750000
O O2 0.800563 0.743072 0.303569
O O3 0.613973 0.665475 0.713203
O O4 0.557201 0.820853 0.751211
O O5 0.923094 0.097319 0.582770
O O6 0.101705 0.240358 0.344946
O O7 0.327857 0.934391 0.099341
O O8 0.058490 0.978760 0.583535
O O9 0.207488 0.066553 0.217941
O O10 0.500000 0.120731 0.750000
O O11 0.398056 0.996789 0.812946
O O12 0.333597 0.152957 0.878396
O O13 0.354621 0.644356 0.449255
O O14 0.065794 0.595384 0.929202
#
# Coordination Sequence:
#
# PCOD9254538 Si02
#       7
#     8   8   8   8   4   8   8
#     4  10  16  31  57  92 129 161 212 263 323 392
#     4  10  20  32  59  93 125 166 219 272 327 389
#     4  10  19  37  62  89 121 173 225 270 323 405
#     4  10  19  36  64  93 123 164 217 274 338 396
#     4  10  24  42  60  82 124 180 230 266 328 398
#     4  10  22  37  57  92 130 171 219 274 329 392
#     4   9  16  33  62  92 119 168 215 258 322 403
#
# _framework density 25.026312999999998
#
# number of rings (size 3 to 8) (size 9 to 14) (size 15 to 20)
#    0.000    2.154    3.077    0.923    0.000    1.231 
#    1.385    1.538    1.692    0.000    0.000    0.000 
#    0.000    0.000    0.000    0.000    0.000    0.000 
#
# Total GULP energy -145573.416589 kJ/mol
# GULP energy per Si atom -5598.977561 kJ/mol
# Density = 2.496935 g / cm^3
# Si number density = 25.026313 Si / 1000 Ang^3
#
#
#
# Elastic Constant Matrix: (Units=GPa)
#
#
# Indices 1 2 3 4 5 6 
#
# 1 164.9693 49.2197 50.9083 0.0000 14.8449 -0.0002
# 2 49.2197 90.0793 40.6470 -0.0004 0.8815 0.0000
# 3 50.9083 40.6470 131.7556 -0.0001 14.0449 0.0000
# 4 0.0000 -0.0004 -0.0001 23.3200 0.0002 2.2988
# 5 14.8449 0.8815 14.0449 0.0002 38.2761 0.0000
# 6 -0.0002 0.0000 0.0000 2.2988 0.0000 26.6832
#
#
#
# Elastic Compliance Matrix: (Units=1/GPa)
#
#
# Indices 1 2 3 4 5 6 
#
# 1 0.007839 -0.003492 -0.001703 0.000000 -0.002335 0.000000
# 2 -0.003492 0.014506 -0.003366 0.000000 0.002256 0.000000
# 3 -0.001703 -0.003366 0.009582 0.000000 -0.002778 0.000000
# 4 0.000000 0.000000 0.000000 0.043249 0.000000 -0.003726
# 5 -0.002335 0.002256 -0.002778 0.000000 0.027999 0.000000
# 6 0.000000 0.000000 0.000000 -0.003726 0.000000 0.037798
#
#
# Mechanical properties :
#
#
# Convention : Reuss Voigt Hill
#
# Bulk Modulus (GPa) = 67.54243 74.26160 70.90202
# Shear Modulus (GPa) = 30.66889 34.05780 32.36335
#
# Velocity S-wave (km/s) = 3.50446 3.69301 3.59997
# Velocity P-wave (km/s) = 6.58955 6.92259 6.75812
#
# Compressibility (1/GPa) = 0.01480551
#
# Stress axis : x y z
#
# Youngs Moduli (GPa) = 127.56366 68.93481 104.35806
#
# Poissons Ratio (x) = 0.24074 0.17769
# Poissons Ratio (y) = 0.44548 0.35131
# Poissons Ratio (z) = 0.21720 0.23206
#
# Static dielectric constant tensor:
#      x y z
#    x 1.979720 0.000000 -0.014200 
#    y 0.000000 1.966290 0.000000 
#    z -0.014200 0.000000 2.036240 
# 
# From -- ./inp_files/178989.got.cif
#   From: 2010.05.17/outbox.cif.g08.bks.cpg/sg15_90_cif.got.tgz:178989.got - 2010.06.03 18:47:42.
