data_PCOD9254941
_publ_section_title
;
Structure prediction by ZEFSAII (Michael W. Deem and Ramdas Pophale) SiO2 
 PCOD9254941
Probable space group: C 2/C
;
_chemical_formula_sum "Si O2"
_cell_formula_units_Z 36
_cell_length_a 15.507137
_cell_length_b 28.531031
_cell_length_c 7.764183
_cell_angle_alpha 90.000000
_cell_angle_beta 25.134909
_cell_angle_gamma 90.000000
_cell_volume 1459.080827
_symmetry_space_group_name_H-M "C 2/C"
_symmetry_group_IT_number 15
_symmetry_cell_setting 'monoclinic'
loop_
_space_group_symop_operation_xyz
x,y,z
-x,y,1/2-z
-x,-y,-z
x,-y,1/2+z
1/2+x,1/2+y,z
1/2-x,1/2+y,1/2-z
1/2-x,1/2-y,-z
1/2+x,1/2-y,1/2+z
loop_
_atom_site_type_symbol
_atom_site_label
_atom_site_fract_x
_atom_site_fract_y
_atom_site_fract_z
Si Si1 0.246919 0.716774 0.793653
Si Si2 0.000000 0.478720 0.250000
Si Si3 0.647365 0.934372 0.337381
Si Si4 0.796829 0.676038 0.288748
Si Si5 0.734668 0.348800 0.536938
O O1 0.302789 0.679930 0.843681
O O2 0.000000 0.719893 0.250000
O O3 0.321225 0.768969 0.695548
O O4 0.312105 0.696702 0.492663
O O5 0.954121 0.449784 0.161486
O O6 0.818496 0.515430 0.629143
O O7 0.811189 0.896648 0.980278
O O8 0.500000 0.911609 0.750000
O O9 0.686933 0.653534 0.324047
O O10 0.016786 0.653237 0.910496
#
# Coordination Sequence:
#
# PCOD9254941 Si02
#       5
#     8   4   8   8   8
#     4   9  17  28  38  52  74 103 135 162 187 214
#     4   8  16  24  36  52  76 104 124 148 186 228
#     4   9  15  25  36  54  76 102 129 146 186 230
#     4   9  17  26  37  55  74  98 136 160 187 218
#     4  10  17  25  41  57  76 105 130 156 184 227
#
# _framework density 24.673068000000001
#
# number of rings (size 3 to 8) (size 9 to 14) (size 15 to 20)
#    0.667    2.222    0.000    4.000    0.000    0.000 
#    0.000    0.000    0.000    0.000    0.000    0.000 
#    0.000    0.000    0.000   32.000    8.444   31.556 
#
# Total GULP energy -100372.816337 kJ/mol
# GULP energy per Si atom -5576.267574 kJ/mol
# Density = 2.461691 g / cm^3
# Si number density = 24.673068 Si / 1000 Ang^3
#
#
#
# Elastic Constant Matrix: (Units=GPa)
#
#
# Indices 1 2 3 4 5 6 
#
# 1 130.1284 27.1750 39.8124 -0.0001 27.7138 0.0000
# 2 27.1750 116.4261 9.7498 0.0000 12.5179 0.0000
# 3 39.8124 9.7498 113.6911 -0.0001 30.7918 0.0000
# 4 -0.0001 0.0000 -0.0001 5.8247 0.0001 8.8599
# 5 27.7138 12.5179 30.7918 0.0001 45.4168 0.0000
# 6 0.0000 0.0000 0.0000 8.8599 0.0000 20.7343
#
#
#
# Elastic Compliance Matrix: (Units=1/GPa)
#
#
# Indices 1 2 3 4 5 6 
#
# 1 0.009508 -0.001620 -0.002132 0.000001 -0.003910 0.000000
# 2 -0.001620 0.009129 0.000243 0.000000 -0.001692 0.000000
# 3 -0.002132 0.000243 0.011254 0.000001 -0.006396 0.000000
# 4 0.000001 0.000000 0.000001 0.490490 -0.000002 -0.209591
# 5 -0.003910 -0.001692 -0.006396 -0.000002 0.029207 0.000001
# 6 0.000000 0.000000 0.000000 -0.209591 0.000001 0.137789
#
#
# Mechanical properties :
#
#
# Convention : Reuss Voigt Hill
#
# Bulk Modulus (GPa) = 43.72089 57.08000 50.40045
# Shear Modulus (GPa) = 7.12231 33.29573 20.20902
#
# Velocity S-wave (km/s) = 1.70087 3.67751 2.86505
# Velocity P-wave (km/s) = 4.64928 6.42003 5.60503
#
# Compressibility (1/GPa) = 0.02287236
#
# Stress axis : x y z
#
# Youngs Moduli (GPa) = 105.17466 109.54189 88.86011
#
# Poissons Ratio (x) = 0.17750 0.18941
# Poissons Ratio (y) = 0.17042 -0.02158
# Poissons Ratio (z) = 0.22419 -0.02660
#
# Static dielectric constant tensor:
#      x y z
#    x 2.000020 0.000000 -0.044450 
#    y 0.000000 1.939040 0.000000 
#    z -0.044450 0.000000 2.098780 
# 
# From -- ./inp_files/51726.got.cif
#   From: 2010.05.17/outbox.cif.g08.bks.cpg/sg15_26_cif.got.tgz:51726.got - 2010.06.03 18:47:42.
