data_PCOD9254433
_publ_section_title
;
Structure prediction by ZEFSAII (Michael W. Deem and Ramdas Pophale) SiO2 
 PCOD9254433
Probable space group: C 2/C
;
_chemical_formula_sum "Si O2"
_cell_formula_units_Z 60
_cell_length_a 9.290769
_cell_length_b 16.813124
_cell_length_c 24.728498
_cell_angle_alpha 90.000000
_cell_angle_beta 125.386291
_cell_angle_gamma 90.000000
_cell_volume 3149.179004
_symmetry_space_group_name_H-M "C 2/C"
_symmetry_group_IT_number 15
_symmetry_cell_setting 'monoclinic'
loop_
_space_group_symop_operation_xyz
x,y,z
-x,y,1/2-z
-x,-y,-z
x,-y,1/2+z
1/2+x,1/2+y,z
1/2-x,1/2+y,1/2-z
1/2-x,1/2-y,-z
1/2+x,1/2-y,1/2+z
loop_
_atom_site_type_symbol
_atom_site_label
_atom_site_fract_x
_atom_site_fract_y
_atom_site_fract_z
Si Si1 0.324239 0.224474 0.387832
Si Si2 0.350951 0.835198 0.328823
Si Si3 0.544264 0.121378 0.169285
Si Si4 0.181973 0.997460 0.320251
Si Si5 0.238642 0.843919 0.675341
Si Si6 0.000000 0.285904 0.250000
Si Si7 0.758665 0.670221 0.539247
Si Si8 0.347625 0.411787 0.582889
O O1 0.463139 0.194703 0.374364
O O2 0.142787 0.235540 0.314443
O O3 0.346583 0.302535 0.429545
O O4 0.288668 0.150522 0.419636
O O5 0.273067 0.751311 0.331891
O O6 0.393518 0.832322 0.273599
O O7 0.541068 0.844141 0.398865
O O8 0.224235 0.907104 0.315427
O O9 0.650131 0.049102 0.164467
O O10 0.666457 0.142279 0.247037
O O11 0.352306 0.112502 0.153809
O O12 0.164913 0.012152 0.381006
O O13 0.000000 0.022305 0.250000
O O14 0.042328 0.876882 0.633156
O O15 0.750000 0.750000 0.500000
O O16 0.691508 0.596055 0.489303
#
# Coordination Sequence:
#
# PCOD9254433 Si02
#       8
#     8   8   8   8   8   4   8   8
#     4   9  15  29  54  83 105 148 193 235 276 339
#     4  11  22  34  59  94 115 145 193 254 284 339
#     4  10  21  33  55  83 118 151 187 243 295 355
#     4  11  24  38  55  85 122 150 188 238 311 342
#     4  11  19  34  61  86 113 147 202 238 288 340
#     4  10  16  30  54  80 112 138 180 240 290 326
#     4   9  17  33  60  87 111 152 206 232 278 345
#     4  10  18  36  61  78 115 162 196 228 282 367
#
# _framework density 19.052582999999998
#
# number of rings (size 3 to 8) (size 9 to 14) (size 15 to 20)
#    0.000    1.867    6.667    0.000    3.733    1.600 
#    0.000    0.667    0.000    0.800    0.000    0.000 
#    0.000    0.000    0.000    0.000    0.000    0.000 
#
# Total GULP energy -167031.585369 kJ/mol
# GULP energy per Si atom -5567.719512 kJ/mol
# Density = 1.900922 g / cm^3
# Si number density = 19.052583 Si / 1000 Ang^3
#
#
#
# Elastic Constant Matrix: (Units=GPa)
#
#
# Indices 1 2 3 4 5 6 
#
# 1 71.8209 20.2826 0.5171 0.0000 -11.4161 0.0000
# 2 20.2826 49.5445 -8.7038 0.0000 -0.8610 0.0000
# 3 0.5171 -8.7038 48.3911 0.0000 -9.7196 0.0000
# 4 0.0000 0.0000 0.0000 5.2580 0.0000 2.4281
# 5 -11.4161 -0.8610 -9.7196 0.0000 16.6669 0.0000
# 6 0.0000 0.0000 0.0000 2.4281 0.0000 22.9243
#
#
#
# Elastic Compliance Matrix: (Units=1/GPa)
#
#
# Indices 1 2 3 4 5 6 
#
# 1 0.017852 -0.006901 0.001079 0.000000 0.012500 0.000000
# 2 -0.006901 0.023713 0.004118 0.000000 -0.001101 0.000000
# 3 0.001079 0.004118 0.024449 0.000000 0.015209 0.000000
# 4 0.000000 0.000000 0.000000 0.199967 0.000000 -0.021180
# 5 0.012500 -0.001101 0.015209 0.000000 0.077374 0.000000
# 6 0.000000 0.000000 0.000000 -0.021180 0.000000 0.045865
#
#
# Mechanical properties :
#
#
# Convention : Reuss Voigt Hill
#
# Bulk Modulus (GPa) = 15.97338 21.54981 18.76159
# Shear Modulus (GPa) = 12.09194 19.48054 15.78624
#
# Velocity S-wave (km/s) = 2.52198 3.20106 2.88160
# Velocity P-wave (km/s) = 4.10884 4.99977 4.57604
#
# Compressibility (1/GPa) = 0.06260415
#
# Stress axis : x y z
#
# Youngs Moduli (GPa) = 56.01714 42.17010 40.90158
#
# Poissons Ratio (x) = 0.29103 -0.04412
# Poissons Ratio (y) = 0.38660 -0.16843
# Poissons Ratio (z) = -0.06042 -0.17365
#
# Static dielectric constant tensor:
#      x y z
#    x 1.693460 0.000000 -0.032570 
#    y 0.000000 1.682870 0.000000 
#    z -0.032570 0.000000 1.692770 
# 
# From -- ./inp_files/265571.got.cif
#   From: 2010.05.17/outbox.cif.g08.bks.cpg/sg15_133_cif.got.tgz:265571.got - 2010.06.03 18:47:42.
