data_PCOD9254236
_publ_section_title
;
Structure prediction by ZEFSAII (Michael W. Deem and Ramdas Pophale) SiO2 
 PCOD9254236
Probable space group: C 2/C
;
_chemical_formula_sum "Si O2"
_cell_formula_units_Z 60
_cell_length_a 10.048675
_cell_length_b 16.071597
_cell_length_c 18.437949
_cell_angle_alpha 90.000000
_cell_angle_beta 114.678079
_cell_angle_gamma 90.000000
_cell_volume 2705.737557
_symmetry_space_group_name_H-M "C 2/C"
_symmetry_group_IT_number 15
_symmetry_cell_setting 'monoclinic'
loop_
_space_group_symop_operation_xyz
x,y,z
-x,y,1/2-z
-x,-y,-z
x,-y,1/2+z
1/2+x,1/2+y,z
1/2-x,1/2+y,1/2-z
1/2-x,1/2-y,-z
1/2+x,1/2-y,1/2+z
loop_
_atom_site_type_symbol
_atom_site_label
_atom_site_fract_x
_atom_site_fract_y
_atom_site_fract_z
Si Si1 0.000000 0.654991 0.250000
Si Si2 0.803441 0.926838 0.468740
Si Si3 0.990976 0.974445 0.122094
Si Si4 0.031991 0.207963 0.033555
Si Si5 0.465262 0.704422 0.631655
Si Si6 0.812052 0.289003 0.221666
Si Si7 0.513560 0.145438 0.872338
Si Si8 0.815900 0.117232 0.303293
O O1 0.072146 0.719625 0.324438
O O2 0.858840 0.602426 0.242068
O O3 0.889780 0.951960 0.414736
O O4 0.628592 0.925960 0.419175
O O5 0.871682 0.835392 0.500240
O O6 0.859148 0.983321 0.547403
O O7 0.932667 0.890478 0.145878
O O8 0.080472 0.039741 0.190554
O O9 0.131996 0.146174 0.104196
O O10 0.026832 0.297959 0.068735
O O11 0.082392 0.213828 0.962237
O O12 0.640712 0.707603 0.673212
O O13 0.888947 0.301647 0.162728
O O14 0.845608 0.198677 0.262060
O O15 0.868533 0.360948 0.289818
#
# Coordination Sequence:
#
# PCOD9254236 Si02
#       8
#     4   8   8   8   8   8   8   8
#     4  10  22  38  56  74 102 150 182 208 264 328
#     4   9  16  27  48  74 103 133 168 208 263 311
#     4   9  17  32  50  74 104 133 172 223 253 300
#     4   9  17  29  52  76 103 129 172 224 255 303
#     4  10  19  36  55  74 104 139 180 216 257 311
#     4   9  18  29  47  76 109 133 167 216 264 308
#     4  10  16  28  48  80 104 134 167 211 271 314
#     4   9  19  35  50  76 103 136 177 221 251 308
#
# _framework density 22.1751
#
# number of rings (size 3 to 8) (size 9 to 14) (size 15 to 20)
#    0.000    2.667    2.667    1.200    0.000    0.533 
#    2.400    4.000    0.000    0.000    0.000    3.733 
#    0.000    0.000    0.000    0.000    0.000    0.000 
#
# Total GULP energy -167240.438149 kJ/mol
# GULP energy per Si atom -5574.681272 kJ/mol
# Density = 2.212463 g / cm^3
# Si number density = 22.175100 Si / 1000 Ang^3
#
#
#
# Elastic Constant Matrix: (Units=GPa)
#
#
# Indices 1 2 3 4 5 6 
#
# 1 44.2946 9.5741 11.2190 0.0000 18.5377 0.0000
# 2 9.5741 43.9336 34.3060 0.0000 4.0798 0.0000
# 3 11.2190 34.3060 71.8618 0.0000 1.3652 0.0000
# 4 0.0000 0.0000 0.0000 -78.8850 0.0000 -51.6743
# 5 18.5377 4.0798 1.3652 0.0000 26.7011 0.0000
# 6 0.0000 0.0000 0.0000 -51.6743 0.0000 -16.6805
#
#
#
# Elastic Compliance Matrix: (Units=1/GPa)
#
#
# Indices 1 2 3 4 5 6 
#
# 1 0.033527 -0.002304 -0.003702 0.000000 -0.022735 0.000000
# 2 -0.002304 0.037037 -0.017261 0.000000 -0.003177 0.000000
# 3 -0.003702 -0.017261 0.022657 0.000000 0.004049 0.000000
# 4 0.000000 0.000000 0.000000 0.012316 0.000000 -0.038153
# 5 -0.022735 -0.003177 0.004049 0.000000 0.053514 0.000000
# 6 0.000000 0.000000 0.000000 -0.038153 0.000000 0.058244
#
#
# Mechanical properties :
#
#
# Convention : Reuss Voigt Hill
#
# Bulk Modulus (GPa) = 21.41965 30.03202 25.72583
# Shear Modulus (GPa) = 17.89601 -6.77348 5.56126
#
# Velocity S-wave (km/s) = 2.84391 -1.74962 1.58535
# Velocity P-wave (km/s) = 4.52372 3.08074 3.87008
#
# Compressibility (1/GPa) = 0.04668610
#
# Stress axis : x y z
#
# Youngs Moduli (GPa) = 29.82701 26.99979 44.13653
#
# Poissons Ratio (x) = 0.06220 0.16341
# Poissons Ratio (y) = 0.06872 0.76185
# Poissons Ratio (z) = 0.11043 0.46605
#
# Static dielectric constant tensor:
#      x y z
#    x 1.840650 0.000000 0.038030 
#    y 0.000000 1.869460 0.000000 
#    z 0.038030 0.000000 1.874070 
# 
# From -- ./inp_files/199541.got.cif
#   From: 2010.05.17/outbox.cif.g08.bks.cpg/sg15_100_cif.got.tgz:199541.got - 2010.06.03 18:47:42.
