data_PCOD9254201
_publ_section_title
;
Structure prediction by ZEFSAII (Michael W. Deem and Ramdas Pophale) SiO2 
 PCOD9254201
Probable space group: C 2/C
;
_chemical_formula_sum "Si O2"
_cell_formula_units_Z 56
_cell_length_a 5.309922
_cell_length_b 23.757330
_cell_length_c 18.021122
_cell_angle_alpha 90.000000
_cell_angle_beta 79.966772
_cell_angle_gamma 90.000000
_cell_volume 2238.590064
_symmetry_space_group_name_H-M "C 2/C"
_symmetry_group_IT_number 15
_symmetry_cell_setting 'monoclinic'
loop_
_space_group_symop_operation_xyz
x,y,z
-x,y,1/2-z
-x,-y,-z
x,-y,1/2+z
1/2+x,1/2+y,z
1/2-x,1/2+y,1/2-z
1/2-x,1/2-y,-z
1/2+x,1/2-y,1/2+z
loop_
_atom_site_type_symbol
_atom_site_label
_atom_site_fract_x
_atom_site_fract_y
_atom_site_fract_z
Si Si1 0.420206 0.328278 0.170057
Si Si2 0.361037 0.489092 0.330907
Si Si3 0.722421 0.620798 0.970138
Si Si4 0.273715 0.814461 0.023734
Si Si5 0.815957 0.512211 0.911471
Si Si6 0.226116 0.708319 0.298064
Si Si7 0.563710 0.908063 0.835470
O O1 0.500000 0.342789 0.250000
O O2 0.283610 0.371070 0.120200
O O3 0.683746 0.315826 0.113964
O O4 0.256720 0.270803 0.171068
O O5 0.500000 0.469503 0.250000
O O6 0.542602 0.477894 0.389327
O O7 0.321894 0.556067 0.328648
O O8 0.075526 0.466525 0.357034
O O9 0.446318 0.647221 0.004805
O O10 0.789048 0.554853 0.982471
O O11 0.947952 0.658734 0.990354
O O12 0.250000 0.750000 0.000000
O O13 0.870132 0.445367 0.895669
O O14 0.500000 0.692284 0.250000
O O15 0.880649 0.656282 0.149116
O O16 0.000000 0.715422 0.250000
O O17 0.500000 0.911534 0.750000
#
# Coordination Sequence:
#
# PCOD9254201 Si02
#       7
#     8   8   8   8   8   8   8
#     4   9  23  37  57  83 122 145 187 231 295 336
#     4  10  16  28  39  66  99 142 183 211 255 330
#     4  10  22  37  56  83 116 143 191 228 287 339
#     4  10  22  41  62  81 110 150 198 236 276 341
#     4  10  19  29  46  71 105 140 175 227 271 329
#     4  10  21  32  50  73 108 155 189 229 272 328
#     4   9  18  29  46  66 106 147 194 215 264 328
#
# _framework density 25.015743000000001
#
# number of rings (size 3 to 8) (size 9 to 14) (size 15 to 20)
#    1.714    0.571    1.429    2.143    6.000    0.571 
#    5.143    0.000    0.000    0.000    0.000    2.000 
#    0.000    0.000    0.000    0.000    0.000    0.000 
#
# Total GULP energy -155940.260503 kJ/mol
# GULP energy per Si atom -5569.295018 kJ/mol
# Density = 2.495881 g / cm^3
# Si number density = 25.015743 Si / 1000 Ang^3
#
#
#
# Elastic Constant Matrix: (Units=GPa)
#
#
# Indices 1 2 3 4 5 6 
#
# 1 134.8159 23.3120 30.1056 0.0000 -8.3408 0.0000
# 2 23.3120 143.4292 20.2263 0.0000 -18.3948 0.0000
# 3 30.1056 20.2263 94.5981 0.0000 10.1792 0.0000
# 4 0.0000 0.0000 0.0000 19.4310 0.0000 -13.4421
# 5 -8.3408 -18.3948 10.1792 0.0000 17.9237 0.0000
# 6 0.0000 0.0000 0.0000 -13.4421 0.0000 4.1798
#
#
#
# Elastic Compliance Matrix: (Units=1/GPa)
#
#
# Indices 1 2 3 4 5 6 
#
# 1 0.008532 -0.000204 -0.003277 0.000000 0.005623 0.000000
# 2 -0.000204 0.008780 -0.002952 0.000000 0.010593 0.000000
# 3 -0.003277 -0.002952 0.013564 0.000000 -0.012258 0.000000
# 4 0.000000 0.000000 0.000000 -0.042021 0.000000 -0.135136
# 5 0.005623 0.010593 -0.012258 0.000000 0.076241 0.000000
# 6 0.000000 0.000000 0.000000 -0.135136 0.000000 -0.195343
#
#
# Mechanical properties :
#
#
# Convention : Reuss Voigt Hill
#
# Bulk Modulus (GPa) = 55.52176 57.79234 56.65705
# Shear Modulus (GPa) = -44.89252 28.25353 -8.31949
#
# Velocity S-wave (km/s) = -4.24083 3.36435 -1.82563
# Velocity P-wave (km/s) = 1.31782 6.18420 4.27245
#
# Compressibility (1/GPa) = 0.01801096
#
# Stress axis : x y z
#
# Youngs Moduli (GPa) = 117.20111 113.89496 73.72363
#
# Poissons Ratio (x) = 0.02319 0.24158
# Poissons Ratio (y) = 0.02386 0.21766
# Poissons Ratio (z) = 0.38405 0.33625
#
# Static dielectric constant tensor:
#      x y z
#    x 15.075740 0.000000 -11.371480 
#    y 0.000000 2.062000 0.000000 
#    z -11.371480 0.000000 11.907220 
# 
# From -- ./inp_files/186478.got.cif
#   From: 2010.05.17/outbox.cif.g08.bks.cpg/sg15_94_cif.got.tgz:186478.got - 2010.06.03 18:47:42.
