data_PCOD9254787
_publ_section_title
;
Structure prediction by ZEFSAII (Michael W. Deem and Ramdas Pophale) SiO2 
 PCOD9254787
Probable space group: C 2/C
;
_chemical_formula_sum "Si O2"
_cell_formula_units_Z 40
_cell_length_a 11.386571
_cell_length_b 11.741765
_cell_length_c 12.222673
_cell_angle_alpha 90.000000
_cell_angle_beta 112.300002
_cell_angle_gamma 90.000000
_cell_volume 1511.933589
_symmetry_space_group_name_H-M "C 2/C"
_symmetry_group_IT_number 15
_symmetry_cell_setting 'monoclinic'
loop_
_space_group_symop_operation_xyz
x,y,z
-x,y,1/2-z
-x,-y,-z
x,-y,1/2+z
1/2+x,1/2+y,z
1/2-x,1/2+y,1/2-z
1/2-x,1/2-y,-z
1/2+x,1/2-y,1/2+z
loop_
_atom_site_type_symbol
_atom_site_label
_atom_site_fract_x
_atom_site_fract_y
_atom_site_fract_z
Si Si1 0.280560 0.862237 0.576878
Si Si2 0.626662 0.849348 0.273754
Si Si3 0.864051 0.742870 0.316847
Si Si4 0.753922 0.411978 0.962245
Si Si5 0.981124 0.159277 0.429912
O O1 0.250000 0.750000 0.500000
O O2 0.373215 0.818450 0.703857
O O3 0.150092 0.904228 0.590030
O O4 0.312301 0.963847 0.506100
O O5 0.500000 0.926608 0.250000
O O6 0.765416 0.849763 0.264300
O O7 0.683432 0.839284 0.416541
O O8 0.561551 0.753792 0.173643
O O9 0.796268 0.644240 0.365278
O O10 0.972022 0.787795 0.437175
O O11 0.601291 0.407144 0.922102
#
# Coordination Sequence:
#
# PCOD9254787 Si02
#       5
#     8   8   8   8   8
#     4  11  27  44  57  92 138 167 206 257 317 374
#     4  10  16  34  64 100 119 147 209 272 301 356
#     4  10  21  38  67  91 123 165 211 264 313 363
#     4  11  21  39  67  99 119 166 220 254 309 378
#     4  10  20  41  68  92 126 170 208 265 308 372
#
# _framework density 26.456188999999998
#
# number of rings (size 3 to 8) (size 9 to 14) (size 15 to 20)
#    0.000    1.600    4.000    1.800    0.000    5.600 
#    3.600    6.000    0.000    0.000    0.000    0.000 
#    0.000    0.000    0.000    0.000    0.000    0.000 
#
# Total GULP energy -111382.227385 kJ/mol
# GULP energy per Si atom -5569.111369 kJ/mol
# Density = 2.639597 g / cm^3
# Si number density = 26.456189 Si / 1000 Ang^3
#
#
#
# Elastic Constant Matrix: (Units=GPa)
#
#
# Indices 1 2 3 4 5 6 
#
# 1 86.2823 -14.7756 12.0305 0.0000 37.3114 0.0000
# 2 -14.7756 102.0455 36.5503 0.0000 -7.8503 0.0000
# 3 12.0305 36.5503 173.7983 0.0000 16.8157 0.0000
# 4 0.0000 0.0000 0.0000 33.0379 0.0000 -0.0289
# 5 37.3114 -7.8503 16.8157 0.0000 49.5098 0.0000
# 6 0.0000 0.0000 0.0000 -0.0289 0.0000 0.2833
#
#
#
# Elastic Compliance Matrix: (Units=1/GPa)
#
#
# Indices 1 2 3 4 5 6 
#
# 1 0.017442 0.001657 -0.000320 0.000000 -0.012773 0.000000
# 2 0.001657 0.011068 -0.002576 0.000000 0.001381 0.000000
# 3 -0.000320 -0.002576 0.006549 0.000000 -0.002392 0.000000
# 4 0.000000 0.000000 0.000000 0.030271 0.000000 0.003085
# 5 -0.012773 0.001381 -0.002392 0.000000 0.030855 0.000000
# 6 0.000000 0.000000 0.000000 0.003085 0.000000 3.530686
#
#
# Mechanical properties :
#
#
# Convention : Reuss Voigt Hill
#
# Bulk Modulus (GPa) = 30.69180 47.74853 39.22017
# Shear Modulus (GPa) = 1.37355 38.45424 19.91389
#
# Velocity S-wave (km/s) = 0.72132 3.81662 2.74654
# Velocity P-wave (km/s) = 3.50997 6.12450 4.99146
#
# Compressibility (1/GPa) = 0.03258199
#
# Stress axis : x y z
#
# Youngs Moduli (GPa) = 57.33368 90.34682 152.69259
#
# Poissons Ratio (x) = -0.14975 0.04888
# Poissons Ratio (y) = -0.09503 0.39335
# Poissons Ratio (z) = 0.01835 0.23274
#
# Static dielectric constant tensor:
#      x y z
#    x 2.285130 0.000000 -0.028160 
#    y 0.000000 2.165800 0.000000 
#    z -0.028160 0.000000 1.977680 
# 
# From -- ./inp_files/86237.got.cif
#   From: 2010.05.17/outbox.cif.g08.bks.cpg/sg15_44_cif.got.tgz:86237.got - 2010.06.03 18:47:42.
