data_PCOD9254062
_publ_section_title
;
Structure prediction by ZEFSAII (Michael W. Deem and Ramdas Pophale) SiO2 
 PCOD9254062
Probable space group: C 2/C
;
_chemical_formula_sum "Si O2"
_cell_formula_units_Z 40
_cell_length_a 10.309786
_cell_length_b 24.691910
_cell_length_c 9.854414
_cell_angle_alpha 90.000000
_cell_angle_beta 38.958318
_cell_angle_gamma 90.000000
_cell_volume 1577.307959
_symmetry_space_group_name_H-M "C 2/C"
_symmetry_group_IT_number 15
_symmetry_cell_setting 'monoclinic'
loop_
_space_group_symop_operation_xyz
x,y,z
-x,y,1/2-z
-x,-y,-z
x,-y,1/2+z
1/2+x,1/2+y,z
1/2-x,1/2+y,1/2-z
1/2-x,1/2-y,-z
1/2+x,1/2-y,1/2+z
loop_
_atom_site_type_symbol
_atom_site_label
_atom_site_fract_x
_atom_site_fract_y
_atom_site_fract_z
Si Si1 0.748305 0.882495 0.880202
Si Si2 0.743613 0.909151 0.177066
Si Si3 0.215441 0.702550 0.212557
Si Si4 0.857719 0.473245 0.732739
Si Si5 0.263383 0.675818 0.876947
O O1 0.802647 0.824480 0.774819
O O2 0.768046 0.925321 0.737851
O O3 0.831845 0.887314 0.964516
O O4 0.501125 0.893917 0.112077
O O5 0.820438 0.878550 0.249779
O O6 0.774001 0.973305 0.129960
O O7 0.201961 0.767079 0.227354
O O8 0.985502 0.677869 0.401044
O O9 0.328350 0.684479 0.981149
O O10 0.000000 0.458860 0.750000
O O11 0.000000 0.500000 0.500000
#
# Coordination Sequence:
#
# PCOD9254062 Si02
#       5
#     8   8   8   8   8
#     4   9  17  25  40  61  88 118 146 177 224 270
#     4   9  16  27  38  61  89 118 144 181 221 270
#     4   9  18  30  45  66  86 122 151 186 219 264
#     4  10  16  24  38  62  91 118 143 180 229 274
#     4   9  18  30  46  63  91 117 154 184 222 261
#
# _framework density 25.359663999999999
#
# number of rings (size 3 to 8) (size 9 to 14) (size 15 to 20)
#    0.000    2.800    4.000    0.000    8.400    0.800 
#    0.000    0.000    0.000    0.000    0.000    1.400 
#    0.000    0.000    0.000    0.000    0.000    0.000 
#
# Total GULP energy -111476.482853 kJ/mol
# GULP energy per Si atom -5573.824143 kJ/mol
# Density = 2.530194 g / cm^3
# Si number density = 25.359664 Si / 1000 Ang^3
#
#
#
# Elastic Constant Matrix: (Units=GPa)
#
#
# Indices 1 2 3 4 5 6 
#
# 1 81.6813 29.3445 10.6395 0.0000 24.7498 0.0000
# 2 29.3445 107.2009 50.2048 0.0000 30.4538 0.0000
# 3 10.6395 50.2048 116.8345 0.0000 32.7586 0.0000
# 4 0.0000 0.0000 0.0000 75.5942 0.0000 28.3997
# 5 24.7498 30.4538 32.7586 0.0000 37.8543 0.0000
# 6 0.0000 0.0000 0.0000 28.3997 0.0000 54.8908
#
#
#
# Elastic Compliance Matrix: (Units=1/GPa)
#
#
# Indices 1 2 3 4 5 6 
#
# 1 0.016080 -0.002601 0.002660 0.000000 -0.010722 0.000000
# 2 -0.002601 0.013532 -0.003964 0.000000 -0.005755 0.000000
# 3 0.002660 -0.003964 0.012694 0.000000 -0.009535 0.000000
# 4 0.000000 0.000000 0.000000 0.016420 0.000000 -0.008496
# 5 -0.010722 -0.005755 -0.009535 0.000000 0.046309 0.000000
# 6 0.000000 0.000000 0.000000 -0.008496 0.000000 0.022613
#
#
# Mechanical properties :
#
#
# Convention : Reuss Voigt Hill
#
# Bulk Modulus (GPa) = 28.99057 54.01048 41.50053
# Shear Modulus (GPa) = 34.02364 48.03640 41.03002
#
# Velocity S-wave (km/s) = 3.66682 4.35697 4.02671
# Velocity P-wave (km/s) = 5.42070 6.83044 6.16599
#
# Compressibility (1/GPa) = 0.03449397
#
# Stress axis : x y z
#
# Youngs Moduli (GPa) = 62.19049 73.90033 78.77872
#
# Poissons Ratio (x) = 0.19223 -0.20954
# Poissons Ratio (y) = 0.16177 0.31230
# Poissons Ratio (z) = -0.16542 0.29296
#
# Static dielectric constant tensor:
#      x y z
#    x 2.239500 0.000000 -0.095940 
#    y 0.000000 2.031210 0.000000 
#    z -0.095940 0.000000 2.514030 
# 
# From -- ./inp_files/41556.got.cif
#   From: 2010.05.17/outbox.cif.g08.bks.cpg/sg15_21_cif.got.tgz:41556.got - 2010.06.03 18:47:42.
