data_PCOD9254819
_publ_section_title
;
Structure prediction by ZEFSAII (Michael W. Deem and Ramdas Pophale) SiO2 
 PCOD9254819
Probable space group: C 2/C
;
_chemical_formula_sum "Si O2"
_cell_formula_units_Z 56
_cell_length_a 27.425559
_cell_length_b 19.163265
_cell_length_c 5.732463
_cell_angle_alpha 90.000000
_cell_angle_beta 131.888933
_cell_angle_gamma 90.000000
_cell_volume 2242.829513
_symmetry_space_group_name_H-M "C 2/C"
_symmetry_group_IT_number 15
_symmetry_cell_setting 'monoclinic'
loop_
_space_group_symop_operation_xyz
x,y,z
-x,y,1/2-z
-x,-y,-z
x,-y,1/2+z
1/2+x,1/2+y,z
1/2-x,1/2+y,1/2-z
1/2-x,1/2-y,-z
1/2+x,1/2-y,1/2+z
loop_
_atom_site_type_symbol
_atom_site_label
_atom_site_fract_x
_atom_site_fract_y
_atom_site_fract_z
Si Si1 0.091237 0.806031 0.582703
Si Si2 0.900196 0.040075 0.509751
Si Si3 0.242776 0.001131 0.953617
Si Si4 0.806934 0.737932 0.869189
Si Si5 0.077182 0.472772 0.244164
Si Si6 0.713074 0.652922 0.789900
Si Si7 0.966566 0.674558 0.895820
O O1 0.070936 0.880759 0.410755
O O2 0.120376 0.750640 0.488270
O O3 0.048009 0.756855 0.609684
O O4 0.154384 0.825119 0.937010
O O5 0.820531 0.049691 0.250545
O O6 0.916486 0.000747 0.812218
O O7 0.276766 0.998951 0.811901
O O8 0.205489 0.074560 0.834523
O O9 0.750000 0.750000 0.500000
O O10 0.785199 0.665051 0.911025
O O11 0.793453 0.797375 0.012494
O O12 0.101544 0.502785 0.568602
O O13 0.085954 0.388472 0.284753
O O14 0.000000 0.500000 0.000000
O O15 0.000000 0.668397 0.750000
O O16 0.000000 0.654785 0.250000
#
# Coordination Sequence:
#
# PCOD9254819 Si02
#       7
#     8   8   8   8   8   8   8
#     4  11  23  36  61  87 127 158 203 259 304 359
#     4  10  19  33  56  85 109 157 216 248 283 343
#     4  10  18  30  54  83 108 145 209 248 280 334
#     4   9  20  35  55  86 117 154 191 245 310 363
#     4  10  16  35  64  85 112 146 198 245 287 358
#     4  10  19  35  58  87 117 156 199 251 299 368
#     4  12  25  40  61  97 123 158 199 256 308 356
#
# _framework density 24.96846
#
# number of rings (size 3 to 8) (size 9 to 14) (size 15 to 20)
#    0.000    1.714    5.714    1.714    4.000    0.000 
#    0.000    0.000    0.000    4.286    0.000    0.000 
#    0.000    0.000    0.000    0.000    0.000    0.000 
#
# Total GULP energy -155982.754687 kJ/mol
# GULP energy per Si atom -5570.812667 kJ/mol
# Density = 2.491163 g / cm^3
# Si number density = 24.968460 Si / 1000 Ang^3
#
#
#
# Elastic Constant Matrix: (Units=GPa)
#
#
# Indices 1 2 3 4 5 6 
#
# 1 107.4079 16.3107 53.5087 0.0000 -40.9942 0.0000
# 2 16.3107 97.4780 13.2448 0.0000 -20.8094 0.0000
# 3 53.5087 13.2448 87.2234 0.0000 -43.5828 0.0000
# 4 0.0000 0.0000 0.0000 23.4852 0.0000 -18.8877
# 5 -40.9942 -20.8094 -43.5828 0.0000 49.7664 0.0000
# 6 0.0000 0.0000 0.0000 -18.8877 0.0000 17.4225
#
#
#
# Elastic Compliance Matrix: (Units=1/GPa)
#
#
# Indices 1 2 3 4 5 6 
#
# 1 0.014857 -0.000161 -0.005349 0.000000 0.007486 0.000000
# 2 -0.000161 0.011330 0.001208 0.000000 0.005663 0.000000
# 3 -0.005349 0.001208 0.022427 0.000000 0.015740 0.000000
# 4 0.000000 0.000000 0.000000 0.332322 0.000000 0.360269
# 5 0.007486 0.005663 0.015740 0.000000 0.042412 0.000000
# 6 0.000000 0.000000 0.000000 0.360269 0.000000 0.447964
#
#
# Mechanical properties :
#
#
# Convention : Reuss Voigt Hill
#
# Bulk Modulus (GPa) = 24.99356 50.91529 37.95443
# Shear Modulus (GPa) = 5.59751 32.07114 18.83433
#
# Velocity S-wave (km/s) = 1.49890 3.58783 2.74948
# Velocity P-wave (km/s) = 3.60935 6.13184 5.03125
#
# Compressibility (1/GPa) = 0.04001030
#
# Stress axis : x y z
#
# Youngs Moduli (GPa) = 67.30892 88.25776 44.58812
#
# Poissons Ratio (x) = 0.01421 0.23851
# Poissons Ratio (y) = 0.01083 -0.05385
# Poissons Ratio (z) = 0.36004 -0.10660
#
# Static dielectric constant tensor:
#      x y z
#    x 2.016150 0.000000 -0.049650 
#    y 0.000000 1.941610 0.000000 
#    z -0.049650 0.000000 1.981820 
# 
# From -- ./inp_files/18484.got.cif
#   From: 2010.05.17/outbox.cif.g08.bks.cpg/sg15_10_cif.got.tgz:18484.got - 2010.06.03 18:47:42.
