data_PCOD9254193
_publ_section_title
;
Structure prediction by ZEFSAII (Michael W. Deem and Ramdas Pophale) SiO2 
 PCOD9254193
Probable space group: C 2/C
;
_chemical_formula_sum "Si O2"
_cell_formula_units_Z 44
_cell_length_a 20.089460
_cell_length_b 20.811419
_cell_length_c 4.951136
_cell_angle_alpha 90.000000
_cell_angle_beta 115.007443
_cell_angle_gamma 90.000000
_cell_volume 1875.962754
_symmetry_space_group_name_H-M "C 2/C"
_symmetry_group_IT_number 15
_symmetry_cell_setting 'monoclinic'
loop_
_space_group_symop_operation_xyz
x,y,z
-x,y,1/2-z
-x,-y,-z
x,-y,1/2+z
1/2+x,1/2+y,z
1/2-x,1/2+y,1/2-z
1/2-x,1/2-y,-z
1/2+x,1/2-y,1/2+z
loop_
_atom_site_type_symbol
_atom_site_label
_atom_site_fract_x
_atom_site_fract_y
_atom_site_fract_z
Si Si1 0.113037 0.042204 0.607070
Si Si2 0.607993 0.961930 0.560986
Si Si3 0.238063 0.605245 0.483386
Si Si4 0.950370 0.761214 0.929488
Si Si5 0.000000 0.116455 0.750000
Si Si6 0.338853 0.843279 0.110467
O O1 0.039626 0.075413 0.590421
O O2 0.118137 0.021100 0.306304
O O3 0.180598 0.087817 0.798390
O O4 0.696540 0.955721 0.770911
O O5 0.599314 0.891452 0.416013
O O6 0.582017 0.014979 0.305765
O O7 0.193402 0.624719 0.675175
O O8 0.223195 0.658779 0.228324
O O9 0.876951 0.723016 0.746375
O O10 0.000000 0.763737 0.750000
O O11 0.941649 0.833953 0.019003
O O12 0.000000 0.728821 0.250000
#
# Coordination Sequence:
#
# PCOD9254193 Si02
#       6
#     8   8   8   8   4   8
#     4  12  25  41  67 100 138 169 210 262 334 396
#     4  10  16  27  51  83 119 154 191 245 314 375
#     4  10  20  34  59  94 128 160 210 255 334 379
#     4  10  23  43  70  86 125 175 230 267 319 367
#     4  10  28  44  70  90 132 178 228 264 310 386
#     4  10  20  36  62  94 123 173 211 268 323 379
#
# _framework density 23.454625
#
# number of rings (size 3 to 8) (size 9 to 14) (size 15 to 20)
#    1.636    0.000    1.818    3.818    2.545    0.000 
#    0.000    1.818    0.000    3.273    0.000    0.000 
#    0.000    0.000    0.000    0.000    0.000    0.000 
#
# Total GULP energy -122722.843043 kJ/mol
# GULP energy per Si atom -5578.311047 kJ/mol
# Density = 2.340124 g / cm^3
# Si number density = 23.454625 Si / 1000 Ang^3
#
#
#
# Elastic Constant Matrix: (Units=GPa)
#
#
# Indices 1 2 3 4 5 6 
#
# 1 58.0324 17.1441 19.6917 0.0000 1.5215 0.0000
# 2 17.1441 61.9507 17.0935 0.0000 11.7609 0.0000
# 3 19.6917 17.0935 110.2578 0.0000 -16.2494 0.0000
# 4 0.0000 0.0000 0.0000 -75.7691 0.0000 257.0009
# 5 1.5215 11.7609 -16.2494 0.0000 38.0117 0.0000
# 6 0.0000 0.0000 0.0000 257.0009 0.0000 -577.5308
#
#
#
# Elastic Compliance Matrix: (Units=1/GPa)
#
#
# Indices 1 2 3 4 5 6 
#
# 1 0.019556 -0.004496 -0.002888 0.000000 -0.000626 0.000000
# 2 -0.004496 0.019699 -0.003333 0.000000 -0.007340 0.000000
# 3 -0.002888 -0.003333 0.010962 0.000000 0.005833 0.000000
# 4 0.000000 0.000000 0.000000 0.025909 0.000000 0.011530
# 5 -0.000626 -0.007340 0.005833 0.000000 0.031097 0.000000
# 6 0.000000 0.000000 0.000000 0.011530 0.000000 0.003399
#
#
# Mechanical properties :
#
#
# Convention : Reuss Voigt Hill
#
# Bulk Modulus (GPa) = 34.74219 37.56661 36.15440
# Shear Modulus (GPa) = 35.29803 -111.30353 -38.00275
#
# Velocity S-wave (km/s) = 3.88358 -6.89622 -4.02962
# Velocity P-wave (km/s) = 5.91221 6.88179 2.49046
#
# Compressibility (1/GPa) = 0.02878345
#
# Stress axis : x y z
#
# Youngs Moduli (GPa) = 51.13409 50.76379 91.22679
#
# Poissons Ratio (x) = 0.22825 0.26346
# Poissons Ratio (y) = 0.22991 0.30403
# Poissons Ratio (z) = 0.14767 0.16918
#
# Static dielectric constant tensor:
#      x y z
#    x 1.902110 0.000000 0.001070 
#    y 0.000000 1.936160 0.000000 
#    z 0.001070 0.000000 1.984500 
# 
# From -- ./inp_files/10421.got.cif
#   From: 2010.05.17/outbox.cif.g08.bks.cpg/sg15_6_cif.got.tgz:10421.got - 2010.06.03 18:47:42.
