data_PCOD9254680
_publ_section_title
;
Structure prediction by ZEFSAII (Michael W. Deem and Ramdas Pophale) SiO2 
 PCOD9254680
Probable space group: C 2/C
;
_chemical_formula_sum "Si O2"
_cell_formula_units_Z 44
_cell_length_a 12.450188
_cell_length_b 10.891038
_cell_length_c 16.109983
_cell_angle_alpha 90.000000
_cell_angle_beta 58.315095
_cell_angle_gamma 90.000000
_cell_volume 1858.848786
_symmetry_space_group_name_H-M "C 2/C"
_symmetry_group_IT_number 15
_symmetry_cell_setting 'monoclinic'
loop_
_space_group_symop_operation_xyz
x,y,z
-x,y,1/2-z
-x,-y,-z
x,-y,1/2+z
1/2+x,1/2+y,z
1/2-x,1/2+y,1/2-z
1/2-x,1/2-y,-z
1/2+x,1/2-y,1/2+z
loop_
_atom_site_type_symbol
_atom_site_label
_atom_site_fract_x
_atom_site_fract_y
_atom_site_fract_z
Si Si1 0.988464 0.984568 0.905769
Si Si2 0.500000 0.922971 0.750000
Si Si3 0.728040 0.057906 0.049673
Si Si4 0.103930 0.757472 0.351203
Si Si5 0.104211 0.257067 0.275977
Si Si6 0.613607 0.795463 0.448595
O O1 0.050564 0.109005 0.844549
O O2 0.058000 0.871566 0.835557
O O3 0.837286 0.975113 0.965211
O O4 0.000000 0.000000 0.000000
O O5 0.378428 0.987259 0.842809
O O6 0.439155 0.837073 0.702748
O O7 0.797451 0.175508 0.067279
O O8 0.659624 0.107889 0.996470
O O9 0.251303 0.751201 0.310225
O O10 0.027878 0.733145 0.466285
O O11 0.114033 0.340836 0.354531
O O12 0.000000 0.285901 0.250000
#
# Coordination Sequence:
#
# PCOD9254680 Si02
#       6
#     8   4   8   8   8   8
#     4  11  21  40  64  96 124 164 213 268 314 374
#     4  10  16  32  66 102 118 156 214 266 320 364
#     4   9  17  32  66  95 125 154 207 272 312 366
#     4  10  21  37  65  91 128 166 209 263 316 375
#     4  12  25  39  62  95 131 175 211 251 323 392
#     4   9  18  37  58  91 122 163 202 259 323 359
#
# _framework density 23.670563999999999
#
# number of rings (size 3 to 8) (size 9 to 14) (size 15 to 20)
#    0.000    1.818    5.455    1.091    1.273    0.727 
#    0.000    0.000   12.000    5.455    0.000    0.000 
#    0.000    0.000    0.000    0.000    0.000    0.000 
#
# Total GULP energy -122783.764307 kJ/mol
# GULP energy per Si atom -5581.080196 kJ/mol
# Density = 2.361669 g / cm^3
# Si number density = 23.670564 Si / 1000 Ang^3
#
#
#
# Elastic Constant Matrix: (Units=GPa)
#
#
# Indices 1 2 3 4 5 6 
#
# 1 158.2366 5.5437 79.3012 0.0000 -14.9663 0.0000
# 2 5.5437 46.6229 19.3678 0.0000 -20.0248 0.0000
# 3 79.3012 19.3678 148.2330 0.0000 -49.8227 0.0000
# 4 0.0000 0.0000 0.0000 3.3162 0.0000 -1.2816
# 5 -14.9663 -20.0248 -49.8227 0.0000 56.3243 0.0000
# 6 0.0000 0.0000 0.0000 -1.2816 0.0000 6.8239
#
#
#
# Elastic Compliance Matrix: (Units=1/GPa)
#
#
# Indices 1 2 3 4 5 6 
#
# 1 0.008901 0.000186 -0.005648 0.000000 -0.002565 0.000000
# 2 0.000186 0.025335 -0.000521 0.000000 0.008596 0.000000
# 3 -0.005648 -0.000521 0.013191 0.000000 0.009982 0.000000
# 4 0.000000 0.000000 0.000000 0.325150 0.000000 0.061065
# 5 -0.002565 0.008596 0.009982 0.000000 0.028959 0.000000
# 6 0.000000 0.000000 0.000000 0.061065 0.000000 0.158011
#
#
# Mechanical properties :
#
#
# Convention : Reuss Voigt Hill
#
# Bulk Modulus (GPa) = 28.19918 62.39087 45.29502
# Shear Modulus (GPa) = 8.57142 29.88489 19.22815
#
# Velocity S-wave (km/s) = 1.90499 3.55707 2.85322
# Velocity P-wave (km/s) = 4.09606 6.57918 5.48011
#
# Compressibility (1/GPa) = 0.03546203
#
# Stress axis : x y z
#
# Youngs Moduli (GPa) = 112.34358 39.47118 75.80838
#
# Poissons Ratio (x) = -0.00736 0.42820
# Poissons Ratio (y) = -0.02094 0.03947
# Poissons Ratio (z) = 0.63456 0.02055
#
# Static dielectric constant tensor:
#      x y z
#    x 2.000530 0.000000 -0.077890 
#    y 0.000000 1.989010 0.000000 
#    z -0.077890 0.000000 1.941800 
# 
# From -- ./inp_files/197646.got.cif
#   From: 2010.05.17/outbox.cif.g08.bks.cpg/sg15_99_cif.got.tgz:197646.got - 2010.06.03 18:47:42.
