data_PCOD9254436
_publ_section_title
;
Structure prediction by ZEFSAII (Michael W. Deem and Ramdas Pophale) SiO2 
 PCOD9254436
Probable space group: C 2/C
;
_chemical_formula_sum "Si O2"
_cell_formula_units_Z 60
_cell_length_a 9.497317
_cell_length_b 15.019557
_cell_length_c 24.763178
_cell_angle_alpha 90.000000
_cell_angle_beta 71.078813
_cell_angle_gamma 90.000000
_cell_volume 3341.486735
_symmetry_space_group_name_H-M "C 2/C"
_symmetry_group_IT_number 15
_symmetry_cell_setting 'monoclinic'
loop_
_space_group_symop_operation_xyz
x,y,z
-x,y,1/2-z
-x,-y,-z
x,-y,1/2+z
1/2+x,1/2+y,z
1/2-x,1/2+y,1/2-z
1/2-x,1/2-y,-z
1/2+x,1/2-y,1/2+z
loop_
_atom_site_type_symbol
_atom_site_label
_atom_site_fract_x
_atom_site_fract_y
_atom_site_fract_z
Si Si1 0.903458 0.974100 0.860936
Si Si2 0.565270 0.988242 0.932824
Si Si3 0.967974 0.341639 0.863779
Si Si4 0.000000 0.694293 0.750000
Si Si5 0.440331 0.343308 0.316632
Si Si6 0.087433 0.351480 0.353549
Si Si7 0.716208 0.357019 0.723574
Si Si8 0.857222 0.147155 0.141816
O O1 0.745136 0.989546 0.909268
O O2 0.860651 0.920588 0.811165
O O3 0.009209 0.918613 0.886992
O O4 0.992644 0.062169 0.832093
O O5 0.509564 0.896012 0.912424
O O6 0.523005 0.073189 0.900525
O O7 0.500000 0.000000 0.000000
O O8 0.966022 0.234245 0.857059
O O9 0.799407 0.365348 0.868322
O O10 0.107278 0.365477 0.807472
O O11 0.025170 0.639730 0.801038
O O12 0.142742 0.759396 0.723071
O O13 0.500000 0.317716 0.250000
O O14 0.265551 0.361237 0.329507
O O15 0.077588 0.247464 0.371524
O O16 0.679122 0.371495 0.790545
#
# Coordination Sequence:
#
# PCOD9254436 Si02
#       8
#     8   8   8   4   8   8   8   8
#     4  10  19  34  58  81 108 156 187 209 279 340
#     4  10  23  44  57  72 106 150 198 239 279 321
#     4  10  21  34  53  80 110 143 185 228 272 315
#     4  10  16  30  56  86 120 140 182 214 278 346
#     4  10  18  32  51  84 121 146 176 208 274 343
#     4   9  19  34  55  81 112 151 176 222 277 332
#     4  10  16  30  54  82 120 153 163 210 278 341
#     4  10  17  34  55  86 117 138 177 227 269 343
#
# _framework density 17.956078999999999
#
# number of rings (size 3 to 8) (size 9 to 14) (size 15 to 20)
#    0.000    2.133    2.667    3.600    0.000    0.000 
#   13.200    7.333    0.000    0.000    0.000    0.000 
#    0.000    0.000    0.000    0.000    0.000    0.000 
#
# Total GULP energy -167018.514648 kJ/mol
# GULP energy per Si atom -5567.283822 kJ/mol
# Density = 1.791521 g / cm^3
# Si number density = 17.956079 Si / 1000 Ang^3
#
#
#
# Elastic Constant Matrix: (Units=GPa)
#
#
# Indices 1 2 3 4 5 6 
#
# 1 69.7760 35.0628 16.8305 0.0000 2.2345 0.0000
# 2 35.0628 92.7125 47.2430 0.0000 6.5057 0.0000
# 3 16.8305 47.2430 99.1079 0.0000 1.9244 0.0000
# 4 0.0000 0.0000 0.0000 11.6327 0.0000 -0.8924
# 5 2.2345 6.5057 1.9244 0.0000 8.8307 0.0000
# 6 0.0000 0.0000 0.0000 -0.8924 0.0000 17.6373
#
#
#
# Elastic Compliance Matrix: (Units=1/GPa)
#
#
# Indices 1 2 3 4 5 6 
#
# 1 0.017701 -0.006860 0.000254 0.000000 0.000520 0.000000
# 2 -0.006860 0.017665 -0.007066 0.000000 -0.009738 0.000000
# 3 0.000254 -0.007066 0.013372 0.000000 0.002228 0.000000
# 4 0.000000 0.000000 0.000000 0.086300 0.000000 0.004367
# 5 0.000520 -0.009738 0.002228 0.000000 0.119799 0.000000
# 6 0.000000 0.000000 0.000000 0.004367 0.000000 0.056919
#
#
# Mechanical properties :
#
#
# Convention : Reuss Voigt Hill
#
# Bulk Modulus (GPa) = 46.74513 51.09655 48.92084
# Shear Modulus (GPa) = 14.44123 18.45080 16.44602
#
# Velocity S-wave (km/s) = 2.83901 3.20902 3.02967
# Velocity P-wave (km/s) = 6.06928 6.49989 6.28828
#
# Compressibility (1/GPa) = 0.02139260
#
# Stress axis : x y z
#
# Youngs Moduli (GPa) = 56.49411 56.61051 74.78326
#
# Poissons Ratio (x) = 0.38836 -0.01900
# Poissons Ratio (y) = 0.38756 0.52844
# Poissons Ratio (z) = -0.01435 0.40003
#
# Static dielectric constant tensor:
#      x y z
#    x 1.651430 0.000000 -0.005670 
#    y 0.000000 1.705350 0.000000 
#    z -0.005670 0.000000 1.583170 
# 
# From -- ./inp_files/264668.got.cif
#   From: 2010.05.17/outbox.cif.g08.bks.cpg/sg15_133_cif.got.tgz:264668.got - 2010.06.03 18:47:42.
