data_PCOD9254298
_publ_section_title
;
Structure prediction by ZEFSAII (Michael W. Deem and Ramdas Pophale) SiO2 
 PCOD9254298
Probable space group: C 2/C
;
_chemical_formula_sum "Si O2"
_cell_formula_units_Z 56
_cell_length_a 18.485869
_cell_length_b 28.844611
_cell_length_c 5.435451
_cell_angle_alpha 90.000000
_cell_angle_beta 73.553710
_cell_angle_gamma 90.000000
_cell_volume 2779.697216
_symmetry_space_group_name_H-M "C 2/C"
_symmetry_group_IT_number 15
_symmetry_cell_setting 'monoclinic'
loop_
_space_group_symop_operation_xyz
x,y,z
-x,y,1/2-z
-x,-y,-z
x,-y,1/2+z
1/2+x,1/2+y,z
1/2-x,1/2+y,1/2-z
1/2-x,1/2-y,-z
1/2+x,1/2-y,1/2+z
loop_
_atom_site_type_symbol
_atom_site_label
_atom_site_fract_x
_atom_site_fract_y
_atom_site_fract_z
Si Si1 0.692540 0.384352 0.258631
Si Si2 0.191414 0.473769 0.831779
Si Si3 0.203927 0.263979 0.795130
Si Si4 0.359909 0.509988 0.676205
Si Si5 0.026349 0.138815 0.974902
Si Si6 0.530367 0.255885 0.470116
Si Si7 0.281195 0.129153 0.174082
O O1 0.671658 0.438262 0.292705
O O2 0.615374 0.358399 0.384564
O O3 0.748119 0.373014 0.429388
O O4 0.721924 0.373891 0.957729
O O5 0.166967 0.500568 0.607075
O O6 0.283591 0.478074 0.747874
O O7 0.172629 0.419136 0.843527
O O8 0.250000 0.250000 0.500000
O O9 0.120570 0.242186 0.877950
O O10 0.187638 0.319237 0.820527
O O11 0.250000 0.250000 0.000000
O O12 0.402096 0.500141 0.385465
O O13 0.995567 0.191620 0.004154
O O14 0.000000 0.115214 0.750000
O O15 0.000000 0.115349 0.250000
O O16 0.500000 0.233195 0.250000
O O17 0.500000 0.233577 0.750000
#
# Coordination Sequence:
#
# PCOD9254298 Si02
#       7
#     8   8   8   8   8   8   8
#     4  12  20  32  54  76 104 139 173 222 286 336
#     4  10  16  30  47  75 104 133 175 208 257 347
#     4  12  25  40  57  90 129 146 190 255 305 337
#     4  10  16  29  46  72  97 133 173 207 261 342
#     4  10  21  35  50  70  91 129 191 233 258 319
#     4  10  21  40  61  76 108 160 200 230 282 358
#     4  12  21  32  55  82 107 143 168 219 291 341
#
# _framework density 20.146076999999998
#
# number of rings (size 3 to 8) (size 9 to 14) (size 15 to 20)
#    0.000    1.143    5.714    4.286    0.000    2.286 
#    0.000    0.000    0.000    2.571    0.000    0.000 
#    0.000    3.429    0.000    0.000    0.000    0.000 
#
# Total GULP energy -156087.105074 kJ/mol
# GULP energy per Si atom -5574.539467 kJ/mol
# Density = 2.010022 g / cm^3
# Si number density = 20.146077 Si / 1000 Ang^3
#
#
#
# Elastic Constant Matrix: (Units=GPa)
#
#
# Indices 1 2 3 4 5 6 
#
# 1 50.7401 -4.7498 41.2417 0.0000 10.8219 0.0000
# 2 -4.7498 95.8628 4.6192 0.0000 8.2257 0.0000
# 3 41.2417 4.6192 144.1611 0.0000 38.0709 0.0000
# 4 0.0000 0.0000 0.0000 44.7775 0.0000 22.2127
# 5 10.8219 8.2257 38.0709 0.0000 29.9288 0.0000
# 6 0.0000 0.0000 0.0000 22.2127 0.0000 17.5387
#
#
#
# Elastic Compliance Matrix: (Units=1/GPa)
#
#
# Indices 1 2 3 4 5 6 
#
# 1 0.025941 0.001682 -0.007342 0.000000 -0.000502 0.000000
# 2 0.001682 0.010833 0.000179 0.000000 -0.003813 0.000000
# 3 -0.007342 0.000179 0.012564 0.000000 -0.013376 0.000000
# 4 0.000000 0.000000 0.000000 0.060078 0.000000 -0.076088
# 5 -0.000502 -0.003813 -0.013376 0.000000 0.051657 0.000000
# 6 0.000000 0.000000 0.000000 -0.076088 0.000000 0.153383
#
#
# Mechanical properties :
#
#
# Convention : Reuss Voigt Hill
#
# Bulk Modulus (GPa) = 26.05869 41.44291 33.75080
# Shear Modulus (GPa) = 14.78369 35.09252 24.93810
#
# Velocity S-wave (km/s) = 2.71186 4.17814 3.52215
# Velocity P-wave (km/s) = 4.77164 6.62508 5.77322
#
# Compressibility (1/GPa) = 0.03837492
#
# Stress axis : x y z
#
# Youngs Moduli (GPa) = 38.54925 92.30637 79.59300
#
# Poissons Ratio (x) = -0.15528 0.58441
# Poissons Ratio (y) = -0.06485 -0.01421
# Poissons Ratio (z) = 0.28305 -0.01648
#
# Static dielectric constant tensor:
#      x y z
#    x 1.700030 0.000000 0.070290 
#    y 0.000000 1.777650 0.000000 
#    z 0.070290 0.000000 1.799870 
# 
# From -- ./inp_files/11508.got.cif
#   From: 2010.05.17/outbox.cif.g08.bks.cpg/sg15_6_cif.got.tgz:11508.got - 2010.06.03 18:47:42.
