data_PCOD9254907
_publ_section_title
;
Structure prediction by ZEFSAII (Michael W. Deem and Ramdas Pophale) SiO2 
 PCOD9254907
Probable space group: C 2/C
;
_chemical_formula_sum "Si O2"
_cell_formula_units_Z 44
_cell_length_a 10.040225
_cell_length_b 11.154494
_cell_length_c 19.325301
_cell_angle_alpha 90.000000
_cell_angle_beta 50.212103
_cell_angle_gamma 90.000000
_cell_volume 1663.096784
_symmetry_space_group_name_H-M "C 2/C"
_symmetry_group_IT_number 15
_symmetry_cell_setting 'monoclinic'
loop_
_space_group_symop_operation_xyz
x,y,z
-x,y,1/2-z
-x,-y,-z
x,-y,1/2+z
1/2+x,1/2+y,z
1/2-x,1/2+y,1/2-z
1/2-x,1/2-y,-z
1/2+x,1/2-y,1/2+z
loop_
_atom_site_type_symbol
_atom_site_label
_atom_site_fract_x
_atom_site_fract_y
_atom_site_fract_z
Si Si1 0.636526 0.855472 0.900542
Si Si2 0.297244 0.538817 0.062392
Si Si3 0.380605 0.795494 0.396456
Si Si4 0.723254 0.116731 0.937412
Si Si5 0.801959 0.123237 0.214213
Si Si6 0.500000 0.567944 0.750000
O O1 0.789150 0.761669 0.860299
O O2 0.633924 0.864429 0.818924
O O3 0.687585 0.980805 0.920290
O O4 0.461616 0.819854 0.997441
O O5 0.154940 0.435101 0.094911
O O6 0.260045 0.585453 0.150942
O O7 0.500000 0.500000 0.000000
O O8 0.286410 0.613068 0.995029
O O9 0.250000 0.750000 0.500000
O O10 0.569804 0.738146 0.335958
O O11 0.867559 0.152260 0.835194
O O12 0.911468 0.019490 0.220986
#
# Coordination Sequence:
#
# PCOD9254907 Si02
#       6
#     8   8   8   8   8   4
#     4  10  21  41  59  98 142 177 224 292 346 427
#     4  12  22  38  69 104 133 181 237 293 346 419
#     4  12  20  39  70  98 129 183 236 284 353 420
#     4  10  20  37  66  91 133 185 220 282 363 405
#     4  11  21  41  64  94 148 175 228 298 349 412
#     4  10  16  38  66  88 124 186 220 276 362 410
#
# _framework density 26.456668000000001
#
# number of rings (size 3 to 8) (size 9 to 14) (size 15 to 20)
#    0.000    1.091    9.091    0.000    0.000    0.727 
#    6.545    0.909    0.000    0.000    0.000    0.000 
#    0.000    0.000    0.000    0.000    0.000    0.000 
#
# Total GULP energy -123110.190530 kJ/mol
# GULP energy per Si atom -5595.917751 kJ/mol
# Density = 2.639645 g / cm^3
# Si number density = 26.456668 Si / 1000 Ang^3
#
#
#
# Elastic Constant Matrix: (Units=GPa)
#
#
# Indices 1 2 3 4 5 6 
#
# 1 94.6185 34.1069 67.6614 0.0000 8.7103 0.0000
# 2 34.1069 95.5059 38.1521 0.0000 5.2897 0.0000
# 3 67.6614 38.1521 252.9793 0.0000 10.5258 0.0000
# 4 0.0000 0.0000 0.0000 17.4027 0.0000 0.3312
# 5 8.7103 5.2897 10.5258 0.0000 49.2260 0.0000
# 6 0.0000 0.0000 0.0000 0.3312 0.0000 41.7162
#
#
#
# Elastic Compliance Matrix: (Units=1/GPa)
#
#
# Indices 1 2 3 4 5 6 
#
# 1 0.014355 -0.003763 -0.003212 0.000000 -0.001449 0.000000
# 2 -0.003763 0.012163 -0.000808 0.000000 -0.000468 0.000000
# 3 -0.003212 -0.000808 0.004951 0.000000 -0.000403 0.000000
# 4 0.000000 0.000000 0.000000 0.057471 0.000000 -0.000456
# 5 -0.001449 -0.000468 -0.000403 0.000000 0.020707 0.000000
# 6 0.000000 0.000000 0.000000 -0.000456 0.000000 0.023975
#
#
# Mechanical properties :
#
#
# Convention : Reuss Voigt Hill
#
# Bulk Modulus (GPa) = 62.88260 80.32717 71.60488
# Shear Modulus (GPa) = 32.36446 41.88120 37.12283
#
# Velocity S-wave (km/s) = 3.50137 3.98302 3.74994
# Velocity P-wave (km/s) = 6.33765 7.18194 6.77297
#
# Compressibility (1/GPa) = 0.01590265
#
# Stress axis : x y z
#
# Youngs Moduli (GPa) = 69.66059 82.21414 201.99748
#
# Poissons Ratio (x) = 0.30940 0.64874
# Poissons Ratio (y) = 0.26216 0.16329
# Poissons Ratio (z) = 0.22372 0.06646
#
# Static dielectric constant tensor:
#      x y z
#    x 2.232500 0.000000 -0.022580 
#    y 0.000000 2.185320 0.000000 
#    z -0.022580 0.000000 2.080420 
# 
# From -- ./inp_files/197152.got.cif
#   From: 2010.05.17/outbox.cif.g08.bks.cpg/sg15_99_cif.got.tgz:197152.got - 2010.06.03 18:47:42.
