data_PCOD9254305
_publ_section_title
;
Structure prediction by ZEFSAII (Michael W. Deem and Ramdas Pophale) SiO2 
 PCOD9254305
Probable space group: C 2/C
;
_chemical_formula_sum "Si O2"
_cell_formula_units_Z 44
_cell_length_a 27.246521
_cell_length_b 12.033503
_cell_length_c 8.442960
_cell_angle_alpha 90.000000
_cell_angle_beta 33.378133
_cell_angle_gamma 90.000000
_cell_volume 1522.960053
_symmetry_space_group_name_H-M "C 2/C"
_symmetry_group_IT_number 15
_symmetry_cell_setting 'monoclinic'
loop_
_space_group_symop_operation_xyz
x,y,z
-x,y,1/2-z
-x,-y,-z
x,-y,1/2+z
1/2+x,1/2+y,z
1/2-x,1/2+y,1/2-z
1/2-x,1/2-y,-z
1/2+x,1/2-y,1/2+z
loop_
_atom_site_type_symbol
_atom_site_label
_atom_site_fract_x
_atom_site_fract_y
_atom_site_fract_z
Si Si1 0.864699 0.898182 0.100273
Si Si2 0.814736 0.130748 0.150669
Si Si3 0.167587 0.360469 0.558439
Si Si4 0.000000 0.000000 0.000000
Si Si5 0.870995 0.435339 0.194335
Si Si6 0.920054 0.221649 0.158548
O O1 0.759929 0.882000 0.405861
O O2 0.862169 0.009754 0.992672
O O3 0.892370 0.795977 0.915349
O O4 0.935616 0.939270 0.032787
O O5 0.833996 0.228710 0.972537
O O6 0.710943 0.101084 0.465624
O O7 0.843927 0.182563 0.240766
O O8 0.161286 0.412481 0.397709
O O9 0.103604 0.438233 0.836002
O O10 0.011254 0.875838 0.048890
O O11 0.945097 0.345057 0.043395
#
# Coordination Sequence:
#
# PCOD9254305 Si02
#       6
#     8   8   8   4   8   8
#     4   9  17  28  45  73  98 123 170 211 252 297
#     4  10  16  29  49  68 102 134 170 202 257 312
#     4  10  18  31  50  75 100 140 166 208 258 311
#     4   8  16  30  46  72  94 122 172 208 258 292
#     4  10  17  31  51  71 105 133 172 206 258 303
#     4   9  16  31  46  69  98 132 163 210 256 300
#
# _framework density 28.891106000000001
#
# number of rings (size 3 to 8) (size 9 to 14) (size 15 to 20)
#    1.091    1.455    3.636    1.091    0.000    0.727 
#    0.000    5.455    0.000    1.091    0.000    0.000 
#    0.000    0.000    0.000    0.000    0.000    0.000 
#
# Total GULP energy -122519.150412 kJ/mol
# GULP energy per Si atom -5569.052291 kJ/mol
# Density = 2.882535 g / cm^3
# Si number density = 28.891106 Si / 1000 Ang^3
#
#
#
# Elastic Constant Matrix: (Units=GPa)
#
#
# Indices 1 2 3 4 5 6 
#
# 1 159.9524 97.8799 34.9625 0.0000 -18.6527 0.0000
# 2 97.8799 195.3303 25.6002 0.0000 -13.6682 0.0000
# 3 34.9625 25.6002 39.0167 0.0000 -3.3429 0.0000
# 4 0.0000 0.0000 0.0000 30.2862 0.0000 1.8015
# 5 -18.6527 -13.6682 -3.3429 0.0000 35.8972 0.0000
# 6 0.0000 0.0000 0.0000 1.8015 0.0000 68.8649
#
#
#
# Elastic Compliance Matrix: (Units=1/GPa)
#
#
# Indices 1 2 3 4 5 6 
#
# 1 0.010661 -0.004262 -0.006473 0.000000 0.003314 0.000000
# 2 -0.004262 0.007424 -0.001007 0.000000 0.000518 0.000000
# 3 -0.006473 -0.001007 0.032026 0.000000 -0.000765 0.000000
# 4 0.000000 0.000000 0.000000 0.033070 0.000000 -0.000865
# 5 0.003314 0.000518 -0.000765 0.000000 0.029705 0.000000
# 6 0.000000 0.000000 0.000000 -0.000865 0.000000 0.014544
#
#
# Mechanical properties :
#
#
# Convention : Reuss Voigt Hill
#
# Bulk Modulus (GPa) = 37.55732 79.02052 58.28892
# Shear Modulus (GPa) = 31.29110 42.73346 37.01228
#
# Velocity S-wave (km/s) = 3.29457 3.85011 3.58312
# Velocity P-wave (km/s) = 5.24406 6.86840 6.11045
#
# Compressibility (1/GPa) = 0.02662597
#
# Stress axis : x y z
#
# Youngs Moduli (GPa) = 93.79673 134.70658 31.22480
#
# Poissons Ratio (x) = 0.57414 0.20212
# Poissons Ratio (y) = 0.39977 0.03145
# Poissons Ratio (z) = 0.60715 0.13568
#
# Static dielectric constant tensor:
#      x y z
#    x 2.167000 0.000000 0.088470 
#    y 0.000000 2.277410 0.000000 
#    z 0.088470 0.000000 2.520560 
# 
# From -- ./inp_files/122588.got.cif
#   From: 2010.05.17/outbox.cif.g08.bks.cpg/sg15_62_cif.got.tgz:122588.got - 2010.06.03 18:47:42.
