data_PCOD9254768
_publ_section_title
;
Structure prediction by ZEFSAII (Michael W. Deem and Ramdas Pophale) SiO2 
 PCOD9254768
Probable space group: C 2/C
;
_chemical_formula_sum "Si O2"
_cell_formula_units_Z 60
_cell_length_a 13.576833
_cell_length_b 14.202354
_cell_length_c 12.367361
_cell_angle_alpha 90.000000
_cell_angle_beta 103.483120
_cell_angle_gamma 90.000000
_cell_volume 2318.985648
_symmetry_space_group_name_H-M "C 2/C"
_symmetry_group_IT_number 15
_symmetry_cell_setting 'monoclinic'
loop_
_space_group_symop_operation_xyz
x,y,z
-x,y,1/2-z
-x,-y,-z
x,-y,1/2+z
1/2+x,1/2+y,z
1/2-x,1/2+y,1/2-z
1/2-x,1/2-y,-z
1/2+x,1/2-y,1/2+z
loop_
_atom_site_type_symbol
_atom_site_label
_atom_site_fract_x
_atom_site_fract_y
_atom_site_fract_z
Si Si1 0.795613 0.404379 0.811508
Si Si2 0.000000 0.802336 0.250000
Si Si3 0.871766 0.062657 0.407003
Si Si4 0.225491 0.643255 0.530035
Si Si5 0.182181 0.891634 0.000298
Si Si6 0.784131 0.178711 0.770802
Si Si7 0.486655 0.739651 0.122203
Si Si8 0.987414 0.362825 0.577233
O O1 0.719909 0.449117 0.704044
O O2 0.789959 0.292172 0.782216
O O3 0.917071 0.420362 0.852318
O O4 0.749245 0.426023 0.917453
O O5 0.103242 0.852810 0.241754
O O6 0.021703 0.732642 0.354991
O O7 0.822931 0.094897 0.506920
O O8 0.938708 0.148864 0.379887
O O9 0.899938 0.958872 0.458392
O O10 0.250000 0.750000 0.500000
O O11 0.213627 0.646918 0.655337
O O12 0.126077 0.598450 0.450151
O O13 0.245341 0.857621 0.119565
O O14 0.120976 0.805957 0.933279
O O15 0.500000 0.766501 0.250000
O O16 0.496647 0.824239 0.039824
#
# Coordination Sequence:
#
# PCOD9254768 Si02
#       8
#     8   4   8   8   8   8   8   8
#     4  11  23  45  68  93 136 179 226 281 329 397
#     4  10  16  34  60  96 128 160 204 278 320 386
#     4  12  26  44  66 100 138 181 219 275 350 407
#     4  12  21  40  68 100 131 170 230 283 322 399
#     4  12  27  43  65 100 142 181 216 277 349 418
#     4  11  22  38  69  96 132 172 227 270 335 392
#     4  12  23  42  69 101 142 171 216 277 351 418
#     4  11  22  39  70 103 122 175 233 281 330 387
#
# _framework density 25.873380999999998
#
# number of rings (size 3 to 8) (size 9 to 14) (size 15 to 20)
#    0.000    0.533    8.000    1.600    1.867    0.000 
#    1.200    0.667    2.933    0.000    0.000    0.000 
#    0.000    0.000    0.000    0.000    0.000    0.000 
#
# Total GULP energy -167619.274083 kJ/mol
# GULP energy per Si atom -5587.309136 kJ/mol
# Density = 2.581449 g / cm^3
# Si number density = 25.873381 Si / 1000 Ang^3
#
#
#
# Elastic Constant Matrix: (Units=GPa)
#
#
# Indices 1 2 3 4 5 6 
#
# 1 70.3791 1.3412 8.6661 0.0000 -1.3372 0.0000
# 2 1.3412 20.9320 7.2835 0.0000 -2.5029 0.0000
# 3 8.6661 7.2835 182.5546 0.0000 -4.6245 0.0000
# 4 0.0000 0.0000 0.0000 28.3067 0.0000 -2.2483
# 5 -1.3372 -2.5029 -4.6245 0.0000 38.5815 0.0000
# 6 0.0000 0.0000 0.0000 -2.2483 0.0000 23.7209
#
#
#
# Elastic Compliance Matrix: (Units=1/GPa)
#
#
# Indices 1 2 3 4 5 6 
#
# 1 0.014308 -0.000648 -0.000644 0.000000 0.000377 0.000000
# 2 -0.000648 0.048806 -0.001842 0.000000 0.002923 0.000000
# 3 -0.000644 -0.001842 0.005595 0.000000 0.000529 0.000000
# 4 0.000000 0.000000 0.000000 0.035595 0.000000 0.003374
# 5 0.000377 0.002923 0.000529 0.000000 0.026185 0.000000
# 6 0.000000 0.000000 0.000000 0.003374 0.000000 0.042477
#
#
# Mechanical properties :
#
#
# Convention : Reuss Voigt Hill
#
# Bulk Modulus (GPa) = 16.01520 34.27192 25.14356
# Shear Modulus (GPa) = 24.99411 35.22681 30.11046
#
# Velocity S-wave (km/s) = 3.11145 3.69386 3.41510
# Velocity P-wave (km/s) = 4.37166 5.60960 5.02887
#
# Compressibility (1/GPa) = 0.06244070
#
# Stress axis : x y z
#
# Youngs Moduli (GPa) = 69.89324 20.48940 178.72200
#
# Poissons Ratio (x) = 0.01327 0.11506
# Poissons Ratio (y) = 0.04527 0.32928
# Poissons Ratio (z) = 0.04500 0.03775
#
# Static dielectric constant tensor:
#      x y z
#    x 2.114200 0.000000 0.064840 
#    y 0.000000 2.270970 0.000000 
#    z 0.064840 0.000000 2.007230 
# 
# From -- ./inp_files/98354.got.cif
#   From: 2010.05.17/outbox.cif.g08.bks.cpg/sg15_50_cif.got.tgz:98354.got - 2010.06.03 18:47:42.
