data_PCOD9254115
_publ_section_title
;
Structure prediction by ZEFSAII (Michael W. Deem and Ramdas Pophale) SiO2 
 PCOD9254115
Probable space group: C 2/C
;
_chemical_formula_sum "Si O2"
_cell_formula_units_Z 56
_cell_length_a 27.690512
_cell_length_b 7.218758
_cell_length_c 22.982418
_cell_angle_alpha 90.000000
_cell_angle_beta 147.872432
_cell_angle_gamma 90.000000
_cell_volume 2443.107140
_symmetry_space_group_name_H-M "C 2/C"
_symmetry_group_IT_number 15
_symmetry_cell_setting 'monoclinic'
loop_
_space_group_symop_operation_xyz
x,y,z
-x,y,1/2-z
-x,-y,-z
x,-y,1/2+z
1/2+x,1/2+y,z
1/2-x,1/2+y,1/2-z
1/2-x,1/2-y,-z
1/2+x,1/2-y,1/2+z
loop_
_atom_site_type_symbol
_atom_site_label
_atom_site_fract_x
_atom_site_fract_y
_atom_site_fract_z
Si Si1 0.443984 0.404588 0.332106
Si Si2 0.294911 0.384769 0.254456
Si Si3 0.847086 0.482516 0.484064
Si Si4 0.783704 0.458553 0.204323
Si Si5 0.126334 0.958832 0.461325
Si Si6 0.983638 0.490135 0.412968
Si Si7 0.201643 0.927546 0.419617
O O1 0.390204 0.477413 0.334080
O O2 0.530944 0.505889 0.394288
O O3 0.476728 0.203802 0.386409
O O4 0.366727 0.381478 0.203284
O O5 0.217423 0.482079 0.138005
O O6 0.267439 0.377895 0.292576
O O7 0.295512 0.174560 0.232901
O O8 0.865805 0.265640 0.520311
O O9 0.784032 0.543783 0.474250
O O10 0.937075 0.577250 0.550055
O O11 0.886830 0.393903 0.301454
O O12 0.714245 0.451026 0.080818
O O13 0.137477 0.004678 0.404970
O O14 0.000000 0.500000 0.500000
O O15 0.250000 0.750000 0.500000
#
# Coordination Sequence:
#
# PCOD9254115 Si02
#       7
#     8   8   8   8   8   8   8
#     4   9  18  28  44  68  96 129 165 195 249 294
#     4   9  17  30  44  68  95 128 160 201 237 298
#     4   8  15  26  41  64  89 120 155 192 238 281
#     4  10  19  30  47  68  99 131 164 196 250 292
#     4   9  17  28  43  65  96 128 154 197 245 297
#     4  10  16  26  44  64  91 126 162 195 239 288
#     4   9  15  27  44  65  97 126 158 197 248 298
#
# _framework density 22.921628999999999
#
# number of rings (size 3 to 8) (size 9 to 14) (size 15 to 20)
#    0.000    2.857    1.429    3.000    0.000    0.571 
#    0.000    2.143    0.000    0.000    0.000    4.000 
#    0.000    0.571    3.429    0.000    0.000    0.000 
#
# Total GULP energy -155985.394841 kJ/mol
# GULP energy per Si atom -5570.906959 kJ/mol
# Density = 2.286946 g / cm^3
# Si number density = 22.921629 Si / 1000 Ang^3
#
#
#
# Elastic Constant Matrix: (Units=GPa)
#
#
# Indices 1 2 3 4 5 6 
#
# 1 188.5491 33.1775 46.6226 0.0000 26.6880 0.0000
# 2 33.1775 58.3659 15.6526 0.0000 8.8501 0.0000
# 3 46.6226 15.6526 76.7089 0.0000 15.1290 0.0000
# 4 0.0000 0.0000 0.0000 5.4010 0.0000 -4.8036
# 5 26.6880 8.8501 15.1290 0.0000 46.9411 0.0000
# 6 0.0000 0.0000 0.0000 -4.8036 0.0000 7.6429
#
#
#
# Elastic Compliance Matrix: (Units=1/GPa)
#
#
# Indices 1 2 3 4 5 6 
#
# 1 0.006903 -0.002711 -0.003171 0.000000 -0.002392 0.000000
# 2 -0.002711 0.019442 -0.002029 0.000000 -0.001470 0.000000
# 3 -0.003171 -0.002029 0.015961 0.000000 -0.002959 0.000000
# 4 0.000000 0.000000 0.000000 0.419825 0.000000 0.263861
# 5 -0.002392 -0.001470 -0.002959 0.000000 0.023894 0.000000
# 6 0.000000 0.000000 0.000000 0.263861 0.000000 0.296678
#
#
# Mechanical properties :
#
#
# Convention : Reuss Voigt Hill
#
# Bulk Modulus (GPa) = 37.75955 57.16990 47.46472
# Shear Modulus (GPa) = 6.19308 27.20842 16.70075
#
# Velocity S-wave (km/s) = 1.64551 3.44905 2.70219
# Velocity P-wave (km/s) = 4.48546 6.39194 5.52161
#
# Compressibility (1/GPa) = 0.02648337
#
# Stress axis : x y z
#
# Youngs Moduli (GPa) = 144.85854 51.43628 62.65218
#
# Poissons Ratio (x) = 0.13945 0.19866
# Poissons Ratio (y) = 0.39272 0.12715
# Poissons Ratio (z) = 0.45932 0.10438
#
# Static dielectric constant tensor:
#      x y z
#    x 1.981240 0.000000 0.078280 
#    y 0.000000 2.012160 0.000000 
#    z 0.078280 0.000000 1.865100 
# 
# From -- ./inp_files/255264.got.cif
#   From: 2010.05.17/outbox.cif.g08.bks.cpg/sg15_128_cif.got.tgz:255264.got - 2010.06.03 18:47:42.
