data_PCOD9254221
_publ_section_title
;
Structure prediction by ZEFSAII (Michael W. Deem and Ramdas Pophale) SiO2 
 PCOD9254221
Probable space group: C 2/C
;
_chemical_formula_sum "Si O2"
_cell_formula_units_Z 44
_cell_length_a 30.566977
_cell_length_b 6.711644
_cell_length_c 11.571910
_cell_angle_alpha 90.000000
_cell_angle_beta 41.213938
_cell_angle_gamma 90.000000
_cell_volume 1564.183915
_symmetry_space_group_name_H-M "C 2/C"
_symmetry_group_IT_number 15
_symmetry_cell_setting 'monoclinic'
loop_
_space_group_symop_operation_xyz
x,y,z
-x,y,1/2-z
-x,-y,-z
x,-y,1/2+z
1/2+x,1/2+y,z
1/2-x,1/2+y,1/2-z
1/2-x,1/2-y,-z
1/2+x,1/2-y,1/2+z
loop_
_atom_site_type_symbol
_atom_site_label
_atom_site_fract_x
_atom_site_fract_y
_atom_site_fract_z
Si Si1 0.000000 0.788701 0.750000
Si Si2 0.165103 0.276802 0.599099
Si Si3 0.694186 0.640709 0.770329
Si Si4 0.537059 0.279038 0.916633
Si Si5 0.688118 0.303254 0.542492
Si Si6 0.909862 0.163308 0.954748
O O1 0.999484 0.690870 0.878365
O O2 0.059587 0.949631 0.642787
O O3 0.231072 0.381844 0.424654
O O4 0.156835 0.287242 0.753032
O O5 0.107192 0.298407 0.621157
O O6 0.181767 0.042626 0.555914
O O7 0.697743 0.740218 0.887971
O O8 0.656904 0.428248 0.854174
O O9 0.614676 0.236420 0.728352
O O10 0.543871 0.239684 0.040490
O O11 0.500000 0.500000 0.000000
O O12 0.750000 0.250000 0.500000
#
# Coordination Sequence:
#
# PCOD9254221 Si02
#       6
#     4   8   8   8   8   8
#     4  10  16  28  46  74 102 138 172 216 266 326
#     4  10  20  33  48  77 108 145 179 228 281 336
#     4  10  19  31  50  70 112 141 181 225 280 338
#     4  10  19  30  51  78 112 139 179 232 275 332
#     4  11  21  34  54  79 112 148 183 230 290 346
#     4  10  17  31  48  74 108 137 176 219 274 324
#
# _framework density 28.129684999999998
#
# number of rings (size 3 to 8) (size 9 to 14) (size 15 to 20)
#    0.000    1.818    5.455    1.091    2.545    0.000 
#    0.000    0.000    0.000    0.000    0.000    5.091 
#   10.909    5.818    0.000    0.000    0.000    0.000 
#
# Total GULP energy -122762.657435 kJ/mol
# GULP energy per Si atom -5580.120793 kJ/mol
# Density = 2.806566 g / cm^3
# Si number density = 28.129685 Si / 1000 Ang^3
#
#
#
# Elastic Constant Matrix: (Units=GPa)
#
#
# Indices 1 2 3 4 5 6 
#
# 1 298.5540 22.0825 69.3424 0.0000 39.8569 0.0000
# 2 22.0825 74.5366 -1.3457 0.0000 -0.1673 0.0000
# 3 69.3424 -1.3457 115.9857 0.0000 -11.3317 0.0000
# 4 0.0000 0.0000 0.0000 18.9629 0.0000 -17.0640
# 5 39.8569 -0.1673 -11.3317 0.0000 66.6231 0.0000
# 6 0.0000 0.0000 0.0000 -17.0640 0.0000 25.4424
#
#
#
# Elastic Compliance Matrix: (Units=1/GPa)
#
#
# Indices 1 2 3 4 5 6 
#
# 1 0.004614 -0.001430 -0.003096 0.000000 -0.003290 0.000000
# 2 -0.001430 0.013863 0.001121 0.000000 0.001081 0.000000
# 3 -0.003096 0.001121 0.010847 0.000000 0.003700 0.000000
# 4 0.000000 0.000000 0.000000 0.133011 0.000000 0.089210
# 5 -0.003290 0.001081 0.003700 0.000000 0.017610 0.000000
# 6 0.000000 0.000000 0.000000 0.089210 0.000000 0.099137
#
#
# Mechanical properties :
#
#
# Convention : Reuss Voigt Hill
#
# Bulk Modulus (GPa) = 44.41744 74.35941 59.38842
# Shear Modulus (GPa) = 17.04177 48.80549 32.92363
#
# Velocity S-wave (km/s) = 2.46403 4.16987 3.42486
# Velocity P-wave (km/s) = 4.89078 7.04810 6.06611
#
# Compressibility (1/GPa) = 0.02251368
#
# Stress axis : x y z
#
# Youngs Moduli (GPa) = 216.74646 72.13648 92.18763
#
# Poissons Ratio (x) = 0.10317 0.28545
# Poissons Ratio (y) = 0.30998 -0.10339
# Poissons Ratio (z) = 0.67113 -0.08090
#
# Static dielectric constant tensor:
#      x y z
#    x 2.257600 0.000000 0.017390 
#    y 0.000000 2.252930 0.000000 
#    z 0.017390 0.000000 2.411060 
# 
# From -- ./inp_files/126227.got.cif
#   From: 2010.05.17/outbox.cif.g08.bks.cpg/sg15_64_cif.got.tgz:126227.got - 2010.06.03 18:47:42.
