data_PCOD9254430
_publ_section_title
;
Structure prediction by ZEFSAII (Michael W. Deem and Ramdas Pophale) SiO2 
 PCOD9254430
Probable space group: C 2/C
;
_chemical_formula_sum "Si O2"
_cell_formula_units_Z 44
_cell_length_a 13.998492
_cell_length_b 24.973760
_cell_length_c 8.456207
_cell_angle_alpha 90.000000
_cell_angle_beta 127.221032
_cell_angle_gamma 90.000000
_cell_volume 2354.083337
_symmetry_space_group_name_H-M "C 2/C"
_symmetry_group_IT_number 15
_symmetry_cell_setting 'monoclinic'
loop_
_space_group_symop_operation_xyz
x,y,z
-x,y,1/2-z
-x,-y,-z
x,-y,1/2+z
1/2+x,1/2+y,z
1/2-x,1/2+y,1/2-z
1/2-x,1/2-y,-z
1/2+x,1/2-y,1/2+z
loop_
_atom_site_type_symbol
_atom_site_label
_atom_site_fract_x
_atom_site_fract_y
_atom_site_fract_z
Si Si1 0.500000 0.401972 0.250000
Si Si2 0.641530 0.431678 0.928970
Si Si3 0.863747 0.379732 0.631885
Si Si4 0.305806 0.538753 0.363490
Si Si5 0.181290 0.841176 0.201891
Si Si6 0.872566 0.264039 0.719027
O O1 0.568891 0.438604 0.443597
O O2 0.590062 0.365730 0.240816
O O3 0.500000 0.437360 0.750000
O O4 0.706451 0.445387 0.830238
O O5 0.687300 0.475539 0.101171
O O6 0.666231 0.373627 0.025986
O O7 0.789536 0.428960 0.626962
O O8 0.807936 0.356123 0.412212
O O9 0.862132 0.327110 0.743420
O O10 0.000000 0.396256 0.750000
O O11 0.141981 0.779212 0.155849
O O12 0.750000 0.250000 0.500000
O O13 0.000000 0.257193 0.750000
#
# Coordination Sequence:
#
# PCOD9254430 Si02
#       6
#     4   8   8   8   8   8
#     4  10  16  30  54  80 110 140 176 226 276 338
#     4  12  22  35  55  87 123 149 183 240 300 346
#     4   9  20  38  59  81 111 151 201 237 276 339
#     4  11  21  35  54  83 115 150 187 230 288 344
#     4  10  19  32  56  86 112 145 190 233 290 342
#     4   9  17  32  57  85 111 147 194 239 283 344
#
# _framework density 18.690928
#
# number of rings (size 3 to 8) (size 9 to 14) (size 15 to 20)
#    0.000    1.818    3.636    2.727    0.000    0.000 
#    0.000    5.455    0.000    0.000    0.000    0.000 
#    0.000    0.000    0.000    0.000    0.000    0.000 
#
# Total GULP energy -122568.412867 kJ/mol
# GULP energy per Si atom -5571.291494 kJ/mol
# Density = 1.864839 g / cm^3
# Si number density = 18.690928 Si / 1000 Ang^3
#
#
#
# Elastic Constant Matrix: (Units=GPa)
#
#
# Indices 1 2 3 4 5 6 
#
# 1 44.6159 7.2269 31.4102 0.0000 18.0121 0.0000
# 2 7.2269 96.5429 18.8813 0.0000 0.5512 0.0000
# 3 31.4102 18.8813 54.7396 0.0000 -0.3451 0.0000
# 4 0.0000 0.0000 0.0000 26.8958 0.0000 -6.1903
# 5 18.0121 0.5512 -0.3451 0.0000 36.1817 0.0000
# 6 0.0000 0.0000 0.0000 -6.1903 0.0000 18.6889
#
#
#
# Elastic Compliance Matrix: (Units=1/GPa)
#
#
# Indices 1 2 3 4 5 6 
#
# 1 0.057958 0.002540 -0.034317 0.000000 -0.029219 0.000000
# 2 0.002540 0.011220 -0.005337 0.000000 -0.001486 0.000000
# 3 -0.034317 -0.005337 0.039911 0.000000 0.017546 0.000000
# 4 0.000000 0.000000 0.000000 0.040249 0.000000 0.013332
# 5 -0.029219 -0.001486 0.017546 0.000000 0.042374 0.000000
# 6 0.000000 0.000000 0.000000 0.013332 0.000000 0.057923
#
#
# Mechanical properties :
#
#
# Convention : Reuss Voigt Hill
#
# Bulk Modulus (GPa) = 28.68539 34.54839 31.61689
# Shear Modulus (GPa) = 14.90377 25.57862 20.24120
#
# Velocity S-wave (km/s) = 2.82686 3.70334 3.29438
# Velocity P-wave (km/s) = 5.10249 6.06717 5.60562
#
# Compressibility (1/GPa) = 0.03486095
#
# Stress axis : x y z
#
# Youngs Moduli (GPa) = 17.25382 89.12483 25.05544
#
# Poissons Ratio (x) = -0.22636 0.85984
# Poissons Ratio (y) = -0.04382 0.13372
# Poissons Ratio (z) = 0.59211 0.47566
#
# Static dielectric constant tensor:
#      x y z
#    x 1.650930 0.000000 0.009630 
#    y 0.000000 1.696170 0.000000 
#    z 0.009630 0.000000 1.671450 
# 
# From -- ./inp_files/32728.got.cif
#   From: 2010.05.17/outbox.cif.g08.bks.cpg/sg15_17_cif.got.tgz:32728.got - 2010.06.03 18:47:42.
