data_PCOD9254416
_publ_section_title
;
Structure prediction by ZEFSAII (Michael W. Deem and Ramdas Pophale) SiO2 
 PCOD9254416
Probable space group: C 2/C
;
_chemical_formula_sum "Si O2"
_cell_formula_units_Z 28
_cell_length_a 7.270797
_cell_length_b 16.890529
_cell_length_c 14.339228
_cell_angle_alpha 90.000000
_cell_angle_beta 141.053677
_cell_angle_gamma 90.000000
_cell_volume 1106.929413
_symmetry_space_group_name_H-M "C 2/C"
_symmetry_group_IT_number 15
_symmetry_cell_setting 'monoclinic'
loop_
_space_group_symop_operation_xyz
x,y,z
-x,y,1/2-z
-x,-y,-z
x,-y,1/2+z
1/2+x,1/2+y,z
1/2-x,1/2+y,1/2-z
1/2-x,1/2-y,-z
1/2+x,1/2-y,1/2+z
loop_
_atom_site_type_symbol
_atom_site_label
_atom_site_fract_x
_atom_site_fract_y
_atom_site_fract_z
Si Si1 0.898701 0.897596 0.561059
Si Si2 0.500000 0.822775 0.250000
Si Si3 0.134153 0.675568 0.151680
Si Si4 0.220151 0.056904 0.920944
O O1 0.668217 0.873038 0.393017
O O2 0.763850 0.859884 0.604238
O O3 0.215096 0.858343 0.696006
O O4 0.944044 0.991135 0.583246
O O5 0.246257 0.765361 0.191610
O O6 0.818965 0.635006 0.014762
O O7 0.000000 0.075895 0.750000
O O8 0.500000 0.000000 0.000000
#
# Coordination Sequence:
#
# PCOD9254416 Si02
#       4
#     8   4   8   8
#     4   9  16  29  49  74  98 129 168 202 239 295
#     4  10  18  30  50  78 102 128 162 204 252 296
#     4   9  16  29  50  71  96 126 175 201 231 285
#     4  10  16  30  53  78  93 127 178 208 228 286
#
# _framework density 25.295200999999999
#
# number of rings (size 3 to 8) (size 9 to 14) (size 15 to 20)
#    0.000    2.857    5.714    3.429    0.000    0.000 
#    0.000    1.429    0.000   15.429    0.000    0.000 
#    0.000    0.000    0.000    0.000    0.000    0.000 
#
# Total GULP energy -77943.101773 kJ/mol
# GULP energy per Si atom -5567.364412 kJ/mol
# Density = 2.523763 g / cm^3
# Si number density = 25.295201 Si / 1000 Ang^3
#
#
#
# Elastic Constant Matrix: (Units=GPa)
#
#
# Indices 1 2 3 4 5 6 
#
# 1 44.6118 5.5120 14.6793 0.0016 -2.6897 -0.0001
# 2 5.5120 91.0111 88.6173 0.0011 9.7281 0.0001
# 3 14.6793 88.6173 304.1563 0.0039 -11.9928 0.0004
# 4 0.0016 0.0011 0.0039 58.2686 0.0021 54.8042
# 5 -2.6897 9.7281 -11.9928 0.0021 27.9763 0.0002
# 6 -0.0001 0.0001 0.0004 54.8042 0.0002 64.3910
#
#
#
# Elastic Compliance Matrix: (Units=1/GPa)
#
#
# Indices 1 2 3 4 5 6 
#
# 1 0.022907 -0.000876 -0.000764 -0.000003 0.002179 0.000003
# 2 -0.000876 0.017030 -0.005245 0.000002 -0.008254 -0.000001
# 3 -0.000764 -0.005245 0.005006 -0.000002 0.003896 0.000001
# 4 -0.000003 0.000002 -0.000002 0.086030 -0.000008 -0.073221
# 5 0.002179 -0.008254 0.003896 -0.000008 0.040495 0.000006
# 6 0.000003 -0.000001 0.000001 -0.073221 0.000006 0.077850
#
#
# Mechanical properties :
#
#
# Convention : Reuss Voigt Hill
#
# Bulk Modulus (GPa) = 32.07948 73.04402 52.56175
# Shear Modulus (GPa) = 18.28294 52.19189 35.23742
#
# Velocity S-wave (km/s) = 2.69138 4.54730 3.73640
# Velocity P-wave (km/s) = 4.72944 7.51730 6.28003
#
# Compressibility (1/GPa) = 0.03117257
#
# Stress axis : x y z
#
# Youngs Moduli (GPa) = 43.65528 58.71979 199.74222
#
# Poissons Ratio (x) = 0.05144 0.15268
# Poissons Ratio (y) = 0.03824 1.04764
# Poissons Ratio (z) = 0.03337 0.30798
#
# Static dielectric constant tensor:
#      x y z
#    x 2.717860 0.000000 0.608380 
#    y 0.000000 2.057890 0.000000 
#    z 0.608380 0.000000 2.983030 
# 
# From -- ./inp_files/38142.got.cif
#   From: 2010.05.17/outbox.cif.g08.bks.cpg/sg15_20_cif.got.tgz:38142.got - 2010.06.03 18:47:42.
