data_PCOD9254974
_publ_section_title
;
Structure prediction by ZEFSAII (Michael W. Deem and Ramdas Pophale) SiO2 
 PCOD9254974
Probable space group: C 2/C
;
_chemical_formula_sum "Si O2"
_cell_formula_units_Z 48
_cell_length_a 24.378212
_cell_length_b 7.121073
_cell_length_c 11.486261
_cell_angle_alpha 90.000000
_cell_angle_beta 110.822542
_cell_angle_gamma 90.000000
_cell_volume 1863.767164
_symmetry_space_group_name_H-M "C 2/C"
_symmetry_group_IT_number 15
_symmetry_cell_setting 'monoclinic'
loop_
_space_group_symop_operation_xyz
x,y,z
-x,y,1/2-z
-x,-y,-z
x,-y,1/2+z
1/2+x,1/2+y,z
1/2-x,1/2+y,1/2-z
1/2-x,1/2-y,-z
1/2+x,1/2-y,1/2+z
loop_
_atom_site_type_symbol
_atom_site_label
_atom_site_fract_x
_atom_site_fract_y
_atom_site_fract_z
Si Si1 0.166627 0.846315 0.264523
Si Si2 0.222473 0.440583 0.256187
Si Si3 0.138993 0.336686 0.377573
Si Si4 0.927840 0.269482 0.951317
Si Si5 0.058900 0.715572 0.601232
Si Si6 0.650299 0.239035 0.491336
O O1 0.192167 0.641493 0.249014
O O2 0.209300 0.970575 0.217814
O O3 0.098747 0.842549 0.177550
O O4 0.174373 0.873866 0.408575
O O5 0.201264 0.331490 0.356613
O O6 0.195718 0.346992 0.119104
O O7 0.121702 0.247101 0.486677
O O8 0.092660 0.264052 0.247729
O O9 0.129296 0.557201 0.400716
O O10 0.934805 0.489877 0.920077
O O11 0.991944 0.222185 0.047081
O O12 0.095509 0.809031 0.524374
#
# Coordination Sequence:
#
# PCOD9254974 Si02
#       6
#     8   8   8   8   8   8
#     4  11  20  33  48  71 102 131 165 197 240 287
#     4  10  20  33  48  67  99 136 163 202 233 287
#     4   9  15  30  44  68  98 125 159 194 245 287
#     4  10  17  26  44  72 100 122 154 200 250 290
#     4   9  16  26  46  69 101 123 150 199 261 286
#     4   9  16  32  46  69  97 126 163 197 244 290
#
# _framework density 25.754290999999998
#
# number of rings (size 3 to 8) (size 9 to 14) (size 15 to 20)
#    0.000    2.333    6.667    1.000    0.000    1.333 
#    0.000    0.000    0.000    0.000    0.000    4.667 
#   10.000    0.000    1.000    0.000    0.000    0.000 
#
# Total GULP energy -134153.028245 kJ/mol
# GULP energy per Si atom -5589.709510 kJ/mol
# Density = 2.569567 g / cm^3
# Si number density = 25.754291 Si / 1000 Ang^3
#
#
#
# Elastic Constant Matrix: (Units=GPa)
#
#
# Indices 1 2 3 4 5 6 
#
# 1 88.9938 11.5626 29.1590 0.0000 -3.8355 0.0000
# 2 11.5626 81.2690 20.3654 0.0000 -3.9571 0.0000
# 3 29.1590 20.3654 117.6747 0.0000 -21.1527 0.0000
# 4 0.0000 0.0000 0.0000 22.3573 0.0000 -8.4382
# 5 -3.8355 -3.9571 -21.1527 0.0000 39.4222 0.0000
# 6 0.0000 0.0000 0.0000 -8.4382 0.0000 22.0989
#
#
#
# Elastic Compliance Matrix: (Units=1/GPa)
#
#
# Indices 1 2 3 4 5 6 
#
# 1 0.012321 -0.001035 -0.002963 0.000000 -0.000495 0.000000
# 2 -0.001035 0.012950 -0.001958 0.000000 0.000149 0.000000
# 3 -0.002963 -0.001958 0.010496 0.000000 0.005147 0.000000
# 4 0.000000 0.000000 0.000000 0.052259 0.000000 0.019955
# 5 -0.000495 0.000149 0.005147 0.000000 0.028095 0.000000
# 6 0.000000 0.000000 0.000000 0.019955 0.000000 0.052870
#
#
# Mechanical properties :
#
#
# Convention : Reuss Voigt Hill
#
# Bulk Modulus (GPa) = 41.91862 45.56792 43.74327
# Shear Modulus (GPa) = 26.47537 31.89905 29.18721
#
# Velocity S-wave (km/s) = 3.20972 3.52318 3.37010
# Velocity P-wave (km/s) = 5.48161 5.85510 5.67143
#
# Compressibility (1/GPa) = 0.02385575
#
# Stress axis : x y z
#
# Youngs Moduli (GPa) = 81.16475 77.22046 95.27163
#
# Poissons Ratio (x) = 0.07989 0.28228
# Poissons Ratio (y) = 0.08397 0.18655
# Poissons Ratio (z) = 0.24048 0.15121
#
# Static dielectric constant tensor:
#      x y z
#    x 2.036010 0.000000 -0.004270 
#    y 0.000000 2.167300 0.000000 
#    z -0.004270 0.000000 1.994210 
# 
# From -- ./inp_files/116954.got.cif
#   From: 2010.05.17/outbox.cif.g08.bks.cpg/sg15_59_cif.got.tgz:116954.got - 2010.06.03 18:47:42.
