data_PCOD9254225
_publ_section_title
;
Structure prediction by ZEFSAII (Michael W. Deem and Ramdas Pophale) SiO2 
 PCOD9254225
Probable space group: C 2/C
;
_chemical_formula_sum "Si O2"
_cell_formula_units_Z 64
_cell_length_a 24.099379
_cell_length_b 7.364326
_cell_length_c 19.462226
_cell_angle_alpha 90.000000
_cell_angle_beta 132.568937
_cell_angle_gamma 90.000000
_cell_volume 2543.799399
_symmetry_space_group_name_H-M "C 2/C"
_symmetry_group_IT_number 15
_symmetry_cell_setting 'monoclinic'
loop_
_space_group_symop_operation_xyz
x,y,z
-x,y,1/2-z
-x,-y,-z
x,-y,1/2+z
1/2+x,1/2+y,z
1/2-x,1/2+y,1/2-z
1/2-x,1/2-y,-z
1/2+x,1/2-y,1/2+z
loop_
_atom_site_type_symbol
_atom_site_label
_atom_site_fract_x
_atom_site_fract_y
_atom_site_fract_z
Si Si1 0.690062 0.918658 0.803951
Si Si2 0.349251 0.560472 0.963158
Si Si3 0.085384 0.582542 0.341014
Si Si4 0.645682 0.342369 0.742221
Si Si5 0.429921 0.910501 0.517650
Si Si6 0.995521 0.205592 0.035315
Si Si7 0.412666 0.357548 0.663309
Si Si8 0.304467 0.100315 0.340329
O O1 0.779692 0.925252 0.893625
O O2 0.643282 0.854722 0.830806
O O3 0.663955 0.127166 0.766206
O O4 0.673499 0.828795 0.716455
O O5 0.315160 0.753743 0.909790
O O6 0.426720 0.565287 0.984307
O O7 0.376872 0.565301 0.064343
O O8 0.095549 0.644352 0.428071
O O9 0.090867 0.362261 0.345472
O O10 0.000000 0.631243 0.250000
O O11 0.568218 0.359223 0.636958
O O12 0.634299 0.413891 0.809494
O O13 0.716075 0.435992 0.764649
O O14 0.469098 0.109060 0.552971
O O15 0.358517 0.937138 0.407684
O O16 0.487352 0.780884 0.526131
O O17 0.500000 0.405256 0.750000
#
# Coordination Sequence:
#
# PCOD9254225 Si02
#       8
#     8   8   8   8   8   8   8   8
#     4  10  21  33  47  72 108 131 176 207 253 315
#     4  10  20  31  52  75 104 140 164 208 263 306
#     4  10  19  28  47  75 103 132 155 213 265 310
#     4  10  19  29  50  73 107 133 159 207 260 309
#     4  10  18  29  50  73 101 130 170 202 257 307
#     4  10  17  31  49  74 100 133 170 206 246 311
#     4  10  16  28  47  76 107 125 155 200 263 321
#     4  10  20  32  46  72 105 138 164 207 257 309
#
# _framework density 25.159217999999999
#
# number of rings (size 3 to 8) (size 9 to 14) (size 15 to 20)
#    0.000    2.000    5.000    1.500    5.250    1.500 
#    0.000    0.625    0.000    0.750    0.000    0.000 
#    0.000    0.000    0.000    0.000    0.000    0.000 
#
# Total GULP energy -179080.716991 kJ/mol
# GULP energy per Si atom -5596.272406 kJ/mol
# Density = 2.510195 g / cm^3
# Si number density = 25.159218 Si / 1000 Ang^3
#
#
#
# Elastic Constant Matrix: (Units=GPa)
#
#
# Indices 1 2 3 4 5 6 
#
# 1 193.8658 10.9117 105.0753 0.0000 -17.3981 0.0000
# 2 10.9117 64.6849 17.9356 -0.0001 -1.2379 0.0000
# 3 105.0753 17.9356 178.8810 0.0000 -11.5800 0.0000
# 4 0.0000 -0.0001 0.0000 3.6846 0.0000 -5.4634
# 5 -17.3981 -1.2379 -11.5800 0.0000 67.7836 0.0000
# 6 0.0000 0.0000 0.0000 -5.4634 0.0000 -0.8973
#
#
#
# Elastic Compliance Matrix: (Units=1/GPa)
#
#
# Indices 1 2 3 4 5 6 
#
# 1 0.007665 -0.000044 -0.004419 0.000000 0.001212 0.000000
# 2 -0.000044 0.015902 -0.001568 0.000000 0.000011 0.000000
# 3 -0.004419 -0.001568 0.008361 0.000000 0.000265 0.000000
# 4 0.000000 0.000000 0.000000 0.027064 0.000000 -0.164785
# 5 0.001212 0.000011 0.000265 0.000000 0.015109 0.000000
# 6 0.000000 0.000000 0.000000 -0.164785 0.000000 -0.111135
#
#
# Mechanical properties :
#
#
# Convention : Reuss Voigt Hill
#
# Bulk Modulus (GPa) = 50.34109 78.36409 64.35259
# Shear Modulus (GPa) = -272.48281 34.34813 -119.06734
#
# Velocity S-wave (km/s) = -10.41818 3.69891 -6.88682
# Velocity P-wave (km/s) = 11.16537 7.03260 6.13221
#
# Compressibility (1/GPa) = 0.01986449
#
# Stress axis : x y z
#
# Youngs Moduli (GPa) = 130.46721 62.88544 119.60789
#
# Poissons Ratio (x) = 0.00279 0.52860
# Poissons Ratio (y) = 0.00579 0.18750
# Poissons Ratio (z) = 0.57659 0.09858
#
# Static dielectric constant tensor:
#      x y z
#    x 2.009930 0.000000 0.012360 
#    y 0.000000 2.040550 0.000000 
#    z 0.012360 0.000000 1.919520 
# 
# From -- ./inp_files/219146.got.cif
#   From: 2010.05.17/outbox.cif.g08.bks.cpg/sg15_110_cif.got.tgz:219146.got - 2010.06.03 18:47:42.
