data_PCOD9254274
_publ_section_title
;
Structure prediction by ZEFSAII (Michael W. Deem and Ramdas Pophale) SiO2 
 PCOD9254274
Probable space group: C 2/C
;
_chemical_formula_sum "Si O2"
_cell_formula_units_Z 40
_cell_length_a 23.333787
_cell_length_b 7.903522
_cell_length_c 15.146207
_cell_angle_alpha 90.000000
_cell_angle_beta 146.384940
_cell_angle_gamma 90.000000
_cell_volume 1546.372334
_symmetry_space_group_name_H-M "C 2/C"
_symmetry_group_IT_number 15
_symmetry_cell_setting 'monoclinic'
loop_
_space_group_symop_operation_xyz
x,y,z
-x,y,1/2-z
-x,-y,-z
x,-y,1/2+z
1/2+x,1/2+y,z
1/2-x,1/2+y,1/2-z
1/2-x,1/2-y,-z
1/2+x,1/2-y,1/2+z
loop_
_atom_site_type_symbol
_atom_site_label
_atom_site_fract_x
_atom_site_fract_y
_atom_site_fract_z
Si Si1 0.012863 0.266279 0.652689
Si Si2 0.675207 0.829636 0.976128
Si Si3 0.210385 0.990881 0.209595
Si Si4 0.122525 0.663038 0.674395
Si Si5 0.993893 0.108574 0.347523
O O1 0.910865 0.220936 0.580753
O O2 0.974757 0.353318 0.515756
O O3 0.087880 0.400186 0.796524
O O4 0.054933 0.076824 0.691260
O O5 0.750000 0.750000 0.000000
O O6 0.734125 0.920676 0.130361
O O7 0.294085 0.984016 0.236433
O O8 0.182811 0.178761 0.205054
O O9 0.105883 0.896969 0.041083
O O10 0.079204 0.745833 0.707250
O O11 0.000000 0.126427 0.250000
#
# Coordination Sequence:
#
# PCOD9254274 Si02
#       5
#     8   8   8   8   8
#     4   9  18  32  54  87 112 148 207 246 284 350
#     4  10  16  28  54  87 112 141 195 259 288 321
#     4  10  22  36  61  90 123 158 205 252 305 355
#     4  10  21  39  60  91 122 157 203 256 300 360
#     4  11  20  36  62  85 121 163 209 240 297 372
#
# _framework density 25.866990999999999
#
# number of rings (size 3 to 8) (size 9 to 14) (size 15 to 20)
#    0.000    2.000    2.000    4.800    0.000    0.800 
#    0.000    1.000    8.800    0.000    0.000    0.000 
#    0.000    0.000    0.000    0.000    0.000    0.000 
#
# Total GULP energy -111459.336393 kJ/mol
# GULP energy per Si atom -5572.966820 kJ/mol
# Density = 2.580812 g / cm^3
# Si number density = 25.866991 Si / 1000 Ang^3
#
#
#
# Elastic Constant Matrix: (Units=GPa)
#
#
# Indices 1 2 3 4 5 6 
#
# 1 119.5712 37.7966 40.1105 0.0000 -9.6269 0.0000
# 2 37.7966 63.2866 44.6236 0.0000 -14.0339 0.0000
# 3 40.1105 44.6236 163.2326 0.0000 -9.4459 0.0000
# 4 0.0000 0.0000 0.0000 21.0272 0.0000 1.3021
# 5 -9.6269 -14.0339 -9.4459 0.0000 35.4216 0.0000
# 6 0.0000 0.0000 0.0000 1.3021 0.0000 40.0189
#
#
#
# Elastic Compliance Matrix: (Units=1/GPa)
#
#
# Indices 1 2 3 4 5 6 
#
# 1 0.010463 -0.005402 -0.001070 0.000000 0.000418 0.000000
# 2 -0.005402 0.023918 -0.004822 0.000000 0.006722 0.000000
# 3 -0.001070 -0.004822 0.007699 0.000000 -0.000148 0.000000
# 4 0.000000 0.000000 0.000000 0.047653 0.000000 -0.001550
# 5 0.000418 0.006722 -0.000148 0.000000 0.030969 0.000000
# 6 0.000000 0.000000 0.000000 -0.001550 0.000000 0.025039
#
#
# Mechanical properties :
#
#
# Convention : Reuss Voigt Hill
#
# Bulk Modulus (GPa) = 51.30311 65.68354 58.49333
# Shear Modulus (GPa) = 28.59972 34.19751 31.39862
#
# Velocity S-wave (km/s) = 3.32873 3.63995 3.48781
# Velocity P-wave (km/s) = 5.88646 6.56609 6.23554
#
# Compressibility (1/GPa) = 0.01949199
#
# Stress axis : x y z
#
# Youngs Moduli (GPa) = 95.57136 41.80948 129.88856
#
# Poissons Ratio (x) = 0.22584 0.13901
# Poissons Ratio (y) = 0.51624 0.62635
# Poissons Ratio (z) = 0.10229 0.20162
#
# Static dielectric constant tensor:
#      x y z
#    x 2.151440 0.000000 0.002940 
#    y 0.000000 2.119620 0.000000 
#    z 0.002940 0.000000 2.198240 
# 
# From -- ./inp_files/172145.got.cif
#   From: 2010.05.17/outbox.cif.g08.bks.cpg/sg15_87_cif.got.tgz:172145.got - 2010.06.03 18:47:42.
