data_PCOD9254131
_publ_section_title
;
Structure prediction by ZEFSAII (Michael W. Deem and Ramdas Pophale) SiO2 
 PCOD9254131
Probable space group: C 2/C
;
_chemical_formula_sum "Si O2"
_cell_formula_units_Z 44
_cell_length_a 9.661482
_cell_length_b 22.240741
_cell_length_c 9.756066
_cell_angle_alpha 90.000000
_cell_angle_beta 58.200228
_cell_angle_gamma 90.000000
_cell_volume 1781.693101
_symmetry_space_group_name_H-M "C 2/C"
_symmetry_group_IT_number 15
_symmetry_cell_setting 'monoclinic'
loop_
_space_group_symop_operation_xyz
x,y,z
-x,y,1/2-z
-x,-y,-z
x,-y,1/2+z
1/2+x,1/2+y,z
1/2-x,1/2+y,1/2-z
1/2-x,1/2-y,-z
1/2+x,1/2-y,1/2+z
loop_
_atom_site_type_symbol
_atom_site_label
_atom_site_fract_x
_atom_site_fract_y
_atom_site_fract_z
Si Si1 0.305726 0.665144 0.254947
Si Si2 0.830879 0.659622 0.462924
Si Si3 0.000000 0.830482 0.250000
Si Si4 0.146407 0.535522 0.990082
Si Si5 0.158342 0.974910 0.837070
Si Si6 0.945215 0.753741 0.024656
O O1 0.345384 0.593029 0.228859
O O2 0.200063 0.704611 0.421604
O O3 0.180237 0.670866 0.191461
O O4 0.471978 0.700698 0.127351
O O5 0.646120 0.638953 0.594509
O O6 0.924641 0.602533 0.467890
O O7 0.897405 0.716426 0.506171
O O8 0.091918 0.794278 0.322757
O O9 0.293306 0.519920 0.809933
O O10 0.795997 0.476555 0.884803
O O11 0.000000 0.500000 0.000000
O O12 0.000000 0.000000 0.000000
#
# Coordination Sequence:
#
# PCOD9254131 Si02
#       6
#     8   8   4   8   8   8
#     4  10  20  31  53  85 126 153 200 254 326 372
#     4  10  19  29  53  81 123 153 198 251 320 373
#     4  10  16  26  46  82 120 152 180 248 332 370
#     4  11  24  42  64  91 130 172 214 262 315 376
#     4  11  25  42  64  95 131 170 216 263 313 378
#     4  11  16  30  49  84 121 158 185 260 329 379
#
# _framework density 24.695611
#
# number of rings (size 3 to 8) (size 9 to 14) (size 15 to 20)
#    0.000    1.455    3.636    3.273    7.636    2.909 
#    0.000    0.000    0.000    0.000    0.000   22.909 
#    0.000    0.000    0.000    0.000    0.000    0.000 
#
# Total GULP energy -122663.690800 kJ/mol
# GULP energy per Si atom -5575.622309 kJ/mol
# Density = 2.463940 g / cm^3
# Si number density = 24.695611 Si / 1000 Ang^3
#
#
#
# Elastic Constant Matrix: (Units=GPa)
#
#
# Indices 1 2 3 4 5 6 
#
# 1 65.8011 14.3613 15.9924 0.0000 -8.3695 0.0000
# 2 14.3613 116.4930 46.7150 0.0000 5.3229 0.0000
# 3 15.9924 46.7150 144.8453 0.0000 -10.8347 0.0000
# 4 0.0000 0.0000 0.0000 42.2313 0.0000 -6.1703
# 5 -8.3695 5.3229 -10.8347 0.0000 48.5975 0.0000
# 6 0.0000 0.0000 0.0000 -6.1703 0.0000 17.3490
#
#
#
# Elastic Compliance Matrix: (Units=1/GPa)
#
#
# Indices 1 2 3 4 5 6 
#
# 1 0.016169 -0.001705 -0.001030 0.000000 0.002742 0.000000
# 2 -0.001705 0.010200 -0.003261 0.000000 -0.002138 0.000000
# 3 -0.001030 -0.003261 0.008220 0.000000 0.002012 0.000000
# 4 0.000000 0.000000 0.000000 0.024977 0.000000 0.008883
# 5 0.002742 -0.002138 0.002012 0.000000 0.021732 0.000000
# 6 0.000000 0.000000 0.000000 0.008883 0.000000 0.060800
#
#
# Mechanical properties :
#
#
# Convention : Reuss Voigt Hill
#
# Bulk Modulus (GPa) = 44.25767 53.47519 48.86643
# Shear Modulus (GPa) = 30.93620 38.30693 34.62157
#
# Velocity S-wave (km/s) = 3.54319 3.94275 3.74830
# Velocity P-wave (km/s) = 5.89059 6.51366 6.20995
#
# Compressibility (1/GPa) = 0.02259495
#
# Stress axis : x y z
#
# Youngs Moduli (GPa) = 61.84818 98.03958 121.65456
#
# Poissons Ratio (x) = 0.16721 0.12531
# Poissons Ratio (y) = 0.10548 0.39675
# Poissons Ratio (z) = 0.06371 0.31973
#
# Static dielectric constant tensor:
#      x y z
#    x 2.111150 0.000000 -0.206470 
#    y 0.000000 2.029610 0.000000 
#    z -0.206470 0.000000 2.366660 
# 
# From -- ./inp_files/79680.got.cif
#   From: 2010.05.17/outbox.cif.g08.bks.cpg/sg15_40_cif.got.tgz:79680.got - 2010.06.03 18:47:42.
