data_PCOD9254816
_publ_section_title
;
Structure prediction by ZEFSAII (Michael W. Deem and Ramdas Pophale) SiO2 
 PCOD9254816
Probable space group: C 2/C
;
_chemical_formula_sum "Si O2"
_cell_formula_units_Z 48
_cell_length_a 10.324075
_cell_length_b 16.664794
_cell_length_c 26.015014
_cell_angle_alpha 90.000000
_cell_angle_beta 142.050254
_cell_angle_gamma 90.000000
_cell_volume 2752.511539
_symmetry_space_group_name_H-M "C 2/C"
_symmetry_group_IT_number 15
_symmetry_cell_setting 'monoclinic'
loop_
_space_group_symop_operation_xyz
x,y,z
-x,y,1/2-z
-x,-y,-z
x,-y,1/2+z
1/2+x,1/2+y,z
1/2-x,1/2+y,1/2-z
1/2-x,1/2-y,-z
1/2+x,1/2-y,1/2+z
loop_
_atom_site_type_symbol
_atom_site_label
_atom_site_fract_x
_atom_site_fract_y
_atom_site_fract_z
Si Si1 0.724777 0.433705 0.243942
Si Si2 0.534475 0.970278 0.082129
Si Si3 0.157553 0.947925 0.897343
Si Si4 0.078227 0.288776 0.081131
Si Si5 0.000000 0.807322 0.250000
Si Si6 0.000000 0.661107 0.750000
Si Si7 0.318224 0.258349 0.598985
O O1 0.902054 0.467811 0.338588
O O2 0.553569 0.501183 0.176390
O O3 0.605530 0.364858 0.240072
O O4 0.835872 0.393586 0.230063
O O5 0.601048 0.883829 0.078787
O O6 0.682501 0.033401 0.099587
O O7 0.291065 0.975835 0.989399
O O8 0.124271 0.852543 0.887052
O O9 0.311511 0.257621 0.165098
O O10 0.944518 0.282843 0.091862
O O11 0.930169 0.251383 0.991556
O O12 0.884223 0.717329 0.672213
#
# Coordination Sequence:
#
# PCOD9254816 Si02
#       7
#     8   8   8   8   4   4   8
#     4  11  20  37  58  83 114 153 184 228 283 345
#     4   9  17  33  58  85 104 145 191 227 271 335
#     4  10  19  33  62  85 105 139 203 236 263 319
#     4   9  17  36  60  79 113 150 191 219 289 341
#     4  10  16  35  63  78 100 160 198 214 268 353
#     4  12  24  37  57  86 120 150 184 228 300 343
#     4  10  21  34  57  90 113 144 186 243 281 330
#
# _framework density 17.43862
#
# number of rings (size 3 to 8) (size 9 to 14) (size 15 to 20)
#    0.000    2.000    6.667    0.000    2.333    0.000 
#    0.000    2.500    3.667    0.000    0.000    0.000 
#    0.000    0.000    0.000    0.000    0.000    0.000 
#
# Total GULP energy -133677.775915 kJ/mol
# GULP energy per Si atom -5569.907330 kJ/mol
# Density = 1.739893 g / cm^3
# Si number density = 17.438620 Si / 1000 Ang^3
#
#
#
# Elastic Constant Matrix: (Units=GPa)
#
#
# Indices 1 2 3 4 5 6 
#
# 1 64.5494 23.3164 35.4610 0.0000 -2.8864 0.0000
# 2 23.3164 51.2167 37.6787 0.0000 6.4763 0.0000
# 3 35.4610 37.6787 186.1226 0.0001 11.1220 0.0000
# 4 0.0000 0.0000 0.0001 17.1727 0.0000 6.8147
# 5 -2.8864 6.4763 11.1220 0.0000 26.1505 0.0000
# 6 0.0000 0.0000 0.0000 6.8147 0.0000 19.7574
#
#
#
# Elastic Compliance Matrix: (Units=1/GPa)
#
#
# Indices 1 2 3 4 5 6 
#
# 1 0.019961 -0.007897 -0.002517 0.000000 0.005229 0.000000
# 2 -0.007897 0.026440 -0.003493 0.000000 -0.005934 0.000000
# 3 -0.002517 -0.003493 0.006695 0.000000 -0.002260 0.000000
# 4 0.000000 0.000000 0.000000 0.067466 0.000000 -0.023270
# 5 0.005229 -0.005934 -0.002260 0.000000 0.041248 0.000000
# 6 0.000000 0.000000 0.000000 -0.023270 0.000000 0.058640
#
#
# Mechanical properties :
#
#
# Convention : Reuss Voigt Hill
#
# Bulk Modulus (GPa) = 39.55467 54.97788 47.26628
# Shear Modulus (GPa) = 19.47859 26.31163 22.89511
#
# Velocity S-wave (km/s) = 3.34575 3.88856 3.62732
# Velocity P-wave (km/s) = 6.13652 7.19417 6.68629
#
# Compressibility (1/GPa) = 0.02528147
#
# Stress axis : x y z
#
# Youngs Moduli (GPa) = 50.09763 37.82103 149.37426
#
# Poissons Ratio (x) = 0.29867 0.37596
# Poissons Ratio (y) = 0.39561 0.52183
# Poissons Ratio (z) = 0.12609 0.13213
#
# Static dielectric constant tensor:
#      x y z
#    x 1.561620 0.000000 0.024080 
#    y 0.000000 1.574390 0.000000 
#    z 0.024080 0.000000 1.677520 
# 
# From -- ./inp_files/191788.got.cif
#   From: 2010.05.17/outbox.cif.g08.bks.cpg/sg15_96_cif.got.tgz:191788.got - 2010.06.03 18:47:42.
