data_PCOD9254693
_publ_section_title
;
Structure prediction by ZEFSAII (Michael W. Deem and Ramdas Pophale) SiO2 
 PCOD9254693
Probable space group: C 2/C
;
_chemical_formula_sum "Si O2"
_cell_formula_units_Z 36
_cell_length_a 10.994070
_cell_length_b 32.207874
_cell_length_c 5.489389
_cell_angle_alpha 90.000000
_cell_angle_beta 99.893407
_cell_angle_gamma 90.000000
_cell_volume 1914.863027
_symmetry_space_group_name_H-M "C 2/C"
_symmetry_group_IT_number 15
_symmetry_cell_setting 'monoclinic'
loop_
_space_group_symop_operation_xyz
x,y,z
-x,y,1/2-z
-x,-y,-z
x,-y,1/2+z
1/2+x,1/2+y,z
1/2-x,1/2+y,1/2-z
1/2-x,1/2-y,-z
1/2+x,1/2-y,1/2+z
loop_
_atom_site_type_symbol
_atom_site_label
_atom_site_fract_x
_atom_site_fract_y
_atom_site_fract_z
Si Si1 0.500000 0.797740 0.250000
Si Si2 0.640615 0.517305 0.056625
Si Si3 0.132366 0.754028 0.170054
Si Si4 0.222460 0.680987 0.536834
Si Si5 0.920458 0.885944 0.970124
O O1 0.596831 0.765754 0.402373
O O2 0.416239 0.824831 0.404602
O O3 0.698196 0.498523 0.322816
O O4 0.627139 0.566685 0.063570
O O5 0.500000 0.500000 0.000000
O O6 0.206175 0.717607 0.333823
O O7 0.194255 0.798427 0.222039
O O8 0.000000 0.758192 0.250000
O O9 0.301438 0.643776 0.454928
O O10 0.000000 0.877167 0.750000
O O11 0.000000 0.882443 0.250000
#
# Coordination Sequence:
#
# PCOD9254693 Si02
#       5
#     4   8   8   8   8
#     4  10  20  38  62  72 110 154 200 232 286 342
#     4  10  16  33  55  78 119 152 175 217 293 357
#     4   9  19  39  54  78 107 150 191 240 293 335
#     4  10  22  36  55  83 109 151 192 241 283 338
#     4  12  23  36  57  91 122 148 189 236 286 349
#
# _framework density 18.8003
#
# number of rings (size 3 to 8) (size 9 to 14) (size 15 to 20)
#    0.000    1.778    4.444    1.333    3.111    0.000 
#   20.000    0.000    0.000    0.000    0.000    1.556 
#    0.000    0.000    0.000    0.000    0.000    0.000 
#
# Total GULP energy -100242.378847 kJ/mol
# GULP energy per Si atom -5569.021047 kJ/mol
# Density = 1.875751 g / cm^3
# Si number density = 18.800300 Si / 1000 Ang^3
#
#
#
# Elastic Constant Matrix: (Units=GPa)
#
#
# Indices 1 2 3 4 5 6 
#
# 1 70.6598 65.4619 27.1210 0.0000 -26.5708 0.0000
# 2 65.4619 115.9283 22.2124 0.0000 -12.8520 0.0000
# 3 27.1210 22.2124 113.4768 0.0000 -17.0213 0.0000
# 4 0.0000 0.0000 0.0000 233.2244 0.0000 8.1981
# 5 -26.5708 -12.8520 -17.0213 0.0000 31.7405 0.0000
# 6 0.0000 0.0000 0.0000 8.1981 0.0000 23.2712
#
#
#
# Elastic Compliance Matrix: (Units=1/GPa)
#
#
# Indices 1 2 3 4 5 6 
#
# 1 0.047359 -0.023057 -0.002457 0.000000 0.028992 0.000000
# 2 -0.023057 0.020445 -0.000157 0.000000 -0.011108 0.000000
# 3 -0.002457 -0.000157 0.009909 0.000000 0.003194 0.000000
# 4 0.000000 0.000000 0.000000 0.004341 0.000000 -0.001529
# 5 0.028992 -0.011108 0.003194 0.000000 0.052990 0.000000
# 6 0.000000 0.000000 0.000000 -0.001529 0.000000 0.043510
#
#
# Mechanical properties :
#
#
# Convention : Reuss Voigt Hill
#
# Bulk Modulus (GPa) = 37.92252 58.85062 48.38657
# Shear Modulus (GPa) = 20.94789 69.99854 45.47322
#
# Velocity S-wave (km/s) = 3.34163 6.10848 4.92341
# Velocity P-wave (km/s) = 5.92484 9.00679 7.62319
#
# Compressibility (1/GPa) = 0.02636956
#
# Stress axis : x y z
#
# Youngs Moduli (GPa) = 21.11549 48.91240 100.91433
#
# Poissons Ratio (x) = 1.12780 0.24792
# Poissons Ratio (y) = 0.48687 0.01588
# Poissons Ratio (z) = 0.05187 0.00770
#
# Static dielectric constant tensor:
#      x y z
#    x 1.721850 0.000000 -0.041110 
#    y 0.000000 1.620330 0.000000 
#    z -0.041110 0.000000 1.803850 
# 
# From -- ./inp_files/4689.got.cif
#   From: 2010.05.17/outbox.cif.g08.bks.cpg/sg15_3_cif.got.tgz:4689.got - 2010.06.03 18:47:42.
