data_PCOD9254408
_publ_section_title
;
Structure prediction by ZEFSAII (Michael W. Deem and Ramdas Pophale) SiO2 
 PCOD9254408
Probable space group: C 2/C
;
_chemical_formula_sum "Si O2"
_cell_formula_units_Z 60
_cell_length_a 16.483081
_cell_length_b 17.202395
_cell_length_c 14.129825
_cell_angle_alpha 90.000000
_cell_angle_beta 130.057379
_cell_angle_gamma 90.000000
_cell_volume 3066.569001
_symmetry_space_group_name_H-M "C 2/C"
_symmetry_group_IT_number 15
_symmetry_cell_setting 'monoclinic'
loop_
_space_group_symop_operation_xyz
x,y,z
-x,y,1/2-z
-x,-y,-z
x,-y,1/2+z
1/2+x,1/2+y,z
1/2-x,1/2+y,1/2-z
1/2-x,1/2-y,-z
1/2+x,1/2-y,1/2+z
loop_
_atom_site_type_symbol
_atom_site_label
_atom_site_fract_x
_atom_site_fract_y
_atom_site_fract_z
Si Si1 0.463387 0.495696 0.116347
Si Si2 0.325159 0.901807 0.693607
Si Si3 0.897024 0.171048 0.529270
Si Si4 0.275421 0.943352 0.068222
Si Si5 0.954312 0.149410 0.368359
Si Si6 0.815662 0.210889 0.964690
Si Si7 0.773661 0.632599 0.365262
Si Si8 0.500000 0.789861 0.750000
O O1 0.500000 0.512201 0.250000
O O2 0.470713 0.404433 0.104376
O O3 0.527172 0.556901 0.100300
O O4 0.340887 0.518533 0.020281
O O5 0.224450 0.859196 0.566714
O O6 0.295689 0.909574 0.782537
O O7 0.424306 0.845624 0.753959
O O8 0.344248 0.987261 0.663254
O O9 0.923769 0.193210 0.441581
O O10 0.927725 0.235649 0.628112
O O11 0.254776 0.864752 0.113637
O O12 0.303685 0.914824 0.982801
O O13 0.852265 0.150781 0.225390
O O14 0.066806 0.182426 0.419634
O O15 0.826651 0.282082 0.900733
O O16 0.750000 0.250000 0.000000
#
# Coordination Sequence:
#
# PCOD9254408 Si02
#       8
#     8   8   8   8   8   8   8   4
#     4  10  16  30  52  82 106 136 169 224 293 328
#     4  10  23  39  57  85 110 147 191 228 281 345
#     4  10  21  35  54  82 109 142 189 226 279 344
#     4   9  19  36  54  81 115 142 184 229 277 335
#     4  10  19  32  54  83 110 143 180 229 286 339
#     4   9  19  33  55  83 111 146 189 228 277 330
#     4  10  19  37  59  82 117 146 181 242 281 328
#     4  12  22  40  58  72 118 154 184 236 276 322
#
# _framework density 19.565840999999999
#
# number of rings (size 3 to 8) (size 9 to 14) (size 15 to 20)
#    0.000    2.133    2.000    1.600    0.000    1.067 
#    0.000    7.333    0.000    0.000    0.000    0.000 
#    0.000    0.000    0.000    0.000    0.000    0.000 
#
# Total GULP energy -167051.903168 kJ/mol
# GULP energy per Si atom -5568.396772 kJ/mol
# Density = 1.952131 g / cm^3
# Si number density = 19.565841 Si / 1000 Ang^3
#
#
#
# Elastic Constant Matrix: (Units=GPa)
#
#
# Indices 1 2 3 4 5 6 
#
# 1 58.1979 24.4713 13.2582 0.0000 -2.2104 0.0000
# 2 24.4713 120.0045 33.9777 0.0000 -7.4706 0.0000
# 3 13.2582 33.9777 43.7184 0.0000 -14.6329 0.0000
# 4 0.0000 0.0000 0.0000 25.4934 0.0000 -5.6626
# 5 -2.2104 -7.4706 -14.6329 0.0000 27.7471 0.0000
# 6 0.0000 0.0000 0.0000 -5.6626 0.0000 11.3467
#
#
#
# Elastic Compliance Matrix: (Units=1/GPa)
#
#
# Indices 1 2 3 4 5 6 
#
# 1 0.019262 -0.002858 -0.004086 0.000000 -0.001390 0.000000
# 2 -0.002858 0.011185 -0.008372 0.000000 -0.001631 0.000000
# 3 -0.004086 -0.008372 0.036134 0.000000 0.016476 0.000000
# 4 0.000000 0.000000 0.000000 0.044116 0.000000 0.022016
# 5 -0.001390 -0.001631 0.016476 0.000000 0.044179 0.000000
# 6 0.000000 0.000000 0.000000 0.022016 0.000000 0.099118
#
#
# Mechanical properties :
#
#
# Convention : Reuss Voigt Hill
#
# Bulk Modulus (GPa) = 27.81617 40.59280 34.20448
# Shear Modulus (GPa) = 16.85720 22.93167 19.89443
#
# Velocity S-wave (km/s) = 2.93842 3.42720 3.19218
# Velocity P-wave (km/s) = 5.07543 6.03761 5.57731
#
# Compressibility (1/GPa) = 0.03595032
#
# Stress axis : x y z
#
# Youngs Moduli (GPa) = 51.91472 89.40833 27.67454
#
# Poissons Ratio (x) = 0.25550 0.11307
# Poissons Ratio (y) = 0.14835 0.23169
# Poissons Ratio (z) = 0.21211 0.74853
#
# Static dielectric constant tensor:
#      x y z
#    x 1.709810 0.000000 -0.026830 
#    y 0.000000 1.752080 0.000000 
#    z -0.026830 0.000000 1.737100 
# 
# From -- ./inp_files/162954.got.cif
#   From: 2010.05.17/outbox.cif.g08.bks.cpg/sg15_82_cif.got.tgz:162954.got - 2010.06.03 18:47:42.
