data_PCOD9254933
_publ_section_title
;
Structure prediction by ZEFSAII (Michael W. Deem and Ramdas Pophale) SiO2 
 PCOD9254933
Probable space group: C 2/C
;
_chemical_formula_sum "Si O2"
_cell_formula_units_Z 48
_cell_length_a 5.382274
_cell_length_b 14.578561
_cell_length_c 26.162078
_cell_angle_alpha 90.000000
_cell_angle_beta 107.974437
_cell_angle_gamma 90.000000
_cell_volume 1952.638882
_symmetry_space_group_name_H-M "C 2/C"
_symmetry_group_IT_number 15
_symmetry_cell_setting 'monoclinic'
loop_
_space_group_symop_operation_xyz
x,y,z
-x,y,1/2-z
-x,-y,-z
x,-y,1/2+z
1/2+x,1/2+y,z
1/2-x,1/2+y,1/2-z
1/2-x,1/2-y,-z
1/2+x,1/2-y,1/2+z
loop_
_atom_site_type_symbol
_atom_site_label
_atom_site_fract_x
_atom_site_fract_y
_atom_site_fract_z
Si Si1 0.233139 0.481090 0.605964
Si Si2 0.209431 0.229910 0.227051
Si Si3 0.240880 0.733844 0.439283
Si Si4 0.834752 0.768909 0.605964
Si Si5 0.278276 0.979910 0.772948
Si Si6 0.826972 0.983844 0.939283
O O1 0.262296 0.375000 0.591531
O O2 0.183594 0.480034 0.663906
O O3 0.502896 0.518647 0.598720
O O4 0.962488 0.522971 0.569262
O O5 0.500000 0.267811 0.250000
O O6 0.244152 0.125000 0.250000
O O7 0.000000 0.276861 0.250000
O O8 0.058123 0.230035 0.163906
O O9 0.250000 0.750000 0.500000
O O10 0.504704 0.772971 0.430738
O O11 0.269254 0.625000 0.429502
O O12 0.956738 0.768648 0.401280
O O13 0.500000 0.017811 0.750000
O O14 0.000000 0.026861 0.750000
O O15 0.000000 0.000000 0.000000
#
# Coordination Sequence:
#
# PCOD9254933 Si02
#       6
#     8   8   8   8   8   8
#     4  10  18  30  46  70 100 139 159 205 260 316
#     4  10  17  24  41  66 103 130 155 187 258 324
#     4  10  21  34  51  70 100 135 177 217 257 304
#     4  10  18  30  46  70 100 139 159 205 260 316
#     4  10  17  24  41  66 103 130 155 187 258 324
#     4  10  21  34  51  70 100 135 177 217 257 304
#
# _framework density 24.582118999999999
#
# number of rings (size 3 to 8) (size 9 to 14) (size 15 to 20)
#    0.000    2.000    3.333    3.000    9.333    0.000 
#    0.000    0.000    0.000    0.000    0.000    0.000 
#    0.000   26.667    0.000    0.000    0.000    0.000 
#
# Total GULP energy -133780.142665 kJ/mol
# GULP energy per Si atom -5574.172611 kJ/mol
# Density = 2.452617 g / cm^3
# Si number density = 24.582119 Si / 1000 Ang^3
#
#
#
# Elastic Constant Matrix: (Units=GPa)
#
#
# Indices 1 2 3 4 5 6 
#
# 1 307.6542 28.3601 81.8392 0.0000 -1.9935 0.0000
# 2 28.3601 104.2062 5.2529 0.0000 -0.3638 0.0000
# 3 81.8392 5.2529 125.5157 0.0000 -0.8740 0.0000
# 4 0.0000 0.0000 0.0000 2.4506 0.0000 0.3629
# 5 -1.9935 -0.3638 -0.8740 0.0000 49.6135 0.0000
# 6 0.0000 0.0000 0.0000 0.3629 0.0000 -20.5948
#
#
#
# Elastic Compliance Matrix: (Units=1/GPa)
#
#
# Indices 1 2 3 4 5 6 
#
# 1 0.004028 -0.000965 -0.002585 0.000000 0.000109 0.000000
# 2 -0.000965 0.009848 0.000218 0.000000 0.000037 0.000000
# 3 -0.002585 0.000218 0.009644 0.000000 0.000068 0.000000
# 4 0.000000 0.000000 0.000000 0.407009 0.000000 0.007173
# 5 0.000109 0.000037 0.000068 0.000000 0.020162 0.000000
# 6 0.000000 0.000000 0.000000 0.007173 0.000000 -0.048429
#
#
# Mechanical properties :
#
#
# Convention : Reuss Voigt Hill
#
# Bulk Modulus (GPa) = 59.33222 85.36452 72.34837
# Shear Modulus (GPa) = 12.06142 34.42211 23.24176
#
# Velocity S-wave (km/s) = 2.21748 3.74611 3.07819
# Velocity P-wave (km/s) = 5.54482 7.31524 6.49068
#
# Compressibility (1/GPa) = 0.01685425
#
# Stress axis : x y z
#
# Youngs Moduli (GPa) = 248.27737 101.54062 103.69151
#
# Poissons Ratio (x) = 0.09804 0.26805
# Poissons Ratio (y) = 0.23971 -0.02257
# Poissons Ratio (z) = 0.64180 -0.02210
#
# Static dielectric constant tensor:
#      x y z
#    x 1.990810 0.000000 0.000670 
#    y 0.000000 1.937680 0.000000 
#    z 0.000670 0.000000 2.033290 
# 
# From -- ./inp_files/261502.got.cif
#   From: 2010.05.17/outbox.cif.g08.bks.cpg/sg15_131_cif.got.tgz:261502.got - 2010.06.03 18:47:42.
