data_PCOD9254194
_publ_section_title
;
Structure prediction by ZEFSAII (Michael W. Deem and Ramdas Pophale) SiO2 
 PCOD9254194
Probable space group: C 2/C
;
_chemical_formula_sum "Si O2"
_cell_formula_units_Z 48
_cell_length_a 9.709417
_cell_length_b 16.861720
_cell_length_c 11.413943
_cell_angle_alpha 90.000000
_cell_angle_beta 73.373554
_cell_angle_gamma 90.000000
_cell_volume 1790.534262
_symmetry_space_group_name_H-M "C 2/C"
_symmetry_group_IT_number 15
_symmetry_cell_setting 'monoclinic'
loop_
_space_group_symop_operation_xyz
x,y,z
-x,y,1/2-z
-x,-y,-z
x,-y,1/2+z
1/2+x,1/2+y,z
1/2-x,1/2+y,1/2-z
1/2-x,1/2-y,-z
1/2+x,1/2-y,1/2+z
loop_
_atom_site_type_symbol
_atom_site_label
_atom_site_fract_x
_atom_site_fract_y
_atom_site_fract_z
Si Si1 0.076695 0.679717 0.115345
Si Si2 0.356810 0.602128 0.346357
Si Si3 0.685103 0.791694 0.365300
Si Si4 0.277447 0.634520 0.623996
Si Si5 0.902830 0.077630 0.915221
Si Si6 0.790072 0.542124 0.331937
O O1 0.235127 0.713708 0.108837
O O2 0.087158 0.585187 0.123687
O O3 0.000000 0.711825 0.250000
O O4 0.048626 0.702771 0.987159
O O5 0.500000 0.637727 0.250000
O O6 0.299485 0.642232 0.478988
O O7 0.394465 0.509814 0.363986
O O8 0.229919 0.588646 0.284010
O O9 0.695590 0.800162 0.222757
O O10 0.785097 0.865920 0.383302
O O11 0.442254 0.618672 0.626797
O O12 0.195375 0.551733 0.671537
O O13 0.855879 0.059665 0.059712
#
# Coordination Sequence:
#
# PCOD9254194 Si02
#       6
#     8   8   8   8   8   8
#     4  10  22  39  56  76 108 139 178 222 261 316
#     4  11  16  27  46  81 119 138 162 214 273 322
#     4  10  20  35  58  82 101 134 182 226 272 303
#     4  11  18  28  53  82 111 138 172 225 267 311
#     4  10  16  27  52  82 115 131 167 228 274 304
#     4  10  19  30  49  80 111 145 173 209 272 321
#
# _framework density 26.807642999999999
#
# number of rings (size 3 to 8) (size 9 to 14) (size 15 to 20)
#    0.000    1.667    5.000    2.500    0.000    0.000 
#    0.000    1.667    0.000    0.000    0.000    0.000 
#    0.000    0.000    0.000    0.000    0.000    0.000 
#
# Total GULP energy -134009.774929 kJ/mol
# GULP energy per Si atom -5583.740622 kJ/mol
# Density = 2.674663 g / cm^3
# Si number density = 26.807643 Si / 1000 Ang^3
#
#
#
# Elastic Constant Matrix: (Units=GPa)
#
#
# Indices 1 2 3 4 5 6 
#
# 1 56.7046 1.6656 17.1674 0.0000 -8.2950 0.0000
# 2 1.6656 73.9290 20.9569 0.0000 -0.4714 0.0000
# 3 17.1674 20.9569 245.5500 0.0000 -7.3771 0.0000
# 4 0.0000 0.0000 0.0000 40.7027 0.0000 4.6435
# 5 -8.2950 -0.4714 -7.3771 0.0000 30.8282 0.0000
# 6 0.0000 0.0000 0.0000 4.6435 0.0000 15.6308
#
#
#
# Elastic Compliance Matrix: (Units=1/GPa)
#
#
# Indices 1 2 3 4 5 6 
#
# 1 0.018682 -0.000062 -0.001158 0.000000 0.004749 0.000000
# 2 -0.000062 0.013862 -0.001181 0.000000 -0.000088 0.000000
# 3 -0.001158 -0.001181 0.004275 0.000000 0.000693 0.000000
# 4 0.000000 0.000000 0.000000 0.025430 0.000000 -0.007555
# 5 0.004749 -0.000088 0.000693 0.000000 0.033880 0.000000
# 6 0.000000 0.000000 0.000000 -0.007555 0.000000 0.066221
#
#
# Mechanical properties :
#
#
# Convention : Reuss Voigt Hill
#
# Bulk Modulus (GPa) = 31.23434 50.64037 40.93735
# Shear Modulus (GPa) = 28.11727 39.85858 33.98792
#
# Velocity S-wave (km/s) = 3.24211 3.86013 3.56454
# Velocity P-wave (km/s) = 5.06869 6.22887 5.67849
#
# Compressibility (1/GPa) = 0.03201604
#
# Stress axis : x y z
#
# Youngs Moduli (GPa) = 53.52630 72.13845 233.91167
#
# Poissons Ratio (x) = 0.00450 0.27091
# Poissons Ratio (y) = 0.00334 0.27634
# Poissons Ratio (z) = 0.06199 0.08522
#
# Static dielectric constant tensor:
#      x y z
#    x 2.147370 0.000000 -0.023650 
#    y 0.000000 2.044010 0.000000 
#    z -0.023650 0.000000 2.291080 
# 
# From -- ./inp_files/88370.got.cif
#   From: 2010.05.17/outbox.cif.g08.bks.cpg/sg15_45_cif.got.tgz:88370.got - 2010.06.03 18:47:42.
