data_PCOD9254797
_publ_section_title
;
Structure prediction by ZEFSAII (Michael W. Deem and Ramdas Pophale) SiO2 
 PCOD9254797
Probable space group: C 2/C
;
_chemical_formula_sum "Si O2"
_cell_formula_units_Z 60
_cell_length_a 11.437899
_cell_length_b 14.094729
_cell_length_c 24.142486
_cell_angle_alpha 90.000000
_cell_angle_beta 45.737697
_cell_angle_gamma 90.000000
_cell_volume 2787.341882
_symmetry_space_group_name_H-M "C 2/C"
_symmetry_group_IT_number 15
_symmetry_cell_setting 'monoclinic'
loop_
_space_group_symop_operation_xyz
x,y,z
-x,y,1/2-z
-x,-y,-z
x,-y,1/2+z
1/2+x,1/2+y,z
1/2-x,1/2+y,1/2-z
1/2-x,1/2-y,-z
1/2+x,1/2-y,1/2+z
loop_
_atom_site_type_symbol
_atom_site_label
_atom_site_fract_x
_atom_site_fract_y
_atom_site_fract_z
Si Si1 0.299978 0.584913 0.721157
Si Si2 0.196594 0.616745 0.282321
Si Si3 0.345656 0.974138 0.902156
Si Si4 0.366518 0.813768 0.423211
Si Si5 0.757193 0.270218 0.173182
Si Si6 0.827272 0.786151 0.530848
Si Si7 0.000000 0.444049 0.250000
Si Si8 0.824468 0.772537 0.121790
O O1 0.309886 0.473578 0.730740
O O2 0.323962 0.639658 0.770504
O O3 0.113219 0.600709 0.759928
O O4 0.384738 0.642397 0.643303
O O5 0.191269 0.680667 0.229229
O O6 0.237996 0.688127 0.318360
O O7 0.018070 0.576975 0.357688
O O8 0.201051 0.899509 0.957334
O O9 0.335658 0.072519 0.939166
O O10 0.368175 0.998312 0.829660
O O11 0.250000 0.750000 0.500000
O O12 0.549762 0.783009 0.377802
O O13 0.314810 0.796504 0.376244
O O14 0.738919 0.256279 0.114123
O O15 0.750000 0.750000 0.500000
O O16 0.014309 0.753251 0.467389
#
# Coordination Sequence:
#
# PCOD9254797 Si02
#       8
#     8   8   8   8   8   8   4   8
#     4  10  19  39  63  95 126 169 213 271 319 387
#     4  10  22  41  68  98 126 175 222 266 330 390
#     4  11  22  41  67  94 130 181 219 262 332 392
#     4  12  24  43  67 103 132 174 217 277 330 399
#     4  11  23  40  70  97 132 168 228 271 325 392
#     4  12  25  43  63  98 136 175 217 273 330 396
#     4  10  16  34  68  92 116 166 224 252 320 384
#     4  11  23  41  69  98 136 166 223 277 327 386
#
# _framework density 21.525884000000001
#
# number of rings (size 3 to 8) (size 9 to 14) (size 15 to 20)
#    0.000    1.067    6.667    1.600    0.000    3.200 
#    2.400    2.000    2.933    0.000    0.000    0.000 
#    0.000    0.000    0.000    0.000    0.000    0.000 
#
# Total GULP energy -167309.570374 kJ/mol
# GULP energy per Si atom -5576.985679 kJ/mol
# Density = 2.147689 g / cm^3
# Si number density = 21.525884 Si / 1000 Ang^3
#
#
#
# Elastic Constant Matrix: (Units=GPa)
#
#
# Indices 1 2 3 4 5 6 
#
# 1 75.2905 19.1406 16.8293 0.0000 19.9959 0.0000
# 2 19.1406 125.4106 38.2352 0.0000 28.7246 0.0000
# 3 16.8293 38.2352 88.1864 0.0001 28.4175 0.0000
# 4 0.0000 0.0000 0.0001 40.0180 0.0000 0.1564
# 5 19.9959 28.7246 28.4175 0.0000 33.0288 0.0000
# 6 0.0000 0.0000 0.0000 0.1564 0.0000 26.3322
#
#
#
# Elastic Compliance Matrix: (Units=1/GPa)
#
#
# Indices 1 2 3 4 5 6 
#
# 1 0.015836 -0.000297 0.000156 0.000000 -0.009463 0.000000
# 2 -0.000297 0.010256 -0.002177 0.000000 -0.006866 0.000000
# 3 0.000156 -0.002177 0.016152 0.000000 -0.012098 0.000000
# 4 0.000000 0.000000 0.000000 0.024989 0.000000 -0.000148
# 5 -0.009463 -0.006866 -0.012098 0.000000 0.052386 0.000000
# 6 0.000000 0.000000 0.000000 -0.000148 0.000000 0.037977
#
#
# Mechanical properties :
#
#
# Convention : Reuss Voigt Hill
#
# Bulk Modulus (GPa) = 26.59058 48.58864 37.58961
# Shear Modulus (GPa) = 28.60928 34.18798 31.39863
#
# Velocity S-wave (km/s) = 3.64959 3.98958 3.82336
# Velocity P-wave (km/s) = 5.48990 6.62144 6.08204
#
# Compressibility (1/GPa) = 0.03760730
#
# Stress axis : x y z
#
# Youngs Moduli (GPa) = 63.14827 97.50801 61.91021
#
# Poissons Ratio (x) = 0.02896 -0.00967
# Poissons Ratio (y) = 0.01876 0.13480
# Poissons Ratio (z) = -0.00986 0.21231
#
# Static dielectric constant tensor:
#      x y z
#    x 1.798200 0.000000 -0.033900 
#    y 0.000000 1.857600 0.000000 
#    z -0.033900 0.000000 1.868930 
# 
# From -- ./inp_files/269951.got.cif
#   From: 2010.05.17/outbox.cif.g08.bks.cpg/sg15_135_cif.got.tgz:269951.got - 2010.06.03 18:47:42.
