data_PCOD9254951
_publ_section_title
;
Structure prediction by ZEFSAII (Michael W. Deem and Ramdas Pophale) SiO2 
 PCOD9254951
Probable space group: C 2/C
;
_chemical_formula_sum "Si O2"
_cell_formula_units_Z 48
_cell_length_a 22.962736
_cell_length_b 9.454673
_cell_length_c 23.076946
_cell_angle_alpha 90.000000
_cell_angle_beta 159.440481
_cell_angle_gamma 90.000000
_cell_volume 1759.456416
_symmetry_space_group_name_H-M "C 2/C"
_symmetry_group_IT_number 15
_symmetry_cell_setting 'monoclinic'
loop_
_space_group_symop_operation_xyz
x,y,z
-x,y,1/2-z
-x,-y,-z
x,-y,1/2+z
1/2+x,1/2+y,z
1/2-x,1/2+y,1/2-z
1/2-x,1/2-y,-z
1/2+x,1/2-y,1/2+z
loop_
_atom_site_type_symbol
_atom_site_label
_atom_site_fract_x
_atom_site_fract_y
_atom_site_fract_z
Si Si1 0.989730 0.045619 0.555158
Si Si2 0.369511 0.468053 0.553407
Si Si3 0.833692 0.407424 0.901973
Si Si4 0.257511 0.579453 0.064429
Si Si5 0.927221 0.342457 0.865839
Si Si6 0.052521 0.300604 0.864329
O O1 0.174539 0.012910 0.750766
O O2 0.945817 0.210562 0.511449
O O3 0.863532 0.962498 0.478447
O O4 0.000000 0.000000 0.500000
O O5 0.549323 0.410238 0.740000
O O6 0.241928 0.400212 0.480150
O O7 0.388238 0.638047 0.581228
O O8 0.827349 0.339428 0.960693
O O9 0.828717 0.324830 0.835750
O O10 0.998487 0.501969 0.057712
O O11 0.190065 0.418024 0.008113
O O12 0.908042 0.324901 0.777920
O O13 0.000000 0.331844 0.750000
#
# Coordination Sequence:
#
# PCOD9254951 Si02
#       6
#     8   8   8   8   8   8
#     4  10  21  32  51  78 100 130 176 215 251 297
#     4   9  17  28  43  67  98 126 157 207 254 294
#     4   9  19  35  51  70 102 143 167 200 260 308
#     4   9  16  28  44  65  95 129 160 195 244 306
#     4   9  20  35  50  72 107 139 166 206 257 310
#     4  10  17  25  44  72  98 128 159 197 258 309
#
# _framework density 27.281151999999999
#
# number of rings (size 3 to 8) (size 9 to 14) (size 15 to 20)
#    0.000    2.667    1.667    0.500    2.333    1.333 
#    0.000    0.000    0.000    1.000    0.000    0.000 
#    0.000    0.000    0.000    0.000    0.000    0.000 
#
# Total GULP energy -133633.001472 kJ/mol
# GULP energy per Si atom -5568.041728 kJ/mol
# Density = 2.721906 g / cm^3
# Si number density = 27.281152 Si / 1000 Ang^3
#
#
#
# Elastic Constant Matrix: (Units=GPa)
#
#
# Indices 1 2 3 4 5 6 
#
# 1 348.5468 26.2615 30.4030 0.0012 -52.3196 0.0003
# 2 26.2615 86.5527 3.8434 0.0026 6.4852 0.0015
# 3 30.4030 3.8434 43.2278 0.0045 -24.2939 0.0031
# 4 0.0012 0.0026 0.0045 11.8877 0.0022 -4.0132
# 5 -52.3196 6.4852 -24.2939 0.0022 48.6249 0.0013
# 6 0.0003 0.0015 0.0031 -4.0132 0.0013 30.8583
#
#
#
# Elastic Compliance Matrix: (Units=1/GPa)
#
#
# Indices 1 2 3 4 5 6 
#
# 1 0.003581 -0.001374 -0.000178 -0.000001 0.003947 0.000000
# 2 -0.001374 0.012422 -0.002642 -0.000001 -0.004455 0.000000
# 3 -0.000178 -0.002642 0.032791 -0.000017 0.016544 -0.000006
# 4 -0.000001 -0.000001 -0.000017 0.087983 -0.000014 0.011443
# 5 0.003947 -0.004455 0.016544 -0.000014 0.033672 -0.000005
# 6 0.000000 0.000000 -0.000006 0.011443 -0.000005 0.033894
#
#
# Mechanical properties :
#
#
# Convention : Reuss Voigt Hill
#
# Bulk Modulus (GPa) = 24.74908 66.59366 45.67137
# Shear Modulus (GPa) = 22.10439 46.12881 34.11660
#
# Velocity S-wave (km/s) = 2.84957 4.11648 3.54016
# Velocity P-wave (km/s) = 4.46299 6.85981 5.78685
#
# Compressibility (1/GPa) = 0.04040554
#
# Stress axis : x y z
#
# Youngs Moduli (GPa) = 279.28238 80.50391 30.49631
#
# Poissons Ratio (x) = 0.11063 0.00542
# Poissons Ratio (y) = 0.38381 0.08056
# Poissons Ratio (z) = 0.04967 0.21267
#
# Static dielectric constant tensor:
#      x y z
#    x 2.308130 0.000000 -0.086130 
#    y 0.000000 2.145040 0.000000 
#    z -0.086130 0.000000 2.349130 
# 
# From -- ./inp_files/65238.got.cif
#   From: 2010.05.17/outbox.cif.g08.bks.cpg/sg15_33_cif.got.tgz:65238.got - 2010.06.03 18:47:42.
