data_PCOD9254908
_publ_section_title
;
Structure prediction by ZEFSAII (Michael W. Deem and Ramdas Pophale) SiO2 
 PCOD9254908
Probable space group: C 2/C
;
_chemical_formula_sum "Si O2"
_cell_formula_units_Z 60
_cell_length_a 15.386830
_cell_length_b 20.625737
_cell_length_c 10.599232
_cell_angle_alpha 90.000000
_cell_angle_beta 133.529825
_cell_angle_gamma 90.000000
_cell_volume 2438.824744
_symmetry_space_group_name_H-M "C 2/C"
_symmetry_group_IT_number 15
_symmetry_cell_setting 'monoclinic'
loop_
_space_group_symop_operation_xyz
x,y,z
-x,y,1/2-z
-x,-y,-z
x,-y,1/2+z
1/2+x,1/2+y,z
1/2-x,1/2+y,1/2-z
1/2-x,1/2-y,-z
1/2+x,1/2-y,1/2+z
loop_
_atom_site_type_symbol
_atom_site_label
_atom_site_fract_x
_atom_site_fract_y
_atom_site_fract_z
Si Si1 0.819879 0.285122 0.181396
Si Si2 0.187527 0.006378 0.131807
Si Si3 0.500000 0.263419 0.250000
Si Si4 0.352014 0.860365 0.551609
Si Si5 0.091891 0.413974 0.168939
Si Si6 0.885999 0.935270 0.193591
Si Si7 0.861895 0.607852 0.341600
Si Si8 0.426590 0.258442 0.446704
O O1 0.867969 0.356967 0.198050
O O2 0.700082 0.294154 0.148873
O O3 0.944863 0.248069 0.347116
O O4 0.750000 0.250000 0.000000
O O5 0.229302 0.077709 0.220773
O O6 0.314425 0.970990 0.236044
O O7 0.117856 0.968392 0.172713
O O8 0.132137 0.011868 0.937491
O O9 0.611457 0.213547 0.391427
O O10 0.469829 0.287674 0.358200
O O11 0.395893 0.880819 0.457419
O O12 0.216667 0.882553 0.414826
O O13 0.392814 0.896007 0.722139
O O14 0.951930 0.430391 0.025754
O O15 0.000000 0.900845 0.250000
O O16 0.879668 0.683650 0.390376
#
# Coordination Sequence:
#
# PCOD9254908 Si02
#       8
#     8   8   4   8   8   8   8   8
#     4  11  23  41  60  87 128 178 217 265 312 386
#     4  10  21  35  62  88 116 162 211 259 322 385
#     4  10  16  38  66  90 116 148 200 280 324 370
#     4   9  15  32  60  83 114 151 190 252 323 363
#     4  10  18  35  58  87 123 158 208 258 320 370
#     4  10  21  36  53  82 125 167 201 248 311 389
#     4   9  17  34  60  91 119 149 198 272 325 374
#     4  10  22  39  65  89 126 160 213 266 332 377
#
# _framework density 24.602012999999999
#
# number of rings (size 3 to 8) (size 9 to 14) (size 15 to 20)
#    0.000    2.133    4.000    1.200    0.000    1.600 
#    0.000   12.000    1.467    0.000    0.000    0.000 
#    0.000    0.000    0.000    0.000    0.000    0.000 
#
# Total GULP energy -167063.167438 kJ/mol
# GULP energy per Si atom -5568.772248 kJ/mol
# Density = 2.454602 g / cm^3
# Si number density = 24.602013 Si / 1000 Ang^3
#
#
#
# Elastic Constant Matrix: (Units=GPa)
#
#
# Indices 1 2 3 4 5 6 
#
# 1 108.9898 4.1826 20.3004 0.0000 -0.0534 0.0000
# 2 4.1826 37.1065 24.6503 0.0000 -3.5713 0.0000
# 3 20.3004 24.6503 106.2245 0.0000 -1.4095 0.0000
# 4 0.0000 0.0000 0.0000 -55.4572 0.0000 -108.0694
# 5 -0.0534 -3.5713 -1.4095 0.0000 28.9499 0.0000
# 6 0.0000 0.0000 0.0000 -108.0694 0.0000 -111.3620
#
#
#
# Elastic Compliance Matrix: (Units=1/GPa)
#
#
# Indices 1 2 3 4 5 6 
#
# 1 0.009515 0.000155 -0.001855 0.000000 -0.000054 0.000000
# 2 0.000155 0.032237 -0.007463 0.000000 0.003614 0.000000
# 3 -0.001855 -0.007463 0.011495 0.000000 -0.000364 0.000000
# 4 0.000000 0.000000 0.000000 0.020236 0.000000 -0.019638
# 5 -0.000054 0.003614 -0.000364 0.000000 0.034970 0.000000
# 6 0.000000 0.000000 0.000000 -0.019638 0.000000 0.010077
#
#
# Mechanical properties :
#
#
# Convention : Reuss Voigt Hill
#
# Bulk Modulus (GPa) = 28.63546 38.95415 33.79481
# Shear Modulus (GPa) = 33.67059 -14.02803 9.82128
#
# Velocity S-wave (km/s) = 3.70349 -2.39047 2.00018
# Velocity P-wave (km/s) = 5.47289 2.87210 4.37044
#
# Compressibility (1/GPa) = 0.03492173
#
# Stress axis : x y z
#
# Youngs Moduli (GPa) = 105.10044 31.01992 86.99108
#
# Poissons Ratio (x) = -0.00480 0.16136
# Poissons Ratio (y) = -0.01625 0.64918
# Poissons Ratio (z) = 0.19495 0.23149
#
# Static dielectric constant tensor:
#      x y z
#    x 2.758950 0.000000 0.297750 
#    y 0.000000 2.025330 0.000000 
#    z 0.297750 0.000000 2.235240 
# 
# From -- ./inp_files/108121.got.cif
#   From: 2010.05.17/outbox.cif.g08.bks.cpg/sg15_55_cif.got.tgz:108121.got - 2010.06.03 18:47:42.
