data_PCOD9254900
_publ_section_title
;
Structure prediction by ZEFSAII (Michael W. Deem and Ramdas Pophale) SiO2 
 PCOD9254900
Probable space group: C 2/C
;
_chemical_formula_sum "Si O2"
_cell_formula_units_Z 36
_cell_length_a 17.449142
_cell_length_b 5.874026
_cell_length_c 24.108465
_cell_angle_alpha 90.000000
_cell_angle_beta 148.159694
_cell_angle_gamma 90.000000
_cell_volume 1303.605078
_symmetry_space_group_name_H-M "C 2/C"
_symmetry_group_IT_number 15
_symmetry_cell_setting 'monoclinic'
loop_
_space_group_symop_operation_xyz
x,y,z
-x,y,1/2-z
-x,-y,-z
x,-y,1/2+z
1/2+x,1/2+y,z
1/2-x,1/2+y,1/2-z
1/2-x,1/2-y,-z
1/2+x,1/2-y,1/2+z
loop_
_atom_site_type_symbol
_atom_site_label
_atom_site_fract_x
_atom_site_fract_y
_atom_site_fract_z
Si Si1 0.671699 0.004833 0.609849
Si Si2 0.412854 0.268603 0.314136
Si Si3 0.091618 0.746673 0.689256
Si Si4 0.500000 0.881389 0.250000
Si Si5 0.669761 0.733425 0.891845
O O1 0.743524 0.203675 0.692622
O O2 0.746338 0.056631 0.596025
O O3 0.500000 0.000000 0.500000
O O4 0.547131 0.487686 0.633364
O O5 0.256147 0.210950 0.314132
O O6 0.438361 0.010735 0.348938
O O7 0.504742 0.289568 0.313188
O O8 0.006532 0.746979 0.696069
O O9 0.650983 0.024577 0.349527
O O10 0.750000 0.750000 0.000000
#
# Coordination Sequence:
#
# PCOD9254900 Si02
#       5
#     8   8   8   4   8
#     4  10  20  36  63  90 125 165 209 259 338 384
#     4   9  19  37  61  86 119 165 204 265 312 395
#     4   9  17  33  63  81 116 162 205 248 327 367
#     4  10  16  38  60  82 120 164 202 270 308 384
#     4  11  20  37  65  92 123 165 223 262 323 387
#
# _framework density 27.615725999999999
#
# number of rings (size 3 to 8) (size 9 to 14) (size 15 to 20)
#    1.333    0.889    4.444    1.333    0.000    0.889 
#    0.000   10.000    9.778    0.000    0.000    0.000 
#    0.000    0.000    0.000    0.000    0.000    0.000 
#
# Total GULP energy -100204.383529 kJ/mol
# GULP energy per Si atom -5566.910196 kJ/mol
# Density = 2.755287 g / cm^3
# Si number density = 27.615726 Si / 1000 Ang^3
#
#
#
# Elastic Constant Matrix: (Units=GPa)
#
#
# Indices 1 2 3 4 5 6 
#
# 1 104.6739 63.2270 32.5581 -0.0006 11.3008 0.0023
# 2 63.2270 236.2761 28.7992 -0.0016 -16.5825 0.0072
# 3 32.5581 28.7992 136.4700 0.0002 0.6197 0.0006
# 4 -0.0006 -0.0016 0.0002 9.4819 -0.0001 -7.9391
# 5 11.3008 -16.5825 0.6197 -0.0001 56.4193 -0.0002
# 6 0.0023 0.0072 0.0006 -7.9391 -0.0002 70.4718
#
#
#
# Elastic Compliance Matrix: (Units=1/GPa)
#
#
# Indices 1 2 3 4 5 6 
#
# 1 0.012674 -0.003357 -0.002299 0.000000 -0.003500 0.000000
# 2 -0.003357 0.005329 -0.000334 0.000000 0.002242 0.000000
# 3 -0.002299 -0.000334 0.007945 0.000000 0.000275 0.000000
# 4 0.000000 0.000000 0.000000 0.116448 0.000000 0.013119
# 5 -0.003500 0.002242 0.000275 0.000000 0.019081 0.000000
# 6 0.000000 0.000000 0.000000 0.013119 0.000000 0.015668
#
#
# Mechanical properties :
#
#
# Convention : Reuss Voigt Hill
#
# Bulk Modulus (GPa) = 71.59243 80.73207 76.16225
# Shear Modulus (GPa) = 25.80219 50.79698 38.29959
#
# Velocity S-wave (km/s) = 3.06000 4.29350 3.72812
# Velocity P-wave (km/s) = 6.20206 7.34006 6.79492
#
# Compressibility (1/GPa) = 0.01396796
#
# Stress axis : x y z
#
# Youngs Moduli (GPa) = 78.89958 187.66240 125.85903
#
# Poissons Ratio (x) = 0.62998 0.28941
# Poissons Ratio (y) = 0.26487 0.04201
# Poissons Ratio (z) = 0.18142 0.06264
#
# Static dielectric constant tensor:
#      x y z
#    x 2.490320 0.000000 0.070110 
#    y 0.000000 2.321080 0.000000 
#    z 0.070110 0.000000 2.171240 
# 
# From -- ./inp_files/243178.got.cif
#   From: 2010.05.17/outbox.cif.g08.bks.cpg/sg15_122_cif.got.tgz:243178.got - 2010.06.03 18:47:42.
