data_PCOD9254067
_publ_section_title
;
Structure prediction by ZEFSAII (Michael W. Deem and Ramdas Pophale) SiO2 
 PCOD9254067
Probable space group: C 2/C
;
_chemical_formula_sum "Si O2"
_cell_formula_units_Z 60
_cell_length_a 11.542759
_cell_length_b 30.687495
_cell_length_c 18.769212
_cell_angle_alpha 90.000000
_cell_angle_beta 29.001418
_cell_angle_gamma 90.000000
_cell_volume 3223.351934
_symmetry_space_group_name_H-M "C 2/C"
_symmetry_group_IT_number 15
_symmetry_cell_setting 'monoclinic'
loop_
_space_group_symop_operation_xyz
x,y,z
-x,y,1/2-z
-x,-y,-z
x,-y,1/2+z
1/2+x,1/2+y,z
1/2-x,1/2+y,1/2-z
1/2-x,1/2-y,-z
1/2+x,1/2-y,1/2+z
loop_
_atom_site_type_symbol
_atom_site_label
_atom_site_fract_x
_atom_site_fract_y
_atom_site_fract_z
Si Si1 0.998236 0.583422 0.176649
Si Si2 0.500000 0.691695 0.750000
Si Si3 0.266260 0.826500 0.967281
Si Si4 0.244696 0.455941 0.404863
Si Si5 0.692429 0.941913 0.947730
Si Si6 0.225904 0.203726 0.238567
Si Si7 0.941985 0.243252 0.032929
Si Si8 0.429030 0.393486 0.685983
O O1 0.153588 0.627145 0.105645
O O2 0.000000 0.557974 0.250000
O O3 0.727969 0.595137 0.298653
O O4 0.120954 0.561522 0.042645
O O5 0.595892 0.667751 0.627860
O O6 0.274274 0.721809 0.851109
O O7 0.518392 0.805664 0.858608
O O8 0.141448 0.794621 0.977573
O O9 0.500000 0.436710 0.250000
O O10 0.268160 0.507691 0.406336
O O11 0.086119 0.445463 0.420445
O O12 0.795394 0.918156 0.822257
O O13 0.805440 0.913807 0.951182
O O14 0.054682 0.225332 0.389003
O O15 0.107854 0.157794 0.281083
O O16 0.316736 0.234172 0.125512
#
# Coordination Sequence:
#
# PCOD9254067 Si02
#       8
#     8   4   8   8   8   8   8   8
#     4  10  21  33  51  85 125 157 189 237 289 353
#     4  10  16  24  40  66 100 150 198 248 288 316
#     4  10  17  27  44  67 112 156 190 237 293 332
#     4  10  19  35  64  94 109 135 189 242 295 337
#     4   9  18  36  63  83 112 145 188 241 280 355
#     4  10  18  26  48  73 103 148 203 235 279 339
#     4  11  16  29  41  71 107 153 196 247 286 324
#     4   9  17  34  56  81 110 161 201 224 285 361
#
# _framework density 18.614163000000001
#
# number of rings (size 3 to 8) (size 9 to 14) (size 15 to 20)
#    0.000    2.133    4.000    2.400    0.933    0.000 
#    0.000    0.667    0.000    3.200    0.000    0.000 
#    0.000    0.000    0.000    0.000    0.000    0.000 
#
# Total GULP energy -167007.722705 kJ/mol
# GULP energy per Si atom -5566.924090 kJ/mol
# Density = 1.857180 g / cm^3
# Si number density = 18.614163 Si / 1000 Ang^3
#
#
#
# Elastic Constant Matrix: (Units=GPa)
#
#
# Indices 1 2 3 4 5 6 
#
# 1 75.3987 34.6518 42.8841 -0.0001 -0.2031 0.0000
# 2 34.6518 92.5671 35.7663 0.0000 1.2626 0.0000
# 3 42.8841 35.7663 92.4573 0.0000 11.7911 -0.0001
# 4 -0.0001 0.0000 0.0000 13.4743 0.0001 -11.7263
# 5 -0.2031 1.2626 11.7911 0.0001 26.7777 0.0000
# 6 0.0000 0.0000 -0.0001 -11.7263 0.0000 29.0691
#
#
#
# Elastic Compliance Matrix: (Units=1/GPa)
#
#
# Indices 1 2 3 4 5 6 
#
# 1 0.019840 -0.004389 -0.007999 0.000000 0.003880 0.000000
# 2 -0.004389 0.013742 -0.003383 0.000000 0.000809 0.000000
# 3 -0.007999 -0.003383 0.016764 0.000000 -0.007283 0.000000
# 4 0.000000 0.000000 0.000000 0.114365 0.000000 0.046134
# 5 0.003880 0.000809 -0.007283 0.000000 0.040543 0.000000
# 6 0.000000 0.000000 0.000000 0.046134 0.000000 0.053011
#
#
# Mechanical properties :
#
#
# Convention : Reuss Voigt Hill
#
# Bulk Modulus (GPa) = 53.18447 54.11417 53.64932
# Shear Modulus (GPa) = 16.88756 23.67228 20.27992
#
# Velocity S-wave (km/s) = 3.01531 3.57001 3.30432
# Velocity P-wave (km/s) = 6.38411 6.79175 6.59108
#
# Compressibility (1/GPa) = 0.01880248
#
# Stress axis : x y z
#
# Youngs Moduli (GPa) = 50.40286 72.76812 59.65285
#
# Poissons Ratio (x) = 0.31939 0.47718
# Poissons Ratio (y) = 0.22123 0.20183
# Poissons Ratio (z) = 0.40318 0.24620
#
# Static dielectric constant tensor:
#      x y z
#    x 1.729650 0.000000 -0.013180 
#    y 0.000000 1.670340 0.000000 
#    z -0.013180 0.000000 1.673680 
# 
# From -- ./inp_files/201390.got.cif
#   From: 2010.05.17/outbox.cif.g08.bks.cpg/sg15_101_cif.got.tgz:201390.got - 2010.06.03 18:47:42.
