data_PCOD9254937
_publ_section_title
;
Structure prediction by ZEFSAII (Michael W. Deem and Ramdas Pophale) SiO2 
 PCOD9254937
Probable space group: C 2/C
;
_chemical_formula_sum "Si O2"
_cell_formula_units_Z 56
_cell_length_a 13.794454
_cell_length_b 32.094291
_cell_length_c 9.216542
_cell_angle_alpha 90.000000
_cell_angle_beta 130.211276
_cell_angle_gamma 90.000000
_cell_volume 3116.057486
_symmetry_space_group_name_H-M "C 2/C"
_symmetry_group_IT_number 15
_symmetry_cell_setting 'monoclinic'
loop_
_space_group_symop_operation_xyz
x,y,z
-x,y,1/2-z
-x,-y,-z
x,-y,1/2+z
1/2+x,1/2+y,z
1/2-x,1/2+y,1/2-z
1/2-x,1/2-y,-z
1/2+x,1/2-y,1/2+z
loop_
_atom_site_type_symbol
_atom_site_label
_atom_site_fract_x
_atom_site_fract_y
_atom_site_fract_z
Si Si1 0.089888 0.051849 0.137102
Si Si2 0.517652 0.784980 0.089585
Si Si3 0.844716 0.987593 0.512698
Si Si4 0.566219 0.035305 0.657490
Si Si5 0.852048 0.135119 0.154573
Si Si6 0.764467 0.225792 0.168264
Si Si7 0.897192 0.625851 0.781415
O O1 0.111054 0.032700 0.000103
O O2 0.145541 0.096598 0.230112
O O3 0.152678 0.019734 0.313359
O O4 0.942885 0.046304 0.040333
O O5 0.500000 0.783450 0.250000
O O6 0.622183 0.751022 0.146441
O O7 0.572881 0.830828 0.109473
O O8 0.375475 0.775972 0.896988
O O9 0.707805 0.979166 0.321912
O O10 0.500000 0.037382 0.750000
O O11 0.574779 0.082814 0.607976
O O12 0.500000 0.000000 0.500000
O O13 0.808191 0.178797 0.179342
O O14 0.000000 0.139055 0.250000
O O15 0.744530 0.125957 0.926962
O O16 0.750000 0.250000 0.000000
O O17 0.000000 0.626172 0.750000
#
# Coordination Sequence:
#
# PCOD9254937 Si02
#       7
#     8   8   8   8   8   8   8
#     4  10  20  33  52  67  93 129 163 206 236 285
#     4   9  16  27  36  58  84 121 150 186 227 286
#     4  10  19  35  47  69  93 123 169 198 245 280
#     4  11  22  32  49  70  95 131 161 200 243 292
#     4  12  18  28  45  66  88 123 162 193 236 290
#     4  10  17  25  39  59  87 120 151 186 233 286
#     4  10  18  30  42  60  91 121 156 189 237 283
#
# _framework density 17.971426000000001
#
# number of rings (size 3 to 8) (size 9 to 14) (size 15 to 20)
#    0.000    1.714    7.143    2.143    2.000    0.000 
#    0.000    0.000    0.000    0.000    0.000    0.000 
#    0.000    0.000    9.714    9.571    0.857    3.286 
#
# Total GULP energy -155886.882028 kJ/mol
# GULP energy per Si atom -5567.388644 kJ/mol
# Density = 1.793052 g / cm^3
# Si number density = 17.971426 Si / 1000 Ang^3
#
#
#
# Elastic Constant Matrix: (Units=GPa)
#
#
# Indices 1 2 3 4 5 6 
#
# 1 33.0114 28.5909 30.3559 0.0000 21.4425 0.0000
# 2 28.5909 158.6139 64.2014 0.0000 14.3014 0.0000
# 3 30.3559 64.2014 95.0894 0.0000 39.4563 0.0000
# 4 0.0000 0.0000 0.0000 32.2551 0.0000 7.4204
# 5 21.4425 14.3014 39.4563 0.0000 33.3725 0.0000
# 6 0.0000 0.0000 0.0000 7.4204 0.0000 13.4408
#
#
#
# Elastic Compliance Matrix: (Units=1/GPa)
#
#
# Indices 1 2 3 4 5 6 
#
# 1 0.059755 -0.008159 0.001792 0.000000 -0.037016 0.000000
# 2 -0.008159 0.010520 -0.009428 0.000000 0.011881 0.000000
# 3 0.001792 -0.009428 0.029664 0.000000 -0.032183 0.000000
# 4 0.000000 0.000000 0.000000 0.035513 0.000000 -0.019606
# 5 -0.037016 0.011881 -0.032183 0.000000 0.086707 0.000000
# 6 0.000000 0.000000 0.000000 -0.019606 0.000000 0.085225
#
#
# Mechanical properties :
#
#
# Convention : Reuss Voigt Hill
#
# Bulk Modulus (GPa) = 14.63074 59.22346 36.92710
# Shear Modulus (GPa) = 13.82147 26.71811 20.26979
#
# Velocity S-wave (km/s) = 2.77624 3.85996 3.36205
# Velocity P-wave (km/s) = 4.29365 7.27265 5.97189
#
# Compressibility (1/GPa) = 0.06834923
#
# Stress axis : x y z
#
# Youngs Moduli (GPa) = 16.73510 95.05459 33.71123
#
# Poissons Ratio (x) = 0.77555 -0.06043
# Poissons Ratio (y) = 0.13654 0.31784
# Poissons Ratio (z) = -0.03000 0.89619
#
# Static dielectric constant tensor:
#      x y z
#    x 1.633310 0.000000 0.013220 
#    y 0.000000 1.660540 0.000000 
#    z 0.013220 0.000000 1.661790 
# 
# From -- ./inp_files/101128.got.cif
#   From: 2010.05.17/outbox.cif.g08.bks.cpg/sg15_51_cif.got.tgz:101128.got - 2010.06.03 18:47:42.
