data_PCOD9254190
_publ_section_title
;
Structure prediction by ZEFSAII (Michael W. Deem and Ramdas Pophale) SiO2 
 PCOD9254190
Probable space group: C 2/C
;
_chemical_formula_sum "Si O2"
_cell_formula_units_Z 64
_cell_length_a 23.863127
_cell_length_b 11.150324
_cell_length_c 22.756937
_cell_angle_alpha 90.000000
_cell_angle_beta 143.740744
_cell_angle_gamma 90.000000
_cell_volume 3581.288278
_symmetry_space_group_name_H-M "C 2/C"
_symmetry_group_IT_number 15
_symmetry_cell_setting 'monoclinic'
loop_
_space_group_symop_operation_xyz
x,y,z
-x,y,1/2-z
-x,-y,-z
x,-y,1/2+z
1/2+x,1/2+y,z
1/2-x,1/2+y,1/2-z
1/2-x,1/2-y,-z
1/2+x,1/2-y,1/2+z
loop_
_atom_site_type_symbol
_atom_site_label
_atom_site_fract_x
_atom_site_fract_y
_atom_site_fract_z
Si Si1 0.983191 0.573097 0.804752
Si Si2 0.751410 0.649653 0.840620
Si Si3 0.953015 0.367091 0.962287
Si Si4 0.706784 0.467117 0.176961
Si Si5 0.608260 0.688977 0.112622
Si Si6 0.176399 0.580384 0.042891
Si Si7 0.623534 0.138515 0.225410
Si Si8 0.804714 0.264969 0.192649
O O1 0.939632 0.444373 0.786689
O O2 0.899827 0.665907 0.752710
O O3 0.000000 0.580534 0.750000
O O4 0.083879 0.588884 0.923537
O O5 0.716760 0.585347 0.751012
O O6 0.839935 0.727758 0.892144
O O7 0.781991 0.553084 0.914745
O O8 0.672899 0.745356 0.794326
O O9 0.861474 0.388706 0.923830
O O10 0.935998 0.325384 0.881928
O O11 0.000000 0.500000 0.000000
O O12 0.012522 0.261356 0.042323
O O13 0.615121 0.552335 0.097058
O O14 0.794061 0.555655 0.234067
O O15 0.724727 0.360481 0.146095
O O16 0.665330 0.696539 0.222175
O O17 0.260259 0.676755 0.106541
#
# Coordination Sequence:
#
# PCOD9254190 Si02
#       8
#     8   8   8   8   8   8   8   8
#     4  11  24  41  59  78 104 146 199 244 275 324
#     4  10  17  29  51  81 111 145 173 218 278 335
#     4  12  16  29  54  84 115 150 181 216 275 343
#     4   9  16  29  48  80 117 144 165 215 276 325
#     4  10  16  27  50  81 119 144 178 217 265 335
#     4  12  20  35  60  82 113 153 186 220 290 348
#     4  10  19  33  53  80 113 139 184 228 265 331
#     4  10  20  35  54  81 115 147 187 232 274 336
#
# _framework density 17.870664000000001
#
# number of rings (size 3 to 8) (size 9 to 14) (size 15 to 20)
#    0.000    1.500    6.250    2.250    0.000    0.500 
#    0.000    4.375    0.000    0.750    0.000    0.000 
#    0.000    0.000    0.000    0.000    0.000    0.000 
#
# Total GULP energy -178284.567019 kJ/mol
# GULP energy per Si atom -5571.392719 kJ/mol
# Density = 1.782999 g / cm^3
# Si number density = 17.870664 Si / 1000 Ang^3
#
#
#
# Elastic Constant Matrix: (Units=GPa)
#
#
# Indices 1 2 3 4 5 6 
#
# 1 49.1479 22.7229 32.5407 0.0000 -8.7014 0.0000
# 2 22.7229 87.4537 52.9044 0.0000 4.4719 0.0000
# 3 32.5407 52.9044 91.5602 0.0000 7.0874 0.0000
# 4 0.0000 0.0000 0.0000 32.1886 0.0000 12.3027
# 5 -8.7014 4.4719 7.0874 0.0000 16.6267 0.0000
# 6 0.0000 0.0000 0.0000 12.3027 0.0000 13.0687
#
#
#
# Elastic Compliance Matrix: (Units=1/GPa)
#
#
# Indices 1 2 3 4 5 6 
#
# 1 0.033962 -0.002498 -0.012466 0.000000 0.023759 0.000000
# 2 -0.002498 0.017766 -0.009210 0.000000 -0.002159 0.000000
# 3 -0.012466 -0.009210 0.021703 0.000000 -0.013298 0.000000
# 4 0.000000 0.000000 0.000000 0.048527 0.000000 -0.045683
# 5 0.023759 -0.002159 -0.013298 0.000000 0.078828 0.000000
# 6 0.000000 0.000000 0.000000 -0.045683 0.000000 0.119524
#
#
# Mechanical properties :
#
#
# Convention : Reuss Voigt Hill
#
# Bulk Modulus (GPa) = 39.86832 49.38863 44.62847
# Shear Modulus (GPa) = 13.26192 20.37638 16.81915
#
# Velocity S-wave (km/s) = 2.72712 3.38037 3.07116
# Velocity P-wave (km/s) = 5.68102 6.55229 6.13215
#
# Compressibility (1/GPa) = 0.02508257
#
# Stress axis : x y z
#
# Youngs Moduli (GPa) = 29.44495 56.28802 46.07591
#
# Poissons Ratio (x) = 0.14061 0.57437
# Poissons Ratio (y) = 0.07355 0.42437
# Poissons Ratio (z) = 0.36706 0.51843
#
# Static dielectric constant tensor:
#      x y z
#    x 1.579910 0.000000 0.050810 
#    y 0.000000 1.711310 0.000000 
#    z 0.050810 0.000000 1.664930 
# 
# From -- ./inp_files/283508.got.cif
#   From: 2010.05.17/outbox.cif.g08.bks.cpg/sg15_142_cif.got.tgz:283508.got - 2010.06.03 18:47:42.
