data_PCOD9254707
_publ_section_title
;
Structure prediction by ZEFSAII (Michael W. Deem and Ramdas Pophale) SiO2 
 PCOD9254707
Probable space group: C 2/C
;
_chemical_formula_sum "Si O2"
_cell_formula_units_Z 56
_cell_length_a 10.965654
_cell_length_b 13.798390
_cell_length_c 26.700211
_cell_angle_alpha 90.000000
_cell_angle_beta 141.148926
_cell_angle_gamma 90.000000
_cell_volume 2534.263324
_symmetry_space_group_name_H-M "C 2/C"
_symmetry_group_IT_number 15
_symmetry_cell_setting 'monoclinic'
loop_
_space_group_symop_operation_xyz
x,y,z
-x,y,1/2-z
-x,-y,-z
x,-y,1/2+z
1/2+x,1/2+y,z
1/2-x,1/2+y,1/2-z
1/2-x,1/2-y,-z
1/2+x,1/2-y,1/2+z
loop_
_atom_site_type_symbol
_atom_site_label
_atom_site_fract_x
_atom_site_fract_y
_atom_site_fract_z
Si Si1 0.205410 0.678131 0.185925
Si Si2 0.235360 0.388011 0.137070
Si Si3 0.895572 0.129948 0.502487
Si Si4 0.083817 0.635602 0.486095
Si Si5 0.774583 0.397314 0.177156
Si Si6 0.131900 0.988643 0.229636
Si Si7 0.624908 0.827937 0.835544
O O1 0.272495 0.784866 0.194325
O O2 0.358520 0.602655 0.256901
O O3 0.114113 0.626227 0.107889
O O4 0.029641 0.690885 0.169335
O O5 0.428185 0.440937 0.178318
O O6 0.210294 0.433268 0.183966
O O7 0.285310 0.273466 0.155629
O O8 0.084580 0.400359 0.043443
O O9 0.888564 0.247710 0.501720
O O10 0.759650 0.098492 0.506325
O O11 0.789937 0.108748 0.415858
O O12 0.119933 0.101767 0.581914
O O13 0.678830 0.464258 0.188369
O O14 0.000000 0.422863 0.250000
O O15 0.500000 0.869170 0.750000
#
# Coordination Sequence:
#
# PCOD9254707 Si02
#       7
#     8   8   8   8   8   8   8
#     4  10  21  34  55  85 108 142 188 226 275 335
#     4  10  17  32  59  80 108 137 182 238 268 316
#     4   8  15  29  54  84 103 139 191 223 268 325
#     4   8  14  30  55  79 105 134 185 237 264 310
#     4  11  21  37  56  79 121 152 174 221 282 340
#     4  11  21  33  54  85 109 141 186 223 276 323
#     4  10  16  33  63  83 104 138 192 241 267 306
#
# _framework density 22.097152000000001
#
# number of rings (size 3 to 8) (size 9 to 14) (size 15 to 20)
#    0.000    2.286    4.286    1.714    2.000    1.143 
#    0.000    0.000    3.143   11.143    0.000    0.000 
#    0.000    0.000    0.000    0.000    0.000    0.000 
#
# Total GULP energy -156187.707222 kJ/mol
# GULP energy per Si atom -5578.132401 kJ/mol
# Density = 2.204686 g / cm^3
# Si number density = 22.097152 Si / 1000 Ang^3
#
#
#
# Elastic Constant Matrix: (Units=GPa)
#
#
# Indices 1 2 3 4 5 6 
#
# 1 14.6575 -7.9761 20.6011 0.0000 6.9028 0.0000
# 2 -7.9761 96.2008 19.0700 0.0000 3.3543 0.0000
# 3 20.6011 19.0700 157.3379 0.0000 -12.2451 0.0000
# 4 0.0000 0.0000 0.0000 -85.3746 0.0000 34.6835
# 5 6.9028 3.3543 -12.2451 0.0000 32.3138 0.0000
# 6 0.0000 0.0000 0.0000 34.6835 0.0000 -2.8201
#
#
#
# Elastic Compliance Matrix: (Units=1/GPa)
#
#
# Indices 1 2 3 4 5 6 
#
# 1 0.122523 0.015503 -0.020694 0.000000 -0.035624 0.000000
# 2 0.015503 0.012698 -0.004049 0.000000 -0.006164 0.000000
# 3 -0.020694 -0.004049 0.010235 0.000000 0.008719 0.000000
# 4 0.000000 0.000000 0.000000 0.002931 0.000000 0.036047
# 5 -0.035624 -0.006164 0.008719 0.000000 0.042500 0.000000
# 6 0.000000 0.000000 0.000000 0.036047 0.000000 0.088730
#
#
# Mechanical properties :
#
#
# Convention : Reuss Voigt Hill
#
# Bulk Modulus (GPa) = 7.87554 36.84290 22.35922
# Shear Modulus (GPa) = 14.68768 4.59058 9.63913
#
# Velocity S-wave (km/s) = 2.58095 1.44290 2.09084
# Velocity P-wave (km/s) = 3.52895 4.41421 3.99617
#
# Compressibility (1/GPa) = 0.12697535
#
# Stress axis : x y z
#
# Youngs Moduli (GPa) = 8.16175 78.75413 97.70762
#
# Poissons Ratio (x) = -1.22091 2.02196
# Poissons Ratio (y) = -0.12653 0.39558
# Poissons Ratio (z) = 0.16890 0.31884
#
# Static dielectric constant tensor:
#      x y z
#    x 1.809050 0.000000 -0.014720 
#    y 0.000000 1.817940 0.000000 
#    z -0.014720 0.000000 1.936180 
# 
# From -- ./inp_files/292891.got.cif
#   From: 2010.05.17/outbox.cif.g08.bks.cpg/sg15_147_cif.got.tgz:292891.got - 2010.06.03 18:47:42.
