data_PCOD9254834
_publ_section_title
;
Structure prediction by ZEFSAII (Michael W. Deem and Ramdas Pophale) SiO2 
 PCOD9254834
Probable space group: C 2/C
;
_chemical_formula_sum "Si O2"
_cell_formula_units_Z 52
_cell_length_a 11.257431
_cell_length_b 18.239635
_cell_length_c 24.177486
_cell_angle_alpha 90.000000
_cell_angle_beta 149.288186
_cell_angle_gamma 90.000000
_cell_volume 2535.418268
_symmetry_space_group_name_H-M "C 2/C"
_symmetry_group_IT_number 15
_symmetry_cell_setting 'monoclinic'
loop_
_space_group_symop_operation_xyz
x,y,z
-x,y,1/2-z
-x,-y,-z
x,-y,1/2+z
1/2+x,1/2+y,z
1/2-x,1/2+y,1/2-z
1/2-x,1/2-y,-z
1/2+x,1/2-y,1/2+z
loop_
_atom_site_type_symbol
_atom_site_label
_atom_site_fract_x
_atom_site_fract_y
_atom_site_fract_z
Si Si1 0.816482 0.733871 0.720483
Si Si2 0.971208 0.785052 0.900034
Si Si3 0.500000 0.249768 0.250000
Si Si4 0.135616 0.635382 0.995182
Si Si5 0.418935 0.648369 0.608692
Si Si6 0.878935 0.610892 0.387053
Si Si7 0.197280 0.039698 0.781415
O O1 0.928214 0.738646 0.826177
O O2 0.569203 0.693003 0.624258
O O3 0.763738 0.817991 0.686235
O O4 0.000000 0.703613 0.750000
O O5 0.717443 0.800338 0.821241
O O6 0.139114 0.852565 0.953353
O O7 0.073675 0.721598 0.980936
O O8 0.560700 0.302560 0.326557
O O9 0.176980 0.596923 0.070496
O O10 0.913461 0.593520 0.881712
O O11 0.561746 0.573700 0.675715
O O12 0.151912 0.629879 0.490793
O O13 0.800880 0.541224 0.320813
O O14 0.000000 0.040985 0.750000
#
# Coordination Sequence:
#
# PCOD9254834 Si02
#       7
#     8   8   4   8   8   8   8
#     4  11  22  38  58  91 121 155 202 252 296 356
#     4  10  20  34  60  86 124 158 199 251 293 356
#     4  10  16  36  58  84 122 154 202 240 300 350
#     4  11  20  35  56  90 122 158 196 240 310 361
#     4  11  21  40  57  86 126 159 193 250 310 350
#     4  12  23  35  59  94 123 152 205 248 306 363
#     4  12  22  36  59  88 124 158 186 255 315 360
#
# _framework density 20.509436999999998
#
# number of rings (size 3 to 8) (size 9 to 14) (size 15 to 20)
#    0.000    0.923    8.462    1.385    0.000    0.000 
#    0.000    0.000    0.000    0.923   10.000    0.000 
#    0.000    0.000    0.000    0.000    0.000    0.000 
#
# Total GULP energy -145144.322656 kJ/mol
# GULP energy per Si atom -5582.473948 kJ/mol
# Density = 2.046276 g / cm^3
# Si number density = 20.509437 Si / 1000 Ang^3
#
#
#
# Elastic Constant Matrix: (Units=GPa)
#
#
# Indices 1 2 3 4 5 6 
#
# 1 94.2518 29.8707 31.9626 -0.0004 46.2010 -0.0001
# 2 29.8707 69.6389 41.2540 -0.0005 23.3046 -0.0002
# 3 31.9626 41.2540 69.5824 -0.0042 40.9630 -0.0007
# 4 -0.0004 -0.0005 -0.0042 15.9979 -0.0003 4.8786
# 5 46.2010 23.3046 40.9630 -0.0003 48.6112 -0.0001
# 6 -0.0001 -0.0002 -0.0007 4.8786 -0.0001 16.3248
#
#
#
# Elastic Compliance Matrix: (Units=1/GPa)
#
#
# Indices 1 2 3 4 5 6 
#
# 1 0.021855 -0.005818 0.007931 0.000002 -0.024665 0.000000
# 2 -0.005818 0.023702 -0.015768 -0.000003 0.007454 0.000001
# 3 0.007931 -0.015768 0.039816 0.000010 -0.033530 -0.000001
# 4 0.000002 -0.000003 0.000010 0.068776 -0.000008 -0.020553
# 5 -0.024665 0.007454 -0.033530 -0.000008 0.068694 0.000001
# 6 0.000000 0.000001 -0.000001 -0.020553 0.000001 0.067399
#
#
# Mechanical properties :
#
#
# Convention : Reuss Voigt Hill
#
# Bulk Modulus (GPa) = 17.22321 48.84976 33.03648
# Shear Modulus (GPa) = 14.84093 24.87918 19.86005
#
# Velocity S-wave (km/s) = 2.69293 3.48668 3.11519
# Velocity P-wave (km/s) = 4.25265 6.33081 5.39278
#
# Compressibility (1/GPa) = 0.05806119
#
# Stress axis : x y z
#
# Youngs Moduli (GPa) = 45.75661 42.19070 25.11564
#
# Poissons Ratio (x) = 0.24549 -0.19919
# Poissons Ratio (y) = 0.26623 0.39602
# Poissons Ratio (z) = -0.36289 0.66526
#
# Static dielectric constant tensor:
#      x y z
#    x 1.780990 0.000000 -0.006010 
#    y 0.000000 1.717740 0.000000 
#    z -0.006010 0.000000 1.821260 
# 
# From -- ./inp_files/293474.got.cif
#   From: 2010.05.17/outbox.cif.g08.bks.cpg/sg15_147_cif.got.tgz:293474.got - 2010.06.03 18:47:42.
