data_PCOD9254909
_publ_section_title
;
Structure prediction by ZEFSAII (Michael W. Deem and Ramdas Pophale) SiO2 
 PCOD9254909
Probable space group: C 2/C
;
_chemical_formula_sum "Si O2"
_cell_formula_units_Z 36
_cell_length_a 25.918914
_cell_length_b 6.438351
_cell_length_c 12.025199
_cell_angle_alpha 90.000000
_cell_angle_beta 47.518061
_cell_angle_gamma 90.000000
_cell_volume 1479.926042
_symmetry_space_group_name_H-M "C 2/C"
_symmetry_group_IT_number 15
_symmetry_cell_setting 'monoclinic'
loop_
_space_group_symop_operation_xyz
x,y,z
-x,y,1/2-z
-x,-y,-z
x,-y,1/2+z
1/2+x,1/2+y,z
1/2-x,1/2+y,1/2-z
1/2-x,1/2-y,-z
1/2+x,1/2-y,1/2+z
loop_
_atom_site_type_symbol
_atom_site_label
_atom_site_fract_x
_atom_site_fract_y
_atom_site_fract_z
Si Si1 0.800498 0.699739 0.279991
Si Si2 0.948939 0.688927 0.100085
Si Si3 0.196325 0.937000 0.564843
Si Si4 0.605101 0.790280 0.045928
Si Si5 0.000000 0.659848 0.250000
O O1 0.870200 0.601080 0.235344
O O2 0.730569 0.595902 0.425405
O O3 0.819354 0.673377 0.123818
O O4 0.693198 0.433163 0.182943
O O5 0.937386 0.803552 0.998615
O O6 0.979068 0.781349 0.169406
O O7 0.000000 0.500000 0.000000
O O8 0.250000 0.750000 0.500000
O O9 0.123363 0.852065 0.623253
O O10 0.564721 0.001114 0.133211
#
# Coordination Sequence:
#
# PCOD9254909 Si02
#       5
#     8   8   8   8   4
#     4   9  22  40  60  95 123 162 223 254 326 385
#     4   8  17  35  63  93 120 164 211 257 320 383
#     4  11  22  39  64  89 129 170 209 272 318 384
#     4   9  21  36  62  90 125 162 215 257 318 385
#     4  10  16  38  68  92 128 168 210 266 330 378
#
# _framework density 24.325538000000002
#
# number of rings (size 3 to 8) (size 9 to 14) (size 15 to 20)
#    1.333    1.333    0.000    1.333    3.111    0.000 
#    0.000    2.222    0.000    0.000    0.000    0.000 
#    0.000    0.000    0.000    0.000    0.000    0.000 
#
# Total GULP energy -100218.279299 kJ/mol
# GULP energy per Si atom -5567.682183 kJ/mol
# Density = 2.427017 g / cm^3
# Si number density = 24.325538 Si / 1000 Ang^3
#
#
#
# Elastic Constant Matrix: (Units=GPa)
#
#
# Indices 1 2 3 4 5 6 
#
# 1 158.0231 39.2206 0.9418 0.0000 30.2895 0.0001
# 2 39.2206 65.5502 27.6627 0.0000 -0.1779 0.0003
# 3 0.9418 27.6627 56.9429 0.0000 -7.9808 0.0000
# 4 0.0000 0.0000 0.0000 21.9156 0.0000 -12.9304
# 5 30.2895 -0.1779 -7.9808 0.0000 38.1578 0.0000
# 6 0.0001 0.0003 0.0000 -12.9304 0.0000 21.0531
#
#
#
# Elastic Compliance Matrix: (Units=1/GPa)
#
#
# Indices 1 2 3 4 5 6 
#
# 1 0.009229 -0.006372 0.001970 0.000000 -0.006944 0.000000
# 2 -0.006372 0.023726 -0.011019 0.000000 0.002864 -0.000001
# 3 0.001970 -0.011019 0.023340 0.000000 0.003267 0.000000
# 4 0.000000 0.000000 0.000000 0.071561 0.000000 0.043952
# 5 -0.006944 0.002864 0.003267 0.000000 0.032415 0.000000
# 6 0.000000 -0.000001 0.000000 0.043952 0.000000 0.074493
#
#
# Mechanical properties :
#
#
# Convention : Reuss Voigt Hill
#
# Bulk Modulus (GPa) = 39.29022 46.24073 42.76547
# Shear Modulus (GPa) = 18.24207 30.40471 24.32339
#
# Velocity S-wave (km/s) = 2.74143 3.53924 3.16557
# Velocity P-wave (km/s) = 5.11932 5.97930 5.56595
#
# Compressibility (1/GPa) = 0.02545163
#
# Stress axis : x y z
#
# Youngs Moduli (GPa) = 108.35565 42.14787 42.84515
#
# Poissons Ratio (x) = 0.26856 -0.08439
# Poissons Ratio (y) = 0.69044 0.47212
# Poissons Ratio (z) = -0.21343 0.46444
#
# Static dielectric constant tensor:
#      x y z
#    x 1.995590 0.000000 0.045210 
#    y 0.000000 1.785270 0.000000 
#    z 0.045210 0.000000 2.073010 
# 
# From -- ./inp_files/115875.got.cif
#   From: 2010.05.17/outbox.cif.g08.bks.cpg/sg15_58_cif.got.tgz:115875.got - 2010.06.03 18:47:42.
