data_PCOD9254585
_publ_section_title
;
Structure prediction by ZEFSAII (Michael W. Deem and Ramdas Pophale) SiO2 
 PCOD9254585
Probable space group: C 2/C
;
_chemical_formula_sum "Si O2"
_cell_formula_units_Z 52
_cell_length_a 19.414129
_cell_length_b 11.657349
_cell_length_c 13.230212
_cell_angle_alpha 90.000000
_cell_angle_beta 88.926870
_cell_angle_gamma 90.000000
_cell_volume 2993.700386
_symmetry_space_group_name_H-M "C 2/C"
_symmetry_group_IT_number 15
_symmetry_cell_setting 'monoclinic'
loop_
_space_group_symop_operation_xyz
x,y,z
-x,y,1/2-z
-x,-y,-z
x,-y,1/2+z
1/2+x,1/2+y,z
1/2-x,1/2+y,1/2-z
1/2-x,1/2-y,-z
1/2+x,1/2-y,1/2+z
loop_
_atom_site_type_symbol
_atom_site_label
_atom_site_fract_x
_atom_site_fract_y
_atom_site_fract_z
Si Si1 0.550912 0.886033 0.106251
Si Si2 0.129986 0.422643 0.730745
Si Si3 0.975162 0.871320 0.866592
Si Si4 0.098349 0.472166 0.422055
Si Si5 0.061681 0.114528 0.567176
Si Si6 0.500000 0.248113 0.250000
Si Si7 0.818887 0.709610 0.444462
O O1 0.561134 0.752187 0.124608
O O2 0.470025 0.914942 0.124794
O O3 0.597769 0.970451 0.170572
O O4 0.568403 0.925578 0.992058
O O5 0.148664 0.473999 0.838074
O O6 0.066948 0.333525 0.750163
O O7 0.186517 0.358760 0.661456
O O8 0.000000 0.884517 0.750000
O O9 0.932031 0.982741 0.900216
O O10 0.033895 0.871879 0.953201
O O11 0.136975 0.377290 0.486805
O O12 0.009334 0.174845 0.648983
O O13 0.132818 0.181170 0.574690
O O14 0.750000 0.750000 0.500000
#
# Coordination Sequence:
#
# PCOD9254585 Si02
#       7
#     8   8   8   8   8   4   8
#     4  10  18  28  53  91 109 129 165 232 286 309
#     4  10  18  30  59  82 106 131 178 232 270 311
#     4  11  20  32  50  82 116 136 170 219 288 329
#     4  10  17  32  55  83 107 134 175 229 271 312
#     4  10  21  34  52  76 110 148 173 220 267 336
#     4  10  16  32  52  84 110 132 178 216 284 320
#     4  10  22  38  55  74 108 150 185 213 255 328
#
# _framework density 17.369807000000002
#
# number of rings (size 3 to 8) (size 9 to 14) (size 15 to 20)
#    0.000    1.846    3.846    1.846    0.000    0.000 
#    0.000    1.538    0.000    1.846    0.000    0.000 
#    0.000    0.000    0.000    0.000    0.000    0.000 
#
# Total GULP energy -144893.930701 kJ/mol
# GULP energy per Si atom -5572.843489 kJ/mol
# Density = 1.733027 g / cm^3
# Si number density = 17.369807 Si / 1000 Ang^3
#
#
#
# Elastic Constant Matrix: (Units=GPa)
#
#
# Indices 1 2 3 4 5 6 
#
# 1 35.0781 30.2755 9.7882 0.0000 -21.9632 0.0000
# 2 30.2755 139.1134 41.0666 0.0000 -17.4747 0.0000
# 3 9.7882 41.0666 90.7786 0.0000 -17.4929 0.0000
# 4 0.0000 0.0000 0.0000 24.9237 0.0000 -7.2224
# 5 -21.9632 -17.4747 -17.4929 0.0000 20.8062 0.0000
# 6 0.0000 0.0000 0.0000 -7.2224 0.0000 14.9140
#
#
#
# Elastic Compliance Matrix: (Units=1/GPa)
#
#
# Indices 1 2 3 4 5 6 
#
# 1 0.111181 -0.014309 0.017643 0.000000 0.120180 0.000000
# 2 -0.014309 0.010515 -0.005278 0.000000 -0.010710 0.000000
# 3 0.017643 -0.005278 0.016988 0.000000 0.028474 0.000000
# 4 0.000000 0.000000 0.000000 0.046672 0.000000 0.022602
# 5 0.120180 -0.010710 0.028474 0.000000 0.189869 0.000000
# 6 0.000000 0.000000 0.000000 0.022602 0.000000 0.077996
#
#
# Mechanical properties :
#
#
# Convention : Reuss Voigt Hill
#
# Bulk Modulus (GPa) = 7.41850 47.47007 27.44429
# Shear Modulus (GPa) = 9.95934 24.38477 17.17206
#
# Velocity S-wave (km/s) = 2.39711 3.75088 3.14764
# Velocity P-wave (km/s) = 3.45568 6.79317 5.38929
#
# Compressibility (1/GPa) = 0.13479808
#
# Stress axis : x y z
#
# Youngs Moduli (GPa) = 8.99432 95.10195 58.86519
#
# Poissons Ratio (x) = 1.36077 -1.03857
# Poissons Ratio (y) = 0.12870 0.31068
# Poissons Ratio (z) = -0.15869 0.50193
#
# Static dielectric constant tensor:
#      x y z
#    x 1.555250 0.000000 -0.006330 
#    y 0.000000 1.603550 0.000000 
#    z -0.006330 0.000000 1.657590 
# 
# From -- ./inp_files/166952.got.cif
#   From: 2010.05.17/outbox.cif.g08.bks.cpg/sg15_84_cif.got.tgz:166952.got - 2010.06.03 18:47:42.
