data_PCOD9254023
_publ_section_title
;
Structure prediction by ZEFSAII (Michael W. Deem and Ramdas Pophale) SiO2 
 PCOD9254023
Probable space group: C 2/C
;
_chemical_formula_sum "Si O2"
_cell_formula_units_Z 32
_cell_length_a 10.750639
_cell_length_b 10.611010
_cell_length_c 13.604046
_cell_angle_alpha 90.000000
_cell_angle_beta 45.325510
_cell_angle_gamma 90.000000
_cell_volume 1103.563823
_symmetry_space_group_name_H-M "C 2/C"
_symmetry_group_IT_number 15
_symmetry_cell_setting 'monoclinic'
loop_
_space_group_symop_operation_xyz
x,y,z
-x,y,1/2-z
-x,-y,-z
x,-y,1/2+z
1/2+x,1/2+y,z
1/2-x,1/2+y,1/2-z
1/2-x,1/2-y,-z
1/2+x,1/2-y,1/2+z
loop_
_atom_site_type_symbol
_atom_site_label
_atom_site_fract_x
_atom_site_fract_y
_atom_site_fract_z
Si Si1 0.331219 0.914036 0.958537
Si Si2 0.495622 0.182113 0.635566
Si Si3 0.505464 0.543183 0.108292
Si Si4 0.320847 0.822852 0.735174
O O1 0.423886 0.047100 0.929206
O O2 0.324750 0.871602 0.846193
O O3 0.481807 0.819688 0.914438
O O4 0.129959 0.944516 0.094262
O O5 0.500000 0.187958 0.750000
O O6 0.586324 0.314578 0.556105
O O7 0.293964 0.197195 0.710976
O O8 0.309023 0.580035 0.248872
O O9 0.500000 0.500000 0.000000
#
# Coordination Sequence:
#
# PCOD9254023 Si02
#       4
#     8   8   8   8
#     4  10  15  34  54  76 107 144 173 216 267 312
#     4  10  18  30  54  81 107 137 180 219 262 312
#     4   8  17  30  51  82 106 136 182 215 257 321
#     4   8  18  28  51  81 104 133 179 216 254 317
#
# _framework density 28.996963999999998
#
# number of rings (size 3 to 8) (size 9 to 14) (size 15 to 20)
#    1.500    1.500    2.500    0.750    0.000    0.000 
#    0.000    1.250    5.500    1.500    0.000    0.000 
#    0.000    0.000    0.000    0.000    0.000    0.000 
#
# Total GULP energy -89280.412080 kJ/mol
# GULP energy per Si atom -5580.025755 kJ/mol
# Density = 2.893097 g / cm^3
# Si number density = 28.996964 Si / 1000 Ang^3
#
#
#
# Elastic Constant Matrix: (Units=GPa)
#
#
# Indices 1 2 3 4 5 6 
#
# 1 142.3227 37.7285 70.2724 0.0000 -44.3331 0.0000
# 2 37.7285 174.7156 30.9288 0.0000 -15.7730 0.0000
# 3 70.2724 30.9288 107.2263 0.0000 -19.3009 0.0000
# 4 0.0000 0.0000 0.0000 36.4884 0.0000 -12.1781
# 5 -44.3331 -15.7730 -19.3009 0.0000 68.1710 0.0000
# 6 0.0000 0.0000 0.0000 -12.1781 0.0000 54.4403
#
#
#
# Elastic Compliance Matrix: (Units=1/GPa)
#
#
# Indices 1 2 3 4 5 6 
#
# 1 0.012530 -0.000951 -0.006860 0.000000 0.005986 0.000000
# 2 -0.000951 0.006163 -0.001063 0.000000 0.000506 0.000000
# 3 -0.006860 -0.001063 0.013994 0.000000 -0.000745 0.000000
# 4 0.000000 0.000000 0.000000 0.029617 0.000000 0.006625
# 5 0.005986 0.000506 -0.000745 0.000000 0.018468 0.000000
# 6 0.000000 0.000000 0.000000 0.006625 0.000000 0.019851
#
#
# Mechanical properties :
#
#
# Convention : Reuss Voigt Hill
#
# Bulk Modulus (GPa) = 66.93835 78.01378 72.47606
# Shear Modulus (GPa) = 40.53432 50.84228 45.68830
#
# Velocity S-wave (km/s) = 3.74288 4.19186 3.97372
# Velocity P-wave (km/s) = 6.46634 7.09870 6.78989
#
# Compressibility (1/GPa) = 0.01493912
#
# Stress axis : x y z
#
# Youngs Moduli (GPa) = 79.80642 162.26164 71.45676
#
# Poissons Ratio (x) = 0.15431 0.49020
# Poissons Ratio (y) = 0.07589 0.07598
# Poissons Ratio (z) = 0.54748 0.17252
#
# Static dielectric constant tensor:
#      x y z
#    x 2.310720 0.000000 -0.039520 
#    y 0.000000 2.257230 0.000000 
#    z -0.039520 0.000000 2.345550 
# 
# From -- ./inp_files/84053.got.cif
#   From: 2010.05.17/outbox.cif.g08.bks.cpg/sg15_43_cif.got.tgz:84053.got - 2010.06.03 18:47:42.
