data_PCOD9254085
_publ_section_title
;
Structure prediction by ZEFSAII (Michael W. Deem and Ramdas Pophale) SiO2 
 PCOD9254085
Probable space group: C 2/C
;
_chemical_formula_sum "Si O2"
_cell_formula_units_Z 44
_cell_length_a 8.048449
_cell_length_b 28.406757
_cell_length_c 9.669934
_cell_angle_alpha 90.000000
_cell_angle_beta 126.289028
_cell_angle_gamma 90.000000
_cell_volume 1782.029293
_symmetry_space_group_name_H-M "C 2/C"
_symmetry_group_IT_number 15
_symmetry_cell_setting 'monoclinic'
loop_
_space_group_symop_operation_xyz
x,y,z
-x,y,1/2-z
-x,-y,-z
x,-y,1/2+z
1/2+x,1/2+y,z
1/2-x,1/2+y,1/2-z
1/2-x,1/2-y,-z
1/2+x,1/2-y,1/2+z
loop_
_atom_site_type_symbol
_atom_site_label
_atom_site_fract_x
_atom_site_fract_y
_atom_site_fract_z
Si Si1 0.777828 0.676479 0.331291
Si Si2 0.679545 0.765436 0.116549
Si Si3 0.250602 0.556216 0.848958
Si Si4 0.000000 0.598595 0.250000
Si Si5 0.251786 0.338955 0.374684
Si Si6 0.285146 0.980163 0.456512
O O1 0.659569 0.716429 0.187299
O O2 0.861631 0.632774 0.280632
O O3 0.683695 0.663717 0.432879
O O4 0.979033 0.705023 0.481600
O O5 0.805376 0.799769 0.285212
O O6 0.750000 0.750000 0.000000
O O7 0.326414 0.609292 0.874849
O O8 0.315555 0.534807 0.735746
O O9 0.000000 0.558791 0.750000
O O10 0.314654 0.522075 0.004373
O O11 0.146579 0.563849 0.412592
O O12 0.000000 0.338494 0.250000
O O13 0.500000 0.000000 0.500000
#
# Coordination Sequence:
#
# PCOD9254085 Si02
#       6
#     8   8   8   4   8   8
#     4  11  22  34  54  72 105 142 177 217 258 306
#     4  11  20  37  50  76  97 140 175 219 261 307
#     4   9  16  26  40  65  96 134 164 197 250 312
#     4  12  18  28  48  70 100 142 172 206 258 312
#     4   9  19  32  49  69 102 137 173 209 260 304
#     4  10  16  25  40  64  98 135 165 197 249 316
#
# _framework density 24.690950999999998
#
# number of rings (size 3 to 8) (size 9 to 14) (size 15 to 20)
#    0.000    1.818    4.545    4.909    0.000    0.000 
#    0.000    0.000    0.000    0.000    0.000    0.000 
#    0.000    1.455   19.636    0.909    0.000    0.000 
#
# Total GULP energy -122822.774107 kJ/mol
# GULP energy per Si atom -5582.853369 kJ/mol
# Density = 2.463475 g / cm^3
# Si number density = 24.690951 Si / 1000 Ang^3
#
#
#
# Elastic Constant Matrix: (Units=GPa)
#
#
# Indices 1 2 3 4 5 6 
#
# 1 50.7666 34.9309 27.8968 0.0000 -24.5543 0.0000
# 2 34.9309 163.2910 50.1790 0.0000 -37.4076 0.0000
# 3 27.8968 50.1790 128.9048 0.0000 -48.6976 0.0000
# 4 0.0000 0.0000 0.0000 24.5494 0.0000 -15.6815
# 5 -24.5543 -37.4076 -48.6976 0.0000 42.4642 0.0000
# 6 0.0000 0.0000 0.0000 -15.6815 0.0000 27.3559
#
#
#
# Elastic Compliance Matrix: (Units=1/GPa)
#
#
# Indices 1 2 3 4 5 6 
#
# 1 0.028411 -0.002921 0.000393 0.000000 0.014306 0.000000
# 2 -0.002921 0.008016 -0.000809 0.000000 0.004444 0.000000
# 3 0.000393 -0.000809 0.013770 0.000000 0.015305 0.000000
# 4 0.000000 0.000000 0.000000 0.064267 0.000000 0.036840
# 5 0.014306 0.004444 0.015305 0.000000 0.053288 0.000000
# 6 0.000000 0.000000 0.000000 0.036840 0.000000 0.057673
#
#
# Mechanical properties :
#
#
# Convention : Reuss Voigt Hill
#
# Bulk Modulus (GPa) = 22.97712 63.21952 43.09832
# Shear Modulus (GPa) = 20.27520 34.20430 27.23975
#
# Velocity S-wave (km/s) = 2.86870 3.72600 3.32509
# Velocity P-wave (km/s) = 4.50540 6.64610 5.67756
#
# Compressibility (1/GPa) = 0.04352155
#
# Stress axis : x y z
#
# Youngs Moduli (GPa) = 35.19730 124.75564 72.62357
#
# Poissons Ratio (x) = 0.36444 -0.02854
# Poissons Ratio (y) = 0.10282 0.05877
# Poissons Ratio (z) = -0.01383 0.10096
#
# Static dielectric constant tensor:
#      x y z
#    x 1.932220 0.000000 0.074470 
#    y 0.000000 1.876330 0.000000 
#    z 0.074470 0.000000 2.055520 
# 
# From -- ./inp_files/32755.got.cif
#   From: 2010.05.17/outbox.cif.g08.bks.cpg/sg15_17_cif.got.tgz:32755.got - 2010.06.03 18:47:42.
