data_PCOD9254421
_publ_section_title
;
Structure prediction by ZEFSAII (Michael W. Deem and Ramdas Pophale) SiO2 
 PCOD9254421
Probable space group: C 2/C
;
_chemical_formula_sum "Si O2"
_cell_formula_units_Z 44
_cell_length_a 7.894235
_cell_length_b 14.829401
_cell_length_c 15.243543
_cell_angle_alpha 90.000000
_cell_angle_beta 111.766405
_cell_angle_gamma 90.000000
_cell_volume 1657.282799
_symmetry_space_group_name_H-M "C 2/C"
_symmetry_group_IT_number 15
_symmetry_cell_setting 'monoclinic'
loop_
_space_group_symop_operation_xyz
x,y,z
-x,y,1/2-z
-x,-y,-z
x,-y,1/2+z
1/2+x,1/2+y,z
1/2-x,1/2+y,1/2-z
1/2-x,1/2-y,-z
1/2+x,1/2-y,1/2+z
loop_
_atom_site_type_symbol
_atom_site_label
_atom_site_fract_x
_atom_site_fract_y
_atom_site_fract_z
Si Si1 0.144799 0.517984 0.449428
Si Si2 0.139049 0.143162 0.891793
Si Si3 0.555085 0.173675 0.146552
Si Si4 0.500000 0.492057 0.250000
Si Si5 0.121598 0.263839 0.186905
Si Si6 0.162070 0.126668 0.427825
O O1 0.284501 0.593797 0.509988
O O2 0.272033 0.429085 0.474565
O O3 0.000000 0.500000 0.500000
O O4 0.030745 0.574279 0.356356
O O5 0.304206 0.149927 0.851730
O O6 0.085218 0.245481 0.890341
O O7 0.972539 0.083663 0.821230
O O8 0.704783 0.206097 0.245362
O O9 0.660112 0.175293 0.074277
O O10 0.616020 0.559424 0.335005
O O11 0.000000 0.285873 0.250000
O O12 0.001052 0.197181 0.103726
#
# Coordination Sequence:
#
# PCOD9254421 Si02
#       6
#     8   8   8   4   8   8
#     4   9  20  35  57  80 110 151 181 219 280 332
#     4  11  20  32  59  83 104 141 196 222 262 336
#     4  10  17  34  55  85 107 139 185 231 267 322
#     4  10  16  30  54  76 100 142 178 208 272 324
#     4  10  19  35  57  80 110 145 184 230 279 316
#     4   9  18  34  56  73 111 148 178 216 284 327
#
# _framework density 26.549484
#
# number of rings (size 3 to 8) (size 9 to 14) (size 15 to 20)
#    0.000    2.182    4.545    0.545    0.000    0.000 
#    0.000    9.091   12.000    0.000    0.000    0.000 
#    0.000    0.000    0.000    0.000    0.000    0.000 
#
# Total GULP energy -122628.788784 kJ/mol
# GULP energy per Si atom -5574.035854 kJ/mol
# Density = 2.648906 g / cm^3
# Si number density = 26.549484 Si / 1000 Ang^3
#
#
#
# Elastic Constant Matrix: (Units=GPa)
#
#
# Indices 1 2 3 4 5 6 
#
# 1 60.9977 11.5895 22.0101 0.0000 -0.3256 0.0000
# 2 11.5895 64.5712 13.2805 0.0000 -4.2453 0.0000
# 3 22.0101 13.2805 83.2487 0.0000 11.2100 0.0000
# 4 0.0000 0.0000 0.0000 51.3383 0.0000 7.1399
# 5 -0.3256 -4.2453 11.2100 0.0000 30.6874 0.0000
# 6 0.0000 0.0000 0.0000 7.1399 0.0000 16.3093
#
#
#
# Elastic Compliance Matrix: (Units=1/GPa)
#
#
# Indices 1 2 3 4 5 6 
#
# 1 0.018548 -0.002242 -0.004765 0.000000 0.001627 0.000000
# 2 -0.002242 0.016610 -0.002485 0.000000 0.003182 0.000000
# 3 -0.004765 -0.002485 0.014432 0.000000 -0.005666 0.000000
# 4 0.000000 0.000000 0.000000 0.020741 0.000000 -0.009080
# 5 0.001627 0.003182 -0.005666 0.000000 0.035114 0.000000
# 6 0.000000 0.000000 0.000000 -0.009080 0.000000 0.065290
#
#
# Mechanical properties :
#
#
# Convention : Reuss Voigt Hill
#
# Bulk Modulus (GPa) = 32.67574 33.61976 33.14775
# Shear Modulus (GPa) = 25.00977 30.46281 27.73629
#
# Velocity S-wave (km/s) = 3.07254 3.39100 3.23569
# Velocity P-wave (km/s) = 4.99215 5.29362 5.14509
#
# Compressibility (1/GPa) = 0.03060375
#
# Stress axis : x y z
#
# Youngs Moduli (GPa) = 53.91337 60.20634 69.29229
#
# Poissons Ratio (x) = 0.13498 0.33021
# Poissons Ratio (y) = 0.12087 0.17222
# Poissons Ratio (z) = 0.25692 0.14964
#
# Static dielectric constant tensor:
#      x y z
#    x 2.145380 0.000000 0.020610 
#    y 0.000000 2.062700 0.000000 
#    z 0.020610 0.000000 2.115630 
# 
# From -- ./inp_files/188812.got.cif
#   From: 2010.05.17/outbox.cif.g08.bks.cpg/sg15_95_cif.got.tgz:188812.got - 2010.06.03 18:47:42.
