data_PCOD9254463
_publ_section_title
;
Structure prediction by ZEFSAII (Michael W. Deem and Ramdas Pophale) SiO2 
 PCOD9254463
Probable space group: C 2/C
;
_chemical_formula_sum "Si O2"
_cell_formula_units_Z 60
_cell_length_a 26.267697
_cell_length_b 17.991569
_cell_length_c 15.634773
_cell_angle_alpha 90.000000
_cell_angle_beta 154.050370
_cell_angle_gamma 90.000000
_cell_volume 3233.262030
_symmetry_space_group_name_H-M "C 2/C"
_symmetry_group_IT_number 15
_symmetry_cell_setting 'monoclinic'
loop_
_space_group_symop_operation_xyz
x,y,z
-x,y,1/2-z
-x,-y,-z
x,-y,1/2+z
1/2+x,1/2+y,z
1/2-x,1/2+y,1/2-z
1/2-x,1/2-y,-z
1/2+x,1/2-y,1/2+z
loop_
_atom_site_type_symbol
_atom_site_label
_atom_site_fract_x
_atom_site_fract_y
_atom_site_fract_z
Si Si1 0.402037 0.150408 0.391805
Si Si2 0.820692 0.479722 0.869812
Si Si3 0.414115 0.306193 0.496524
Si Si4 0.819399 0.194619 0.040804
Si Si5 0.148091 0.436150 0.260951
Si Si6 0.000000 0.425997 0.750000
Si Si7 0.688366 0.086439 0.412933
Si Si8 0.618543 0.545380 0.664748
O O1 0.351653 0.104469 0.395648
O O2 0.406287 0.236170 0.421365
O O3 0.529223 0.111323 0.570468
O O4 0.321233 0.133271 0.188091
O O5 0.818256 0.524070 0.776682
O O6 0.703866 0.488555 0.745669
O O7 0.918548 0.521566 0.070859
O O8 0.547879 0.309290 0.728647
O O9 0.332543 0.292473 0.457338
O O10 0.390364 0.382976 0.410973
O O11 0.750000 0.250000 0.000000
O O12 0.750255 0.117805 0.943993
O O13 0.140062 0.504279 0.314741
O O14 0.092416 0.380888 0.833153
O O15 0.811958 0.073783 0.645531
O O16 0.500000 0.500000 0.500000
#
# Coordination Sequence:
#
# PCOD9254463 Si02
#       8
#     8   8   8   8   8   4   8   8
#     4  11  21  38  62  96 122 151 201 268 320 358
#     4  10  20  36  62  86 122 157 205 262 305 370
#     4  11  25  40  61  92 129 162 211 257 312 384
#     4  11  23  40  61  91 125 170 195 257 324 374
#     4  11  18  39  61  89 122 154 201 253 322 367
#     4  10  16  30  56  94 116 148 202 246 314 348
#     4  10  21  35  63  89 120 160 201 252 305 368
#     4  11  24  43  60  87 124 177 215 244 301 384
#
# _framework density 18.557110999999999
#
# number of rings (size 3 to 8) (size 9 to 14) (size 15 to 20)
#    0.000    1.333    5.333    1.600    0.000    4.800 
#    0.000    0.000    0.000    0.000    0.000    0.000 
#    0.000    0.000    0.000    0.000    0.000    0.000 
#
# Total GULP energy -167250.045260 kJ/mol
# GULP energy per Si atom -5575.001509 kJ/mol
# Density = 1.851487 g / cm^3
# Si number density = 18.557111 Si / 1000 Ang^3
#
#
#
# Elastic Constant Matrix: (Units=GPa)
#
#
# Indices 1 2 3 4 5 6 
#
# 1 68.9211 15.1679 38.6929 0.0000 6.2540 0.0000
# 2 15.1679 54.9935 5.4908 0.0000 4.2423 0.0000
# 3 38.6929 5.4908 68.7463 0.0000 11.4676 0.0000
# 4 0.0000 0.0000 0.0000 0.8371 0.0000 36.5306
# 5 6.2540 4.2423 11.4676 0.0000 33.2448 0.0000
# 6 0.0000 0.0000 0.0000 36.5306 0.0000 -31.4242
#
#
#
# Elastic Compliance Matrix: (Units=1/GPa)
#
#
# Indices 1 2 3 4 5 6 
#
# 1 0.022502 -0.005023 -0.012376 0.000000 0.000677 0.000000
# 2 -0.005023 0.019571 0.001616 0.000000 -0.002110 0.000000
# 3 -0.012376 0.001616 0.022313 0.000000 -0.005575 0.000000
# 4 0.000000 0.000000 0.000000 0.023093 0.000000 0.026845
# 5 0.000677 -0.002110 -0.005575 0.000000 0.032145 0.000000
# 6 0.000000 0.000000 0.000000 0.026845 0.000000 -0.000615
#
#
# Mechanical properties :
#
#
# Convention : Reuss Voigt Hill
#
# Bulk Modulus (GPa) = 30.47061 34.59600 32.53331
# Shear Modulus (GPa) = 30.95712 9.41884 20.18798
#
# Velocity S-wave (km/s) = 4.08880 2.25535 3.30189
# Velocity P-wave (km/s) = 6.22468 5.04635 5.66623
#
# Compressibility (1/GPa) = 0.03281851
#
# Stress axis : x y z
#
# Youngs Moduli (GPa) = 44.44144 51.09674 44.81684
#
# Poissons Ratio (x) = 0.25664 0.55467
# Poissons Ratio (y) = 0.22322 -0.07241
# Poissons Ratio (z) = 0.55003 -0.08256
#
# Static dielectric constant tensor:
#      x y z
#    x 1.724320 0.000000 -0.022190 
#    y 0.000000 1.635150 0.000000 
#    z -0.022190 0.000000 1.646640 
# 
# From -- ./inp_files/174104.got.cif
#   From: 2010.05.17/outbox.cif.g08.bks.cpg/sg15_88_cif.got.tgz:174104.got - 2010.06.03 18:47:42.
