data_PCOD9254381
_publ_section_title
;
Structure prediction by ZEFSAII (Michael W. Deem and Ramdas Pophale) SiO2 
 PCOD9254381
Probable space group: C 2/C
;
_chemical_formula_sum "Si O2"
_cell_formula_units_Z 60
_cell_length_a 19.118669
_cell_length_b 22.636761
_cell_length_c 13.637141
_cell_angle_alpha 90.000000
_cell_angle_beta 147.936069
_cell_angle_gamma 90.000000
_cell_volume 3133.137977
_symmetry_space_group_name_H-M "C 2/C"
_symmetry_group_IT_number 15
_symmetry_cell_setting 'monoclinic'
loop_
_space_group_symop_operation_xyz
x,y,z
-x,y,1/2-z
-x,-y,-z
x,-y,1/2+z
1/2+x,1/2+y,z
1/2-x,1/2+y,1/2-z
1/2-x,1/2-y,-z
1/2+x,1/2-y,1/2+z
loop_
_atom_site_type_symbol
_atom_site_label
_atom_site_fract_x
_atom_site_fract_y
_atom_site_fract_z
Si Si1 0.333855 0.924242 0.811677
Si Si2 0.343757 0.788566 0.476008
Si Si3 0.264145 0.970528 0.093288
Si Si4 0.235213 0.895844 0.237141
Si Si5 0.500000 0.535849 0.750000
Si Si6 0.632889 0.808951 0.776400
Si Si7 0.523795 0.433441 0.487724
Si Si8 0.116447 0.502067 0.459407
O O1 0.376692 0.864942 0.807121
O O2 0.180310 0.920077 0.666525
O O3 0.338821 0.975483 0.735698
O O4 0.416869 0.951299 0.000387
O O5 0.288312 0.833140 0.330836
O O6 0.493425 0.775183 0.621791
O O7 0.339999 0.823102 0.576635
O O8 0.251522 0.732144 0.380865
O O9 0.272831 0.914091 0.172035
O O10 0.296578 0.968220 0.018296
O O11 0.116125 0.994027 0.921471
O O12 0.304604 0.946611 0.389045
O O13 0.077927 0.896844 0.067556
O O14 0.529837 0.572655 0.687995
O O15 0.500000 0.500000 0.500000
O O16 0.000000 0.525062 0.250000
#
# Coordination Sequence:
#
# PCOD9254381 Si02
#       8
#     8   8   8   8   4   8   8   8
#     4  10  22  36  59  83 118 159 194 244 291 352
#     4  10  24  41  62  85 114 151 200 248 300 353
#     4  10  20  33  53  85 117 151 187 234 284 352
#     4  11  22  34  57  84 119 152 194 240 292 349
#     4  10  16  30  50  74 114 146 182 228 262 330
#     4  10  23  44  60  84 114 152 198 249 300 353
#     4  11  18  34  51  85 117 151 194 226 281 348
#     4  11  23  34  54  86 121 159 191 227 297 362
#
# _framework density 19.150130999999998
#
# number of rings (size 3 to 8) (size 9 to 14) (size 15 to 20)
#    0.000    1.600    5.333    0.800    9.333    1.067 
#    0.000    0.000    0.000    0.800    1.733    0.000 
#    0.000    0.000    0.000    0.000    0.000    0.000 
#
# Total GULP energy -167235.292429 kJ/mol
# GULP energy per Si atom -5574.509748 kJ/mol
# Density = 1.910654 g / cm^3
# Si number density = 19.150131 Si / 1000 Ang^3
#
#
#
# Elastic Constant Matrix: (Units=GPa)
#
#
# Indices 1 2 3 4 5 6 
#
# 1 89.3073 20.8287 17.8320 0.0000 1.9409 0.0000
# 2 20.8287 36.1256 7.4628 0.0000 -0.1953 0.0000
# 3 17.8320 7.4628 48.0846 0.0000 6.8324 0.0000
# 4 0.0000 0.0000 0.0000 20.2959 0.0000 -0.5822
# 5 1.9409 -0.1953 6.8324 0.0000 40.6336 0.0000
# 6 0.0000 0.0000 0.0000 -0.5822 0.0000 27.9078
#
#
#
# Elastic Compliance Matrix: (Units=1/GPa)
#
#
# Indices 1 2 3 4 5 6 
#
# 1 0.013630 -0.007041 -0.003959 0.000000 -0.000019 0.000000
# 2 -0.007041 0.032268 -0.002527 0.000000 0.000916 0.000000
# 3 -0.003959 -0.002527 0.023186 0.000000 -0.003722 0.000000
# 4 0.000000 0.000000 0.000000 0.049300 0.000000 0.001028
# 5 -0.000019 0.000916 -0.003722 0.000000 0.025241 0.000000
# 6 0.000000 0.000000 0.000000 0.001028 0.000000 0.035854
#
#
# Mechanical properties :
#
#
# Convention : Reuss Voigt Hill
#
# Bulk Modulus (GPa) = 23.79288 29.52942 26.66115
# Shear Modulus (GPa) = 22.67119 26.26039 24.46579
#
# Velocity S-wave (km/s) = 3.44447 3.70711 3.57820
# Velocity P-wave (km/s) = 5.31700 5.81180 5.56990
#
# Compressibility (1/GPa) = 0.04202938
#
# Stress axis : x y z
#
# Youngs Moduli (GPa) = 73.36545 30.99069 43.12946
#
# Poissons Ratio (x) = 0.21821 0.17076
# Poissons Ratio (y) = 0.51657 0.10899
# Poissons Ratio (z) = 0.29047 0.07832
#
# Static dielectric constant tensor:
#      x y z
#    x 1.758450 0.000000 0.054770 
#    y 0.000000 1.628930 0.000000 
#    z 0.054770 0.000000 1.753560 
# 
# From -- ./inp_files/169481.got.cif
#   From: 2010.05.17/outbox.cif.g08.bks.cpg/sg15_85_cif.got.tgz:169481.got - 2010.06.03 18:47:42.
