data_PCOD9254825
_publ_section_title
;
Structure prediction by ZEFSAII (Michael W. Deem and Ramdas Pophale) SiO2 
 PCOD9254825
Probable space group: C 2/C
;
_chemical_formula_sum "Si O2"
_cell_formula_units_Z 36
_cell_length_a 22.839391
_cell_length_b 5.225073
_cell_length_c 13.042602
_cell_angle_alpha 90.000000
_cell_angle_beta 72.796567
_cell_angle_gamma 90.000000
_cell_volume 1486.835797
_symmetry_space_group_name_H-M "C 2/C"
_symmetry_group_IT_number 15
_symmetry_cell_setting 'monoclinic'
loop_
_space_group_symop_operation_xyz
x,y,z
-x,y,1/2-z
-x,-y,-z
x,-y,1/2+z
1/2+x,1/2+y,z
1/2-x,1/2+y,1/2-z
1/2-x,1/2-y,-z
1/2+x,1/2-y,1/2+z
loop_
_atom_site_type_symbol
_atom_site_label
_atom_site_fract_x
_atom_site_fract_y
_atom_site_fract_z
Si Si1 0.333190 0.060836 0.519292
Si Si2 0.601343 0.427526 0.559601
Si Si3 0.774108 0.088332 0.794102
Si Si4 0.599976 0.216328 0.344761
Si Si5 0.500000 0.330607 0.250000
O O1 0.360678 0.831301 0.436428
O O2 0.367251 0.015300 0.611968
O O3 0.353981 0.330457 0.467398
O O4 0.261822 0.032385 0.581828
O O5 0.579601 0.384815 0.453204
O O6 0.545167 0.493198 0.660611
O O7 0.743358 0.351596 0.769786
O O8 0.846274 0.139391 0.745533
O O9 0.542765 0.164504 0.302573
#
# Coordination Sequence:
#
# PCOD9254825 Si02
#       5
#     8   8   8   8   4
#     4   9  19  40  64  89 113 161 198 253 300 348
#     4  10  22  41  61  87 125 158 205 243 300 353
#     4  10  16  35  68  88 113 156 200 245 309 355
#     4   9  22  39  66  87 127 155 202 247 304 359
#     4  12  24  44  56  98 118 174 198 248 294 368
#
# _framework density 24.212491
#
# number of rings (size 3 to 8) (size 9 to 14) (size 15 to 20)
#    1.333    0.889    2.222    0.667    0.000    1.778 
#    4.000    2.222    0.000    0.000    0.000    0.000 
#    0.000    0.000    0.000    0.000    0.000    0.000 
#
# Total GULP energy -100552.353964 kJ/mol
# GULP energy per Si atom -5586.241887 kJ/mol
# Density = 2.415738 g / cm^3
# Si number density = 24.212491 Si / 1000 Ang^3
#
#
#
# Elastic Constant Matrix: (Units=GPa)
#
#
# Indices 1 2 3 4 5 6 
#
# 1 144.4211 24.8933 51.2575 0.0000 2.7459 0.0000
# 2 24.8933 81.7929 -7.0314 0.0000 13.6708 0.0000
# 3 51.2575 -7.0314 113.0046 0.0000 -15.8651 0.0000
# 4 0.0000 0.0000 0.0000 5.3035 0.0000 -4.7174
# 5 2.7459 13.6708 -15.8651 0.0000 35.8672 0.0000
# 6 0.0000 0.0000 0.0000 -4.7174 0.0000 12.7418
#
#
#
# Elastic Compliance Matrix: (Units=1/GPa)
#
#
# Indices 1 2 3 4 5 6 
#
# 1 0.009050 -0.002876 -0.004507 0.000000 -0.001590 0.000000
# 2 -0.002876 0.013973 0.001554 0.000000 -0.004419 0.000000
# 3 -0.004507 0.001554 0.011681 0.000000 0.004920 0.000000
# 4 0.000000 0.000000 0.000000 0.281139 0.000000 0.104087
# 5 -0.001590 -0.004419 0.004920 0.000000 0.031863 0.000000
# 6 0.000000 0.000000 0.000000 0.104087 0.000000 0.117018
#
#
# Mechanical properties :
#
#
# Convention : Reuss Voigt Hill
#
# Bulk Modulus (GPa) = 43.39291 53.05081 48.22186
# Shear Modulus (GPa) = 10.32919 28.78911 19.55915
#
# Velocity S-wave (km/s) = 2.06769 3.45196 2.84529
# Velocity P-wave (km/s) = 4.86426 6.15192 5.54559
#
# Compressibility (1/GPa) = 0.02304524
#
# Stress axis : x y z
#
# Youngs Moduli (GPa) = 110.49992 71.56483 85.60973
#
# Poissons Ratio (x) = 0.20581 0.38585
# Poissons Ratio (y) = 0.31779 -0.13300
# Poissons Ratio (z) = 0.49803 -0.11118
#
# Static dielectric constant tensor:
#      x y z
#    x 1.921150 0.000000 0.038090 
#    y 0.000000 1.878380 0.000000 
#    z 0.038090 0.000000 1.953670 
# 
# From -- ./inp_files/170459.got.cif
#   From: 2010.05.17/outbox.cif.g08.bks.cpg/sg15_86_cif.got.tgz:170459.got - 2010.06.03 18:47:42.
