data_PCOD9254653
_publ_section_title
;
Structure prediction by ZEFSAII (Michael W. Deem and Ramdas Pophale) SiO2 
 PCOD9254653
Probable space group: C 2/C
;
_chemical_formula_sum "Si O2"
_cell_formula_units_Z 60
_cell_length_a 9.266381
_cell_length_b 28.038536
_cell_length_c 9.831109
_cell_angle_alpha 90.000000
_cell_angle_beta 110.486911
_cell_angle_gamma 90.000000
_cell_volume 2392.724546
_symmetry_space_group_name_H-M "C 2/C"
_symmetry_group_IT_number 15
_symmetry_cell_setting 'monoclinic'
loop_
_space_group_symop_operation_xyz
x,y,z
-x,y,1/2-z
-x,-y,-z
x,-y,1/2+z
1/2+x,1/2+y,z
1/2-x,1/2+y,1/2-z
1/2-x,1/2-y,-z
1/2+x,1/2-y,1/2+z
loop_
_atom_site_type_symbol
_atom_site_label
_atom_site_fract_x
_atom_site_fract_y
_atom_site_fract_z
Si Si1 0.500000 0.118401 0.750000
Si Si2 0.667844 0.720375 0.813697
Si Si3 0.629212 0.306990 0.612239
Si Si4 0.802224 0.842888 0.435453
Si Si5 0.222212 0.401669 0.836982
Si Si6 0.099175 0.451382 0.038771
Si Si7 0.838316 0.983222 0.731027
Si Si8 0.969630 0.929176 0.399378
O O1 0.383650 0.152800 0.624037
O O2 0.427950 0.081785 0.838264
O O3 0.500000 0.745797 0.750000
O O4 0.806298 0.755923 0.821091
O O5 0.667694 0.679788 0.702148
O O6 0.672322 0.697257 0.964659
O O7 0.444941 0.318045 0.567639
O O8 0.741449 0.348915 0.703821
O O9 0.844750 0.897809 0.436845
O O10 0.219181 0.442252 0.722850
O O11 0.098453 0.415206 0.910670
O O12 0.380663 0.414036 0.968493
O O13 0.265145 0.478415 0.105651
O O14 0.000000 0.500000 0.000000
O O15 0.000000 0.959290 0.750000
O O16 0.893559 0.018709 0.868679
O O17 0.000000 0.915672 0.250000
#
# Coordination Sequence:
#
# PCOD9254653 Si02
#       8
#     4   8   8   8   8   8   8   8
#     4  12  22  38  56  88 118 168 212 240 296 354
#     4   9  17  35  60  91 115 142 192 255 310 360
#     4   9  19  34  61  89 110 147 194 250 308 365
#     4  10  19  32  60  82 117 150 197 248 287 363
#     4  11  21  37  60  86 116 158 198 251 298 356
#     4  12  25  37  55  83 126 161 201 252 290 351
#     4  11  22  37  59  86 115 157 200 247 300 360
#     4  10  16  32  59  87 107 143 200 244 288 343
#
# _framework density 25.076015000000002
#
# number of rings (size 3 to 8) (size 9 to 14) (size 15 to 20)
#    0.000    1.600    4.000    4.000    0.000    1.067 
#    2.400    0.667    1.467    0.000    0.000    0.000 
#    0.000    0.000    0.000    0.000    0.000    0.000 
#
# Total GULP energy -167035.201937 kJ/mol
# GULP energy per Si atom -5567.840065 kJ/mol
# Density = 2.501894 g / cm^3
# Si number density = 25.076015 Si / 1000 Ang^3
#
#
#
# Elastic Constant Matrix: (Units=GPa)
#
#
# Indices 1 2 3 4 5 6 
#
# 1 97.2357 13.3895 -0.0423 0.0000 15.4872 0.0000
# 2 13.3895 66.2671 -3.0125 0.0000 2.9032 0.0000
# 3 -0.0423 -3.0125 20.1359 0.0000 0.2229 0.0000
# 4 0.0000 0.0000 0.0000 20.1825 0.0000 9.0510
# 5 15.4872 2.9032 0.2229 0.0000 36.9062 0.0000
# 6 0.0000 0.0000 0.0000 9.0510 0.0000 40.5076
#
#
#
# Elastic Compliance Matrix: (Units=1/GPa)
#
#
# Indices 1 2 3 4 5 6 
#
# 1 0.011301 -0.002094 -0.000239 0.000000 -0.004576 0.000000
# 2 -0.002094 0.015636 0.002339 0.000000 -0.000365 0.000000
# 3 -0.000239 0.002339 0.050016 0.000000 -0.000386 0.000000
# 4 0.000000 0.000000 0.000000 0.055066 0.000000 -0.012304
# 5 -0.004576 -0.000365 -0.000386 0.000000 0.029047 0.000000
# 6 0.000000 0.000000 0.000000 -0.012304 0.000000 0.027436
#
#
# Mechanical properties :
#
#
# Convention : Reuss Voigt Hill
#
# Bulk Modulus (GPa) = 12.99279 22.70092 17.84685
# Shear Modulus (GPa) = 23.34865 31.07286 27.21075
#
# Velocity S-wave (km/s) = 3.05473 3.52397 3.29771
# Velocity P-wave (km/s) = 4.19934 5.06264 4.65106
#
# Compressibility (1/GPa) = 0.07696577
#
# Stress axis : x y z
#
# Youngs Moduli (GPa) = 88.48452 63.95554 19.99352
#
# Poissons Ratio (x) = 0.13391 0.00478
# Poissons Ratio (y) = 0.18527 -0.04676
# Poissons Ratio (z) = 0.02114 -0.14958
#
# Static dielectric constant tensor:
#      x y z
#    x 2.112660 0.000000 0.064710 
#    y 0.000000 1.953200 0.000000 
#    z 0.064710 0.000000 2.095630 
# 
# From -- ./inp_files/82243.got.cif
#   From: 2010.05.17/outbox.cif.g08.bks.cpg/sg15_42_cif.got.tgz:82243.got - 2010.06.03 18:47:42.
