data_PCOD9254412
_publ_section_title
;
Structure prediction by ZEFSAII (Michael W. Deem and Ramdas Pophale) SiO2 
 PCOD9254412
Probable space group: C 2/C
;
_chemical_formula_sum "Si O2"
_cell_formula_units_Z 40
_cell_length_a 18.918696
_cell_length_b 17.791814
_cell_length_c 13.291032
_cell_angle_alpha 90.000000
_cell_angle_beta 158.260180
_cell_angle_gamma 90.000000
_cell_volume 1657.037000
_symmetry_space_group_name_H-M "C 2/C"
_symmetry_group_IT_number 15
_symmetry_cell_setting 'monoclinic'
loop_
_space_group_symop_operation_xyz
x,y,z
-x,y,1/2-z
-x,-y,-z
x,-y,1/2+z
1/2+x,1/2+y,z
1/2-x,1/2+y,1/2-z
1/2-x,1/2-y,-z
1/2+x,1/2-y,1/2+z
loop_
_atom_site_type_symbol
_atom_site_label
_atom_site_fract_x
_atom_site_fract_y
_atom_site_fract_z
Si Si1 0.695181 0.218518 0.036334
Si Si2 0.139171 0.077688 0.275388
Si Si3 0.500000 0.021869 0.250000
Si Si4 0.228271 0.881710 0.125749
Si Si5 0.500000 0.278416 0.250000
Si Si6 0.600643 0.851506 0.726326
O O1 0.837277 0.154348 0.257763
O O2 0.663417 0.294200 0.056405
O O3 0.500000 0.177558 0.750000
O O4 0.750000 0.250000 0.000000
O O5 0.192985 0.093861 0.464430
O O6 0.309317 0.023474 0.465513
O O7 0.909653 0.067516 0.985460
O O8 0.417906 0.076851 0.226637
O O9 0.452450 0.873229 0.443043
O O10 0.470884 0.221828 0.305768
O O11 0.683742 0.329970 0.513022
#
# Coordination Sequence:
#
# PCOD9254412 Si02
#       6
#     8   8   4   8   4   8
#     4  10  16  30  52  86 120 152 184 242 308 348
#     4  10  21  36  57  91 134 158 190 254 309 376
#     4  11  24  42  58  82 133 174 206 240 299 368
#     4  10  21  36  61  93 120 160 207 251 309 360
#     4   9  22  46  64  90 117 156 214 274 297 332
#     4  10  23  42  67  89 117 164 211 257 305 360
#
# _framework density 24.139472000000001
#
# number of rings (size 3 to 8) (size 9 to 14) (size 15 to 20)
#    0.000    2.000    5.000    0.000    2.800    3.200 
#    0.000    0.000    0.000    0.000    0.000    0.000 
#    0.000    0.000    0.000    0.000    0.000    0.000 
#
# Total GULP energy -111399.571177 kJ/mol
# GULP energy per Si atom -5569.978559 kJ/mol
# Density = 2.408453 g / cm^3
# Si number density = 24.139472 Si / 1000 Ang^3
#
#
#
# Elastic Constant Matrix: (Units=GPa)
#
#
# Indices 1 2 3 4 5 6 
#
# 1 47.6074 23.4779 45.5940 0.0000 23.0089 0.0000
# 2 23.4779 92.9122 41.9189 0.0000 17.0018 0.0000
# 3 45.5940 41.9189 162.3817 0.0000 24.7834 0.0000
# 4 0.0000 0.0000 0.0000 28.2036 0.0000 1.0774
# 5 23.0089 17.0018 24.7834 0.0000 44.6780 0.0000
# 6 0.0000 0.0000 0.0000 1.0774 0.0000 -3.3832
#
#
#
# Elastic Compliance Matrix: (Units=1/GPa)
#
#
# Indices 1 2 3 4 5 6 
#
# 1 0.035986 -0.003423 -0.007201 0.000000 -0.013236 0.000000
# 2 -0.003423 0.012929 -0.002070 0.000000 -0.002009 0.000000
# 3 -0.007201 -0.002070 0.008771 0.000000 -0.000369 0.000000
# 4 0.000000 0.000000 0.000000 0.035030 0.000000 0.011156
# 5 -0.013236 -0.002009 -0.000369 0.000000 0.030168 0.000000
# 6 0.000000 0.000000 0.000000 0.011156 0.000000 -0.292028
#
#
# Mechanical properties :
#
#
# Convention : Reuss Voigt Hill
#
# Bulk Modulus (GPa) = 30.95999 58.32031 44.64015
# Shear Modulus (GPa) = -37.59666 26.69374 -5.45146
#
# Velocity S-wave (km/s) = -3.95077 3.32898 -1.50440
# Velocity P-wave (km/s) = 2.82102 6.24407 3.93892
#
# Compressibility (1/GPa) = 0.03229975
#
# Stress axis : x y z
#
# Youngs Moduli (GPa) = 27.78857 77.34372 114.01370
#
# Poissons Ratio (x) = 0.26472 0.82096
# Poissons Ratio (y) = 0.09511 0.23601
# Poissons Ratio (z) = 0.20009 0.16010
#
# Static dielectric constant tensor:
#      x y z
#    x 1.969620 0.000000 0.020100 
#    y 0.000000 1.993700 0.000000 
#    z 0.020100 0.000000 2.121920 
# 
# From -- ./inp_files/169242.got.cif
#   From: 2010.05.17/outbox.cif.g08.bks.cpg/sg15_85_cif.got.tgz:169242.got - 2010.06.03 18:47:42.
