data_PCOD9254689
_publ_section_title
;
Structure prediction by ZEFSAII (Michael W. Deem and Ramdas Pophale) SiO2 
 PCOD9254689
Probable space group: C 2/C
;
_chemical_formula_sum "Si O2"
_cell_formula_units_Z 56
_cell_length_a 23.551931
_cell_length_b 12.742686
_cell_length_c 26.849370
_cell_angle_alpha 90.000000
_cell_angle_beta 164.151110
_cell_angle_gamma 90.000000
_cell_volume 2200.620784
_symmetry_space_group_name_H-M "C 2/C"
_symmetry_group_IT_number 15
_symmetry_cell_setting 'monoclinic'
loop_
_space_group_symop_operation_xyz
x,y,z
-x,y,1/2-z
-x,-y,-z
x,-y,1/2+z
1/2+x,1/2+y,z
1/2-x,1/2+y,1/2-z
1/2-x,1/2-y,-z
1/2+x,1/2-y,1/2+z
loop_
_atom_site_type_symbol
_atom_site_label
_atom_site_fract_x
_atom_site_fract_y
_atom_site_fract_z
Si Si1 0.340104 0.241602 0.419621
Si Si2 0.767555 0.537268 0.529903
Si Si3 0.199334 0.845696 0.395581
Si Si4 0.687133 0.596934 0.206446
Si Si5 0.528351 0.557802 0.649892
Si Si6 0.473904 0.134035 0.626822
Si Si7 0.644428 0.899229 0.762549
O O1 0.461325 0.349078 0.512214
O O2 0.308262 0.181651 0.341679
O O3 0.442806 0.159319 0.543078
O O4 0.137185 0.277482 0.278486
O O5 0.706114 0.436217 0.444541
O O6 0.591840 0.538752 0.423763
O O7 0.000000 0.528765 0.750000
O O8 0.782404 0.630166 0.502712
O O9 0.000000 0.780625 0.250000
O O10 0.152036 0.886577 0.299236
O O11 0.447296 0.822241 0.602874
O O12 0.665011 0.490988 0.220406
O O13 0.777860 0.595011 0.228289
O O14 0.336451 0.620299 0.462142
O O15 0.562901 0.016670 0.703832
#
# Coordination Sequence:
#
# PCOD9254689 Si02
#       7
#     8   8   8   8   8   8   8
#     4  10  22  38  53  80 125 156 194 243 290 345
#     4  10  16  33  54  75 117 152 188 244 272 335
#     4   9  20  32  54  89 118 141 182 246 304 336
#     4  11  22  39  57  83 115 160 196 245 295 344
#     4  11  20  34  57  85 117 151 198 246 282 331
#     4  10  20  36  56  79 116 155 197 239 288 335
#     4  11  21  38  61  85 112 154 206 245 288 343
#
# _framework density 25.447365000000001
#
# number of rings (size 3 to 8) (size 9 to 14) (size 15 to 20)
#    0.000    1.714    4.286    2.143    0.000    2.286 
#    2.571    7.857    0.000    0.000    0.000    1.000 
#    0.000    0.000    0.000    0.000    0.000    0.000 
#
# Total GULP energy -156259.365240 kJ/mol
# GULP energy per Si atom -5580.691616 kJ/mol
# Density = 2.538945 g / cm^3
# Si number density = 25.447365 Si / 1000 Ang^3
#
#
#
# Elastic Constant Matrix: (Units=GPa)
#
#
# Indices 1 2 3 4 5 6 
#
# 1 168.1699 21.9637 39.2186 -0.0048 15.7372 -0.0009
# 2 21.9637 57.0601 14.6588 0.1332 -11.7531 0.0277
# 3 39.2186 14.6588 65.6226 0.2083 -14.8724 0.0463
# 4 -0.0048 0.1332 0.2083 -0.0384 0.0162 -13.8125
# 5 15.7372 -11.7531 -14.8724 0.0162 18.6688 -0.0298
# 6 -0.0009 0.0277 0.0463 -13.8125 -0.0298 13.3450
#
#
#
# Elastic Compliance Matrix: (Units=1/GPa)
#
#
# Indices 1 2 3 4 5 6 
#
# 1 0.011049 -0.006019 -0.010040 -0.000230 -0.021101 -0.000237
# 2 -0.006019 0.023629 0.003465 0.000308 0.022711 0.000308
# 3 -0.010040 0.003465 0.027915 0.000509 0.032884 0.000495
# 4 -0.000230 0.000308 0.000509 -0.069749 0.000739 -0.072193
# 5 -0.021101 0.022711 0.032884 0.000739 0.111848 0.000851
# 6 -0.000237 0.000308 0.000495 -0.072193 0.000851 0.000212
#
#
# Mechanical properties :
#
#
# Convention : Reuss Voigt Hill
#
# Bulk Modulus (GPa) = 26.73467 49.17056 37.95261
# Shear Modulus (GPa) = 35.07260 20.72919 27.90089
#
# Velocity S-wave (km/s) = 3.71649 2.85720 3.31481
# Velocity P-wave (km/s) = 5.38007 5.49993 5.44033
#
# Compressibility (1/GPa) = 0.03740461
#
# Stress axis : x y z
#
# Youngs Moduli (GPa) = 90.50958 42.32047 35.82242
#
# Poissons Ratio (x) = 0.25474 0.35965
# Poissons Ratio (y) = 0.54481 -0.12412
# Poissons Ratio (z) = 0.90870 -0.14664
#
# Static dielectric constant tensor:
#      x y z
#    x 2.007980 -0.000040 0.023330 
#    y -0.000040 2.052480 -0.000280 
#    z 0.023330 -0.000280 2.247480 
# 
# From -- ./inp_files/280460.got.cif
#   From: 2010.05.17/outbox.cif.g08.bks.cpg/sg15_141_cif.got.tgz:280460.got - 2010.06.03 18:47:42.
