data_PCOD9254467
_publ_section_title
;
Structure prediction by ZEFSAII (Michael W. Deem and Ramdas Pophale) SiO2 
 PCOD9254467
Probable space group: C 2/C
;
_chemical_formula_sum "Si O2"
_cell_formula_units_Z 52
_cell_length_a 23.751680
_cell_length_b 7.120238
_cell_length_c 17.081449
_cell_angle_alpha 90.000000
_cell_angle_beta 40.899326
_cell_angle_gamma 90.000000
_cell_volume 1891.372493
_symmetry_space_group_name_H-M "C 2/C"
_symmetry_group_IT_number 15
_symmetry_cell_setting 'monoclinic'
loop_
_space_group_symop_operation_xyz
x,y,z
-x,y,1/2-z
-x,-y,-z
x,-y,1/2+z
1/2+x,1/2+y,z
1/2-x,1/2+y,1/2-z
1/2-x,1/2-y,-z
1/2+x,1/2-y,1/2+z
loop_
_atom_site_type_symbol
_atom_site_label
_atom_site_fract_x
_atom_site_fract_y
_atom_site_fract_z
Si Si1 0.110527 0.259065 0.446642
Si Si2 0.647667 0.180173 0.376264
Si Si3 0.500000 0.592090 0.250000
Si Si4 0.422114 0.864059 0.707470
Si Si5 0.542929 0.706448 0.363048
Si Si6 0.662531 0.791514 0.548938
Si Si7 0.179960 0.725346 0.505313
O O1 0.154693 0.453271 0.373812
O O2 0.097361 0.142209 0.381448
O O3 0.151902 0.173417 0.481080
O O4 0.016374 0.318138 0.576512
O O5 0.647001 0.213417 0.283464
O O6 0.551152 0.238087 0.505157
O O7 0.703532 0.265076 0.389084
O O8 0.533197 0.554769 0.305164
O O9 0.409417 0.683477 0.373678
O O10 0.408417 0.786800 0.808954
O O11 0.420172 0.094309 0.709165
O O12 0.750000 0.750000 0.500000
O O13 0.661740 0.004399 0.522818
O O14 0.250000 0.750000 0.500000
#
# Coordination Sequence:
#
# PCOD9254467 Si02
#       7
#     8   8   4   8   8   8   8
#     4   8  15  27  47  70  98 125 170 216 252 288
#     4   7  14  26  46  76  99 117 167 227 251 290
#     4  10  16  30  58  78  94 134 182 208 256 310
#     4   9  14  27  48  72  95 133 169 209 253 303
#     4   8  13  24  47  76  94 120 172 221 246 292
#     4  11  21  31  47  76 109 134 169 210 258 314
#     4  10  20  35  54  77 105 133 174 222 263 306
#
# _framework density 27.493261
#
# number of rings (size 3 to 8) (size 9 to 14) (size 15 to 20)
#    0.000    3.077    1.538    3.231    0.000    0.000 
#    2.769    0.000    3.385    0.000    0.000    3.231 
#    0.000    0.000    0.000    0.000    0.000    0.000 
#
# Total GULP energy -145072.925540 kJ/mol
# GULP energy per Si atom -5579.727905 kJ/mol
# Density = 2.743069 g / cm^3
# Si number density = 27.493261 Si / 1000 Ang^3
#
#
#
# Elastic Constant Matrix: (Units=GPa)
#
#
# Indices 1 2 3 4 5 6 
#
# 1 286.4209 6.0566 43.5151 -0.0011 46.2982 0.0056
# 2 6.0566 91.0999 13.7859 0.0146 5.3885 0.0140
# 3 43.5151 13.7859 83.9747 0.0071 3.7353 0.0017
# 4 -0.0011 0.0146 0.0071 9.2012 0.0009 -5.8103
# 5 46.2982 5.3885 3.7353 0.0009 47.9441 0.0008
# 6 0.0056 0.0140 0.0017 -5.8103 0.0008 5.8660
#
#
#
# Elastic Compliance Matrix: (Units=1/GPa)
#
#
# Indices 1 2 3 4 5 6 
#
# 1 0.004498 0.000281 -0.002190 -0.000001 -0.004204 -0.000004
# 2 0.000281 0.011335 -0.001944 -0.000088 -0.001394 -0.000114
# 3 -0.002190 -0.001944 0.013305 -0.000015 0.001297 -0.000012
# 4 -0.000001 -0.000088 -0.000015 0.290176 0.000001 0.287417
# 5 -0.004204 -0.001394 0.001297 0.000001 0.024973 0.000005
# 6 -0.000004 -0.000114 -0.000012 0.287417 0.000005 0.455157
#
#
# Mechanical properties :
#
#
# Convention : Reuss Voigt Hill
#
# Bulk Modulus (GPa) = 46.66159 65.35673 56.00916
# Shear Modulus (GPa) = 6.14029 39.14480 22.64254
#
# Velocity S-wave (km/s) = 1.49607 3.77742 2.87290
# Velocity P-wave (km/s) = 4.47137 6.54589 5.60544
#
# Compressibility (1/GPa) = 0.02143090
#
# Stress axis : x y z
#
# Youngs Moduli (GPa) = 222.33533 88.22228 75.16177
#
# Poissons Ratio (x) = -0.02479 0.16459
# Poissons Ratio (y) = -0.06248 0.14615
# Poissons Ratio (z) = 0.48687 0.17154
#
# Static dielectric constant tensor:
#      x y z
#    x 2.366880 -0.000010 0.022320 
#    y -0.000010 2.130360 0.000000 
#    z 0.022320 0.000000 2.086500 
# 
# From -- ./inp_files/215017.got.cif
#   From: 2010.05.17/outbox.cif.g08.bks.cpg/sg15_108_cif.got.tgz:215017.got - 2010.06.03 18:47:42.
