data_PCOD9254114
_publ_section_title
;
Structure prediction by ZEFSAII (Michael W. Deem and Ramdas Pophale) SiO2 
 PCOD9254114
Probable space group: C 2/C
;
_chemical_formula_sum "Si O2"
_cell_formula_units_Z 40
_cell_length_a 6.561989
_cell_length_b 18.065609
_cell_length_c 11.807162
_cell_angle_alpha 90.000000
_cell_angle_beta 103.020848
_cell_angle_gamma 90.000000
_cell_volume 1363.706925
_symmetry_space_group_name_H-M "C 2/C"
_symmetry_group_IT_number 15
_symmetry_cell_setting 'monoclinic'
loop_
_space_group_symop_operation_xyz
x,y,z
-x,y,1/2-z
-x,-y,-z
x,-y,1/2+z
1/2+x,1/2+y,z
1/2-x,1/2+y,1/2-z
1/2-x,1/2-y,-z
1/2+x,1/2-y,1/2+z
loop_
_atom_site_type_symbol
_atom_site_label
_atom_site_fract_x
_atom_site_fract_y
_atom_site_fract_z
Si Si1 0.734701 0.654932 0.572882
Si Si2 0.265554 0.510618 0.359156
Si Si3 0.728944 0.724682 0.795236
Si Si4 0.674094 0.589160 0.347001
Si Si5 0.728816 0.849439 0.978486
O O1 0.775049 0.574892 0.633157
O O2 0.802005 0.716027 0.673848
O O3 0.795832 0.640729 0.448307
O O4 0.482592 0.662482 0.519581
O O5 0.517330 0.529912 0.386378
O O6 0.200495 0.541981 0.228133
O O7 0.186062 0.565641 0.445740
O O8 0.500000 0.688260 0.750000
O O9 0.680663 0.800048 0.860184
O O10 0.845686 0.677595 0.907253
O O11 0.500000 0.633270 0.250000
#
# Coordination Sequence:
#
# PCOD9254114 Si02
#       5
#     8   8   8   8   8
#     4  10  16  26  44  64  90 113 138 179 217 256
#     4   8  16  23  43  62  91 107 132 178 220 251
#     4   9  19  26  43  62  90 118 145 169 215 260
#     4   7  15  22  36  62  84 108 130 165 231 235
#     4   9  16  29  39  64  90 115 140 181 211 254
#
# _framework density 29.331814000000001
#
# number of rings (size 3 to 8) (size 9 to 14) (size 15 to 20)
#    1.200    2.000    0.000    2.400   11.200    0.000 
#    0.000    1.000    0.000    0.000    0.000   12.600 
#    6.000    0.000    0.000    0.000    0.000    0.000 
#
# Total GULP energy -111638.959827 kJ/mol
# GULP energy per Si atom -5581.947991 kJ/mol
# Density = 2.926505 g / cm^3
# Si number density = 29.331814 Si / 1000 Ang^3
#
#
#
# Elastic Constant Matrix: (Units=GPa)
#
#
# Indices 1 2 3 4 5 6 
#
# 1 59.1166 12.1357 42.8826 0.0000 -7.8706 0.0000
# 2 12.1357 180.6088 103.3093 0.0000 -5.2399 0.0000
# 3 42.8826 103.3093 256.8589 0.0000 9.2573 0.0000
# 4 0.0000 0.0000 0.0000 63.1448 0.0000 1.3572
# 5 -7.8706 -5.2399 9.2573 0.0000 77.3499 0.0000
# 6 0.0000 0.0000 0.0000 1.3572 0.0000 28.5170
#
#
#
# Elastic Compliance Matrix: (Units=1/GPa)
#
#
# Indices 1 2 3 4 5 6 
#
# 1 0.019791 0.000890 -0.003753 0.000000 0.002523 0.000000
# 2 0.000890 0.007286 -0.003113 0.000000 0.000957 0.000000
# 3 -0.003753 -0.003113 0.005818 0.000000 -0.001289 0.000000
# 4 0.000000 0.000000 0.000000 0.015853 0.000000 -0.000755
# 5 0.002523 0.000957 -0.001289 0.000000 0.013404 0.000000
# 6 0.000000 0.000000 0.000000 -0.000755 0.000000 0.035103
#
#
# Mechanical properties :
#
#
# Convention : Reuss Voigt Hill
#
# Bulk Modulus (GPa) = 47.74911 90.35995 69.05453
# Shear Modulus (GPa) = 43.03334 56.35277 49.69306
#
# Velocity S-wave (km/s) = 3.83446 4.38792 4.12049
# Velocity P-wave (km/s) = 5.99319 7.51963 6.79938
#
# Compressibility (1/GPa) = 0.02094280
#
# Stress axis : x y z
#
# Youngs Moduli (GPa) = 50.52689 137.25593 171.86675
#
# Poissons Ratio (x) = -0.12218 0.64504
# Poissons Ratio (y) = -0.04498 0.53509
# Poissons Ratio (z) = 0.18964 0.42733
#
# Static dielectric constant tensor:
#      x y z
#    x 2.573410 0.000000 -0.081200 
#    y 0.000000 2.135540 0.000000 
#    z -0.081200 0.000000 2.373400 
# 
# From -- ./inp_files/86891.got.cif
#   From: 2010.05.17/outbox.cif.g08.bks.cpg/sg15_44_cif.got.tgz:86891.got - 2010.06.03 18:47:42.
