data_PCOD9254280
_publ_section_title
;
Structure prediction by ZEFSAII (Michael W. Deem and Ramdas Pophale) SiO2 
 PCOD9254280
Probable space group: C 2/C
;
_chemical_formula_sum "Si O2"
_cell_formula_units_Z 52
_cell_length_a 21.306533
_cell_length_b 9.016467
_cell_length_c 14.461635
_cell_angle_alpha 90.000000
_cell_angle_beta 138.649177
_cell_angle_gamma 90.000000
_cell_volume 1835.480275
_symmetry_space_group_name_H-M "C 2/C"
_symmetry_group_IT_number 15
_symmetry_cell_setting 'monoclinic'
loop_
_space_group_symop_operation_xyz
x,y,z
-x,y,1/2-z
-x,-y,-z
x,-y,1/2+z
1/2+x,1/2+y,z
1/2-x,1/2+y,1/2-z
1/2-x,1/2-y,-z
1/2+x,1/2-y,1/2+z
loop_
_atom_site_type_symbol
_atom_site_label
_atom_site_fract_x
_atom_site_fract_y
_atom_site_fract_z
Si Si1 0.533608 0.789973 0.386886
Si Si2 0.733282 0.999538 0.461665
Si Si3 0.831785 0.187737 0.822854
Si Si4 0.000000 0.132951 0.750000
Si Si5 0.618558 0.577719 0.243766
Si Si6 0.949451 0.447821 0.849394
Si Si7 0.334526 0.252548 0.970242
O O1 0.500000 0.739289 0.250000
O O2 0.631096 0.728500 0.535317
O O3 0.454404 0.706702 0.362737
O O4 0.533270 0.967232 0.383433
O O5 0.789966 0.887421 0.591085
O O6 0.707053 0.132532 0.504291
O O7 0.801015 0.083034 0.463085
O O8 0.638410 0.966490 0.299860
O O9 0.854861 0.022232 0.814984
O O10 0.890359 0.300846 0.818409
O O11 0.719549 0.214612 0.683686
O O12 0.937173 0.034932 0.748669
O O13 0.945491 0.238034 0.615753
O O14 0.000000 0.500000 0.000000
#
# Coordination Sequence:
#
# PCOD9254280 Si02
#       7
#     8   8   8   4   8   8   8
#     4  11  22  37  57  83 123 151 180 237 300 337
#     4   8  15  31  53  81 109 143 193 229 279 334
#     4   9  19  39  63  81 110 153 200 230 274 340
#     4  10  16  28  56  90 114 138 188 242 292 318
#     4  10  19  34  61  86 111 149 191 242 282 341
#     4   9  18  34  57  81 109 153 191 226 277 342
#     4   8  15  29  56  84 109 139 186 249 274 319
#
# _framework density 28.330459000000001
#
# number of rings (size 3 to 8) (size 9 to 14) (size 15 to 20)
#    0.000    2.769    0.769    3.231    0.000    0.615 
#    5.538    0.000   20.308    0.000    0.000    0.000 
#    0.000    0.000    0.000    0.000    0.000    0.000 
#
# Total GULP energy -144980.423169 kJ/mol
# GULP energy per Si atom -5576.170122 kJ/mol
# Density = 2.826598 g / cm^3
# Si number density = 28.330459 Si / 1000 Ang^3
#
#
#
# Elastic Constant Matrix: (Units=GPa)
#
#
# Indices 1 2 3 4 5 6 
#
# 1 57.1546 18.2934 16.1596 0.0000 -12.5461 0.0000
# 2 18.2934 123.7748 35.2402 0.0000 8.4005 0.0000
# 3 16.1596 35.2402 219.3492 0.0000 -18.9075 0.0000
# 4 0.0000 0.0000 0.0000 22.8742 0.0000 0.2461
# 5 -12.5461 8.4005 -18.9075 0.0000 29.8825 0.0000
# 6 0.0000 0.0000 0.0000 0.2461 0.0000 23.9626
#
#
#
# Elastic Compliance Matrix: (Units=1/GPa)
#
#
# Indices 1 2 3 4 5 6 
#
# 1 0.020850 -0.003714 -0.000100 0.000000 0.009734 0.000000
# 2 -0.003714 0.009473 -0.001705 0.000000 -0.005301 0.000000
# 3 -0.000100 -0.001705 0.005159 0.000000 0.003702 0.000000
# 4 0.000000 0.000000 0.000000 0.043722 0.000000 -0.000449
# 5 0.009734 -0.005301 0.003702 0.000000 0.041384 0.000000
# 6 0.000000 0.000000 0.000000 -0.000449 0.000000 0.041736
#
#
# Mechanical properties :
#
#
# Convention : Reuss Voigt Hill
#
# Bulk Modulus (GPa) = 40.90939 59.96279 50.43609
# Shear Modulus (GPa) = 27.54638 37.38289 32.46464
#
# Velocity S-wave (km/s) = 3.12159 3.63647 3.38883
# Velocity P-wave (km/s) = 5.24060 6.23244 5.75792
#
# Compressibility (1/GPa) = 0.02444427
#
# Stress axis : x y z
#
# Youngs Moduli (GPa) = 47.96121 105.55891 193.82106
#
# Poissons Ratio (x) = 0.39201 0.01945
# Poissons Ratio (y) = 0.17811 0.33053
# Poissons Ratio (z) = 0.00481 0.18001
#
# Static dielectric constant tensor:
#      x y z
#    x 1.997190 0.000000 -0.013690 
#    y 0.000000 1.916850 0.000000 
#    z -0.013690 0.000000 2.262810 
# 
# From -- ./inp_files/224928.got.cif
#   From: 2010.05.17/outbox.cif.g08.bks.cpg/sg15_113_cif.got.tgz:224928.got - 2010.06.03 18:47:42.
