data_PCOD9254685
_publ_section_title
;
Structure prediction by ZEFSAII (Michael W. Deem and Ramdas Pophale) SiO2 
 PCOD9254685
Probable space group: C 2/C
;
_chemical_formula_sum "Si O2"
_cell_formula_units_Z 40
_cell_length_a 21.936532
_cell_length_b 11.691651
_cell_length_c 8.991229
_cell_angle_alpha 90.000000
_cell_angle_beta 104.339771
_cell_angle_gamma 90.000000
_cell_volume 2234.172734
_symmetry_space_group_name_H-M "C 2/C"
_symmetry_group_IT_number 15
_symmetry_cell_setting 'monoclinic'
loop_
_space_group_symop_operation_xyz
x,y,z
-x,y,1/2-z
-x,-y,-z
x,-y,1/2+z
1/2+x,1/2+y,z
1/2-x,1/2+y,1/2-z
1/2-x,1/2-y,-z
1/2+x,1/2-y,1/2+z
loop_
_atom_site_type_symbol
_atom_site_label
_atom_site_fract_x
_atom_site_fract_y
_atom_site_fract_z
Si Si1 0.743797 0.013925 0.795797
Si Si2 0.199579 0.151598 0.935714
Si Si3 0.090728 0.677171 0.405927
Si Si4 0.345058 0.062556 0.500922
Si Si5 0.531596 0.876989 0.551249
O O1 0.782466 0.095245 0.710268
O O2 0.694149 0.078860 0.872708
O O3 0.702142 0.928509 0.667232
O O4 0.788941 0.943764 0.931912
O O5 0.132566 0.212355 0.903509
O O6 0.250000 0.250000 0.000000
O O7 0.132953 0.571348 0.489944
O O8 0.030554 0.700779 0.475143
O O9 0.063577 0.630561 0.232757
O O10 0.409210 0.134406 0.523393
O O11 0.500000 0.000000 0.500000
#
# Coordination Sequence:
#
# PCOD9254685 Si02
#       5
#     8   8   8   8   8
#     4  10  20  31  57  86 113 156 190 230 280 349
#     4  11  20  37  57  79 121 156 189 232 291 341
#     4  10  18  32  55  77 113 152 170 228 304 339
#     4  10  16  33  52  83 113 138 184 233 289 338
#     4   9  18  30  55  85 106 140 192 237 290 342
#
# _framework density 17.903718000000001
#
# number of rings (size 3 to 8) (size 9 to 14) (size 15 to 20)
#    0.000    2.000    6.000    0.000    0.000    0.000 
#    0.000    9.000    0.000    4.800    0.000    0.000 
#    0.000    0.000    0.000    0.000    0.000    0.000 
#
# Total GULP energy -111396.358498 kJ/mol
# GULP energy per Si atom -5569.817925 kJ/mol
# Density = 1.786297 g / cm^3
# Si number density = 17.903718 Si / 1000 Ang^3
#
#
#
# Elastic Constant Matrix: (Units=GPa)
#
#
# Indices 1 2 3 4 5 6 
#
# 1 161.5792 57.0583 51.7251 0.0000 -9.3179 0.0000
# 2 57.0583 47.7948 28.9461 0.0000 -9.4067 0.0000
# 3 51.7251 28.9461 84.6220 0.0000 -11.1780 0.0000
# 4 0.0000 0.0000 0.0000 19.6326 0.0000 0.7726
# 5 -9.3179 -9.4067 -11.1780 0.0000 25.0396 0.0000
# 6 0.0000 0.0000 0.0000 0.7726 0.0000 36.3271
#
#
#
# Elastic Compliance Matrix: (Units=1/GPa)
#
#
# Indices 1 2 3 4 5 6 
#
# 1 0.011289 -0.011969 -0.003023 0.000000 -0.001645 0.000000
# 2 -0.011969 0.040036 -0.005292 0.000000 0.008224 0.000000
# 3 -0.003023 -0.005292 0.016008 0.000000 0.004033 0.000000
# 4 0.000000 0.000000 0.000000 0.050978 0.000000 -0.001084
# 5 -0.001645 0.008224 0.004033 0.000000 0.044214 0.000000
# 6 0.000000 0.000000 0.000000 -0.001084 0.000000 0.027551
#
#
# Mechanical properties :
#
#
# Convention : Reuss Voigt Hill
#
# Bulk Modulus (GPa) = 37.36503 63.27275 50.31889
# Shear Modulus (GPa) = 20.87104 26.61762 23.74433
#
# Velocity S-wave (km/s) = 3.41799 3.85997 3.64569
# Velocity P-wave (km/s) = 6.04088 7.43526 6.77404
#
# Compressibility (1/GPa) = 0.02676299
#
# Stress axis : x y z
#
# Youngs Moduli (GPa) = 88.58538 24.97768 62.46800
#
# Poissons Ratio (x) = 0.29897 0.18885
# Poissons Ratio (y) = 1.06031 0.33059
# Poissons Ratio (z) = 0.26781 0.13219
#
# Static dielectric constant tensor:
#      x y z
#    x 1.679290 0.000000 -0.006260 
#    y 0.000000 1.592100 0.000000 
#    z -0.006260 0.000000 1.644010 
# 
# From -- ./inp_files/54125.got.cif
#   From: 2010.05.17/outbox.cif.g08.bks.cpg/sg15_28_cif.got.tgz:54125.got - 2010.06.03 18:47:42.
