data_PCOD9254660
_publ_section_title
;
Structure prediction by ZEFSAII (Michael W. Deem and Ramdas Pophale) SiO2 
 PCOD9254660
Probable space group: C 2/C
;
_chemical_formula_sum "Si O2"
_cell_formula_units_Z 60
_cell_length_a 15.395866
_cell_length_b 9.717992
_cell_length_c 18.969603
_cell_angle_alpha 90.000000
_cell_angle_beta 99.703822
_cell_angle_gamma 90.000000
_cell_volume 2797.565308
_symmetry_space_group_name_H-M "C 2/C"
_symmetry_group_IT_number 15
_symmetry_cell_setting 'monoclinic'
loop_
_space_group_symop_operation_xyz
x,y,z
-x,y,1/2-z
-x,-y,-z
x,-y,1/2+z
1/2+x,1/2+y,z
1/2-x,1/2+y,1/2-z
1/2-x,1/2-y,-z
1/2+x,1/2-y,1/2+z
loop_
_atom_site_type_symbol
_atom_site_label
_atom_site_fract_x
_atom_site_fract_y
_atom_site_fract_z
Si Si1 0.000000 0.233799 0.250000
Si Si2 0.281362 0.102223 0.856397
Si Si3 0.695290 0.496459 0.971555
Si Si4 0.343802 0.630860 0.896989
Si Si5 0.966136 0.190429 0.548223
Si Si6 0.927083 0.166172 0.385222
Si Si7 0.821399 0.353397 0.596149
Si Si8 0.180347 0.597955 0.794571
O O1 0.982239 0.155972 0.321044
O O2 0.910416 0.320086 0.225962
O O3 0.254971 0.987717 0.910243
O O4 0.370087 0.192794 0.877802
O O5 0.208954 0.221002 0.862980
O O6 0.286629 0.049749 0.777671
O O7 0.599057 0.561689 0.942680
O O8 0.683397 0.371961 0.024242
O O9 0.748428 0.606954 0.027622
O O10 0.439373 0.696477 0.902793
O O11 0.365241 0.469533 0.880095
O O12 0.263265 0.680211 0.838783
O O13 0.977971 0.175063 0.466020
O O14 0.908778 0.319033 0.564717
O O15 0.834713 0.476792 0.651882
#
# Coordination Sequence:
#
# PCOD9254660 Si02
#       8
#     4   8   8   8   8   8   8   8
#     4  10  24  40  58  72 114 154 196 220 282 348
#     4  10  16  32  60  83 106 155 192 227 274 340
#     4   9  15  30  58  84 108 144 192 225 268 335
#     4  10  20  35  56  88 119 134 182 247 284 321
#     4  10  17  32  58  88 112 143 183 232 285 331
#     4  10  17  36  59  84 106 148 190 231 272 340
#     4  10  17  35  57  83 115 144 191 232 273 330
#     4  10  22  39  54  80 114 152 187 232 282 331
#
# _framework density 21.447220000000002
#
# number of rings (size 3 to 8) (size 9 to 14) (size 15 to 20)
#    0.000    2.133    5.333    2.400    0.000    0.000 
#    9.600    1.333    0.000    0.000    0.000    0.000 
#    0.000    0.000    0.000    0.000    0.000    0.000 
#
# Total GULP energy -167199.643671 kJ/mol
# GULP energy per Si atom -5573.321456 kJ/mol
# Density = 2.139841 g / cm^3
# Si number density = 21.447220 Si / 1000 Ang^3
#
#
#
# Elastic Constant Matrix: (Units=GPa)
#
#
# Indices 1 2 3 4 5 6 
#
# 1 141.0056 19.5908 61.4793 0.0000 -0.4844 0.0000
# 2 19.5908 23.1006 21.1444 0.0000 -5.2328 0.0000
# 3 61.4793 21.1444 101.2399 0.0000 -20.5873 0.0000
# 4 0.0000 0.0000 0.0000 19.2515 0.0000 -2.1846
# 5 -0.4844 -5.2328 -20.5873 0.0000 48.6709 0.0000
# 6 0.0000 0.0000 0.0000 -2.1846 0.0000 23.1244
#
#
#
# Elastic Compliance Matrix: (Units=1/GPa)
#
#
# Indices 1 2 3 4 5 6 
#
# 1 0.010225 -0.003836 -0.005986 0.000000 -0.002843 0.000000
# 2 -0.003836 0.055016 -0.008715 0.000000 0.002190 0.000000
# 3 -0.005986 -0.008715 0.016554 0.000000 0.006006 0.000000
# 4 0.000000 0.000000 0.000000 0.052507 0.000000 0.004960
# 5 -0.002843 0.002190 0.006006 0.000000 0.023294 0.000000
# 6 0.000000 0.000000 0.000000 0.004960 0.000000 0.043713
#
#
# Mechanical properties :
#
#
# Convention : Reuss Voigt Hill
#
# Bulk Modulus (GPa) = 22.36154 52.19722 37.27938
# Shear Modulus (GPa) = 19.74014 29.08479 24.41246
#
# Velocity S-wave (km/s) = 3.03711 3.68653 3.37747
# Velocity P-wave (km/s) = 4.76945 6.52005 5.71221
#
# Compressibility (1/GPa) = 0.04471964
#
# Stress axis : x y z
#
# Youngs Moduli (GPa) = 97.79772 18.17661 60.40742
#
# Poissons Ratio (x) = 0.06973 0.36161
# Poissons Ratio (y) = 0.37517 0.52647
# Poissons Ratio (z) = 0.58544 0.15841
#
# Static dielectric constant tensor:
#      x y z
#    x 1.811420 0.000000 -0.004270 
#    y 0.000000 1.829720 0.000000 
#    z -0.004270 0.000000 1.798820 
# 
# From -- ./inp_files/243389.got.cif
#   From: 2010.05.17/outbox.cif.g08.bks.cpg/sg15_122_cif.got.tgz:243389.got - 2010.06.03 18:47:42.
