data_PCOD9254450
_publ_section_title
;
Structure prediction by ZEFSAII (Michael W. Deem and Ramdas Pophale) SiO2 
 PCOD9254450
Probable space group: C 2/C
;
_chemical_formula_sum "Si O2"
_cell_formula_units_Z 56
_cell_length_a 18.006069
_cell_length_b 7.044552
_cell_length_c 18.358982
_cell_angle_alpha 90.000000
_cell_angle_beta 107.343008
_cell_angle_gamma 90.000000
_cell_volume 2222.868617
_symmetry_space_group_name_H-M "C 2/C"
_symmetry_group_IT_number 15
_symmetry_cell_setting 'monoclinic'
loop_
_space_group_symop_operation_xyz
x,y,z
-x,y,1/2-z
-x,-y,-z
x,-y,1/2+z
1/2+x,1/2+y,z
1/2-x,1/2+y,1/2-z
1/2-x,1/2-y,-z
1/2+x,1/2-y,1/2+z
loop_
_atom_site_type_symbol
_atom_site_label
_atom_site_fract_x
_atom_site_fract_y
_atom_site_fract_z
Si Si1 0.519735 0.316779 0.618794
Si Si2 0.851177 0.082854 0.241917
Si Si3 0.206443 0.485129 0.946117
Si Si4 0.192145 0.475726 0.777118
Si Si5 0.055873 0.664011 0.483365
Si Si6 0.153939 0.918900 0.922974
Si Si7 0.032833 0.382780 0.679339
O O1 0.569439 0.438704 0.690334
O O2 0.565240 0.298991 0.555668
O O3 0.433222 0.384554 0.576030
O O4 0.512934 0.105066 0.653389
O O5 0.840639 0.310630 0.231269
O O6 0.774791 0.019313 0.262313
O O7 0.852673 0.005357 0.160931
O O8 0.201148 0.406510 0.862683
O O9 0.136687 0.417406 0.977521
O O10 0.192906 0.710821 0.931278
O O11 0.289254 0.460122 0.009582
O O12 0.126078 0.364182 0.712456
O O13 0.000000 0.500000 0.500000
O O14 0.008648 0.728855 0.398082
O O15 0.000000 0.345427 0.750000
#
# Coordination Sequence:
#
# PCOD9254450 Si02
#       7
#     8   8   8   8   8   8   8
#     4  10  19  33  53  84 110 152 201 248 289 353
#     4  10  22  36  61  82 117 150 203 247 300 356
#     4  10  19  32  52  87 120 143 189 250 303 350
#     4  10  21  37  56  88 115 155 193 251 299 358
#     4  10  18  28  52  85 116 143 188 250 304 337
#     4  10  19  32  57  84 112 151 198 243 294 355
#     4  10  16  30  55  78 114 144 196 246 294 335
#
# _framework density 25.192672000000002
#
# number of rings (size 3 to 8) (size 9 to 14) (size 15 to 20)
#    0.000    2.000    4.286    2.143    6.000    1.143 
#    0.000    1.429    0.000    1.714    0.000    0.000 
#    0.000    0.000    0.000    0.000    0.000    0.000 
#
# Total GULP energy -156826.129200 kJ/mol
# GULP energy per Si atom -5600.933186 kJ/mol
# Density = 2.513533 g / cm^3
# Si number density = 25.192672 Si / 1000 Ang^3
#
#
#
# Elastic Constant Matrix: (Units=GPa)
#
#
# Indices 1 2 3 4 5 6 
#
# 1 90.5662 -8.8012 42.5410 0.0000 9.9838 0.0000
# 2 -8.8012 64.3216 25.4807 0.0000 6.5158 0.0000
# 3 42.5410 25.4807 173.9846 0.0000 13.4498 0.0000
# 4 0.0000 0.0000 0.0000 16.9117 0.0000 -0.5208
# 5 9.9838 6.5158 13.4498 0.0000 59.8071 0.0000
# 6 0.0000 0.0000 0.0000 -0.5208 0.0000 23.2388
#
#
#
# Elastic Compliance Matrix: (Units=1/GPa)
#
#
# Indices 1 2 3 4 5 6 
#
# 1 0.013265 0.003424 -0.003608 0.000000 -0.001776 0.000000
# 2 0.003424 0.017485 -0.003263 0.000000 -0.001743 0.000000
# 3 -0.003608 -0.003263 0.007158 0.000000 -0.000652 0.000000
# 4 0.000000 0.000000 0.000000 0.059171 0.000000 0.001326
# 5 -0.001776 -0.001743 -0.000652 0.000000 0.017353 0.000000
# 6 0.000000 0.000000 0.000000 0.001326 0.000000 0.043061
#
#
# Mechanical properties :
#
#
# Convention : Reuss Voigt Hill
#
# Bulk Modulus (GPa) = 32.24348 49.70148 40.97248
# Shear Modulus (GPa) = 28.61646 37.96832 33.29239
#
# Velocity S-wave (km/s) = 3.37397 3.88637 3.63920
# Velocity P-wave (km/s) = 5.29196 6.31743 5.82729
#
# Compressibility (1/GPa) = 0.03101403
#
# Stress axis : x y z
#
# Youngs Moduli (GPa) = 75.38799 57.19315 139.70352
#
# Poissons Ratio (x) = -0.19583 0.50398
# Poissons Ratio (y) = -0.25813 0.45588
# Poissons Ratio (z) = 0.27196 0.18663
#
# Static dielectric constant tensor:
#      x y z
#    x 1.909620 0.000000 0.026940 
#    y 0.000000 2.106410 0.000000 
#    z 0.026940 0.000000 1.957770 
# 
# From -- ./inp_files/209617.got.cif
#   From: 2010.05.17/outbox.cif.g08.bks.cpg/sg15_105_cif.got.tgz:209617.got - 2010.06.03 18:47:42.
