data_PCOD9254872
_publ_section_title
;
Structure prediction by ZEFSAII (Michael W. Deem and Ramdas Pophale) SiO2 
 PCOD9254872
Probable space group: C 2/C
;
_chemical_formula_sum "Si O2"
_cell_formula_units_Z 52
_cell_length_a 21.064479
_cell_length_b 8.087587
_cell_length_c 13.665704
_cell_angle_alpha 90.000000
_cell_angle_beta 113.763328
_cell_angle_gamma 90.000000
_cell_volume 2130.718812
_symmetry_space_group_name_H-M "C 2/C"
_symmetry_group_IT_number 15
_symmetry_cell_setting 'monoclinic'
loop_
_space_group_symop_operation_xyz
x,y,z
-x,y,1/2-z
-x,-y,-z
x,-y,1/2+z
1/2+x,1/2+y,z
1/2-x,1/2+y,1/2-z
1/2-x,1/2-y,-z
1/2+x,1/2-y,1/2+z
loop_
_atom_site_type_symbol
_atom_site_label
_atom_site_fract_x
_atom_site_fract_y
_atom_site_fract_z
Si Si1 0.725464 0.616053 0.282234
Si Si2 0.900859 0.306684 0.603865
Si Si3 0.543110 0.916335 0.610741
Si Si4 0.780677 0.294687 0.412326
Si Si5 0.591678 0.402275 0.194812
Si Si6 0.500000 0.628509 0.250000
Si Si7 0.873338 0.633845 0.687244
O O1 0.770282 0.483515 0.369741
O O2 0.752416 0.687069 0.196130
O O3 0.655592 0.517474 0.211299
O O4 0.696247 0.768884 0.328407
O O5 0.861768 0.253565 0.481226
O O6 0.892695 0.181348 0.688879
O O7 0.865755 0.481891 0.609497
O O8 0.981100 0.347024 0.639887
O O9 0.583856 0.747697 0.614369
O O10 0.500000 0.000000 0.500000
O O11 0.591777 0.046174 0.696143
O O12 0.750000 0.250000 0.500000
O O13 0.524258 0.514740 0.174251
O O14 0.567089 0.740776 0.313550
#
# Coordination Sequence:
#
# PCOD9254872 Si02
#       7
#     8   8   8   8   8   4   8
#     4  11  27  47  73 102 137 184 246 297 350 427
#     4  11  21  43  71 100 139 190 229 279 361 413
#     4  11  21  38  65 106 141 183 225 285 355 427
#     4  12  28  51  72 100 143 188 242 300 355 414
#     4  10  20  41  69  97 144 181 228 292 348 418
#     4  10  16  36  64  96 134 172 218 276 348 410
#     4  10  21  41  68 103 136 183 234 285 346 428
#
# _framework density 24.404911999999999
#
# number of rings (size 3 to 8) (size 9 to 14) (size 15 to 20)
#    0.000    1.231    4.615    1.846    2.154    1.846 
#    5.538    2.308    0.000    0.000    0.000    0.000 
#    0.000    0.000    0.000    0.000    0.000    0.000 
#
# Total GULP energy -145396.741580 kJ/mol
# GULP energy per Si atom -5592.182368 kJ/mol
# Density = 2.434936 g / cm^3
# Si number density = 24.404912 Si / 1000 Ang^3
#
#
#
# Elastic Constant Matrix: (Units=GPa)
#
#
# Indices 1 2 3 4 5 6 
#
# 1 65.1408 4.5989 -2.6568 0.0000 -10.9100 0.0000
# 2 4.5989 105.5396 11.8934 0.0000 -12.0421 0.0000
# 3 -2.6568 11.8934 81.9345 0.0000 -1.2785 0.0000
# 4 0.0000 0.0000 0.0000 26.0293 0.0000 0.5680
# 5 -10.9100 -12.0421 -1.2785 0.0000 24.4822 0.0000
# 6 0.0000 0.0000 0.0000 0.5680 0.0000 43.5702
#
#
#
# Elastic Compliance Matrix: (Units=1/GPa)
#
#
# Indices 1 2 3 4 5 6 
#
# 1 0.016625 0.000055 0.000648 0.000000 0.007469 0.000000
# 2 0.000055 0.010197 -0.001401 0.000000 0.004967 0.000000
# 3 0.000648 -0.001401 0.012433 0.000000 0.000249 0.000000
# 4 0.000000 0.000000 0.000000 0.038429 0.000000 -0.000501
# 5 0.007469 0.004967 0.000249 0.000000 0.046631 0.000000
# 6 0.000000 0.000000 0.000000 -0.000501 0.000000 0.022958
#
#
# Mechanical properties :
#
#
# Convention : Reuss Voigt Hill
#
# Bulk Modulus (GPa) = 26.41415 31.14289 28.77852
# Shear Modulus (GPa) = 31.00013 34.73497 32.86755
#
# Velocity S-wave (km/s) = 3.56791 3.77673 3.67380
# Velocity P-wave (km/s) = 5.27448 5.63976 5.46017
#
# Compressibility (1/GPa) = 0.03785849
#
# Stress axis : x y z
#
# Youngs Moduli (GPa) = 60.15071 98.06474 80.43040
#
# Poissons Ratio (x) = -0.00538 -0.05209
# Poissons Ratio (y) = -0.00330 0.11268
# Poissons Ratio (z) = -0.03896 0.13738
#
# Static dielectric constant tensor:
#      x y z
#    x 2.053850 0.000000 0.012040 
#    y 0.000000 1.981280 0.000000 
#    z 0.012040 0.000000 1.959520 
# 
# From -- ./inp_files/172054.got.cif
#   From: 2010.05.17/outbox.cif.g08.bks.cpg/sg15_87_cif.got.tgz:172054.got - 2010.06.03 18:47:42.
