data_PCOD9254712
_publ_section_title
;
Structure prediction by ZEFSAII (Michael W. Deem and Ramdas Pophale) SiO2 
 PCOD9254712
Probable space group: C 2/C
;
_chemical_formula_sum "Si O2"
_cell_formula_units_Z 36
_cell_length_a 16.760087
_cell_length_b 20.685845
_cell_length_c 7.208542
_cell_angle_alpha 90.000000
_cell_angle_beta 127.351631
_cell_angle_gamma 90.000000
_cell_volume 1986.663266
_symmetry_space_group_name_H-M "C 2/C"
_symmetry_group_IT_number 15
_symmetry_cell_setting 'monoclinic'
loop_
_space_group_symop_operation_xyz
x,y,z
-x,y,1/2-z
-x,-y,-z
x,-y,1/2+z
1/2+x,1/2+y,z
1/2-x,1/2+y,1/2-z
1/2-x,1/2-y,-z
1/2+x,1/2-y,1/2+z
loop_
_atom_site_type_symbol
_atom_site_label
_atom_site_fract_x
_atom_site_fract_y
_atom_site_fract_z
Si Si1 0.666734 0.696068 0.236213
Si Si2 0.500000 0.720127 0.750000
Si Si3 0.344320 0.176190 0.199542
Si Si4 0.502253 0.923855 0.973406
Si Si5 0.307687 0.843336 0.225387
O O1 0.756278 0.697243 0.211324
O O2 0.705996 0.653656 0.462914
O O3 0.565587 0.678871 0.985766
O O4 0.652308 0.771382 0.270594
O O5 0.576417 0.767618 0.745587
O O6 0.405986 0.119137 0.389339
O O7 0.297572 0.154854 0.934683
O O8 0.500000 0.912635 0.750000
O O9 0.605169 0.894281 0.195654
O O10 0.500000 0.000000 0.000000
#
# Coordination Sequence:
#
# PCOD9254712 Si02
#       5
#     8   4   8   8   8
#     4  10  19  30  53  70 102 141 168 206 269 304
#     4  10  16  34  46  72 104 132 164 222 246 310
#     4  10  18  34  48  70 109 136 163 211 263 301
#     4  10  20  33  50  74 111 136 170 213 254 314
#     4   9  18  34  44  74 103 131 172 210 245 320
#
# _framework density 18.120837000000002
#
# number of rings (size 3 to 8) (size 9 to 14) (size 15 to 20)
#    0.000    2.222    5.556    2.667    3.111    0.000 
#    0.000    3.333    0.000    0.000    0.000    1.556 
#    0.000    0.000    0.000    0.000    0.000    0.000 
#
# Total GULP energy -100252.871117 kJ/mol
# GULP energy per Si atom -5569.603951 kJ/mol
# Density = 1.807959 g / cm^3
# Si number density = 18.120837 Si / 1000 Ang^3
#
#
#
# Elastic Constant Matrix: (Units=GPa)
#
#
# Indices 1 2 3 4 5 6 
#
# 1 52.7426 15.0353 28.9971 0.0000 -1.4868 0.0000
# 2 15.0353 86.0829 41.3151 0.0000 16.3981 0.0000
# 3 28.9971 41.3151 160.5284 0.0000 1.9914 0.0000
# 4 0.0000 0.0000 0.0000 26.5419 0.0000 2.4677
# 5 -1.4868 16.3981 1.9914 0.0000 27.6455 0.0000
# 6 0.0000 0.0000 0.0000 2.4677 0.0000 19.0802
#
#
#
# Elastic Compliance Matrix: (Units=1/GPa)
#
#
# Indices 1 2 3 4 5 6 
#
# 1 0.021618 -0.002815 -0.003219 0.000000 0.003064 0.000000
# 2 -0.002815 0.015446 -0.003354 0.000000 -0.009072 0.000000
# 3 -0.003219 -0.003354 0.007658 0.000000 0.001265 0.000000
# 4 0.000000 0.000000 0.000000 0.038135 0.000000 -0.004932
# 5 0.003064 -0.009072 0.001265 0.000000 0.041627 0.000000
# 6 0.000000 0.000000 0.000000 -0.004932 0.000000 0.053048
#
#
# Mechanical properties :
#
#
# Convention : Reuss Voigt Hill
#
# Bulk Modulus (GPa) = 38.53935 52.22767 45.38351
# Shear Modulus (GPa) = 24.39522 28.92061 26.65792
#
# Velocity S-wave (km/s) = 3.67311 3.99931 3.83968
# Velocity P-wave (km/s) = 6.26922 7.08593 6.69005
#
# Compressibility (1/GPa) = 0.02594751
#
# Stress axis : x y z
#
# Youngs Moduli (GPa) = 46.25699 64.73995 130.57458
#
# Poissons Ratio (x) = 0.18223 0.42027
# Poissons Ratio (y) = 0.13020 0.43800
# Poissons Ratio (z) = 0.14888 0.21717
#
# Static dielectric constant tensor:
#      x y z
#    x 1.667460 0.000000 -0.016390 
#    y 0.000000 1.657050 0.000000 
#    z -0.016390 0.000000 1.739630 
# 
# From -- ./inp_files/57367.got.cif
#   From: 2010.05.17/outbox.cif.g08.bks.cpg/sg15_29_cif.got.tgz:57367.got - 2010.06.03 18:47:42.
