data_PCOD9254691
_publ_section_title
;
Structure prediction by ZEFSAII (Michael W. Deem and Ramdas Pophale) SiO2 
 PCOD9254691
Probable space group: C 2/C
;
_chemical_formula_sum "Si O2"
_cell_formula_units_Z 44
_cell_length_a 6.279561
_cell_length_b 30.072448
_cell_length_c 12.380175
_cell_angle_alpha 90.000000
_cell_angle_beta 103.181042
_cell_angle_gamma 90.000000
_cell_volume 2276.300970
_symmetry_space_group_name_H-M "C 2/C"
_symmetry_group_IT_number 15
_symmetry_cell_setting 'monoclinic'
loop_
_space_group_symop_operation_xyz
x,y,z
-x,y,1/2-z
-x,-y,-z
x,-y,1/2+z
1/2+x,1/2+y,z
1/2-x,1/2+y,1/2-z
1/2-x,1/2-y,-z
1/2+x,1/2-y,1/2+z
loop_
_atom_site_type_symbol
_atom_site_label
_atom_site_fract_x
_atom_site_fract_y
_atom_site_fract_z
Si Si1 0.000000 0.869653 0.250000
Si Si2 0.753763 0.293464 0.379444
Si Si3 0.104790 0.727282 0.075715
Si Si4 0.337518 0.530697 0.133380
Si Si5 0.500000 0.000527 0.750000
Si Si6 0.000000 0.773830 0.750000
Si Si7 0.602352 0.554265 0.597797
O O1 0.196230 0.837627 0.308948
O O2 0.058903 0.900545 0.155763
O O3 0.529375 0.267920 0.384765
O O4 0.910417 0.301582 0.500745
O O5 0.886708 0.258571 0.323191
O O6 0.287127 0.703396 0.171411
O O7 0.250000 0.750000 0.000000
O O8 0.500000 0.543763 0.250000
O O9 0.104135 0.527779 0.164504
O O10 0.407577 0.480763 0.102593
O O11 0.362939 0.558368 0.026553
O O12 0.312167 0.030741 0.676016
#
# Coordination Sequence:
#
# PCOD9254691 Si02
#       7
#     4   8   8   8   4   4   8
#     4  12  20  36  52  88 128 152 186 266 316 350
#     4  10  20  32  52  83 118 144 191 234 308 355
#     4   9  18  33  52  79 109 150 188 235 277 362
#     4   9  18  35  55  79 113 155 203 239 283 357
#     4  10  16  33  54  82 114 153 204 243 290 352
#     4  10  16  33  56  80 110 143 192 239 284 354
#     4  10  20  33  52  86 120 149 191 247 302 353
#
# _framework density 19.329605999999998
#
# number of rings (size 3 to 8) (size 9 to 14) (size 15 to 20)
#    0.000    2.182    4.545    0.545    0.000    0.727 
#    0.000    0.000    0.000    0.000   26.000    0.000 
#    0.000    0.000    0.000    0.000    0.000    0.727 
#
# Total GULP energy -122520.473170 kJ/mol
# GULP energy per Si atom -5569.112417 kJ/mol
# Density = 1.928561 g / cm^3
# Si number density = 19.329606 Si / 1000 Ang^3
#
#
#
# Elastic Constant Matrix: (Units=GPa)
#
#
# Indices 1 2 3 4 5 6 
#
# 1 96.3811 7.1041 32.9026 0.0000 -9.3553 0.0000
# 2 7.1041 35.0334 24.8632 0.0000 1.0884 0.0000
# 3 32.9026 24.8632 128.5765 0.0000 -0.8986 0.0000
# 4 0.0000 0.0000 0.0000 29.8428 0.0000 2.5855
# 5 -9.3553 1.0884 -0.8986 0.0000 53.6737 0.0000
# 6 0.0000 0.0000 0.0000 2.5855 0.0000 3.1690
#
#
#
# Elastic Compliance Matrix: (Units=1/GPa)
#
#
# Indices 1 2 3 4 5 6 
#
# 1 0.011577 -0.000367 -0.002878 0.000000 0.001977 0.000000
# 2 -0.000367 0.033129 -0.006318 0.000000 -0.000841 0.000000
# 3 -0.002878 -0.006318 0.009734 0.000000 -0.000210 0.000000
# 4 0.000000 0.000000 0.000000 0.036058 0.000000 -0.029418
# 5 0.001977 -0.000841 -0.000210 0.000000 0.018989 0.000000
# 6 0.000000 0.000000 0.000000 -0.029418 0.000000 0.339554
#
#
# Mechanical properties :
#
#
# Convention : Reuss Voigt Hill
#
# Bulk Modulus (GPa) = 28.31703 43.30343 35.81023
# Shear Modulus (GPa) = 10.41802 30.34519 20.38160
#
# Velocity S-wave (km/s) = 2.32408 3.96647 3.25071
# Velocity P-wave (km/s) = 4.67795 6.59003 5.71453
#
# Compressibility (1/GPa) = 0.03531444
#
# Stress axis : x y z
#
# Youngs Moduli (GPa) = 86.37950 30.18526 102.73058
#
# Poissons Ratio (x) = 0.01107 0.29564
# Poissons Ratio (y) = 0.03167 0.64908
# Poissons Ratio (z) = 0.24858 0.19072
#
# Static dielectric constant tensor:
#      x y z
#    x 1.704830 0.000000 0.045890 
#    y 0.000000 1.642220 0.000000 
#    z 0.045890 0.000000 1.778910 
# 
# From -- ./inp_files/74055.got.cif
#   From: 2010.05.17/outbox.cif.g08.bks.cpg/sg15_38_cif.got.tgz:74055.got - 2010.06.03 18:47:42.
