data_PCOD9254314
_publ_section_title
;
Structure prediction by ZEFSAII (Michael W. Deem and Ramdas Pophale) SiO2 
 PCOD9254314
Probable space group: C 2/C
;
_chemical_formula_sum "Si O2"
_cell_formula_units_Z 56
_cell_length_a 10.332794
_cell_length_b 32.951222
_cell_length_c 8.267945
_cell_angle_alpha 90.000000
_cell_angle_beta 64.967803
_cell_angle_gamma 90.000000
_cell_volume 2550.637270
_symmetry_space_group_name_H-M "C 2/C"
_symmetry_group_IT_number 15
_symmetry_cell_setting 'monoclinic'
loop_
_space_group_symop_operation_xyz
x,y,z
-x,y,1/2-z
-x,-y,-z
x,-y,1/2+z
1/2+x,1/2+y,z
1/2-x,1/2+y,1/2-z
1/2-x,1/2-y,-z
1/2+x,1/2-y,1/2+z
loop_
_atom_site_type_symbol
_atom_site_label
_atom_site_fract_x
_atom_site_fract_y
_atom_site_fract_z
Si Si1 0.254117 0.437842 0.166572
Si Si2 0.570204 0.714578 0.537316
Si Si3 0.776993 0.588434 0.303025
Si Si4 0.103817 0.303122 0.539395
Si Si5 0.169077 0.014081 0.183701
Si Si6 0.489006 0.369792 0.058235
Si Si7 0.042620 0.389816 0.474254
O O1 0.306563 0.467513 0.283540
O O2 0.364709 0.401033 0.080902
O O3 0.110099 0.416856 0.299684
O O4 0.253798 0.467392 0.013414
O O5 0.500000 0.720738 0.750000
O O6 0.733698 0.700086 0.480111
O O7 0.573085 0.760183 0.467822
O O8 0.481643 0.677348 0.509119
O O9 0.728985 0.542645 0.294444
O O10 0.633115 0.613314 0.403949
O O11 0.870427 0.595140 0.413040
O O12 0.877103 0.603817 0.103482
O O13 0.081428 0.342394 0.440461
O O14 0.000000 0.308987 0.750000
O O15 0.000000 0.020416 0.250000
O O16 0.500000 0.369722 0.250000
#
# Coordination Sequence:
#
# PCOD9254314 Si02
#       7
#     8   8   8   8   8   8   8
#     4  12  25  40  65  85 118 155 202 255 299 364
#     4   9  17  26  48  85 127 148 191 238 290 349
#     4  11  22  38  60  86 120 157 198 244 299 356
#     4  10  16  29  50  84 123 157 186 236 297 344
#     4  12  26  42  63  91 113 155 205 255 307 353
#     4  11  18  34  59  90 120 158 195 243 300 349
#     4  11  21  38  61  89 123 161 195 241 307 355
#
# _framework density 21.955296000000001
#
# number of rings (size 3 to 8) (size 9 to 14) (size 15 to 20)
#    0.000    1.143    5.714    2.571    0.000    1.143 
#    0.000    0.000    0.000    0.000    0.000    6.000 
#    0.000    0.000    0.000    0.000    0.000    0.000 
#
# Total GULP energy -156417.358601 kJ/mol
# GULP energy per Si atom -5586.334236 kJ/mol
# Density = 2.190532 g / cm^3
# Si number density = 21.955296 Si / 1000 Ang^3
#
#
#
# Elastic Constant Matrix: (Units=GPa)
#
#
# Indices 1 2 3 4 5 6 
#
# 1 69.2243 46.4041 37.1115 0.0000 -18.1293 0.0000
# 2 46.4041 198.8828 40.6877 0.0000 -6.4096 0.0000
# 3 37.1115 40.6877 104.7282 0.0000 -31.6706 0.0000
# 4 0.0000 0.0000 0.0000 21.8836 0.0000 -14.8158
# 5 -18.1293 -6.4096 -31.6706 0.0000 32.4208 0.0000
# 6 0.0000 0.0000 0.0000 -14.8158 0.0000 -8.1717
#
#
#
# Elastic Compliance Matrix: (Units=1/GPa)
#
#
# Indices 1 2 3 4 5 6 
#
# 1 0.020962 -0.003899 -0.003693 0.000000 0.007344 0.000000
# 2 -0.003899 0.006233 -0.001883 0.000000 -0.002787 0.000000
# 3 -0.003693 -0.001883 0.015401 0.000000 0.012608 0.000000
# 4 0.000000 0.000000 0.000000 0.020515 0.000000 -0.037194
# 5 0.007344 -0.002787 0.012608 0.000000 0.046716 0.000000
# 6 0.000000 0.000000 0.000000 -0.037194 0.000000 -0.054938
#
#
# Mechanical properties :
#
#
# Convention : Reuss Voigt Hill
#
# Bulk Modulus (GPa) = 42.28705 69.02689 55.65697
# Shear Modulus (GPa) = 61.18385 25.80202 43.49294
#
# Velocity S-wave (km/s) = 5.28469 3.43185 4.45565
# Velocity P-wave (km/s) = 7.51928 6.87106 7.20247
#
# Compressibility (1/GPa) = 0.02364790
#
# Stress axis : x y z
#
# Youngs Moduli (GPa) = 47.70460 160.43192 64.92977
#
# Poissons Ratio (x) = 0.62551 0.23976
# Poissons Ratio (y) = 0.18600 0.12226
# Poissons Ratio (z) = 0.17616 0.30208
#
# Static dielectric constant tensor:
#      x y z
#    x 1.855740 0.000000 0.068630 
#    y 0.000000 1.838810 0.000000 
#    z 0.068630 0.000000 1.903250 
# 
# From -- ./inp_files/35602.got.cif
#   From: 2010.05.17/outbox.cif.g08.bks.cpg/sg15_18_cif.got.tgz:35602.got - 2010.06.03 18:47:42.
