data_PCOD9254702
_publ_section_title
;
Structure prediction by ZEFSAII (Michael W. Deem and Ramdas Pophale) SiO2 
 PCOD9254702
Probable space group: C 2/C
;
_chemical_formula_sum "Si O2"
_cell_formula_units_Z 60
_cell_length_a 13.941459
_cell_length_b 14.288673
_cell_length_c 24.992861
_cell_angle_alpha 90.000000
_cell_angle_beta 38.987937
_cell_angle_gamma 90.000000
_cell_volume 3132.383753
_symmetry_space_group_name_H-M "C 2/C"
_symmetry_group_IT_number 15
_symmetry_cell_setting 'monoclinic'
loop_
_space_group_symop_operation_xyz
x,y,z
-x,y,1/2-z
-x,-y,-z
x,-y,1/2+z
1/2+x,1/2+y,z
1/2-x,1/2+y,1/2-z
1/2-x,1/2-y,-z
1/2+x,1/2-y,1/2+z
loop_
_atom_site_type_symbol
_atom_site_label
_atom_site_fract_x
_atom_site_fract_y
_atom_site_fract_z
Si Si1 0.537644 0.551028 0.538114
Si Si2 0.801165 0.523255 0.701015
Si Si3 0.819723 0.887815 0.347437
Si Si4 0.451073 0.455632 0.860150
Si Si5 0.247212 0.821902 0.300386
Si Si6 0.716110 0.178965 0.119552
Si Si7 0.000000 0.797253 0.750000
Si Si8 0.122671 0.339811 0.777421
O O1 0.500000 0.500000 0.500000
O O2 0.575312 0.470008 0.565359
O O3 0.395971 0.619232 0.614869
O O4 0.677946 0.618831 0.464488
O O5 0.797377 0.573366 0.645924
O O6 0.623190 0.494001 0.781260
O O7 0.843169 0.599354 0.727316
O O8 0.880744 0.426836 0.680677
O O9 0.754154 0.789624 0.394782
O O10 0.000000 0.871626 0.250000
O O11 0.839955 0.969048 0.381496
O O12 0.453512 0.363497 0.821222
O O13 0.356093 0.765448 0.293630
O O14 0.183509 0.749511 0.283507
O O15 0.545077 0.171917 0.172387
O O16 0.722206 0.146670 0.179678
#
# Coordination Sequence:
#
# PCOD9254702 Si02
#       8
#     8   8   8   8   8   8   4   8
#     4  11  26  42  60  89 141 178 206 266 353 392
#     4  10  18  33  59  89 122 151 211 274 308 360
#     4  10  16  33  58  91 114 159 220 267 309 364
#     4  10  19  37  64  88 121 172 213 261 322 390
#     4  11  23  39  64  97 124 168 221 270 317 395
#     4  11  21  36  61  90 126 166 213 274 317 382
#     4  12  22  40  72  94 126 170 232 268 310 398
#     4  11  20  36  65  94 120 163 227 269 310 373
#
# _framework density 19.154741000000001
#
# number of rings (size 3 to 8) (size 9 to 14) (size 15 to 20)
#    0.000    1.333    6.000    3.200    0.000    4.267 
#    0.000    2.000    0.000    3.200    0.000    0.000 
#    0.000    0.000    0.000    0.000    0.000    0.000 
#
# Total GULP energy -167066.182508 kJ/mol
# GULP energy per Si atom -5568.872750 kJ/mol
# Density = 1.911114 g / cm^3
# Si number density = 19.154741 Si / 1000 Ang^3
#
#
#
# Elastic Constant Matrix: (Units=GPa)
#
#
# Indices 1 2 3 4 5 6 
#
# 1 85.6035 35.4552 28.3643 0.0000 13.3537 0.0000
# 2 35.4552 87.1930 6.8145 0.0000 10.0131 0.0000
# 3 28.3643 6.8145 34.7842 -0.0001 12.5011 0.0000
# 4 0.0000 0.0000 -0.0001 0.5554 0.0000 15.2973
# 5 13.3537 10.0131 12.5011 0.0000 16.9518 0.0000
# 6 0.0000 0.0000 0.0000 15.2973 0.0000 46.4793
#
#
#
# Elastic Compliance Matrix: (Units=1/GPa)
#
#
# Indices 1 2 3 4 5 6 
#
# 1 0.019216 -0.006616 -0.014066 0.000000 -0.000857 0.000000
# 2 -0.006616 0.014583 0.005117 0.000000 -0.007176 0.000000
# 3 -0.014066 0.005117 0.049417 -0.000002 -0.028385 0.000000
# 4 0.000000 0.000000 -0.000002 -0.223253 0.000001 0.073477
# 5 -0.000857 -0.007176 -0.028385 0.000001 0.084837 0.000000
# 6 0.000000 0.000000 0.000000 0.073477 0.000000 -0.002668
#
#
# Mechanical properties :
#
#
# Convention : Reuss Voigt Hill
#
# Bulk Modulus (GPa) = 19.19854 38.76096 28.97975
# Shear Modulus (GPa) = -533.33011 21.92708 -255.70151
#
# Velocity S-wave (km/s) = -16.70440 3.38706 -11.56643
# Velocity P-wave (km/s) = 19.02642 5.96455 12.77554
#
# Compressibility (1/GPa) = 0.05208730
#
# Stress axis : x y z
#
# Youngs Moduli (GPa) = 52.03922 68.57157 20.23584
#
# Poissons Ratio (x) = 0.45369 0.28463
# Poissons Ratio (y) = 0.34430 -0.10355
# Poissons Ratio (z) = 0.73196 -0.35088
#
# Static dielectric constant tensor:
#      x y z
#    x 1.622660 0.000000 0.061360 
#    y 0.000000 1.751150 0.000000 
#    z 0.061360 0.000000 1.717960 
# 
# From -- ./inp_files/269950.got.cif
#   From: 2010.05.17/outbox.cif.g08.bks.cpg/sg15_135_cif.got.tgz:269950.got - 2010.06.03 18:47:42.
