data_PCOD9254781
_publ_section_title
;
Structure prediction by ZEFSAII (Michael W. Deem and Ramdas Pophale) SiO2 
 PCOD9254781
Probable space group: C 2/C
;
_chemical_formula_sum "Si O2"
_cell_formula_units_Z 44
_cell_length_a 30.157549
_cell_length_b 12.589061
_cell_length_c 18.557155
_cell_angle_alpha 90.000000
_cell_angle_beta 162.425201
_cell_angle_gamma 90.000000
_cell_volume 2127.338923
_symmetry_space_group_name_H-M "C 2/C"
_symmetry_group_IT_number 15
_symmetry_cell_setting 'monoclinic'
loop_
_space_group_symop_operation_xyz
x,y,z
-x,y,1/2-z
-x,-y,-z
x,-y,1/2+z
1/2+x,1/2+y,z
1/2-x,1/2+y,1/2-z
1/2-x,1/2-y,-z
1/2+x,1/2-y,1/2+z
loop_
_atom_site_type_symbol
_atom_site_label
_atom_site_fract_x
_atom_site_fract_y
_atom_site_fract_z
Si Si1 0.921787 0.270241 0.278586
Si Si2 0.585715 0.447623 0.068155
Si Si3 0.188993 0.629897 0.754904
Si Si4 0.653375 0.424566 0.530428
Si Si5 0.355905 0.183216 0.978822
Si Si6 0.500000 0.241046 0.750000
O O1 0.919562 0.333090 0.350143
O O2 0.984388 0.320628 0.301624
O O3 0.997758 0.155172 0.403134
O O4 0.750000 0.250000 0.000000
O O5 0.616320 0.531081 0.052327
O O6 0.740688 0.399854 0.331892
O O7 0.500000 0.500000 0.000000
O O8 0.230782 0.506270 0.823610
O O9 0.127561 0.656314 0.580308
O O10 0.349456 0.689439 0.010213
O O11 0.704778 0.303477 0.611842
O O12 0.500000 0.429162 0.250000
O O13 0.500000 0.179931 0.250000
#
# Coordination Sequence:
#
# PCOD9254781 Si02
#       6
#     8   8   8   8   8   4
#     4  10  19  33  62  98 121 153 214 270 317 369
#     4  11  22  40  64  91 127 167 215 255 324 380
#     4  10  18  35  61  91 126 162 215 261 325 369
#     4  10  18  37  63  87 120 170 209 257 316 379
#     4  10  22  39  63  92 133 168 212 260 311 386
#     4  10  16  34  62  88 120 160 210 272 308 382
#
# _framework density 20.683118
#
# number of rings (size 3 to 8) (size 9 to 14) (size 15 to 20)
#    0.000    1.818    4.545    2.182    0.000    0.000 
#    0.000   12.727   10.000    0.000    0.000    0.000 
#    0.000    0.000    0.000    0.000    0.000    0.000 
#
# Total GULP energy -122836.662949 kJ/mol
# GULP energy per Si atom -5583.484679 kJ/mol
# Density = 2.063604 g / cm^3
# Si number density = 20.683118 Si / 1000 Ang^3
#
#
#
# Elastic Constant Matrix: (Units=GPa)
#
#
# Indices 1 2 3 4 5 6 
#
# 1 172.1411 53.2043 29.6958 0.0000 7.5474 0.0000
# 2 53.2043 77.2374 22.0064 0.0000 -3.5783 0.0000
# 3 29.6958 22.0064 79.9072 0.0000 -13.7678 0.0000
# 4 0.0000 0.0000 0.0000 2.6480 0.0000 -7.8055
# 5 7.5474 -3.5783 -13.7678 0.0000 25.4525 0.0000
# 6 0.0000 0.0000 0.0000 -7.8055 0.0000 16.9823
#
#
#
# Elastic Compliance Matrix: (Units=1/GPa)
#
#
# Indices 1 2 3 4 5 6 
#
# 1 0.007948 -0.005015 -0.002316 0.000000 -0.004314 0.000000
# 2 -0.005015 0.017214 -0.002430 0.000000 0.002592 0.000000
# 3 -0.002316 -0.002430 0.015554 0.000000 0.008758 0.000000
# 4 0.000000 0.000000 0.000000 -1.064263 0.000000 -0.489166
# 5 -0.004314 0.002592 0.008758 0.000000 0.045670 0.000000
# 6 0.000000 0.000000 0.000000 -0.489166 0.000000 -0.165950
#
#
# Mechanical properties :
#
#
# Convention : Reuss Voigt Hill
#
# Bulk Modulus (GPa) = 47.18520 59.89986 53.54253
# Shear Modulus (GPa) = -4.47531 23.97518 9.74993
#
# Velocity S-wave (km/s) = -1.47257 3.40835 2.17352
# Velocity P-wave (km/s) = 4.46897 6.67179 5.67822
#
# Compressibility (1/GPa) = 0.02119309
#
# Stress axis : x y z
#
# Youngs Moduli (GPa) = 125.82072 58.09190 64.29400
#
# Poissons Ratio (x) = 0.29132 0.14890
# Poissons Ratio (y) = 0.63097 0.15626
# Poissons Ratio (z) = 0.29139 0.14119
#
# Static dielectric constant tensor:
#      x y z
#    x 1.752110 0.000000 -0.012820 
#    y 0.000000 1.742400 0.000000 
#    z -0.012820 0.000000 1.741800 
# 
# From -- ./inp_files/225216.got.cif
#   From: 2010.05.17/outbox.cif.g08.bks.cpg/sg15_113_cif.got.tgz:225216.got - 2010.06.03 18:47:42.
