data_PCOD9254276
_publ_section_title
;
Structure prediction by ZEFSAII (Michael W. Deem and Ramdas Pophale) SiO2 
 PCOD9254276
Probable space group: C 2/C
;
_chemical_formula_sum "Si O2"
_cell_formula_units_Z 44
_cell_length_a 15.472703
_cell_length_b 13.506922
_cell_length_c 15.270286
_cell_angle_alpha 90.000000
_cell_angle_beta 37.584085
_cell_angle_gamma 90.000000
_cell_volume 1946.463368
_symmetry_space_group_name_H-M "C 2/C"
_symmetry_group_IT_number 15
_symmetry_cell_setting 'monoclinic'
loop_
_space_group_symop_operation_xyz
x,y,z
-x,y,1/2-z
-x,-y,-z
x,-y,1/2+z
1/2+x,1/2+y,z
1/2-x,1/2+y,1/2-z
1/2-x,1/2-y,-z
1/2+x,1/2-y,1/2+z
loop_
_atom_site_type_symbol
_atom_site_label
_atom_site_fract_x
_atom_site_fract_y
_atom_site_fract_z
Si Si1 0.134735 0.784911 0.813239
Si Si2 0.139934 0.120520 0.737049
Si Si3 0.000000 0.835478 0.750000
Si Si4 0.065617 0.306088 0.894377
Si Si5 0.162392 0.016053 0.552997
Si Si6 0.257257 0.979413 0.784648
O O1 0.298680 0.772082 0.655913
O O2 0.140385 0.896636 0.848332
O O3 0.039953 0.776259 0.804170
O O4 0.074154 0.721436 0.941931
O O5 0.096693 0.234761 0.786380
O O6 0.217315 0.090573 0.584363
O O7 0.989642 0.062784 0.852041
O O8 0.222354 0.072005 0.752336
O O9 0.870727 0.910234 0.876583
O O10 0.096762 0.420440 0.851113
O O11 0.246959 0.003328 0.395921
#
# Coordination Sequence:
#
# PCOD9254276 Si02
#       6
#     8   8   4   8   8   8
#     4  10  20  35  53  81 114 142 182 224 279 324
#     4  10  17  31  53  80 105 143 187 228 270 314
#     4  10  18  32  58  86 104 136 198 240 268 308
#     4  10  20  35  54  78 116 148 179 226 278 328
#     4  10  16  28  55  82 103 135 188 240 266 302
#     4  10  19  33  51  80 115 139 181 228 274 324
#
# _framework density 22.605101000000001
#
# number of rings (size 3 to 8) (size 9 to 14) (size 15 to 20)
#    1.091    1.091    5.455    1.636    0.000    1.455 
#    0.000    0.909    0.000    0.000    0.000   10.182 
#    0.000    0.000    0.000    0.000    0.000    0.000 
#
# Total GULP energy -122551.491265 kJ/mol
# GULP energy per Si atom -5570.522330 kJ/mol
# Density = 2.255365 g / cm^3
# Si number density = 22.605101 Si / 1000 Ang^3
#
#
#
# Elastic Constant Matrix: (Units=GPa)
#
#
# Indices 1 2 3 4 5 6 
#
# 1 20.0936 2.7404 24.7154 0.0000 21.2383 0.0000
# 2 2.7404 59.3290 20.8796 0.0000 3.0774 0.0000
# 3 24.7154 20.8796 92.8956 0.0000 16.2410 0.0000
# 4 0.0000 0.0000 0.0000 12.8545 0.0000 -7.0447
# 5 21.2383 3.0774 16.2410 0.0000 35.4361 0.0000
# 6 0.0000 0.0000 0.0000 -7.0447 0.0000 16.3697
#
#
#
# Elastic Compliance Matrix: (Units=1/GPa)
#
#
# Indices 1 2 3 4 5 6 
#
# 1 0.216357 0.009970 -0.040203 0.000000 -0.112111 0.000000
# 2 0.009970 0.018766 -0.006024 0.000000 -0.004845 0.000000
# 3 -0.040203 -0.006024 0.020123 0.000000 0.015396 0.000000
# 4 0.000000 0.000000 0.000000 0.101803 0.000000 0.043811
# 5 -0.112111 -0.004845 0.015396 0.000000 0.088777 0.000000
# 6 0.000000 0.000000 0.000000 0.043811 0.000000 0.079943
#
#
# Mechanical properties :
#
#
# Convention : Reuss Voigt Hill
#
# Bulk Modulus (GPa) = 5.47247 29.88766 17.68006
# Shear Modulus (GPa) = 7.58503 21.19758 14.39131
#
# Velocity S-wave (km/s) = 1.83378 3.06557 2.52591
# Velocity P-wave (km/s) = 2.62865 5.07746 4.04292
#
# Compressibility (1/GPa) = 0.18273279
#
# Stress axis : x y z
#
# Youngs Moduli (GPa) = 4.62200 53.28849 49.69358
#
# Poissons Ratio (x) = -0.53131 1.99785
# Poissons Ratio (y) = -0.04608 0.29933
# Poissons Ratio (z) = 0.18582 0.32099
#
# Static dielectric constant tensor:
#      x y z
#    x 1.874240 0.000000 -0.003700 
#    y 0.000000 1.871410 0.000000 
#    z -0.003700 0.000000 1.863380 
# 
# From -- ./inp_files/161592.got.cif
#   From: 2010.05.17/outbox.cif.g08.bks.cpg/sg15_81_cif.got.tgz:161592.got - 2010.06.03 18:47:42.
