data_PCOD9254025
_publ_section_title
;
Structure prediction by ZEFSAII (Michael W. Deem and Ramdas Pophale) SiO2 
 PCOD9254025
Probable space group: C 2/C
;
_chemical_formula_sum "Si O2"
_cell_formula_units_Z 64
_cell_length_a 8.661623
_cell_length_b 20.634372
_cell_length_c 27.956866
_cell_angle_alpha 90.000000
_cell_angle_beta 42.843868
_cell_angle_gamma 90.000000
_cell_volume 3397.737074
_symmetry_space_group_name_H-M "C 2/C"
_symmetry_group_IT_number 15
_symmetry_cell_setting 'monoclinic'
loop_
_space_group_symop_operation_xyz
x,y,z
-x,y,1/2-z
-x,-y,-z
x,-y,1/2+z
1/2+x,1/2+y,z
1/2-x,1/2+y,1/2-z
1/2-x,1/2-y,-z
1/2+x,1/2-y,1/2+z
loop_
_atom_site_type_symbol
_atom_site_label
_atom_site_fract_x
_atom_site_fract_y
_atom_site_fract_z
Si Si1 0.947684 0.178386 0.410359
Si Si2 0.985622 0.159867 0.906909
Si Si3 0.256201 0.945584 0.827628
Si Si4 0.930093 0.696625 0.556456
Si Si5 0.085558 0.259551 0.176185
Si Si6 0.349309 0.455130 0.066743
Si Si7 0.914705 0.378860 0.151906
Si Si8 0.751481 0.567222 0.778168
O O1 0.682735 0.174060 0.484661
O O2 0.956744 0.204397 0.353549
O O3 0.094594 0.113353 0.378045
O O4 0.046699 0.231957 0.425176
O O5 0.742438 0.187144 0.947742
O O6 0.151375 0.218794 0.883068
O O7 0.001610 0.101321 0.941653
O O8 0.105309 0.124033 0.834782
O O9 0.500000 0.924771 0.750000
O O10 0.270144 0.994544 0.869514
O O11 0.155226 0.996390 0.812213
O O12 0.834820 0.652813 0.621559
O O13 0.967282 0.322012 0.178533
O O14 0.000000 0.248321 0.250000
O O15 0.148775 0.415638 0.087388
O O16 0.500000 0.500000 0.000000
O O17 0.766704 0.425296 0.218128
O O18 0.000000 0.571445 0.750000
#
# Coordination Sequence:
#
# PCOD9254025 Si02
#       8
#     8   8   8   8   8   8   8   8
#     4  10  23  40  54  81 126 160 185 237 298 351
#     4  10  19  35  61  87 107 144 201 247 280 336
#     4  10  19  36  59  83 119 153 189 233 296 359
#     4  10  23  38  57  85 118 158 195 240 292 343
#     4  10  18  35  61  81 107 146 197 246 287 332
#     4  10  19  34  62  89 111 152 196 238 289 354
#     4  10  16  34  60  85 111 141 193 245 290 335
#     4  10  15  34  61  87 109 142 190 249 294 327
#
# _framework density 18.836065999999999
#
# number of rings (size 3 to 8) (size 9 to 14) (size 15 to 20)
#    0.000    2.000    6.250    0.750    0.000    3.000 
#    0.000    6.875    5.500    0.000    0.000    0.000 
#    0.000    0.000    0.000    0.000    0.000    0.000 
#
# Total GULP energy -178175.786945 kJ/mol
# GULP energy per Si atom -5567.993342 kJ/mol
# Density = 1.879319 g / cm^3
# Si number density = 18.836066 Si / 1000 Ang^3
#
#
#
# Elastic Constant Matrix: (Units=GPa)
#
#
# Indices 1 2 3 4 5 6 
#
# 1 66.2438 26.2484 -6.3010 0.0019 -11.6200 0.0036
# 2 26.2484 66.6784 0.4197 -0.0159 -9.0518 -0.0014
# 3 -6.3010 0.4197 42.5700 -0.0280 0.1687 -0.0072
# 4 0.0019 -0.0159 -0.0280 27.8379 0.0051 -6.5906
# 5 -11.6200 -9.0518 0.1687 0.0051 19.9268 0.0021
# 6 0.0036 -0.0014 -0.0072 -6.5906 0.0021 11.0216
#
#
#
# Elastic Compliance Matrix: (Units=1/GPa)
#
#
# Indices 1 2 3 4 5 6 
#
# 1 0.019423 -0.006533 0.002906 -0.000006 0.008334 -0.000011
# 2 -0.006533 0.018182 -0.001164 0.000011 0.004459 0.000009
# 3 0.002906 -0.001164 0.023929 0.000031 0.000963 0.000033
# 4 -0.000006 0.000011 0.000031 0.041846 -0.000012 0.025023
# 5 0.008334 0.004459 0.000963 -0.000012 0.057061 -0.000020
# 6 -0.000011 0.000009 0.000033 0.025023 -0.000020 0.105693
#
#
# Mechanical properties :
#
#
# Convention : Reuss Voigt Hill
#
# Bulk Modulus (GPa) = 19.24853 24.02515 21.63684
# Shear Modulus (GPa) = 17.06299 22.09895 19.58097
#
# Velocity S-wave (km/s) = 3.01303 3.42895 3.22770
# Velocity P-wave (km/s) = 4.72712 5.33475 5.04010
#
# Compressibility (1/GPa) = 0.05195201
#
# Stress axis : x y z
#
# Youngs Moduli (GPa) = 51.48645 55.00028 41.79109
#
# Poissons Ratio (x) = 0.35930 -0.12145
# Poissons Ratio (y) = 0.33635 0.04864
# Poissons Ratio (z) = -0.14963 0.06401
#
# Static dielectric constant tensor:
#      x y z
#    x 1.689570 0.000000 0.030370 
#    y 0.000000 1.663080 0.000000 
#    z 0.030370 0.000000 1.722530 
# 
# From -- ./inp_files/289986.got.cif
#   From: 2010.05.17/outbox.cif.g08.bks.cpg/sg15_145_cif.got.tgz:289986.got - 2010.06.03 18:47:42.
