data_PCOD9254390
_publ_section_title
;
Structure prediction by ZEFSAII (Michael W. Deem and Ramdas Pophale) SiO2 
 PCOD9254390
Probable space group: C 2/C
;
_chemical_formula_sum "Si O2"
_cell_formula_units_Z 52
_cell_length_a 14.625305
_cell_length_b 8.744586
_cell_length_c 23.367672
_cell_angle_alpha 90.000000
_cell_angle_beta 41.701833
_cell_angle_gamma 90.000000
_cell_volume 1988.141472
_symmetry_space_group_name_H-M "C 2/C"
_symmetry_group_IT_number 15
_symmetry_cell_setting 'monoclinic'
loop_
_space_group_symop_operation_xyz
x,y,z
-x,y,1/2-z
-x,-y,-z
x,-y,1/2+z
1/2+x,1/2+y,z
1/2-x,1/2+y,1/2-z
1/2-x,1/2-y,-z
1/2+x,1/2-y,1/2+z
loop_
_atom_site_type_symbol
_atom_site_label
_atom_site_fract_x
_atom_site_fract_y
_atom_site_fract_z
Si Si1 0.000000 0.076759 0.750000
Si Si2 0.341898 0.581654 0.112630
Si Si3 0.321962 0.094382 0.597554
Si Si4 0.656682 0.173376 0.679572
Si Si5 0.324489 0.852232 0.694438
Si Si6 0.250779 0.604611 0.458010
Si Si7 0.029189 0.094185 0.608512
O O1 0.157473 0.138818 0.666183
O O2 0.026923 0.027482 0.804126
O O3 0.256003 0.463475 0.115035
O O4 0.238970 0.618208 0.213954
O O5 0.465742 0.495133 0.084982
O O6 0.390774 0.740867 0.063946
O O7 0.336429 0.003526 0.650287
O O8 0.364635 0.977408 0.526947
O O9 0.500000 0.121338 0.750000
O O10 0.721555 0.236527 0.708402
O O11 0.664440 0.318963 0.634469
O O12 0.469434 0.764172 0.633820
O O13 0.250000 0.750000 0.500000
O O14 0.315182 0.460654 0.460841
#
# Coordination Sequence:
#
# PCOD9254390 Si02
#       7
#     4   8   8   8   8   8   8
#     4  10  16  30  50  82 110 148 176 222 274 338
#     4  11  19  33  54  94 122 143 184 246 296 347
#     4  10  20  32  57  81 116 148 190 228 292 347
#     4  10  22  34  59  87 117 150 193 238 294 353
#     4  10  18  33  52  86 118 146 183 232 290 343
#     4  10  23  42  58  77 111 160 204 241 294 351
#     4  10  20  33  57  79 114 151 188 235 291 345
#
# _framework density 26.155080000000002
#
# number of rings (size 3 to 8) (size 9 to 14) (size 15 to 20)
#    0.000    1.846    3.077    1.846    8.615    0.000 
#    0.000    8.462    0.000    0.000    0.000    0.000 
#    0.000    0.000    0.000    0.000    0.000    0.000 
#
# Total GULP energy -144960.228535 kJ/mol
# GULP energy per Si atom -5575.393405 kJ/mol
# Density = 2.609555 g / cm^3
# Si number density = 26.155080 Si / 1000 Ang^3
#
#
#
# Elastic Constant Matrix: (Units=GPa)
#
#
# Indices 1 2 3 4 5 6 
#
# 1 94.0365 39.1106 27.8097 0.0000 3.1720 0.0000
# 2 39.1106 134.8143 6.5824 0.0000 -2.3544 0.0000
# 3 27.8097 6.5824 61.0643 0.0000 8.1002 0.0000
# 4 0.0000 0.0000 0.0000 34.2199 0.0000 -5.5218
# 5 3.1720 -2.3544 8.1002 0.0000 25.2969 0.0000
# 6 0.0000 0.0000 0.0000 -5.5218 0.0000 38.6497
#
#
#
# Elastic Compliance Matrix: (Units=1/GPa)
#
#
# Indices 1 2 3 4 5 6 
#
# 1 0.013958 -0.003764 -0.005924 0.000000 -0.000204 0.000000
# 2 -0.003764 0.008496 0.000659 0.000000 0.001052 0.000000
# 3 -0.005924 0.000659 0.019735 0.000000 -0.005515 0.000000
# 4 0.000000 0.000000 0.000000 0.029912 0.000000 0.004274
# 5 -0.000204 0.001052 -0.005515 0.000000 0.041420 0.000000
# 6 0.000000 0.000000 0.000000 0.004274 0.000000 0.026484
#
#
# Mechanical properties :
#
#
# Convention : Reuss Voigt Hill
#
# Bulk Modulus (GPa) = 41.44128 48.54671 44.99399
# Shear Modulus (GPa) = 30.10113 34.06080 32.08096
#
# Velocity S-wave (km/s) = 3.39613 3.61260 3.50604
# Velocity P-wave (km/s) = 5.59081 6.00022 5.79913
#
# Compressibility (1/GPa) = 0.02413053
#
# Stress axis : x y z
#
# Youngs Moduli (GPa) = 71.64162 117.70665 50.67221
#
# Poissons Ratio (x) = 0.44302 0.30019
# Poissons Ratio (y) = 0.26964 -0.03338
# Poissons Ratio (z) = 0.42442 -0.07754
#
# Static dielectric constant tensor:
#      x y z
#    x 2.145160 0.000000 0.005660 
#    y 0.000000 2.184390 0.000000 
#    z 0.005660 0.000000 2.194460 
# 
# From -- ./inp_files/272578.got.cif
#   From: 2010.05.17/outbox.cif.g08.bks.cpg/sg15_137_cif.got.tgz:272578.got - 2010.06.03 18:47:42.
