data_PCOD9254407
_publ_section_title
;
Structure prediction by ZEFSAII (Michael W. Deem and Ramdas Pophale) SiO2 
 PCOD9254407
Probable space group: C 2/C
;
_chemical_formula_sum "Si O2"
_cell_formula_units_Z 52
_cell_length_a 15.515267
_cell_length_b 9.546268
_cell_length_c 15.581363
_cell_angle_alpha 90.000000
_cell_angle_beta 98.816187
_cell_angle_gamma 90.000000
_cell_volume 2280.534424
_symmetry_space_group_name_H-M "C 2/C"
_symmetry_group_IT_number 15
_symmetry_cell_setting 'monoclinic'
loop_
_space_group_symop_operation_xyz
x,y,z
-x,y,1/2-z
-x,-y,-z
x,-y,1/2+z
1/2+x,1/2+y,z
1/2-x,1/2+y,1/2-z
1/2-x,1/2-y,-z
1/2+x,1/2-y,1/2+z
loop_
_atom_site_type_symbol
_atom_site_label
_atom_site_fract_x
_atom_site_fract_y
_atom_site_fract_z
Si Si1 0.294063 0.365889 0.447094
Si Si2 0.339137 0.397833 0.084509
Si Si3 0.838649 0.900365 0.279417
Si Si4 0.509898 0.438831 0.650567
Si Si5 0.593751 0.101316 0.428769
Si Si6 0.555160 0.805578 0.468556
Si Si7 0.500000 0.197408 0.250000
O O1 0.250000 0.250000 0.500000
O O2 0.296989 0.508581 0.503488
O O3 0.268878 0.360866 0.342237
O O4 0.392060 0.299196 0.462243
O O5 0.306109 0.431888 0.177273
O O6 0.441348 0.448264 0.101591
O O7 0.339094 0.230835 0.069856
O O8 0.917055 0.789137 0.271202
O O9 0.888224 0.024875 0.339650
O O10 0.500000 0.443945 0.750000
O O11 0.477967 0.290680 0.613109
O O12 0.530722 0.142389 0.496967
O O13 0.537199 0.108312 0.333531
O O14 0.613064 0.938416 0.448092
#
# Coordination Sequence:
#
# PCOD9254407 Si02
#       7
#     8   8   8   8   8   8   4
#     4  11  22  37  56  77 110 150 187 226 262 320
#     4   9  18  34  56  80 105 147 186 217 273 331
#     4  10  16  33  57  81 109 138 189 220 277 333
#     4   9  15  28  50  81 107 133 172 226 274 318
#     4  10  18  31  51  80 108 134 174 226 284 320
#     4  10  20  30  49  80 112 134 177 228 275 314
#     4  10  16  30  52  82 104 146 166 216 284 336
#
# _framework density 22.801672
#
# number of rings (size 3 to 8) (size 9 to 14) (size 15 to 20)
#    0.000    2.154    5.385    0.923    1.077    2.462 
#    0.000    3.846    0.000    0.000    0.000    0.000 
#    0.000    0.000    0.000    0.000    0.000    0.000 
#
# Total GULP energy -144823.035030 kJ/mol
# GULP energy per Si atom -5570.116732 kJ/mol
# Density = 2.274977 g / cm^3
# Si number density = 22.801672 Si / 1000 Ang^3
#
#
#
# Elastic Constant Matrix: (Units=GPa)
#
#
# Indices 1 2 3 4 5 6 
#
# 1 24.7759 10.7640 21.2666 0.0000 -8.6720 0.0000
# 2 10.7640 147.9951 59.5145 0.0000 7.8686 0.0000
# 3 21.2666 59.5145 115.6908 0.0000 -22.5966 0.0000
# 4 0.0000 0.0000 0.0000 25.6669 0.0000 0.0539
# 5 -8.6720 7.8686 -22.5966 0.0000 26.8204 0.0000
# 6 0.0000 0.0000 0.0000 0.0539 0.0000 19.5053
#
#
#
# Elastic Compliance Matrix: (Units=1/GPa)
#
#
# Indices 1 2 3 4 5 6 
#
# 1 0.050466 -0.001887 -0.005998 0.000000 0.011818 0.000000
# 2 -0.001887 0.010029 -0.006590 0.000000 -0.009105 0.000000
# 3 -0.005998 -0.006590 0.015723 0.000000 0.013241 0.000000
# 4 0.000000 0.000000 0.000000 0.038961 0.000000 -0.000108
# 5 0.011818 -0.009105 0.013241 0.000000 0.054933 0.000000
# 6 0.000000 0.000000 0.000000 -0.000108 0.000000 0.051268
#
#
# Mechanical properties :
#
#
# Convention : Reuss Voigt Hill
#
# Bulk Modulus (GPa) = 21.15630 52.39466 36.77548
# Shear Modulus (GPa) = 18.79088 27.52630 23.15859
#
# Velocity S-wave (km/s) = 2.87383 3.47826 3.19039
# Velocity P-wave (km/s) = 4.50671 6.25774 5.45297
#
# Compressibility (1/GPa) = 0.04726725
#
# Stress axis : x y z
#
# Youngs Moduli (GPa) = 19.81514 99.71495 63.60193
#
# Poissons Ratio (x) = 0.18815 0.38148
# Poissons Ratio (y) = 0.03739 0.41917
# Poissons Ratio (z) = 0.11885 0.65717
#
# Static dielectric constant tensor:
#      x y z
#    x 2.022280 0.000000 -0.072590 
#    y 0.000000 1.901620 0.000000 
#    z -0.072590 0.000000 1.866940 
# 
# From -- ./inp_files/209149.got.cif
#   From: 2010.05.17/outbox.cif.g08.bks.cpg/sg15_105_cif.got.tgz:209149.got - 2010.06.03 18:47:42.
