data_PCOD9254502
_publ_section_title
;
Structure prediction by ZEFSAII (Michael W. Deem and Ramdas Pophale) SiO2 
 PCOD9254502
Probable space group: C 2/C
;
_chemical_formula_sum "Si O2"
_cell_formula_units_Z 48
_cell_length_a 6.954327
_cell_length_b 20.016048
_cell_length_c 13.399531
_cell_angle_alpha 90.000000
_cell_angle_beta 78.553870
_cell_angle_gamma 90.000000
_cell_volume 1828.094413
_symmetry_space_group_name_H-M "C 2/C"
_symmetry_group_IT_number 15
_symmetry_cell_setting 'monoclinic'
loop_
_space_group_symop_operation_xyz
x,y,z
-x,y,1/2-z
-x,-y,-z
x,-y,1/2+z
1/2+x,1/2+y,z
1/2-x,1/2+y,1/2-z
1/2-x,1/2-y,-z
1/2+x,1/2-y,1/2+z
loop_
_atom_site_type_symbol
_atom_site_label
_atom_site_fract_x
_atom_site_fract_y
_atom_site_fract_z
Si Si1 0.553442 0.866305 0.960268
Si Si2 0.380950 0.638208 0.091588
Si Si3 0.101915 0.220316 0.916171
Si Si4 0.731976 0.774609 0.304910
Si Si5 0.276182 0.055763 0.227016
Si Si6 0.097545 0.578196 0.846778
O O1 0.331710 0.868700 0.940171
O O2 0.603262 0.789140 0.979609
O O3 0.703440 0.887056 0.858142
O O4 0.555992 0.921989 0.046630
O O5 0.375517 0.706048 0.157110
O O6 0.373166 0.576430 0.170052
O O7 0.536972 0.656458 0.988483
O O8 0.928523 0.235201 0.852450
O O9 0.268447 0.214399 0.815134
O O10 0.677854 0.847594 0.350280
O O11 0.500000 0.055645 0.250000
O O12 0.255792 0.984209 0.175064
O O13 0.000000 0.577708 0.750000
#
# Coordination Sequence:
#
# PCOD9254502 Si02
#       6
#     8   8   8   8   8   8
#     4  10  16  31  52  78  99 127 169 221 256 279
#     4  10  16  31  54  79 100 122 169 224 256 279
#     4  10  17  29  57  81  95 121 170 227 259 276
#     4  10  18  31  52  80 102 125 170 213 254 295
#     4   9  19  30  50  76 104 130 167 214 256 291
#     4  11  21  33  46  75 110 141 164 194 252 315
#
# _framework density 26.256851000000001
#
# number of rings (size 3 to 8) (size 9 to 14) (size 15 to 20)
#    0.000    2.000    5.000    1.500    0.000    0.000 
#    0.000    1.667    0.000    0.000    4.333    0.000 
#    0.000    0.000    0.000    0.000    0.000    0.000 
#
# Total GULP energy -133945.830637 kJ/mol
# GULP energy per Si atom -5581.076277 kJ/mol
# Density = 2.619709 g / cm^3
# Si number density = 26.256851 Si / 1000 Ang^3
#
#
#
# Elastic Constant Matrix: (Units=GPa)
#
#
# Indices 1 2 3 4 5 6 
#
# 1 63.8620 10.4182 9.6275 0.0000 -2.4750 0.0000
# 2 10.4182 135.5816 47.8296 0.0000 -12.8182 0.0000
# 3 9.6275 47.8296 176.7278 0.0000 -18.2747 0.0000
# 4 0.0000 0.0000 0.0000 125.5408 0.0000 29.1800
# 5 -2.4750 -12.8182 -18.2747 0.0000 28.4389 0.0000
# 6 0.0000 0.0000 0.0000 29.1800 0.0000 42.7111
#
#
#
# Elastic Compliance Matrix: (Units=1/GPa)
#
#
# Indices 1 2 3 4 5 6 
#
# 1 0.015923 -0.000976 -0.000541 0.000000 0.000598 0.000000
# 2 -0.000976 0.008372 -0.001962 0.000000 0.002428 0.000000
# 3 -0.000541 -0.001962 0.006558 0.000000 0.003283 0.000000
# 4 0.000000 0.000000 0.000000 0.009469 0.000000 -0.006469
# 5 0.000598 0.002428 0.003283 0.000000 0.038419 0.000000
# 6 0.000000 0.000000 0.000000 -0.006469 0.000000 0.027833
#
#
# Mechanical properties :
#
#
# Convention : Reuss Voigt Hill
#
# Bulk Modulus (GPa) = 41.84945 56.88023 49.36484
# Shear Modulus (GPa) = 41.15304 59.89124 50.52214
#
# Velocity S-wave (km/s) = 3.96324 4.78114 4.39127
# Velocity P-wave (km/s) = 6.07586 7.22420 6.67477
#
# Compressibility (1/GPa) = 0.02389518
#
# Stress axis : x y z
#
# Youngs Moduli (GPa) = 62.80314 119.44305 152.47883
#
# Poissons Ratio (x) = 0.11658 0.08256
# Poissons Ratio (y) = 0.06130 0.29910
# Poissons Ratio (z) = 0.03400 0.23430
#
# Static dielectric constant tensor:
#      x y z
#    x 2.304030 0.000000 -0.050920 
#    y 0.000000 2.006790 0.000000 
#    z -0.050920 0.000000 2.164740 
# 
# From -- ./inp_files/87778.got.cif
#   From: 2010.05.17/outbox.cif.g08.bks.cpg/sg15_44_cif.got.tgz:87778.got - 2010.06.03 18:47:42.
