data_PCOD9254761
_publ_section_title
;
Structure prediction by ZEFSAII (Michael W. Deem and Ramdas Pophale) SiO2 
 PCOD9254761
Probable space group: C 2/C
;
_chemical_formula_sum "Si O2"
_cell_formula_units_Z 44
_cell_length_a 8.191811
_cell_length_b 29.671580
_cell_length_c 8.443000
_cell_angle_alpha 90.000000
_cell_angle_beta 113.762535
_cell_angle_gamma 90.000000
_cell_volume 1878.211414
_symmetry_space_group_name_H-M "C 2/C"
_symmetry_group_IT_number 15
_symmetry_cell_setting 'monoclinic'
loop_
_space_group_symop_operation_xyz
x,y,z
-x,y,1/2-z
-x,-y,-z
x,-y,1/2+z
1/2+x,1/2+y,z
1/2-x,1/2+y,1/2-z
1/2-x,1/2-y,-z
1/2+x,1/2-y,1/2+z
loop_
_atom_site_type_symbol
_atom_site_label
_atom_site_fract_x
_atom_site_fract_y
_atom_site_fract_z
Si Si1 0.605836 0.308607 0.622175
Si Si2 0.628339 0.610148 0.551770
Si Si3 0.768479 0.460230 0.900226
Si Si4 0.500000 0.839526 0.250000
Si Si5 0.000000 0.499880 0.250000
Si Si6 0.500000 0.462763 0.250000
Si Si7 0.097776 0.272185 0.555660
O O1 0.500000 0.306954 0.750000
O O2 0.537518 0.355606 0.522593
O O3 0.804503 0.295866 0.758135
O O4 0.535588 0.269593 0.477343
O O5 0.674794 0.586314 0.402948
O O6 0.586738 0.569319 0.653564
O O7 0.812355 0.634267 0.673525
O O8 0.847033 0.467924 0.758209
O O9 0.640619 0.502645 0.878864
O O10 0.930737 0.467417 0.085147
O O11 0.502681 0.808858 0.408089
O O12 0.250000 0.250000 0.500000
#
# Coordination Sequence:
#
# PCOD9254761 Si02
#       7
#     8   8   8   4   4   4   8
#     4  10  18  33  60  97 125 166 211 267 316 399
#     4  12  25  39  63  96 131 170 229 267 324 393
#     4  11  24  46  66  94 128 177 216 279 332 392
#     4  12  21  36  65  96 126 166 213 282 322 393
#     4  10  23  44  70  90 123 171 220 264 342 391
#     4  12  28  44  61  90 135 179 219 280 332 380
#     4  10  16  34  59  98 130 160 210 265 336 388
#
# _framework density 23.426542000000001
#
# number of rings (size 3 to 8) (size 9 to 14) (size 15 to 20)
#    0.000    1.091    8.182    1.091    3.818    0.000 
#    0.000    0.000    0.000    4.364    0.000    1.273 
#    0.000    0.000    0.000    0.000    0.000    0.000 
#
# Total GULP energy -122945.224544 kJ/mol
# GULP energy per Si atom -5588.419297 kJ/mol
# Density = 2.337322 g / cm^3
# Si number density = 23.426542 Si / 1000 Ang^3
#
#
#
# Elastic Constant Matrix: (Units=GPa)
#
#
# Indices 1 2 3 4 5 6 
#
# 1 45.3565 34.8978 14.0618 0.0000 5.6793 0.0000
# 2 34.8978 150.4088 52.8248 0.0000 26.3321 0.0000
# 3 14.0618 52.8248 104.9163 0.0000 38.6705 0.0000
# 4 0.0000 0.0000 0.0000 40.9326 0.0000 19.6725
# 5 5.6793 26.3321 38.6705 0.0000 29.0952 0.0000
# 6 0.0000 0.0000 0.0000 19.6725 0.0000 9.1031
#
#
#
# Elastic Compliance Matrix: (Units=1/GPa)
#
#
# Indices 1 2 3 4 5 6 
#
# 1 0.026921 -0.006156 -0.001226 0.000000 0.001946 0.000000
# 2 -0.006156 0.009697 -0.002481 0.000000 -0.004277 0.000000
# 3 -0.001226 -0.002481 0.019660 0.000000 -0.023646 0.000000
# 4 0.000000 0.000000 0.000000 -0.632281 0.000000 1.366415
# 5 0.001946 -0.004277 -0.023646 0.000000 0.069289 0.000000
# 6 0.000000 0.000000 0.000000 1.366415 0.000000 -2.843093
#
#
# Mechanical properties :
#
#
# Convention : Reuss Voigt Hill
#
# Bulk Modulus (GPa) = 27.35794 56.02784 41.69289
# Shear Modulus (GPa) = -1.50698 29.08598 13.78950
#
# Velocity S-wave (km/s) = -0.80292 3.52743 2.42880
# Velocity P-wave (km/s) = 3.29302 6.36857 5.06965
#
# Compressibility (1/GPa) = 0.03655246
#
# Stress axis : x y z
#
# Youngs Moduli (GPa) = 37.14618 103.12460 50.86382
#
# Poissons Ratio (x) = 0.63487 0.06234
# Poissons Ratio (y) = 0.22868 0.12618
# Poissons Ratio (z) = 0.04553 0.25583
#
# Static dielectric constant tensor:
#      x y z
#    x 1.973880 0.000000 0.010200 
#    y 0.000000 1.879610 0.000000 
#    z 0.010200 0.000000 1.955720 
# 
# From -- ./inp_files/26031.got.cif
#   From: 2010.05.17/outbox.cif.g08.bks.cpg/sg15_14_cif.got.tgz:26031.got - 2010.06.03 18:47:42.
