data_PCOD9254403
_publ_section_title
;
Structure prediction by ZEFSAII (Michael W. Deem and Ramdas Pophale) SiO2 
 PCOD9254403
Probable space group: C 2/C
;
_chemical_formula_sum "Si O2"
_cell_formula_units_Z 40
_cell_length_a 28.072668
_cell_length_b 8.600538
_cell_length_c 8.952430
_cell_angle_alpha 90.000000
_cell_angle_beta 75.897893
_cell_angle_gamma 90.000000
_cell_volume 2096.334873
_symmetry_space_group_name_H-M "C 2/C"
_symmetry_group_IT_number 15
_symmetry_cell_setting 'monoclinic'
loop_
_space_group_symop_operation_xyz
x,y,z
-x,y,1/2-z
-x,-y,-z
x,-y,1/2+z
1/2+x,1/2+y,z
1/2-x,1/2+y,1/2-z
1/2-x,1/2-y,-z
1/2+x,1/2-y,1/2+z
loop_
_atom_site_type_symbol
_atom_site_label
_atom_site_fract_x
_atom_site_fract_y
_atom_site_fract_z
Si Si1 0.706487 0.724127 0.744188
Si Si2 0.868757 0.549360 0.317002
Si Si3 0.369800 0.217104 0.624365
Si Si4 0.533794 0.910450 0.356825
Si Si5 0.793625 0.943482 0.568910
O O1 0.656731 0.822563 0.767286
O O2 0.749991 0.844922 0.678764
O O3 0.711547 0.622969 0.887936
O O4 0.707294 0.602915 0.603993
O O5 0.858909 0.603741 0.491837
O O6 0.849879 0.378329 0.283017
O O7 0.926779 0.532704 0.242714
O O8 0.428680 0.215302 0.601271
O O9 0.343587 0.376115 0.604639
O O10 0.500000 0.847814 0.250000
O O11 0.500000 0.000000 0.500000
#
# Coordination Sequence:
#
# PCOD9254403 Si02
#       5
#     8   8   8   8   8
#     4  10  21  36  53  76 108 140 173 213 260 310
#     4   9  18  31  51  78 105 132 172 212 261 303
#     4   9  18  31  51  78 105 131 173 214 258 304
#     4  10  16  30  52  80 100 135 173 220 255 301
#     4  10  21  36  53  76 108 139 174 214 258 312
#
# _framework density 19.080919999999999
#
# number of rings (size 3 to 8) (size 9 to 14) (size 15 to 20)
#    1.200    1.200    2.000    1.200    0.000    2.400 
#    0.000    0.000    0.000    2.400    0.000    0.000 
#    0.000    0.000    0.000    0.000    0.000    0.000 
#
# Total GULP energy -111337.687513 kJ/mol
# GULP energy per Si atom -5566.884376 kJ/mol
# Density = 1.903749 g / cm^3
# Si number density = 19.080920 Si / 1000 Ang^3
#
#
#
# Elastic Constant Matrix: (Units=GPa)
#
#
# Indices 1 2 3 4 5 6 
#
# 1 73.9437 8.6457 3.2208 0.0000 7.8364 0.0000
# 2 8.6457 20.3537 7.8489 0.0000 -1.1387 0.0000
# 3 3.2208 7.8489 20.9271 0.0000 2.8589 0.0000
# 4 0.0000 0.0000 0.0000 32.2053 0.0000 8.3985
# 5 7.8364 -1.1387 2.8589 0.0000 23.5257 0.0000
# 6 0.0000 0.0000 0.0000 8.3985 0.0000 26.7720
#
#
#
# Elastic Compliance Matrix: (Units=1/GPa)
#
#
# Indices 1 2 3 4 5 6 
#
# 1 0.014875 -0.007044 0.001094 0.000000 -0.005429 0.000000
# 2 -0.007044 0.061480 -0.023085 0.000000 0.008128 0.000000
# 3 0.001094 -0.023085 0.057431 0.000000 -0.008461 0.000000
# 4 0.000000 0.000000 0.000000 0.033817 0.000000 -0.010609
# 5 -0.005429 0.008128 -0.008461 0.000000 0.045737 0.000000
# 6 0.000000 0.000000 0.000000 -0.010609 0.000000 0.040680
#
#
# Mechanical properties :
#
#
# Convention : Reuss Voigt Hill
#
# Bulk Modulus (GPa) = 13.20723 17.18393 15.19558
# Shear Modulus (GPa) = 14.82233 22.86788 18.84511
#
# Velocity S-wave (km/s) = 2.79016 3.46565 3.14609
# Velocity P-wave (km/s) = 4.16134 5.00396 4.60198
#
# Compressibility (1/GPa) = 0.07571609
#
# Stress axis : x y z
#
# Youngs Moduli (GPa) = 67.22646 16.26542 17.41229
#
# Poissons Ratio (x) = 0.11458 -0.01905
# Poissons Ratio (y) = 0.47356 0.40196
# Poissons Ratio (z) = -0.07356 0.37549
#
# Static dielectric constant tensor:
#      x y z
#    x 1.691540 0.000000 0.024410 
#    y 0.000000 1.635960 0.000000 
#    z 0.024410 0.000000 1.687850 
# 
# From -- ./inp_files/68151.got.cif
#   From: 2010.05.17/outbox.cif.g08.bks.cpg/sg15_35_cif.got.tgz:68151.got - 2010.06.03 18:47:42.
