data_PCOD9254836
_publ_section_title
;
Structure prediction by ZEFSAII (Michael W. Deem and Ramdas Pophale) SiO2 
 PCOD9254836
Probable space group: C 2/C
;
_chemical_formula_sum "Si O2"
_cell_formula_units_Z 52
_cell_length_a 20.518158
_cell_length_b 8.598959
_cell_length_c 16.999928
_cell_angle_alpha 90.000000
_cell_angle_beta 125.774173
_cell_angle_gamma 90.000000
_cell_volume 2433.478321
_symmetry_space_group_name_H-M "C 2/C"
_symmetry_group_IT_number 15
_symmetry_cell_setting 'monoclinic'
loop_
_space_group_symop_operation_xyz
x,y,z
-x,y,1/2-z
-x,-y,-z
x,-y,1/2+z
1/2+x,1/2+y,z
1/2-x,1/2+y,1/2-z
1/2-x,1/2-y,-z
1/2+x,1/2-y,1/2+z
loop_
_atom_site_type_symbol
_atom_site_label
_atom_site_fract_x
_atom_site_fract_y
_atom_site_fract_z
Si Si1 0.000000 0.559144 0.750000
Si Si2 0.015550 0.841699 0.463064
Si Si3 0.403591 0.169902 0.278930
Si Si4 0.085775 0.071865 0.845167
Si Si5 0.255722 0.936007 0.187890
Si Si6 0.851527 0.796816 0.839018
Si Si7 0.350950 0.727374 0.158667
O O1 0.975404 0.445490 0.803395
O O2 0.921527 0.662042 0.676829
O O3 0.064716 0.874052 0.417569
O O4 0.072990 0.738598 0.558667
O O5 0.933721 0.761659 0.376474
O O6 0.000000 0.000000 0.500000
O O7 0.390702 0.289504 0.197557
O O8 0.328376 0.059218 0.236605
O O9 0.000000 0.012168 0.750000
O O10 0.149420 0.932570 0.888149
O O11 0.178990 0.042175 0.145410
O O12 0.278018 0.824699 0.277448
O O13 0.270393 0.825124 0.122215
O O14 0.876704 0.820746 0.766266
#
# Coordination Sequence:
#
# PCOD9254836 Si02
#       7
#     4   8   8   8   8   8   8
#     4  10  16  36  58  90 114 146 206 228 298 360
#     4  11  23  33  60  94 121 144 198 260 296 345
#     4  10  20  38  63  87 116 160 194 246 296 360
#     4  10  18  34  59  84 118 154 193 239 303 355
#     4   9  23  37  64  79 121 166 201 236 294 372
#     4  10  22  40  56  89 117 160 196 244 300 349
#     4   9  20  33  63  81 111 163 196 239 283 368
#
# _framework density 21.368590000000001
#
# number of rings (size 3 to 8) (size 9 to 14) (size 15 to 20)
#    0.923    1.231    3.077    1.846    4.308    0.615 
#    0.000    1.538    0.000    0.000    0.000    0.000 
#    0.000    0.000    0.000    0.000    0.000    0.000 
#
# Total GULP energy -144873.831119 kJ/mol
# GULP energy per Si atom -5572.070428 kJ/mol
# Density = 2.131995 g / cm^3
# Si number density = 21.368590 Si / 1000 Ang^3
#
#
#
# Elastic Constant Matrix: (Units=GPa)
#
#
# Indices 1 2 3 4 5 6 
#
# 1 51.7236 19.4338 -2.5298 0.0000 1.0200 0.0000
# 2 19.4338 78.1237 -20.6315 0.0000 5.7041 0.0000
# 3 -2.5298 -20.6315 35.2584 0.0000 1.2385 0.0000
# 4 0.0000 0.0000 0.0000 13.5120 0.0000 -1.6787
# 5 1.0200 5.7041 1.2385 0.0000 11.5991 0.0000
# 6 0.0000 0.0000 0.0000 -1.6787 0.0000 50.1550
#
#
#
# Elastic Compliance Matrix: (Units=1/GPa)
#
#
# Indices 1 2 3 4 5 6 
#
# 1 0.021448 -0.005952 -0.001988 0.000000 0.001253 0.000000
# 2 -0.005952 0.017658 0.010231 0.000000 -0.009253 0.000000
# 3 -0.001988 0.010231 0.034506 0.000000 -0.008541 0.000000
# 4 0.000000 0.000000 0.000000 0.074317 0.000000 0.002487
# 5 0.001253 -0.009253 -0.008541 0.000000 0.091565 0.000000
# 6 0.000000 0.000000 0.000000 0.002487 0.000000 0.020021
#
#
# Mechanical properties :
#
#
# Convention : Reuss Voigt Hill
#
# Bulk Modulus (GPa) = 12.78869 17.51674 15.15272
# Shear Modulus (GPa) = 17.79370 26.30877 22.05124
#
# Velocity S-wave (km/s) = 2.88879 3.51264 3.21588
# Velocity P-wave (km/s) = 4.13819 4.96656 4.57118
#
# Compressibility (1/GPa) = 0.07819408
#
# Stress axis : x y z
#
# Youngs Moduli (GPa) = 46.62479 56.63122 28.98053
#
# Poissons Ratio (x) = 0.33705 0.05761
# Poissons Ratio (y) = 0.27750 -0.29649
# Poissons Ratio (z) = 0.09268 -0.57937
#
# Static dielectric constant tensor:
#      x y z
#    x 1.830180 0.000000 0.012240 
#    y 0.000000 1.818600 0.000000 
#    z 0.012240 0.000000 1.768920 
# 
# From -- ./inp_files/221929.got.cif
#   From: 2010.05.17/outbox.cif.g08.bks.cpg/sg15_111_cif.got.tgz:221929.got - 2010.06.03 18:47:42.
