data_PCOD9254734
_publ_section_title
;
Structure prediction by ZEFSAII (Michael W. Deem and Ramdas Pophale) SiO2 
 PCOD9254734
Probable space group: C 2/C
;
_chemical_formula_sum "Si O2"
_cell_formula_units_Z 60
_cell_length_a 10.943463
_cell_length_b 17.297855
_cell_length_c 15.873183
_cell_angle_alpha 90.000000
_cell_angle_beta 110.966034
_cell_angle_gamma 90.000000
_cell_volume 2805.831124
_symmetry_space_group_name_H-M "C 2/C"
_symmetry_group_IT_number 15
_symmetry_cell_setting 'monoclinic'
loop_
_space_group_symop_operation_xyz
x,y,z
-x,y,1/2-z
-x,-y,-z
x,-y,1/2+z
1/2+x,1/2+y,z
1/2-x,1/2+y,1/2-z
1/2-x,1/2-y,-z
1/2+x,1/2-y,1/2+z
loop_
_atom_site_type_symbol
_atom_site_label
_atom_site_fract_x
_atom_site_fract_y
_atom_site_fract_z
Si Si1 0.184700 0.148149 0.053332
Si Si2 0.321478 0.266191 0.627352
Si Si3 0.595062 0.339167 0.103304
Si Si4 0.889213 0.269827 0.337944
Si Si5 0.500000 0.336087 0.250000
Si Si6 0.320713 0.556191 0.133326
Si Si7 0.765818 0.602430 0.899584
Si Si8 0.111953 0.017209 0.156351
O O1 0.200090 0.218566 0.121521
O O2 0.185804 0.069685 0.107041
O O3 0.273554 0.143136 0.992596
O O4 0.038294 0.156205 0.980692
O O5 0.207342 0.205388 0.581312
O O6 0.458544 0.250184 0.615567
O O7 0.353016 0.250726 0.733980
O O8 0.283352 0.355619 0.608780
O O9 0.564033 0.295774 0.184857
O O10 0.630826 0.426965 0.139745
O O11 0.861513 0.357531 0.357310
O O12 0.380850 0.383861 0.176645
O O13 0.221264 0.488730 0.084082
O O14 0.457061 0.538458 0.117972
O O15 0.345296 0.542612 0.239347
#
# Coordination Sequence:
#
# PCOD9254734 Si02
#       8
#     8   8   8   8   4   8   8   8
#     4  11  22  34  59  92 120 147 201 255 298 330
#     4  11  22  37  62  86 120 157 198 239 293 354
#     4  11  21  34  59  92 117 155 190 252 294 346
#     4  11  21  39  56  88 122 158 195 237 297 361
#     4  10  16  34  56  84 112 142 200 232 276 348
#     4  11  18  35  61  86 115 150 200 247 283 341
#     4  11  21  35  61  86 119 157 192 240 298 352
#     4  11  17  35  58  89 116 143 198 251 291 336
#
# _framework density 21.384036999999999
#
# number of rings (size 3 to 8) (size 9 to 14) (size 15 to 20)
#    0.000    1.067    8.000    1.600    0.000    0.533 
#    0.000    0.000    0.000    9.600    0.000    0.000 
#    0.000    0.000    0.000    0.000    0.000    0.000 
#
# Total GULP energy -167555.979284 kJ/mol
# GULP energy per Si atom -5585.199309 kJ/mol
# Density = 2.133537 g / cm^3
# Si number density = 21.384037 Si / 1000 Ang^3
#
#
#
# Elastic Constant Matrix: (Units=GPa)
#
#
# Indices 1 2 3 4 5 6 
#
# 1 34.5949 38.5232 7.9973 0.0000 -15.7196 0.0000
# 2 38.5232 114.4388 0.4510 0.0000 -13.1239 0.0000
# 3 7.9973 0.4510 58.6937 0.0000 -16.0225 0.0000
# 4 0.0000 0.0000 0.0000 32.0991 0.0000 -7.7916
# 5 -15.7196 -13.1239 -16.0225 0.0000 27.5886 0.0000
# 6 0.0000 0.0000 0.0000 -7.7916 0.0000 31.3043
#
#
#
# Elastic Compliance Matrix: (Units=1/GPa)
#
#
# Indices 1 2 3 4 5 6 
#
# 1 0.059836 -0.017244 -0.001132 0.000000 0.025233 0.000000
# 2 -0.017244 0.014302 0.001681 0.000000 -0.002046 0.000000
# 3 -0.001132 0.001681 0.020466 0.000000 0.012041 0.000000
# 4 0.000000 0.000000 0.000000 0.033157 0.000000 0.008253
# 5 0.025233 -0.002046 0.012041 0.000000 0.056644 0.000000
# 6 0.000000 0.000000 0.000000 0.008253 0.000000 0.033999
#
#
# Mechanical properties :
#
#
# Convention : Reuss Voigt Hill
#
# Bulk Modulus (GPa) = 16.33631 33.51894 24.92763
# Shear Modulus (GPa) = 18.36905 28.91545 23.64225
#
# Velocity S-wave (km/s) = 2.93406 3.68121 3.32867
# Velocity P-wave (km/s) = 4.37429 5.81182 5.14352
#
# Compressibility (1/GPa) = 0.06121334
#
# Stress axis : x y z
#
# Youngs Moduli (GPa) = 16.71247 69.92066 48.86194
#
# Poissons Ratio (x) = 1.20572 0.05532
# Poissons Ratio (y) = 0.28819 -0.08215
# Poissons Ratio (z) = 0.01892 -0.11756
#
# Static dielectric constant tensor:
#      x y z
#    x 1.784360 0.000000 -0.014860 
#    y 0.000000 1.803250 0.000000 
#    z -0.014860 0.000000 1.828660 
# 
# From -- ./inp_files/199254.got.cif
#   From: 2010.05.17/outbox.cif.g08.bks.cpg/sg15_100_cif.got.tgz:199254.got - 2010.06.03 18:47:42.
