data_PCOD9254848
_publ_section_title
;
Structure prediction by ZEFSAII (Michael W. Deem and Ramdas Pophale) SiO2 
 PCOD9254848
Probable space group: C 2/C
;
_chemical_formula_sum "Si O2"
_cell_formula_units_Z 56
_cell_length_a 10.345663
_cell_length_b 15.775432
_cell_length_c 23.623316
_cell_angle_alpha 90.000000
_cell_angle_beta 134.087636
_cell_angle_gamma 90.000000
_cell_volume 2769.313213
_symmetry_space_group_name_H-M "C 2/C"
_symmetry_group_IT_number 15
_symmetry_cell_setting 'monoclinic'
loop_
_space_group_symop_operation_xyz
x,y,z
-x,y,1/2-z
-x,-y,-z
x,-y,1/2+z
1/2+x,1/2+y,z
1/2-x,1/2+y,1/2-z
1/2-x,1/2-y,-z
1/2+x,1/2-y,1/2+z
loop_
_atom_site_type_symbol
_atom_site_label
_atom_site_fract_x
_atom_site_fract_y
_atom_site_fract_z
Si Si1 0.889381 0.445253 0.900051
Si Si2 0.378078 0.552645 0.073721
Si Si3 0.459623 0.640504 0.586615
Si Si4 0.098307 0.710608 0.515840
Si Si5 0.056096 0.624829 0.927047
Si Si6 0.849204 0.678368 0.752519
Si Si7 0.639113 0.374131 0.738518
O O1 0.744196 0.450084 0.906276
O O2 0.798212 0.430935 0.811594
O O3 0.989275 0.533920 0.929693
O O4 0.009977 0.363185 0.949780
O O5 0.406213 0.457278 0.060860
O O6 0.557422 0.592178 0.155248
O O7 0.271146 0.611690 0.996631
O O8 0.309271 0.685603 0.581069
O O9 0.444490 0.699984 0.526460
O O10 0.658836 0.640646 0.674261
O O11 0.006164 0.696619 0.548040
O O12 0.951531 0.640126 0.837534
O O13 0.808004 0.776866 0.752045
O O14 0.000000 0.674108 0.750000
O O15 0.500000 0.374557 0.750000
#
# Coordination Sequence:
#
# PCOD9254848 Si02
#       7
#     8   8   8   8   8   8   8
#     4  10  16  36  60  92 121 146 202 250 307 358
#     4  10  19  34  62  95 113 154 206 255 297 364
#     4  11  20  38  62  90 129 155 196 251 327 362
#     4  10  20  35  64  94 123 154 191 261 318 365
#     4  11  21  37  63  91 121 153 210 254 299 374
#     4  11  25  41  57  83 121 170 206 250 311 371
#     4   9  19  34  56  81 116 156 203 252 289 348
#
# _framework density 20.221619
#
# number of rings (size 3 to 8) (size 9 to 14) (size 15 to 20)
#    0.000    1.714    4.286    1.714    2.000    1.143 
#    0.000    0.714    3.143    0.000    0.000    0.000 
#    0.000    0.000    0.000    0.000    0.000    0.000 
#
# Total GULP energy -156163.513711 kJ/mol
# GULP energy per Si atom -5577.268347 kJ/mol
# Density = 2.017559 g / cm^3
# Si number density = 20.221619 Si / 1000 Ang^3
#
#
#
# Elastic Constant Matrix: (Units=GPa)
#
#
# Indices 1 2 3 4 5 6 
#
# 1 31.9292 40.0005 38.0807 0.0000 4.2264 0.0000
# 2 40.0005 77.1277 30.9478 0.0000 2.7137 0.0000
# 3 38.0807 30.9478 147.4164 0.0000 14.4669 0.0000
# 4 0.0000 0.0000 0.0000 36.6561 0.0000 -1.6387
# 5 4.2264 2.7137 14.4669 0.0000 15.8405 0.0000
# 6 0.0000 0.0000 0.0000 -1.6387 0.0000 26.2695
#
#
#
# Elastic Compliance Matrix: (Units=1/GPa)
#
#
# Indices 1 2 3 4 5 6 
#
# 1 0.132264 -0.059962 -0.021006 0.000000 -0.005833 0.000000
# 2 -0.059962 0.041343 0.006519 0.000000 0.002962 0.000000
# 3 -0.021006 0.006519 0.011425 0.000000 -0.005946 0.000000
# 4 0.000000 0.000000 0.000000 0.027357 0.000000 0.001707
# 5 -0.005833 0.002962 -0.005946 0.000000 0.069609 0.000000
# 6 0.000000 0.000000 0.000000 0.001707 0.000000 0.038173
#
#
# Mechanical properties :
#
#
# Convention : Reuss Voigt Hill
#
# Bulk Modulus (GPa) = 27.67408 52.72569 40.19989
# Shear Modulus (GPa) = 10.39257 25.58282 17.98770
#
# Velocity S-wave (km/s) = 2.26947 3.56071 2.98573
# Velocity P-wave (km/s) = 4.53679 6.56014 5.63994
#
# Compressibility (1/GPa) = 0.03613490
#
# Stress axis : x y z
#
# Youngs Moduli (GPa) = 7.56064 24.18778 87.52952
#
# Poissons Ratio (x) = 1.45034 1.83865
# Poissons Ratio (y) = 0.45335 -0.57063
# Poissons Ratio (z) = 0.15882 -0.15769
#
# Static dielectric constant tensor:
#      x y z
#    x 1.726570 0.000000 0.027690 
#    y 0.000000 1.691320 0.000000 
#    z 0.027690 0.000000 1.782010 
# 
# From -- ./inp_files/197968.got.cif
#   From: 2010.05.17/outbox.cif.g08.bks.cpg/sg15_99_cif.got.tgz:197968.got - 2010.06.03 18:47:42.
