data_PCOD9254323
_publ_section_title
;
Structure prediction by ZEFSAII (Michael W. Deem and Ramdas Pophale) SiO2 
 PCOD9254323
Probable space group: C 2/C
;
_chemical_formula_sum "Si O2"
_cell_formula_units_Z 56
_cell_length_a 19.284416
_cell_length_b 7.047663
_cell_length_c 20.789207
_cell_angle_alpha 90.000000
_cell_angle_beta 130.153169
_cell_angle_gamma 90.000000
_cell_volume 2159.566922
_symmetry_space_group_name_H-M "C 2/C"
_symmetry_group_IT_number 15
_symmetry_cell_setting 'monoclinic'
loop_
_space_group_symop_operation_xyz
x,y,z
-x,y,1/2-z
-x,-y,-z
x,-y,1/2+z
1/2+x,1/2+y,z
1/2-x,1/2+y,1/2-z
1/2-x,1/2-y,-z
1/2+x,1/2-y,1/2+z
loop_
_atom_site_type_symbol
_atom_site_label
_atom_site_fract_x
_atom_site_fract_y
_atom_site_fract_z
Si Si1 0.279691 0.055651 0.578109
Si Si2 0.150565 0.791254 0.554096
Si Si3 0.298760 0.457289 0.645166
Si Si4 0.000000 0.500000 0.500000
Si Si5 0.128296 0.594497 0.235669
Si Si6 0.045885 0.421934 0.388567
Si Si7 0.710746 0.737024 0.222779
Si Si8 0.000000 0.887368 0.750000
O O1 0.182956 0.949495 0.522481
O O2 0.332019 0.975335 0.673217
O O3 0.275467 0.281361 0.584284
O O4 0.353008 0.015873 0.567699
O O5 0.228392 0.627212 0.596011
O O6 0.166543 0.872761 0.636294
O O7 0.055641 0.683682 0.501373
O O8 0.288103 0.360186 0.708200
O O9 0.405844 0.501386 0.700789
O O10 0.968358 0.623611 0.545172
O O11 0.185395 0.763327 0.239025
O O12 0.154484 0.428309 0.199749
O O13 0.021679 0.593415 0.171701
O O14 0.015252 0.251734 0.321314
#
# Coordination Sequence:
#
# PCOD9254323 Si02
#       8
#     8   8   8   4   8   8   8   4
#     4   9  21  36  62  84 117 156 202 250 306 359
#     4  11  22  38  55  92 118 162 204 249 304 367
#     4  10  18  36  58  86 122 153 197 259 302 358
#     4  12  24  36  64  86 126 162 206 246 306 368
#     4  10  16  30  55  80 113 151 189 247 299 346
#     4  11  18  38  59  88 120 164 196 249 312 368
#     4  10  16  29  52  82 114 145 195 246 295 349
#     4  10  18  36  60  84 118 158 196 244 316 358
#
# _framework density 25.931122999999999
#
# number of rings (size 3 to 8) (size 9 to 14) (size 15 to 20)
#    0.000    1.714    7.143    0.000    0.000    0.571 
#    5.143    3.571    0.000    0.000    0.000    0.000 
#    0.000    0.000    0.000    0.000    0.000    0.000 
#
# Total GULP energy -155886.822210 kJ/mol
# GULP energy per Si atom -5567.386508 kJ/mol
# Density = 2.587210 g / cm^3
# Si number density = 25.931123 Si / 1000 Ang^3
#
#
#
# Elastic Constant Matrix: (Units=GPa)
#
#
# Indices 1 2 3 4 5 6 
#
# 1 168.5337 18.7577 25.7153 0.0000 1.4641 0.0000
# 2 18.7577 62.2666 -3.5554 0.0000 10.2823 0.0001
# 3 25.7153 -3.5554 48.9422 0.0000 -6.6639 0.0000
# 4 0.0000 0.0000 0.0000 25.9929 0.0000 5.3487
# 5 1.4641 10.2823 -6.6639 0.0000 30.5698 0.0000
# 6 0.0000 0.0001 0.0000 5.3487 0.0000 23.4890
#
#
#
# Elastic Compliance Matrix: (Units=1/GPa)
#
#
# Indices 1 2 3 4 5 6 
#
# 1 0.006754 -0.002182 -0.003763 0.000000 -0.000410 0.000000
# 2 -0.002182 0.017720 0.001686 0.000000 -0.005488 0.000000
# 3 -0.003763 0.001686 0.023167 0.000000 0.004663 0.000000
# 4 0.000000 0.000000 0.000000 0.040363 0.000000 -0.009191
# 5 -0.000410 -0.005488 0.004663 0.000000 0.035594 0.000000
# 6 0.000000 0.000000 0.000000 -0.009191 0.000000 0.044666
#
#
# Mechanical properties :
#
#
# Convention : Reuss Voigt Hill
#
# Bulk Modulus (GPa) = 25.55986 40.17528 32.86757
# Shear Modulus (GPa) = 26.34036 31.93199 29.13618
#
# Velocity S-wave (km/s) = 3.19059 3.51296 3.35565
# Velocity P-wave (km/s) = 4.84266 5.65519 5.26463
#
# Compressibility (1/GPa) = 0.03912384
#
# Stress axis : x y z
#
# Youngs Moduli (GPa) = 148.05806 56.43397 43.16501
#
# Poissons Ratio (x) = 0.12313 0.16243
# Poissons Ratio (y) = 0.32304 -0.07279
# Poissons Ratio (z) = 0.55715 -0.09517
#
# Static dielectric constant tensor:
#      x y z
#    x 2.061840 0.000000 0.016760 
#    y 0.000000 2.157100 0.000000 
#    z 0.016760 0.000000 2.163770 
# 
# From -- ./inp_files/276645.got.cif
#   From: 2010.05.17/outbox.cif.g08.bks.cpg/sg15_139_cif.got.tgz:276645.got - 2010.06.03 18:47:42.
