data_PCOD9254244
_publ_section_title
;
Structure prediction by ZEFSAII (Michael W. Deem and Ramdas Pophale) SiO2 
 PCOD9254244
Probable space group: C 2/C
;
_chemical_formula_sum "Si O2"
_cell_formula_units_Z 52
_cell_length_a 28.464841
_cell_length_b 6.974301
_cell_length_c 13.908241
_cell_angle_alpha 90.000000
_cell_angle_beta 42.000239
_cell_angle_gamma 90.000000
_cell_volume 1847.543037
_symmetry_space_group_name_H-M "C 2/C"
_symmetry_group_IT_number 15
_symmetry_cell_setting 'monoclinic'
loop_
_space_group_symop_operation_xyz
x,y,z
-x,y,1/2-z
-x,-y,-z
x,-y,1/2+z
1/2+x,1/2+y,z
1/2-x,1/2+y,1/2-z
1/2-x,1/2-y,-z
1/2+x,1/2-y,1/2+z
loop_
_atom_site_type_symbol
_atom_site_label
_atom_site_fract_x
_atom_site_fract_y
_atom_site_fract_z
Si Si1 0.686100 0.581057 0.677334
Si Si2 0.461575 0.287107 0.092785
Si Si3 0.087111 0.356768 0.289730
Si Si4 0.149878 0.965051 0.015746
Si Si5 0.000000 0.062528 0.750000
Si Si6 0.800072 0.504985 0.268730
Si Si7 0.840344 0.494514 0.005108
O O1 0.606647 0.593923 0.839863
O O2 0.668767 0.505518 0.598034
O O3 0.704774 0.810617 0.654530
O O4 0.758928 0.488457 0.598738
O O5 0.483694 0.333688 0.170886
O O6 0.437032 0.067653 0.139321
O O7 0.525074 0.282282 0.919039
O O8 0.158829 0.333013 0.242463
O O9 0.110696 0.398050 0.144979
O O10 0.072645 0.042988 0.116620
O O11 0.220128 0.039128 0.857554
O O12 0.143459 0.733922 0.012887
O O13 0.843544 0.562749 0.108952
#
# Coordination Sequence:
#
# PCOD9254244 Si02
#       7
#     8   8   8   8   4   8   8
#     4   9  17  34  48  72 107 141 167 213 265 311
#     4   9  18  27  45  73 108 130 161 214 262 305
#     4  10  17  29  43  78 106 128 160 218 263 299
#     4  10  17  32  49  75 102 133 171 219 257 307
#     4  10  16  28  50  70  94 132 174 208 256 310
#     4  10  18  28  50  77  98 131 182 213 247 318
#     4  11  17  29  53  73 102 138 170 208 261 314
#
# _framework density 28.145488
#
# number of rings (size 3 to 8) (size 9 to 14) (size 15 to 20)
#    0.000    2.154    6.154    1.846    0.000    0.000 
#    0.000    0.000    0.000   12.000    8.000    0.000 
#    0.000    0.000    0.000    0.000    0.000    0.000 
#
# Total GULP energy -145368.490092 kJ/mol
# GULP energy per Si atom -5591.095773 kJ/mol
# Density = 2.808143 g / cm^3
# Si number density = 28.145488 Si / 1000 Ang^3
#
#
#
# Elastic Constant Matrix: (Units=GPa)
#
#
# Indices 1 2 3 4 5 6 
#
# 1 98.4961 13.0059 60.8942 0.0003 -7.1593 0.0001
# 2 13.0059 88.7148 26.2333 0.0009 -17.5504 0.0002
# 3 60.8942 26.2333 249.3361 0.0001 -2.7443 0.0001
# 4 0.0003 0.0009 0.0001 33.3430 -0.0002 -5.2081
# 5 -7.1593 -17.5504 -2.7443 -0.0002 60.1062 -0.0001
# 6 0.0001 0.0002 0.0001 -5.2081 -0.0001 27.8342
#
#
#
# Elastic Compliance Matrix: (Units=1/GPa)
#
#
# Indices 1 2 3 4 5 6 
#
# 1 0.012100 -0.000707 -0.002868 0.000000 0.001104 0.000000
# 2 -0.000707 0.012388 -0.001092 0.000000 0.003483 0.000000
# 3 -0.002868 -0.001092 0.004821 0.000000 -0.000440 0.000000
# 4 0.000000 0.000000 0.000000 0.030894 0.000000 0.005781
# 5 0.001104 0.003483 -0.000440 0.000000 0.017766 0.000000
# 6 0.000000 0.000000 0.000000 0.005781 0.000000 0.037009
#
#
# Mechanical properties :
#
#
# Convention : Reuss Voigt Hill
#
# Bulk Modulus (GPa) = 50.06842 70.75709 60.41276
# Shear Modulus (GPa) = 38.17643 46.68427 42.43035
#
# Velocity S-wave (km/s) = 3.68692 4.07710 3.88691
# Velocity P-wave (km/s) = 5.99602 6.88172 6.45408
#
# Compressibility (1/GPa) = 0.01997267
#
# Stress axis : x y z
#
# Youngs Moduli (GPa) = 82.64654 80.72460 207.41370
#
# Poissons Ratio (x) = 0.05710 0.59496
# Poissons Ratio (y) = 0.05846 0.22655
# Poissons Ratio (z) = 0.23707 0.08817
#
# Static dielectric constant tensor:
#      x y z
#    x 2.206980 0.000000 -0.031830 
#    y 0.000000 2.225170 0.000000 
#    z -0.031830 0.000000 2.282480 
# 
# From -- ./inp_files/166985.got.cif
#   From: 2010.05.17/outbox.cif.g08.bks.cpg/sg15_84_cif.got.tgz:166985.got - 2010.06.03 18:47:42.
