data_PCOD9254399
_publ_section_title
;
Structure prediction by ZEFSAII (Michael W. Deem and Ramdas Pophale) SiO2 
 PCOD9254399
Probable space group: C 2/C
;
_chemical_formula_sum "Si O2"
_cell_formula_units_Z 52
_cell_length_a 14.583270
_cell_length_b 12.413769
_cell_length_c 14.647219
_cell_angle_alpha 90.000000
_cell_angle_beta 50.785947
_cell_angle_gamma 90.000000
_cell_volume 2054.458855
_symmetry_space_group_name_H-M "C 2/C"
_symmetry_group_IT_number 15
_symmetry_cell_setting 'monoclinic'
loop_
_space_group_symop_operation_xyz
x,y,z
-x,y,1/2-z
-x,-y,-z
x,-y,1/2+z
1/2+x,1/2+y,z
1/2-x,1/2+y,1/2-z
1/2-x,1/2-y,-z
1/2+x,1/2-y,1/2+z
loop_
_atom_site_type_symbol
_atom_site_label
_atom_site_fract_x
_atom_site_fract_y
_atom_site_fract_z
Si Si1 0.287873 0.634440 0.632674
Si Si2 0.868381 0.104333 0.094603
Si Si3 0.321878 0.064632 0.963788
Si Si4 0.029621 0.277156 0.338685
Si Si5 0.000000 0.570484 0.250000
Si Si6 0.679093 0.357758 0.077317
Si Si7 0.121346 0.273532 0.783207
O O1 0.346876 0.521795 0.624056
O O2 0.272120 0.635541 0.533135
O O3 0.158103 0.662484 0.757268
O O4 0.368269 0.726358 0.624554
O O5 0.950216 0.169537 0.114032
O O6 0.740161 0.158765 0.190400
O O7 0.893335 0.115632 0.969807
O O8 0.428103 0.137680 0.934576
O O9 0.387812 0.001116 0.839865
O O10 0.255698 0.965417 0.053586
O O11 0.000000 0.253219 0.250000
O O12 0.984375 0.645938 0.172374
O O13 0.620267 0.319453 0.207726
O O14 0.750000 0.250000 0.000000
#
# Coordination Sequence:
#
# PCOD9254399 Si02
#       7
#     8   8   8   8   4   8   8
#     4   9  16  30  46  70  95 127 166 195 244 288
#     4   9  16  30  49  68 100 129 157 202 248 290
#     4  10  16  30  52  71  99 129 164 207 241 285
#     4   9  16  27  47  74  93 123 170 201 238 284
#     4  12  16  30  50  72 100 122 174 204 234 280
#     4   9  16  30  46  73 103 133 155 199 256 288
#     4  10  19  29  50  76  96 131 164 203 242 293
#
# _framework density 25.310801999999999
#
# number of rings (size 3 to 8) (size 9 to 14) (size 15 to 20)
#    0.000    2.462    6.923    0.000    0.000    0.000 
#    1.385    8.462    0.000    3.692    0.000    9.692 
#    0.000    0.000    0.000    0.000    0.000    0.000 
#
# Total GULP energy -145154.008212 kJ/mol
# GULP energy per Si atom -5582.846470 kJ/mol
# Density = 2.525319 g / cm^3
# Si number density = 25.310802 Si / 1000 Ang^3
#
#
#
# Elastic Constant Matrix: (Units=GPa)
#
#
# Indices 1 2 3 4 5 6 
#
# 1 124.3730 68.2466 20.2496 0.0000 -3.6725 0.0000
# 2 68.2466 141.8173 41.0729 0.0000 19.1256 0.0000
# 3 20.2496 41.0729 69.4451 0.0000 5.3192 0.0000
# 4 0.0000 0.0000 0.0000 28.4120 0.0000 6.8297
# 5 -3.6725 19.1256 5.3192 0.0000 18.8733 0.0000
# 6 0.0000 0.0000 0.0000 6.8297 0.0000 60.5717
#
#
#
# Elastic Compliance Matrix: (Units=1/GPa)
#
#
# Indices 1 2 3 4 5 6 
#
# 1 0.012292 -0.007206 -0.000066 0.000000 0.009713 0.000000
# 2 -0.007206 0.013868 -0.005026 0.000000 -0.014039 0.000000
# 3 -0.000066 -0.005026 0.017378 0.000000 0.000182 0.000000
# 4 0.000000 0.000000 0.000000 0.036177 0.000000 -0.004079
# 5 0.009713 -0.014039 0.000182 0.000000 0.069051 0.000000
# 6 0.000000 0.000000 0.000000 -0.004079 0.000000 0.016969
#
#
# Mechanical properties :
#
#
# Convention : Reuss Voigt Hill
#
# Bulk Modulus (GPa) = 52.79309 66.08597 59.43953
# Shear Modulus (GPa) = 25.42670 35.30914 30.36792
#
# Velocity S-wave (km/s) = 3.17295 3.73905 3.46757
# Velocity P-wave (km/s) = 5.85890 6.69381 6.29022
#
# Compressibility (1/GPa) = 0.01894187
#
# Stress axis : x y z
#
# Youngs Moduli (GPa) = 81.35364 72.10928 57.54550
#
# Poissons Ratio (x) = 0.51962 0.00382
# Poissons Ratio (y) = 0.58623 0.28920
# Poissons Ratio (z) = 0.00539 0.36239
#
# Static dielectric constant tensor:
#      x y z
#    x 2.068710 0.000000 -0.015570 
#    y 0.000000 2.008480 0.000000 
#    z -0.015570 0.000000 1.992490 
# 
# From -- ./inp_files/203875.got.cif
#   From: 2010.05.17/outbox.cif.g08.bks.cpg/sg15_102_cif.got.tgz:203875.got - 2010.06.03 18:47:42.
