data_PCOD9254986
_publ_section_title
;
Structure prediction by ZEFSAII (Michael W. Deem and Ramdas Pophale) SiO2 
 PCOD9254986
Probable space group: C 2/C
;
_chemical_formula_sum "Si O2"
_cell_formula_units_Z 56
_cell_length_a 32.533113
_cell_length_b 8.136013
_cell_length_c 28.956436
_cell_angle_alpha 90.000000
_cell_angle_beta 16.299596
_cell_angle_gamma 90.000000
_cell_volume 2151.110859
_symmetry_space_group_name_H-M "C 2/C"
_symmetry_group_IT_number 15
_symmetry_cell_setting 'monoclinic'
loop_
_space_group_symop_operation_xyz
x,y,z
-x,y,1/2-z
-x,-y,-z
x,-y,1/2+z
1/2+x,1/2+y,z
1/2-x,1/2+y,1/2-z
1/2-x,1/2-y,-z
1/2+x,1/2-y,1/2+z
loop_
_atom_site_type_symbol
_atom_site_label
_atom_site_fract_x
_atom_site_fract_y
_atom_site_fract_z
Si Si1 0.330608 0.992711 0.938996
Si Si2 0.309627 0.651586 0.002728
Si Si3 0.451777 0.131364 0.151532
Si Si4 0.272538 0.983489 0.659620
Si Si5 0.479769 0.516170 0.421451
Si Si6 0.211907 0.641671 0.258319
Si Si7 0.964946 0.106769 0.235239
O O1 0.500000 0.023691 0.750000
O O2 0.270347 0.925235 0.955348
O O3 0.315298 0.844905 0.991488
O O4 0.208842 0.125759 0.084175
O O5 0.206948 0.599396 0.155513
O O6 0.472433 0.579587 0.827817
O O7 0.486327 0.321273 0.126220
O O8 0.430404 0.109244 0.119615
O O9 0.579516 0.009329 0.029427
O O10 0.125407 0.931007 0.792209
O O11 0.250033 0.171710 0.702116
O O12 0.301321 0.872180 0.672921
O O13 0.337960 0.487715 0.606379
O O14 0.466599 0.632105 0.389995
O O15 0.000000 0.166481 0.250000
#
# Coordination Sequence:
#
# PCOD9254986 Si02
#       7
#     8   8   8   8   8   8   8
#     4  10  19  23  38  60  93 131 179 203 238 297
#     4  10  17  27  37  59  92 135 171 201 242 306
#     4  10  19  30  48  68  98 134 177 208 258 310
#     4  10  22  34  55  75 102 136 178 223 264 308
#     4  10  19  31  49  70  99 138 176 211 255 313
#     4  10  20  37  52  75 101 138 174 221 265 314
#     4  10  19  29  40  63 100 139 171 205 247 314
#
# _framework density 26.033059000000002
#
# number of rings (size 3 to 8) (size 9 to 14) (size 15 to 20)
#    0.000    2.000    2.857    3.000    2.000    0.000 
#    0.000    0.000    0.000    0.000    0.000    0.000 
#    0.000    1.143    1.143    5.714    0.000    0.000 
#
# Total GULP energy -156271.233596 kJ/mol
# GULP energy per Si atom -5581.115486 kJ/mol
# Density = 2.597381 g / cm^3
# Si number density = 26.033059 Si / 1000 Ang^3
#
#
#
# Elastic Constant Matrix: (Units=GPa)
#
#
# Indices 1 2 3 4 5 6 
#
# 1 136.9205 20.6967 4.4743 0.0135 -3.9759 0.0049
# 2 20.6967 52.4526 15.3336 0.0372 -0.2766 0.0099
# 3 4.4743 15.3336 100.5000 0.0416 -16.2297 0.0061
# 4 0.0135 0.0372 0.0416 -1.7669 -0.0120 4.9561
# 5 -3.9759 -0.2766 -16.2297 -0.0120 43.5844 0.0008
# 6 0.0049 0.0099 0.0061 4.9561 0.0008 65.9531
#
#
#
# Elastic Compliance Matrix: (Units=1/GPa)
#
#
# Indices 1 2 3 4 5 6 
#
# 1 0.007794 -0.003147 0.000260 -0.000005 0.000788 0.000000
# 2 -0.003147 0.021273 -0.003330 0.000287 -0.001392 -0.000024
# 3 0.000260 -0.003330 0.011116 0.000135 0.004142 -0.000011
# 4 -0.000005 0.000287 0.000135 -0.467433 -0.000078 0.035126
# 5 0.000788 -0.001392 0.004142 -0.000078 0.024549 0.000005
# 6 0.000000 -0.000024 -0.000011 0.035126 0.000005 0.012523
#
#
# Mechanical properties :
#
#
# Convention : Reuss Voigt Hill
#
# Bulk Modulus (GPa) = 36.03926 41.20914 38.62420
# Shear Modulus (GPa) = -13.56868 38.17869 12.30501
#
# Velocity S-wave (km/s) = -2.28548 3.83371 2.17645
# Velocity P-wave (km/s) = 2.62853 5.95486 4.60269
#
# Compressibility (1/GPa) = 0.02774752
#
# Stress axis : x y z
#
# Youngs Moduli (GPa) = 128.31043 47.00866 89.96370
#
# Poissons Ratio (x) = 0.14794 -0.02343
# Poissons Ratio (y) = 0.40381 0.29962
# Poissons Ratio (z) = -0.03342 0.15656
#
# Static dielectric constant tensor:
#      x y z
#    x 2.122270 0.000000 -0.000010 
#    y 0.000000 2.053930 0.000000 
#    z -0.000010 0.000000 2.072700 
# 
# From -- ./inp_files/304251.got.cif
#   From: 2010.05.17/outbox.cif.g08.bks.cpg/sg15_153_cif.got.tgz:304251.got - 2010.06.03 18:47:42.
