data_PCOD9254324
_publ_section_title
;
Structure prediction by ZEFSAII (Michael W. Deem and Ramdas Pophale) SiO2 
 PCOD9254324
Probable space group: C 2/C
;
_chemical_formula_sum "Si O2"
_cell_formula_units_Z 56
_cell_length_a 10.127743
_cell_length_b 15.846431
_cell_length_c 24.902448
_cell_angle_alpha 90.000000
_cell_angle_beta 143.070619
_cell_angle_gamma 90.000000
_cell_volume 2401.253146
_symmetry_space_group_name_H-M "C 2/C"
_symmetry_group_IT_number 15
_symmetry_cell_setting 'monoclinic'
loop_
_space_group_symop_operation_xyz
x,y,z
-x,y,1/2-z
-x,-y,-z
x,-y,1/2+z
1/2+x,1/2+y,z
1/2-x,1/2+y,1/2-z
1/2-x,1/2-y,-z
1/2+x,1/2-y,1/2+z
loop_
_atom_site_type_symbol
_atom_site_label
_atom_site_fract_x
_atom_site_fract_y
_atom_site_fract_z
Si Si1 0.005517 0.661710 0.533583
Si Si2 0.474727 0.826273 0.178077
Si Si3 0.987034 0.812284 0.892066
Si Si4 0.035572 0.522882 0.618903
Si Si5 0.481502 0.488779 0.558525
Si Si6 0.476478 0.841030 0.589471
Si Si7 0.467002 0.666166 0.922530
O O1 0.097196 0.746652 0.590266
O O2 0.751210 0.670199 0.471267
O O3 0.122144 0.579362 0.597486
O O4 0.017612 0.654887 0.473879
O O5 0.500000 0.826953 0.250000
O O6 0.559346 0.741831 0.176752
O O7 0.547595 0.911819 0.172192
O O8 0.207313 0.824629 0.086182
O O9 0.906955 0.905532 0.881393
O O10 0.780273 0.511231 0.519113
O O11 0.101570 0.425326 0.649698
O O12 0.500000 0.500000 0.500000
O O13 0.574571 0.573909 0.614946
O O14 0.560312 0.745696 0.625537
O O15 0.220728 0.837475 0.522868
#
# Coordination Sequence:
#
# PCOD9254324 Si02
#       7
#     8   8   8   8   8   8   8
#     4   9  15  29  51  81 110 127 167 227 282 319
#     4  11  21  38  55  73 108 153 193 216 242 329
#     4   9  18  30  53  81 105 141 180 215 271 325
#     4   9  19  30  52  83 105 140 170 220 278 321
#     4  10  16  29  54  82 108 126 167 233 281 321
#     4  10  18  30  53  84 114 128 161 236 293 319
#     4  10  20  32  51  82 106 140 174 217 277 323
#
# _framework density 23.321155999999998
#
# number of rings (size 3 to 8) (size 9 to 14) (size 15 to 20)
#    0.000    2.286    2.857    2.143    0.000    0.000 
#    0.000    1.429    0.000    3.429    0.000    0.000 
#    0.000    0.000    0.000    0.000    0.000    0.000 
#
# Total GULP energy -155870.675301 kJ/mol
# GULP energy per Si atom -5566.809832 kJ/mol
# Density = 2.326808 g / cm^3
# Si number density = 23.321156 Si / 1000 Ang^3
#
#
#
# Elastic Constant Matrix: (Units=GPa)
#
#
# Indices 1 2 3 4 5 6 
#
# 1 75.7108 25.8573 13.2272 0.0000 -20.4073 0.0000
# 2 25.8573 274.3830 40.5884 0.0000 -33.3920 0.0000
# 3 13.2272 40.5884 47.3675 0.0001 -21.3490 0.0001
# 4 0.0000 0.0000 0.0001 -0.3632 0.0001 -2.7755
# 5 -20.4073 -33.3920 -21.3490 0.0001 25.9090 0.0000
# 6 0.0000 0.0000 0.0001 -2.7755 0.0000 26.5245
#
#
#
# Elastic Compliance Matrix: (Units=1/GPa)
#
#
# Indices 1 2 3 4 5 6 
#
# 1 0.016892 -0.000085 0.002073 0.000003 0.014904 0.000000
# 2 -0.000085 0.004433 -0.001957 0.000000 0.004034 0.000000
# 3 0.002073 -0.001957 0.034693 0.000010 0.027698 0.000001
# 4 0.000003 0.000000 0.000010 -1.529816 0.000015 -0.160081
# 5 0.014904 0.004034 0.027698 0.000015 0.078359 0.000001
# 6 0.000000 0.000000 0.000001 -0.160081 0.000001 0.020950
#
#
# Mechanical properties :
#
#
# Convention : Reuss Voigt Hill
#
# Bulk Modulus (GPa) = 17.83117 61.86745 39.84931
# Shear Modulus (GPa) = -3.68770 31.59994 13.95612
#
# Velocity S-wave (km/s) = -1.25885 3.68501 2.44894
# Velocity P-wave (km/s) = 2.35576 6.68519 5.01206
#
# Compressibility (1/GPa) = 0.05608156
#
# Stress axis : x y z
#
# Youngs Moduli (GPa) = 59.19887 225.58508 28.82422
#
# Poissons Ratio (x) = 0.01911 -0.05975
# Poissons Ratio (y) = 0.00502 0.05639
# Poissons Ratio (z) = -0.12271 0.44136
#
# Static dielectric constant tensor:
#      x y z
#    x 1.866400 0.000000 0.007530 
#    y 0.000000 2.078470 0.000000 
#    z 0.007530 0.000000 1.909390 
# 
# From -- ./inp_files/292905.got.cif
#   From: 2010.05.17/outbox.cif.g08.bks.cpg/sg15_147_cif.got.tgz:292905.got - 2010.06.03 18:47:42.
