data_PCOD9254036
_publ_section_title
;
Structure prediction by ZEFSAII (Michael W. Deem and Ramdas Pophale) SiO2 
 PCOD9254036
Probable space group: C 2/C
;
_chemical_formula_sum "Si O2"
_cell_formula_units_Z 48
_cell_length_a 7.041526
_cell_length_b 30.027247
_cell_length_c 13.673933
_cell_angle_alpha 90.000000
_cell_angle_beta 44.268672
_cell_angle_gamma 90.000000
_cell_volume 2018.115497
_symmetry_space_group_name_H-M "C 2/C"
_symmetry_group_IT_number 15
_symmetry_cell_setting 'monoclinic'
loop_
_space_group_symop_operation_xyz
x,y,z
-x,y,1/2-z
-x,-y,-z
x,-y,1/2+z
1/2+x,1/2+y,z
1/2-x,1/2+y,1/2-z
1/2-x,1/2-y,-z
1/2+x,1/2-y,1/2+z
loop_
_atom_site_type_symbol
_atom_site_label
_atom_site_fract_x
_atom_site_fract_y
_atom_site_fract_z
Si Si1 0.273456 0.466552 0.207963
Si Si2 0.723342 0.133192 0.282630
Si Si3 0.537500 0.185065 0.621042
Si Si4 0.015371 0.589250 0.955901
Si Si5 0.097738 0.778194 0.825192
Si Si6 0.558793 0.440044 0.914745
O O1 0.293044 0.519825 0.196501
O O2 0.000000 0.453264 0.250000
O O3 0.232362 0.444031 0.328086
O O4 0.510567 0.451168 0.046094
O O5 0.511098 0.104462 0.422665
O O6 0.672133 0.184565 0.275789
O O7 0.000000 0.134365 0.250000
O O8 0.798150 0.106347 0.158650
O O9 0.500000 0.178764 0.750000
O O10 0.464631 0.137741 0.602104
O O11 0.362043 0.228161 0.650553
O O12 0.847144 0.198919 0.476647
O O13 0.732155 0.565710 0.030811
O O14 0.000000 0.769596 0.750000
#
# Coordination Sequence:
#
# PCOD9254036 Si02
#       6
#     8   8   8   8   8   8
#     4   9  18  28  40  57  73  98 137 169 198 229
#     4   9  15  26  38  53  78 106 128 152 191 228
#     4  10  16  21  36  54  77 106 134 150 177 233
#     4  10  17  27  40  57  80 109 134 155 193 233
#     4   9  15  24  33  53  78 107 131 146 184 226
#     4   9  16  28  41  53  75 103 129 168 199 226
#
# _framework density 23.784566000000002
#
# number of rings (size 3 to 8) (size 9 to 14) (size 15 to 20)
#    0.000    2.667    5.000    1.500    0.000    0.667 
#    0.000    0.000    0.000    0.000    0.000    0.000 
#    0.000    0.000    0.000  100.500    0.000   12.000 
#
# Total GULP energy -133831.389777 kJ/mol
# GULP energy per Si atom -5576.307907 kJ/mol
# Density = 2.373043 g / cm^3
# Si number density = 23.784566 Si / 1000 Ang^3
#
#
#
# Elastic Constant Matrix: (Units=GPa)
#
#
# Indices 1 2 3 4 5 6 
#
# 1 54.8686 -13.3390 9.7628 0.0000 -3.8331 0.0000
# 2 -13.3390 113.7593 23.4424 0.0000 0.3771 0.0000
# 3 9.7628 23.4424 109.0135 0.0000 19.1383 0.0000
# 4 0.0000 0.0000 0.0000 103.3897 0.0000 9.5817
# 5 -3.8331 0.3771 19.1383 0.0000 27.4501 0.0000
# 6 0.0000 0.0000 0.0000 9.5817 0.0000 -2.3773
#
#
#
# Elastic Compliance Matrix: (Units=1/GPa)
#
#
# Indices 1 2 3 4 5 6 
#
# 1 0.019896 0.002999 -0.003313 0.000000 0.005047 0.000000
# 2 0.002999 0.009699 -0.002740 0.000000 0.002196 0.000000
# 3 -0.003313 -0.002740 0.011547 0.000000 -0.008476 0.000000
# 4 0.000000 0.000000 0.000000 0.007042 0.000000 0.028382
# 5 0.005047 0.002196 -0.008476 0.000000 0.043013 0.000000
# 6 0.000000 0.000000 0.000000 0.028382 0.000000 -0.306254
#
#
# Mechanical properties :
#
#
# Convention : Reuss Voigt Hill
#
# Bulk Modulus (GPa) = 28.54245 35.26376 31.90310
# Shear Modulus (GPa) = -25.34596 42.87753 8.76579
#
# Velocity S-wave (km/s) = -3.26797 4.25048 1.92185
# Velocity P-wave (km/s) = 1.48762 6.24078 4.28569
#
# Compressibility (1/GPa) = 0.03503554
#
# Stress axis : x y z
#
# Youngs Moduli (GPa) = 50.26035 103.09864 86.60263
#
# Poissons Ratio (x) = -0.30918 0.28689
# Poissons Ratio (y) = -0.15073 0.23728
# Poissons Ratio (z) = 0.16650 0.28247
#
# Static dielectric constant tensor:
#      x y z
#    x 2.480200 0.000000 -0.244630 
#    y 0.000000 1.910590 0.000000 
#    z -0.244630 0.000000 2.031930 
# 
# From -- ./inp_files/90265.got.cif
#   From: 2010.05.17/outbox.cif.g08.bks.cpg/sg15_46_cif.got.tgz:90265.got - 2010.06.03 18:47:42.
