data_PCOD9254839
_publ_section_title
;
Structure prediction by ZEFSAII (Michael W. Deem and Ramdas Pophale) SiO2 
 PCOD9254839
Probable space group: C 2/C
;
_chemical_formula_sum "Si O2"
_cell_formula_units_Z 52
_cell_length_a 11.683244
_cell_length_b 12.726301
_cell_length_c 22.597485
_cell_angle_alpha 90.000000
_cell_angle_beta 48.552777
_cell_angle_gamma 90.000000
_cell_volume 2518.462488
_symmetry_space_group_name_H-M "C 2/C"
_symmetry_group_IT_number 15
_symmetry_cell_setting 'monoclinic'
loop_
_space_group_symop_operation_xyz
x,y,z
-x,y,1/2-z
-x,-y,-z
x,-y,1/2+z
1/2+x,1/2+y,z
1/2-x,1/2+y,1/2-z
1/2-x,1/2-y,-z
1/2+x,1/2-y,1/2+z
loop_
_atom_site_type_symbol
_atom_site_label
_atom_site_fract_x
_atom_site_fract_y
_atom_site_fract_z
Si Si1 0.881066 0.783435 0.835218
Si Si2 0.500000 0.911756 0.750000
Si Si3 0.257560 0.912068 0.297323
Si Si4 0.527036 0.872761 0.373922
Si Si5 0.527575 0.597589 0.533121
Si Si6 0.885145 0.595517 0.410412
Si Si7 0.053549 0.672895 0.469488
O O1 0.822397 0.685084 0.814545
O O2 0.958020 0.731295 0.866609
O O3 0.734161 0.849142 0.904651
O O4 0.000000 0.838606 0.750000
O O5 0.551746 0.854040 0.672261
O O6 0.646180 0.985339 0.716013
O O7 0.309522 0.890596 0.212635
O O8 0.079919 0.919422 0.373003
O O9 0.523040 0.870800 0.445487
O O10 0.421336 0.971393 0.391329
O O11 0.500000 0.500000 0.500000
O O12 0.706743 0.611627 0.481921
O O13 0.467222 0.701853 0.521695
O O14 0.977496 0.635082 0.435176
#
# Coordination Sequence:
#
# PCOD9254839 Si02
#       7
#     8   4   8   8   8   8   8
#     4   9  16  34  57  81 114 149 198 240 272 334
#     4  10  16  36  60  80 106 156 198 234 284 350
#     4   9  16  34  61  83 106 148 202 236 268 335
#     4  10  19  38  61  82 114 158 191 234 293 350
#     4  11  21  39  60  84 112 157 199 237 277 348
#     4  11  21  38  58  82 122 149 193 239 296 349
#     4  11  23  35  56  91 120 148 188 245 303 339
#
# _framework density 20.647518000000002
#
# number of rings (size 3 to 8) (size 9 to 14) (size 15 to 20)
#    0.000    1.846    5.385    2.308    0.000    0.000 
#    8.308    3.846    0.000    0.000    0.000    0.000 
#    0.000    0.000    0.000    0.000    0.000    0.000 
#
# Total GULP energy -145091.801699 kJ/mol
# GULP energy per Si atom -5580.453911 kJ/mol
# Density = 2.060052 g / cm^3
# Si number density = 20.647518 Si / 1000 Ang^3
#
#
#
# Elastic Constant Matrix: (Units=GPa)
#
#
# Indices 1 2 3 4 5 6 
#
# 1 57.5634 -1.6909 72.8737 0.0000 3.6764 0.0000
# 2 -1.6909 16.5559 12.5722 0.0000 -0.8201 0.0000
# 3 72.8737 12.5722 228.3680 0.0000 0.9179 0.0000
# 4 0.0000 0.0000 0.0000 16.9354 0.0000 0.6661
# 5 3.6764 -0.8201 0.9179 0.0000 43.2931 0.0000
# 6 0.0000 0.0000 0.0000 0.6661 0.0000 7.8669
#
#
#
# Elastic Compliance Matrix: (Units=1/GPa)
#
#
# Indices 1 2 3 4 5 6 
#
# 1 0.031210 0.011098 -0.010561 0.000000 -0.002216 0.000000
# 2 0.011098 0.067053 -0.007235 0.000000 0.000481 0.000000
# 3 -0.010561 -0.007235 0.008145 0.000000 0.000587 0.000000
# 4 0.000000 0.000000 0.000000 0.059245 0.000000 -0.005017
# 5 -0.002216 0.000481 0.000587 0.000000 0.023283 0.000000
# 6 0.000000 0.000000 0.000000 -0.005017 0.000000 0.127540
#
#
# Mechanical properties :
#
#
# Convention : Reuss Voigt Hill
#
# Bulk Modulus (GPa) = 10.75137 52.22191 31.48664
# Shear Modulus (GPa) = 13.85513 28.20122 21.02818
#
# Velocity S-wave (km/s) = 2.59324 3.69974 3.19476
# Velocity P-wave (km/s) = 3.76629 6.60286 5.37507
#
# Compressibility (1/GPa) = 0.09301139
#
# Stress axis : x y z
#
# Youngs Moduli (GPa) = 32.04082 14.91366 122.77396
#
# Poissons Ratio (x) = -0.16551 1.29667
# Poissons Ratio (y) = -0.35559 0.88824
# Poissons Ratio (z) = 0.33840 0.10790
#
# Static dielectric constant tensor:
#      x y z
#    x 1.724080 0.000000 -0.013360 
#    y 0.000000 1.779320 0.000000 
#    z -0.013360 0.000000 1.789030 
# 
# From -- ./inp_files/238664.got.cif
#   From: 2010.05.17/outbox.cif.g08.bks.cpg/sg15_120_cif.got.tgz:238664.got - 2010.06.03 18:47:42.
