data_PCOD9254150
_publ_section_title
;
Structure prediction by ZEFSAII (Michael W. Deem and Ramdas Pophale) SiO2 
 PCOD9254150
Probable space group: C 2/C
;
_chemical_formula_sum "Si O2"
_cell_formula_units_Z 52
_cell_length_a 18.728060
_cell_length_b 12.853791
_cell_length_c 15.783080
_cell_angle_alpha 90.000000
_cell_angle_beta 49.117597
_cell_angle_gamma 90.000000
_cell_volume 2872.558612
_symmetry_space_group_name_H-M "C 2/C"
_symmetry_group_IT_number 15
_symmetry_cell_setting 'monoclinic'
loop_
_space_group_symop_operation_xyz
x,y,z
-x,y,1/2-z
-x,-y,-z
x,-y,1/2+z
1/2+x,1/2+y,z
1/2-x,1/2+y,1/2-z
1/2-x,1/2-y,-z
1/2+x,1/2-y,1/2+z
loop_
_atom_site_type_symbol
_atom_site_label
_atom_site_fract_x
_atom_site_fract_y
_atom_site_fract_z
Si Si1 0.200026 0.479287 0.591472
Si Si2 0.389278 0.252952 0.351170
Si Si3 0.763235 0.078122 0.216677
Si Si4 0.224378 0.068135 0.643617
Si Si5 0.038278 0.592153 0.410395
Si Si6 0.377608 0.763078 0.053314
Si Si7 0.500000 0.007295 0.250000
O O1 0.160796 0.358757 0.622829
O O2 0.258140 0.486900 0.632546
O O3 0.253640 0.490046 0.461732
O O4 0.103028 0.545571 0.667828
O O5 0.500000 0.248104 0.250000
O O6 0.346883 0.339214 0.322919
O O7 0.369611 0.280854 0.463857
O O8 0.651981 0.101393 0.323076
O O9 0.827060 0.179792 0.151986
O O10 0.803459 0.009600 0.261341
O O11 0.318197 0.129794 0.600144
O O12 0.984987 0.697872 0.479714
O O13 0.005824 0.563718 0.338831
O O14 0.000000 0.500000 0.500000
#
# Coordination Sequence:
#
# PCOD9254150 Si02
#       7
#     8   8   8   8   8   8   4
#     4  10  16  31  51  79 109 135 180 229 278 327
#     4  11  18  33  57  82 110 144 183 242 292 332
#     4  11  21  33  55  85 116 149 182 240 294 340
#     4  11  20  33  53  82 112 144 185 234 287 333
#     4  11  20  34  55  90 120 145 191 241 284 345
#     4  11  20  34  55  85 116 144 187 242 292 333
#     4  10  16  26  52  82 104 138 174 224 288 318
#
# _framework density 18.102329000000001
#
# number of rings (size 3 to 8) (size 9 to 14) (size 15 to 20)
#    0.000    1.231    8.462    1.846    0.000    0.000 
#    0.000    0.769    0.000    0.923    2.000    0.000 
#    0.000    0.000    0.000    0.000    0.000    0.000 
#
# Total GULP energy -144857.393391 kJ/mol
# GULP energy per Si atom -5571.438207 kJ/mol
# Density = 1.806113 g / cm^3
# Si number density = 18.102329 Si / 1000 Ang^3
#
#
#
# Elastic Constant Matrix: (Units=GPa)
#
#
# Indices 1 2 3 4 5 6 
#
# 1 47.2104 26.4016 22.1074 0.0000 10.8494 0.0000
# 2 26.4016 47.0991 42.0029 0.0000 12.2958 0.0000
# 3 22.1074 42.0029 99.9545 0.0000 24.0838 0.0000
# 4 0.0000 0.0000 0.0000 37.8111 0.0000 8.4219
# 5 10.8494 12.2958 24.0838 0.0000 21.3247 0.0000
# 6 0.0000 0.0000 0.0000 8.4219 0.0000 21.1294
#
#
#
# Elastic Compliance Matrix: (Units=1/GPa)
#
#
# Indices 1 2 3 4 5 6 
#
# 1 0.032054 -0.017969 0.002603 0.000000 -0.008887 0.000000
# 2 -0.017969 0.044386 -0.014719 0.000000 0.000173 0.000000
# 3 0.002603 -0.014719 0.019081 0.000000 -0.014386 0.000000
# 4 0.000000 0.000000 0.000000 0.029024 0.000000 -0.011569
# 5 -0.008887 0.000173 -0.014386 0.000000 0.067563 0.000000
# 6 0.000000 0.000000 0.000000 -0.011569 0.000000 0.051938
#
#
# Mechanical properties :
#
#
# Convention : Reuss Voigt Hill
#
# Bulk Modulus (GPa) = 28.28914 41.69863 34.99389
# Shear Modulus (GPa) = 15.82273 22.96985 19.39629
#
# Velocity S-wave (km/s) = 2.95968 3.56601 3.27690
# Velocity P-wave (km/s) = 5.22885 6.32773 5.80436
#
# Compressibility (1/GPa) = 0.03534925
#
# Stress axis : x y z
#
# Youngs Moduli (GPa) = 31.19708 22.52966 52.40920
#
# Poissons Ratio (x) = 0.40484 -0.13641
# Poissons Ratio (y) = 0.56059 0.77142
# Poissons Ratio (z) = -0.08120 0.33162
#
# Static dielectric constant tensor:
#      x y z
#    x 1.671800 0.000000 -0.013380 
#    y 0.000000 1.637610 0.000000 
#    z -0.013380 0.000000 1.682150 
# 
# From -- ./inp_files/168082.got.cif
#   From: 2010.05.17/outbox.cif.g08.bks.cpg/sg15_85_cif.got.tgz:168082.got - 2010.06.03 18:47:42.
