data_PCOD9254891
_publ_section_title
;
Structure prediction by ZEFSAII (Michael W. Deem and Ramdas Pophale) SiO2 
 PCOD9254891
Probable space group: C 2/C
;
_chemical_formula_sum "Si O2"
_cell_formula_units_Z 48
_cell_length_a 22.222657
_cell_length_b 9.599173
_cell_length_c 20.110285
_cell_angle_alpha 90.000000
_cell_angle_beta 143.798866
_cell_angle_gamma 90.000000
_cell_volume 2533.712778
_symmetry_space_group_name_H-M "C 2/C"
_symmetry_group_IT_number 15
_symmetry_cell_setting 'monoclinic'
loop_
_space_group_symop_operation_xyz
x,y,z
-x,y,1/2-z
-x,-y,-z
x,-y,1/2+z
1/2+x,1/2+y,z
1/2-x,1/2+y,1/2-z
1/2-x,1/2-y,-z
1/2+x,1/2-y,1/2+z
loop_
_atom_site_type_symbol
_atom_site_label
_atom_site_fract_x
_atom_site_fract_y
_atom_site_fract_z
Si Si1 0.783789 0.337905 0.781198
Si Si2 0.997024 0.799496 0.442682
Si Si3 0.580583 0.981642 0.010924
Si Si4 0.522272 0.603586 0.422980
Si Si5 0.961844 0.358490 0.290416
Si Si6 0.249698 0.086564 0.659307
O O1 0.886033 0.273081 0.839577
O O2 0.729581 0.206674 0.766825
O O3 0.732937 0.440841 0.683024
O O4 0.820090 0.440694 0.873354
O O5 0.007702 0.841282 0.529983
O O6 0.080454 0.683371 0.498781
O O7 0.999153 0.940064 0.402390
O O8 0.534546 0.059363 0.906599
O O9 0.500000 0.000000 0.000000
O O10 0.468539 0.698016 0.320465
O O11 0.644503 0.622501 0.529333
O O12 0.848093 0.415140 0.200887
O O13 0.000000 0.373927 0.250000
#
# Coordination Sequence:
#
# PCOD9254891 Si02
#       6
#     8   8   8   8   8   8
#     4  10  20  31  59  95 118 146 199 262 299 346
#     4   9  17  34  61  80 119 146 194 255 313 329
#     4  10  16  38  57  82 115 153 203 249 296 342
#     4  10  21  36  56  93 119 156 196 263 298 354
#     4  12  24  40  59  84 128 175 199 240 312 374
#     4  11  22  35  60  95 120 154 209 250 307 358
#
# _framework density 18.944531999999999
#
# number of rings (size 3 to 8) (size 9 to 14) (size 15 to 20)
#    0.000    1.667    8.333    0.000    9.333    0.667 
#    0.000    0.833    0.000    1.000    0.000    0.000 
#    0.000    0.000    0.000    0.000    0.000    0.000 
#
# Total GULP energy -133961.571299 kJ/mol
# GULP energy per Si atom -5581.732137 kJ/mol
# Density = 1.890141 g / cm^3
# Si number density = 18.944532 Si / 1000 Ang^3
#
#
#
# Elastic Constant Matrix: (Units=GPa)
#
#
# Indices 1 2 3 4 5 6 
#
# 1 78.3256 15.7063 22.0977 0.0000 -9.0864 0.0000
# 2 15.7063 118.1728 4.7125 0.0000 -9.9527 0.0000
# 3 22.0977 4.7125 37.8880 0.0000 -5.1152 0.0000
# 4 0.0000 0.0000 0.0000 28.8062 0.0000 5.3069
# 5 -9.0864 -9.9527 -5.1152 0.0000 27.1583 0.0000
# 6 0.0000 0.0000 0.0000 5.3069 0.0000 18.7517
#
#
#
# Elastic Compliance Matrix: (Units=1/GPa)
#
#
# Indices 1 2 3 4 5 6 
#
# 1 0.015871 -0.001501 -0.008647 0.000000 0.003131 0.000000
# 2 -0.001501 0.008890 0.000145 0.000000 0.002783 0.000000
# 3 -0.008647 0.000145 0.031845 0.000000 0.003158 0.000000
# 4 0.000000 0.000000 0.000000 0.036624 0.000000 -0.010365
# 5 0.003131 0.002783 0.003158 0.000000 0.039484 0.000000
# 6 0.000000 0.000000 0.000000 -0.010365 0.000000 0.056262
#
#
# Mechanical properties :
#
#
# Convention : Reuss Voigt Hill
#
# Bulk Modulus (GPa) = 27.32151 35.49105 31.40628
# Shear Modulus (GPa) = 22.60582 27.73458 25.17020
#
# Velocity S-wave (km/s) = 3.45811 3.83036 3.64899
# Velocity P-wave (km/s) = 5.51343 6.19169 5.86238
#
# Compressibility (1/GPa) = 0.03660119
#
# Stress axis : x y z
#
# Youngs Moduli (GPa) = 63.00803 112.48246 31.40195
#
# Poissons Ratio (x) = 0.16882 0.27154
# Poissons Ratio (y) = 0.09457 -0.00456
# Poissons Ratio (z) = 0.54484 -0.01635
#
# Static dielectric constant tensor:
#      x y z
#    x 1.650710 0.000000 0.052980 
#    y 0.000000 1.722550 0.000000 
#    z 0.052980 0.000000 1.673990 
# 
# From -- ./inp_files/214084.got.cif
#   From: 2010.05.17/outbox.cif.g08.bks.cpg/sg15_108_cif.got.tgz:214084.got - 2010.06.03 18:47:42.
