data_PCOD9254912
_publ_section_title
;
Structure prediction by ZEFSAII (Michael W. Deem and Ramdas Pophale) SiO2 
 PCOD9254912
Probable space group: C 2/C
;
_chemical_formula_sum "Si O2"
_cell_formula_units_Z 44
_cell_length_a 7.447321
_cell_length_b 17.793975
_cell_length_c 13.956288
_cell_angle_alpha 90.000000
_cell_angle_beta 75.345540
_cell_angle_gamma 90.000000
_cell_volume 1789.287358
_symmetry_space_group_name_H-M "C 2/C"
_symmetry_group_IT_number 15
_symmetry_cell_setting 'monoclinic'
loop_
_space_group_symop_operation_xyz
x,y,z
-x,y,1/2-z
-x,-y,-z
x,-y,1/2+z
1/2+x,1/2+y,z
1/2-x,1/2+y,1/2-z
1/2-x,1/2-y,-z
1/2+x,1/2-y,1/2+z
loop_
_atom_site_type_symbol
_atom_site_label
_atom_site_fract_x
_atom_site_fract_y
_atom_site_fract_z
Si Si1 0.794725 0.405446 0.916040
Si Si2 0.000000 0.709134 0.250000
Si Si3 0.310059 0.779796 0.333804
Si Si4 0.907948 0.121300 0.370709
Si Si5 0.276856 0.460849 0.379505
Si Si6 0.778039 0.938351 0.161564
O O1 0.913141 0.345111 0.842367
O O2 0.579526 0.387693 0.919423
O O3 0.816509 0.489679 0.872714
O O4 0.820657 0.412517 0.025623
O O5 0.151622 0.761442 0.277917
O O6 0.500000 0.786006 0.250000
O O7 0.324036 0.703805 0.392774
O O8 0.267812 0.860502 0.383353
O O9 0.000000 0.116740 0.250000
O O10 0.766024 0.051459 0.393589
O O11 0.222173 0.436936 0.280788
O O12 0.499238 0.449335 0.364646
#
# Coordination Sequence:
#
# PCOD9254912 Si02
#       6
#     8   4   8   8   8   8
#     4  11  22  39  71  97 126 175 227 264 321 394
#     4  12  22  42  68  92 126 184 218 260 334 392
#     4  11  23  41  68  93 135 175 210 272 339 378
#     4  10  16  39  65  91 131 173 207 265 329 379
#     4  10  19  39  70  99 127 172 221 269 326 389
#     4  10  20  40  66  98 131 167 217 276 324 382
#
# _framework density 24.590796999999998
#
# number of rings (size 3 to 8) (size 9 to 14) (size 15 to 20)
#    0.000    1.455    7.273    3.273    1.273    0.000 
#    0.000   10.909    4.000    0.000    0.000    0.000 
#    0.000    0.000    0.000    0.000    0.000    0.000 
#
# Total GULP energy -123273.695058 kJ/mol
# GULP energy per Si atom -5603.349775 kJ/mol
# Density = 2.453483 g / cm^3
# Si number density = 24.590797 Si / 1000 Ang^3
#
#
#
# Elastic Constant Matrix: (Units=GPa)
#
#
# Indices 1 2 3 4 5 6 
#
# 1 76.1251 33.1182 12.0636 0.0000 -3.1256 0.0000
# 2 33.1182 142.0350 -15.3467 0.0000 4.6530 0.0000
# 3 12.0636 -15.3467 94.5810 0.0000 13.8045 0.0000
# 4 0.0000 0.0000 0.0000 6.8692 0.0000 -1.7283
# 5 -3.1256 4.6530 13.8045 0.0000 19.5103 0.0000
# 6 0.0000 0.0000 0.0000 -1.7283 0.0000 -0.2333
#
#
#
# Elastic Compliance Matrix: (Units=1/GPa)
#
#
# Indices 1 2 3 4 5 6 
#
# 1 0.015819 -0.004278 -0.003603 0.000000 0.006103 0.000000
# 2 -0.004278 0.008465 0.002580 0.000000 -0.004530 0.000000
# 3 -0.003603 0.002580 0.012964 0.000000 -0.010365 0.000000
# 4 0.000000 0.000000 0.000000 0.050829 0.000000 -0.376580
# 5 0.006103 -0.004530 -0.010365 0.000000 0.060647 0.000000
# 6 0.000000 0.000000 0.000000 -0.376580 0.000000 -1.496733
#
#
# Mechanical properties :
#
#
# Convention : Reuss Voigt Hill
#
# Bulk Modulus (GPa) = 37.52616 41.37904 39.45260
# Shear Modulus (GPa) = -3.76357 24.08965 10.16304
#
# Velocity S-wave (km/s) = -1.23847 3.13328 2.03515
# Velocity P-wave (km/s) = 3.63982 5.47298 4.64768
#
# Compressibility (1/GPa) = 0.02664808
#
# Stress axis : x y z
#
# Youngs Moduli (GPa) = 63.21603 118.13167 77.13681
#
# Poissons Ratio (x) = 0.50533 0.27789
# Poissons Ratio (y) = 0.27042 -0.19904
# Poissons Ratio (z) = 0.22774 -0.30482
#
# Static dielectric constant tensor:
#      x y z
#    x 1.941990 0.000000 -0.038660 
#    y 0.000000 1.927430 0.000000 
#    z -0.038660 0.000000 1.969890 
# 
# From -- ./inp_files/134274.got.cif
#   From: 2010.05.17/outbox.cif.g08.bks.cpg/sg15_68_cif.got.tgz:134274.got - 2010.06.03 18:47:42.
