data_PCOD9254871
_publ_section_title
;
Structure prediction by ZEFSAII (Michael W. Deem and Ramdas Pophale) SiO2 
 PCOD9254871
Probable space group: C 2/C
;
_chemical_formula_sum "Si O2"
_cell_formula_units_Z 52
_cell_length_a 14.374374
_cell_length_b 19.948974
_cell_length_c 17.681998
_cell_angle_alpha 90.000000
_cell_angle_beta 151.239846
_cell_angle_gamma 90.000000
_cell_volume 2439.585472
_symmetry_space_group_name_H-M "C 2/C"
_symmetry_group_IT_number 15
_symmetry_cell_setting 'monoclinic'
loop_
_space_group_symop_operation_xyz
x,y,z
-x,y,1/2-z
-x,-y,-z
x,-y,1/2+z
1/2+x,1/2+y,z
1/2-x,1/2+y,1/2-z
1/2-x,1/2-y,-z
1/2+x,1/2-y,1/2+z
loop_
_atom_site_type_symbol
_atom_site_label
_atom_site_fract_x
_atom_site_fract_y
_atom_site_fract_z
Si Si1 0.154387 0.153532 0.065681
Si Si2 0.000000 0.325974 0.250000
Si Si3 0.025186 0.529205 0.936088
Si Si4 0.180218 0.927391 0.088391
Si Si5 0.789379 0.464696 0.564732
Si Si6 0.168184 0.254713 0.688663
Si Si7 0.563816 0.184878 0.960176
O O1 0.239478 0.108300 0.059789
O O2 0.304142 0.184933 0.232570
O O3 0.003797 0.108301 0.006790
O O4 0.030225 0.214905 0.944392
O O5 0.822286 0.372366 0.151942
O O6 0.925838 0.291950 0.119887
O O7 0.813479 0.536065 0.746175
O O8 0.170452 0.481312 0.993167
O O9 0.101485 0.605603 0.988948
O O10 0.000000 0.500000 0.000000
O O11 0.140945 0.982762 0.996408
O O12 0.000000 0.482000 0.750000
O O13 0.342483 0.202299 0.824832
O O14 0.181782 0.279858 0.611163
#
# Coordination Sequence:
#
# PCOD9254871 Si02
#       7
#     8   4   8   8   8   8   8
#     4  11  22  42  67  93 130 179 220 266 330 393
#     4  10  16  36  64  90 134 158 216 270 342 390
#     4  10  20  37  69  91 127 164 213 276 332 379
#     4  10  18  39  65  94 128 168 210 275 338 394
#     4  10  21  39  66  95 125 167 215 270 341 389
#     4  10  23  39  63  95 130 178 223 264 324 396
#     4  10  20  39  60  90 132 171 214 270 332 386
#
# _framework density 21.315097000000002
#
# number of rings (size 3 to 8) (size 9 to 14) (size 15 to 20)
#    0.000    1.846    6.923    0.462    4.308    0.615 
#    0.000    1.538    0.000    0.000    0.000    0.000 
#    0.000    0.000    0.000    0.000    0.000    0.000 
#
# Total GULP energy -145048.018393 kJ/mol
# GULP energy per Si atom -5578.769938 kJ/mol
# Density = 2.126658 g / cm^3
# Si number density = 21.315097 Si / 1000 Ang^3
#
#
#
# Elastic Constant Matrix: (Units=GPa)
#
#
# Indices 1 2 3 4 5 6 
#
# 1 105.0891 73.5935 37.5882 0.0051 -19.1599 0.0061
# 2 73.5935 98.0284 40.8005 0.0144 -15.4717 0.0016
# 3 37.5882 40.8005 56.6888 0.0355 -14.7492 0.0056
# 4 0.0051 0.0144 0.0355 26.6442 -0.0102 2.0585
# 5 -19.1599 -15.4717 -14.7492 -0.0102 22.5781 -0.0094
# 6 0.0061 0.0016 0.0056 2.0585 -0.0094 49.1475
#
#
#
# Elastic Compliance Matrix: (Units=1/GPa)
#
#
# Indices 1 2 3 4 5 6 
#
# 1 0.021457 -0.014041 -0.002274 0.000009 0.007101 -0.000001
# 2 -0.014041 0.024024 -0.008190 0.000000 -0.000803 0.000002
# 3 -0.002274 -0.008190 0.027806 -0.000028 0.010623 0.000001
# 4 0.000009 0.000000 -0.000028 0.037653 0.000006 -0.001577
# 5 0.007101 -0.000803 0.010623 0.000006 0.056706 0.000009
# 6 -0.000001 0.000002 0.000001 -0.001577 0.000009 0.020413
#
#
# Mechanical properties :
#
#
# Convention : Reuss Voigt Hill
#
# Bulk Modulus (GPa) = 41.18978 62.64119 51.91548
# Shear Modulus (GPa) = 20.39475 26.86223 23.62849
#
# Velocity S-wave (km/s) = 3.09661 3.55384 3.33308
# Velocity P-wave (km/s) = 5.67023 6.80380 6.26272
#
# Compressibility (1/GPa) = 0.02427787
#
# Stress axis : x y z
#
# Youngs Moduli (GPa) = 46.60544 41.62449 35.96362
#
# Poissons Ratio (x) = 0.58446 0.08177
# Poissons Ratio (y) = 0.65440 0.29453
# Poissons Ratio (z) = 0.10597 0.34089
#
# Static dielectric constant tensor:
#      x y z
#    x 1.779980 -0.000010 -0.011710 
#    y -0.000010 1.804630 -0.000010 
#    z -0.011710 -0.000010 1.798120 
# 
# From -- ./inp_files/206824.got.cif
#   From: 2010.05.17/outbox.cif.g08.bks.cpg/sg15_104_cif.got.tgz:206824.got - 2010.06.03 18:47:42.
