data_PCOD9254268
_publ_section_title
;
Structure prediction by ZEFSAII (Michael W. Deem and Ramdas Pophale) SiO2 
 PCOD9254268
Probable space group: C 2/C
;
_chemical_formula_sum "Si O2"
_cell_formula_units_Z 52
_cell_length_a 20.841620
_cell_length_b 6.837853
_cell_length_c 14.060107
_cell_angle_alpha 90.000000
_cell_angle_beta 68.688700
_cell_angle_gamma 90.000000
_cell_volume 1866.716908
_symmetry_space_group_name_H-M "C 2/C"
_symmetry_group_IT_number 15
_symmetry_cell_setting 'monoclinic'
loop_
_space_group_symop_operation_xyz
x,y,z
-x,y,1/2-z
-x,-y,-z
x,-y,1/2+z
1/2+x,1/2+y,z
1/2-x,1/2+y,1/2-z
1/2-x,1/2-y,-z
1/2+x,1/2-y,1/2+z
loop_
_atom_site_type_symbol
_atom_site_label
_atom_site_fract_x
_atom_site_fract_y
_atom_site_fract_z
Si Si1 0.288393 0.022476 0.063363
Si Si2 0.317665 0.027902 0.771634
Si Si3 0.326939 0.552996 0.591322
Si Si4 0.649666 0.515853 0.206104
Si Si5 0.913865 0.702427 0.478687
Si Si6 0.461981 0.001625 0.647582
Si Si7 0.000000 0.141151 0.250000
O O1 0.297853 0.986179 0.171586
O O2 0.312976 0.247494 0.042213
O O3 0.208261 0.966227 0.097089
O O4 0.345163 0.900181 0.977109
O O5 0.249582 0.957419 0.862714
O O6 0.329186 0.258002 0.784637
O O7 0.394468 0.948484 0.744622
O O8 0.343372 0.589873 0.695115
O O9 0.388766 0.415532 0.523809
O O10 0.571250 0.523699 0.214074
O O11 0.983397 0.672139 0.383366
O O12 0.933220 0.567886 0.560518
O O13 0.497266 0.201635 0.665186
#
# Coordination Sequence:
#
# PCOD9254268 Si02
#       7
#     8   8   8   8   8   8   4
#     4   9  17  28  50  80  99 127 171 218 258 291
#     4   8  15  29  46  73 100 129 171 211 243 298
#     4  10  16  28  53  80 102 124 171 225 251 292
#     4   9  16  28  49  76 100 134 174 207 250 308
#     4  10  18  34  51  82 102 131 171 224 256 293
#     4   9  18  32  53  73 108 136 175 204 258 310
#     4  10  16  32  54  72  98 154 166 194 260 328
#
# _framework density 27.856394999999999
#
# number of rings (size 3 to 8) (size 9 to 14) (size 15 to 20)
#    0.000    2.769    4.615    0.000    2.154    0.000 
#    0.000    7.692    0.000   16.615    0.000    0.000 
#    0.000    0.000    0.000    0.000    0.000    0.000 
#
# Total GULP energy -145483.928475 kJ/mol
# GULP energy per Si atom -5595.535711 kJ/mol
# Density = 2.779299 g / cm^3
# Si number density = 27.856395 Si / 1000 Ang^3
#
#
#
# Elastic Constant Matrix: (Units=GPa)
#
#
# Indices 1 2 3 4 5 6 
#
# 1 180.4428 46.9746 40.9493 0.0000 -17.4055 0.0000
# 2 46.9746 118.5700 24.4913 0.0000 -17.3906 0.0000
# 3 40.9493 24.4913 88.0709 0.0000 -11.9084 0.0000
# 4 0.0000 0.0000 0.0000 18.7248 0.0000 7.5013
# 5 -17.4055 -17.3906 -11.9084 0.0000 46.0605 0.0000
# 6 0.0000 0.0000 0.0000 7.5013 0.0000 45.3693
#
#
#
# Elastic Compliance Matrix: (Units=1/GPa)
#
#
# Indices 1 2 3 4 5 6 
#
# 1 0.006721 -0.001994 -0.002413 0.000000 0.001163 0.000000
# 2 -0.001994 0.009911 -0.001477 0.000000 0.002607 0.000000
# 3 -0.002413 -0.001477 0.013148 0.000000 0.001930 0.000000
# 4 0.000000 0.000000 0.000000 0.057194 0.000000 -0.009456
# 5 0.001163 0.002607 0.001930 0.000000 0.023633 0.000000
# 6 0.000000 0.000000 0.000000 -0.009456 0.000000 0.023605
#
#
# Mechanical properties :
#
#
# Convention : Reuss Voigt Hill
#
# Bulk Modulus (GPa) = 55.51575 67.99046 61.75311
# Shear Modulus (GPa) = 32.89847 40.34214 36.62031
#
# Velocity S-wave (km/s) = 3.44030 3.80967 3.62969
# Velocity P-wave (km/s) = 5.97942 6.61906 6.30735
#
# Compressibility (1/GPa) = 0.01801290
#
# Stress axis : x y z
#
# Youngs Moduli (GPa) = 148.79298 100.89792 76.05645
#
# Poissons Ratio (x) = 0.20114 0.18354
# Poissons Ratio (y) = 0.29663 0.11231
# Poissons Ratio (z) = 0.35907 0.14900
#
# Static dielectric constant tensor:
#      x y z
#    x 2.215260 0.000000 0.018240 
#    y 0.000000 2.165910 0.000000 
#    z 0.018240 0.000000 2.254540 
# 
# From -- ./inp_files/251278.got.cif
#   From: 2010.05.17/outbox.cif.g08.bks.cpg/sg15_126_cif.got.tgz:251278.got - 2010.06.03 18:47:42.
