data_PCOD9254362
_publ_section_title
;
Structure prediction by ZEFSAII (Michael W. Deem and Ramdas Pophale) SiO2 
 PCOD9254362
Probable space group: C 2/C
;
_chemical_formula_sum "Si O2"
_cell_formula_units_Z 52
_cell_length_a 16.135723
_cell_length_b 8.501914
_cell_length_c 21.206076
_cell_angle_alpha 90.000000
_cell_angle_beta 71.683650
_cell_angle_gamma 90.000000
_cell_volume 2761.756131
_symmetry_space_group_name_H-M "C 2/C"
_symmetry_group_IT_number 15
_symmetry_cell_setting 'monoclinic'
loop_
_space_group_symop_operation_xyz
x,y,z
-x,y,1/2-z
-x,-y,-z
x,-y,1/2+z
1/2+x,1/2+y,z
1/2-x,1/2+y,1/2-z
1/2-x,1/2-y,-z
1/2+x,1/2-y,1/2+z
loop_
_atom_site_type_symbol
_atom_site_label
_atom_site_fract_x
_atom_site_fract_y
_atom_site_fract_z
Si Si1 0.695809 0.281573 0.825754
Si Si2 0.047426 0.599403 0.176937
Si Si3 0.500000 0.580172 0.250000
Si Si4 0.290448 0.894399 0.311428
Si Si5 0.510937 0.198870 0.869697
Si Si6 0.816645 0.795867 0.930056
Si Si7 0.145548 0.891064 0.143355
O O1 0.698530 0.206398 0.754708
O O2 0.719228 0.467084 0.819748
O O3 0.601766 0.246735 0.879590
O O4 0.771254 0.189460 0.844873
O O5 0.122208 0.488698 0.189285
O O6 0.988348 0.484048 0.149993
O O7 0.088193 0.746109 0.131044
O O8 0.000000 0.663716 0.250000
O O9 0.486398 0.692895 0.193673
O O10 0.584817 0.479771 0.209778
O O11 0.280204 0.779419 0.373528
O O12 0.414963 0.232164 0.920674
O O13 0.827415 0.980598 0.914208
O O14 0.750000 0.750000 0.000000
#
# Coordination Sequence:
#
# PCOD9254362 Si02
#       7
#     8   8   4   8   8   8   8
#     4  11  19  33  54  92 116 134 172 237 306 331
#     4  10  16  31  51  83 113 140 174 216 281 346
#     4  10  16  30  48  78 108 144 176 208 274 334
#     4  10  20  32  57  84 117 144 174 230 288 342
#     4  10  18  32  55  76 108 147 177 226 281 332
#     4  10  22  42  56  71 105 160 202 226 260 330
#     4  10  21  31  55  83 111 138 183 231 275 340
#
# _framework density 18.828599000000001
#
# number of rings (size 3 to 8) (size 9 to 14) (size 15 to 20)
#    0.000    1.846    3.077    3.692    0.000    0.000 
#    0.000    8.462    0.000    0.000    0.000    0.000 
#    0.000    0.000    0.000    0.000    0.000    0.000 
#
# Total GULP energy -144921.634660 kJ/mol
# GULP energy per Si atom -5573.909025 kJ/mol
# Density = 1.878574 g / cm^3
# Si number density = 18.828599 Si / 1000 Ang^3
#
#
#
# Elastic Constant Matrix: (Units=GPa)
#
#
# Indices 1 2 3 4 5 6 
#
# 1 81.5796 27.9280 11.8017 0.0000 -22.2445 0.0000
# 2 27.9280 97.8668 -3.8627 0.0000 1.4765 0.0000
# 3 11.8017 -3.8627 21.3308 0.0000 -12.1673 0.0000
# 4 0.0000 0.0000 0.0000 6.3902 0.0000 3.0912
# 5 -22.2445 1.4765 -12.1673 0.0000 18.5976 0.0000
# 6 0.0000 0.0000 0.0000 3.0912 0.0000 21.4236
#
#
#
# Elastic Compliance Matrix: (Units=1/GPa)
#
#
# Indices 1 2 3 4 5 6 
#
# 1 0.021887 -0.006557 0.003084 0.000000 0.028717 0.000000
# 2 -0.006557 0.012261 0.001307 0.000000 -0.007962 0.000000
# 3 0.003084 0.001307 0.075710 0.000000 0.053117 0.000000
# 4 0.000000 0.000000 0.000000 0.168232 0.000000 -0.024274
# 5 0.028717 -0.007962 0.053117 0.000000 0.123502 0.000000
# 6 0.000000 0.000000 0.000000 -0.024274 0.000000 0.050180
#
#
# Mechanical properties :
#
#
# Convention : Reuss Voigt Hill
#
# Bulk Modulus (GPa) = 9.47652 30.27902 19.87777
# Shear Modulus (GPa) = 10.17748 20.27630 15.22689
#
# Velocity S-wave (km/s) = 2.32746 3.28516 2.84687
# Velocity P-wave (km/s) = 3.50239 5.52322 4.62454
#
# Compressibility (1/GPa) = 0.10552393
#
# Stress axis : x y z
#
# Youngs Moduli (GPa) = 45.68911 81.55989 13.20833
#
# Poissons Ratio (x) = 0.53482 -0.04073
# Poissons Ratio (y) = 0.29960 -0.01726
# Poissons Ratio (z) = -0.14089 -0.10658
#
# Static dielectric constant tensor:
#      x y z
#    x 1.708220 0.000000 -0.024240 
#    y 0.000000 1.682300 0.000000 
#    z -0.024240 0.000000 1.635240 
# 
# From -- ./inp_files/242406.got.cif
#   From: 2010.05.17/outbox.cif.g08.bks.cpg/sg15_122_cif.got.tgz:242406.got - 2010.06.03 18:47:42.
