data_PCOD9254897
_publ_section_title
;
Structure prediction by ZEFSAII (Michael W. Deem and Ramdas Pophale) SiO2 
 PCOD9254897
Probable space group: C 2/C
;
_chemical_formula_sum "Si O2"
_cell_formula_units_Z 56
_cell_length_a 8.844928
_cell_length_b 14.858165
_cell_length_c 19.683811
_cell_angle_alpha 90.000000
_cell_angle_beta 90.000140
_cell_angle_gamma 90.000000
_cell_volume 2586.834624
_symmetry_space_group_name_H-M "C 2/C"
_symmetry_group_IT_number 15
_symmetry_cell_setting 'monoclinic'
loop_
_space_group_symop_operation_xyz
x,y,z
-x,y,1/2-z
-x,-y,-z
x,-y,1/2+z
1/2+x,1/2+y,z
1/2-x,1/2+y,1/2-z
1/2-x,1/2-y,-z
1/2+x,1/2-y,1/2+z
loop_
_atom_site_type_symbol
_atom_site_label
_atom_site_fract_x
_atom_site_fract_y
_atom_site_fract_z
Si Si1 0.773435 0.596070 0.097947
Si Si2 0.500000 0.750000 0.750000
Si Si3 0.924907 0.848509 0.027610
Si Si4 0.226567 0.096071 0.597948
Si Si5 0.752436 0.792720 0.155033
Si Si6 0.252438 0.792721 0.844967
Si Si7 0.424908 0.151491 0.472391
Si Si8 0.500000 0.749998 0.250000
O O1 0.750000 0.500000 0.132117
O O2 0.758468 0.684612 0.143521
O O3 0.938096 0.598570 0.062393
O O4 0.647941 0.609654 0.038975
O O5 0.604271 0.689238 0.797537
O O6 0.395732 0.810762 0.797538
O O7 0.788670 0.835184 0.082245
O O8 0.061905 0.901428 0.062394
O O9 0.999998 0.750000 0.013814
O O10 0.241535 0.184613 0.643523
O O11 0.352060 0.109656 0.538976
O O12 0.603832 0.808636 0.199060
O O13 0.288672 0.835183 0.917755
O O14 0.103835 0.808640 0.800939
#
# Coordination Sequence:
#
# PCOD9254897 Si02
#       8
#     8   4   8   8   8   8   8   4
#     4  11  22  36  58  90 121 147 181 241 302 341
#     4  10  16  38  60  78 104 150 206 228 280 326
#     4  10  20  37  60  86 112 153 190 238 281 349
#     4  11  22  36  58  90 121 147 181 241 302 341
#     4  10  20  37  60  84 109 150 201 237 280 340
#     4  10  20  37  60  84 109 150 201 237 280 340
#     4  10  20  37  60  86 112 153 190 238 281 349
#     4  10  24  34  64  86 104 154 210 248 256 342
#
# _framework density 21.648078000000002
#
# number of rings (size 3 to 8) (size 9 to 14) (size 15 to 20)
#    0.000    1.714    4.286    4.286    6.000    0.000 
#    0.000    1.429    0.000    0.000    0.000    0.000 
#    0.000    0.000    0.000    0.000    0.000    0.000 
#
# Total GULP energy -156307.145409 kJ/mol
# GULP energy per Si atom -5582.398050 kJ/mol
# Density = 2.159881 g / cm^3
# Si number density = 21.648078 Si / 1000 Ang^3
#
#
#
# Elastic Constant Matrix: (Units=GPa)
#
#
# Indices 1 2 3 4 5 6 
#
# 1 107.6269 3.0210 14.4114 0.0000 -0.0007 0.0000
# 2 3.0210 73.5183 9.2260 0.0000 -0.0013 0.0000
# 3 14.4114 9.2260 63.9414 0.0000 -0.0006 0.0000
# 4 0.0000 0.0000 0.0000 1.1264 0.0000 -0.0004
# 5 -0.0007 -0.0013 -0.0006 0.0000 41.2712 0.0000
# 6 0.0000 0.0000 0.0000 -0.0004 0.0000 8.2171
#
#
#
# Elastic Compliance Matrix: (Units=1/GPa)
#
#
# Indices 1 2 3 4 5 6 
#
# 1 0.009582 -0.000125 -0.002142 0.000000 0.000000 0.000000
# 2 -0.000125 0.013855 -0.001971 0.000000 0.000000 0.000000
# 3 -0.002142 -0.001971 0.016406 0.000000 0.000000 0.000000
# 4 0.000000 0.000000 0.000000 0.887821 0.000000 0.000046
# 5 0.000000 0.000000 0.000000 0.000000 0.024230 0.000000
# 6 0.000000 0.000000 0.000000 0.000046 0.000000 0.121698
#
#
# Mechanical properties :
#
#
# Convention : Reuss Voigt Hill
#
# Bulk Modulus (GPa) = 31.87987 33.15593 32.51790
# Shear Modulus (GPa) = 4.57657 24.68480 14.63068
#
# Velocity S-wave (km/s) = 1.45556 3.38046 2.60252
# Velocity P-wave (km/s) = 4.19324 5.53044 4.90760
#
# Compressibility (1/GPa) = 0.03136776
#
# Stress axis : x y z
#
# Youngs Moduli (GPa) = 104.36656 72.17859 60.95195
#
# Poissons Ratio (x) = 0.00902 0.13053
# Poissons Ratio (y) = 0.01304 0.12013
# Poissons Ratio (z) = 0.22350 0.14226
#
# Static dielectric constant tensor:
#      x y z
#    x 1.849140 0.000000 0.000000 
#    y 0.000000 1.800300 0.000000 
#    z 0.000000 0.000000 1.803680 
# 
# From -- ./inp_files/231617.got.cif
#   From: 2010.05.17/outbox.cif.g08.bks.cpg/sg15_116_cif.got.tgz:231617.got - 2010.06.03 18:47:42.
