data_PCOD9254510
_publ_section_title
;
Structure prediction by ZEFSAII (Michael W. Deem and Ramdas Pophale) SiO2 
 PCOD9254510
Probable space group: C 2/C
;
_chemical_formula_sum "Si O2"
_cell_formula_units_Z 44
_cell_length_a 16.809483
_cell_length_b 8.736390
_cell_length_c 13.984936
_cell_angle_alpha 90.000000
_cell_angle_beta 53.963459
_cell_angle_gamma 90.000000
_cell_volume 1660.745665
_symmetry_space_group_name_H-M "C 2/C"
_symmetry_group_IT_number 15
_symmetry_cell_setting 'monoclinic'
loop_
_space_group_symop_operation_xyz
x,y,z
-x,y,1/2-z
-x,-y,-z
x,-y,1/2+z
1/2+x,1/2+y,z
1/2-x,1/2+y,1/2-z
1/2-x,1/2-y,-z
1/2+x,1/2-y,1/2+z
loop_
_atom_site_type_symbol
_atom_site_label
_atom_site_fract_x
_atom_site_fract_y
_atom_site_fract_z
Si Si1 0.861635 0.537724 0.216531
Si Si2 0.300829 0.300332 0.579482
Si Si3 0.000000 0.338254 0.250000
Si Si4 0.272720 0.493413 0.926431
Si Si5 0.141460 0.007033 0.823171
Si Si6 0.396641 0.221757 0.015839
O O1 0.811972 0.684835 0.303322
O O2 0.919727 0.444900 0.253917
O O3 0.759600 0.458364 0.255993
O O4 0.917526 0.592942 0.082787
O O5 0.312946 0.445087 0.499054
O O6 0.306853 0.133844 0.531432
O O7 0.368808 0.340060 0.620972
O O8 0.951608 0.258671 0.376399
O O9 0.362177 0.495602 0.787418
O O10 0.211619 0.339774 0.944714
O O11 0.091813 0.130467 0.925000
#
# Coordination Sequence:
#
# PCOD9254510 Si02
#       6
#     8   8   4   8   8   8
#     4   9  20  34  52  82 108 141 178 220 270 313
#     4   9  18  30  52  82 103 132 176 222 274 302
#     4  12  22  34  48  82 122 146 170 216 268 344
#     4  10  16  31  53  78 108 130 175 230 263 307
#     4   9  18  34  53  81 106 135 183 232 261 306
#     4  11  20  34  56  82 108 140 180 224 272 311
#
# _framework density 26.494122000000001
#
# number of rings (size 3 to 8) (size 9 to 14) (size 15 to 20)
#    1.091    1.091    3.636    0.545    0.000    2.909 
#    0.000    0.000    0.000    1.091    4.727   15.273 
#    0.000    0.000    0.000    0.000    0.000    0.000 
#
# Total GULP energy -122513.833463 kJ/mol
# GULP energy per Si atom -5568.810612 kJ/mol
# Density = 2.643382 g / cm^3
# Si number density = 26.494122 Si / 1000 Ang^3
#
#
#
# Elastic Constant Matrix: (Units=GPa)
#
#
# Indices 1 2 3 4 5 6 
#
# 1 52.3220 0.4487 20.5668 0.0000 13.2408 0.0000
# 2 0.4487 25.5228 19.3635 0.0001 -11.0629 -0.0001
# 3 20.5668 19.3635 207.6879 0.0000 32.6348 0.0000
# 4 0.0000 0.0001 0.0000 34.3697 0.0000 20.6200
# 5 13.2408 -11.0629 32.6348 0.0000 37.3156 0.0000
# 6 0.0000 -0.0001 0.0000 20.6200 0.0000 22.0171
#
#
#
# Elastic Compliance Matrix: (Units=1/GPa)
#
#
# Indices 1 2 3 4 5 6 
#
# 1 0.021419 -0.003563 -0.000497 0.000000 -0.008222 0.000000
# 2 -0.003563 0.057618 -0.009161 0.000000 0.026358 0.000001
# 3 -0.000497 -0.009161 0.007092 0.000000 -0.008742 0.000000
# 4 0.000000 0.000000 0.000000 0.066409 0.000000 -0.062195
# 5 -0.008222 0.026358 -0.008742 0.000000 0.045176 0.000000
# 6 0.000000 0.000001 0.000000 -0.062195 0.000000 0.103668
#
#
# Mechanical properties :
#
#
# Convention : Reuss Voigt Hill
#
# Bulk Modulus (GPa) = 16.75407 40.69895 28.72651
# Shear Modulus (GPa) = 14.37941 35.08407 24.73174
#
# Velocity S-wave (km/s) = 2.33220 3.64293 3.05861
# Velocity P-wave (km/s) = 3.68642 5.75234 4.83110
#
# Compressibility (1/GPa) = 0.05968697
#
# Stress axis : x y z
#
# Youngs Moduli (GPa) = 46.68758 17.35554 141.00644
#
# Poissons Ratio (x) = 0.06185 0.07006
# Poissons Ratio (y) = 0.16637 1.29174
# Poissons Ratio (z) = 0.02320 0.15899
#
# Static dielectric constant tensor:
#      x y z
#    x 2.084320 0.000000 0.012790 
#    y 0.000000 2.173480 0.000000 
#    z 0.012790 0.000000 2.193750 
# 
# From -- ./inp_files/171692.got.cif
#   From: 2010.05.17/outbox.cif.g08.bks.cpg/sg15_86_cif.got.tgz:171692.got - 2010.06.03 18:47:42.
