data_PCOD9254568
_publ_section_title
;
Structure prediction by ZEFSAII (Michael W. Deem and Ramdas Pophale) SiO2 
 PCOD9254568
Probable space group: C 2/C
;
_chemical_formula_sum "Si O2"
_cell_formula_units_Z 64
_cell_length_a 16.933323
_cell_length_b 7.586414
_cell_length_c 27.353977
_cell_angle_alpha 90.000000
_cell_angle_beta 134.889982
_cell_angle_gamma 90.000000
_cell_volume 2489.525241
_symmetry_space_group_name_H-M "C 2/C"
_symmetry_group_IT_number 15
_symmetry_cell_setting 'monoclinic'
loop_
_space_group_symop_operation_xyz
x,y,z
-x,y,1/2-z
-x,-y,-z
x,-y,1/2+z
1/2+x,1/2+y,z
1/2-x,1/2+y,1/2-z
1/2-x,1/2-y,-z
1/2+x,1/2-y,1/2+z
loop_
_atom_site_type_symbol
_atom_site_label
_atom_site_fract_x
_atom_site_fract_y
_atom_site_fract_z
Si Si1 0.675833 0.574200 0.733938
Si Si2 0.911513 0.871743 0.401050
Si Si3 0.359303 0.486894 0.007630
Si Si4 0.285370 0.209698 0.623853
Si Si5 0.314381 0.237094 0.875969
Si Si6 0.390921 0.173176 0.769656
Si Si7 0.247692 0.558151 0.553774
Si Si8 0.966068 0.634603 0.580077
O O1 0.593040 0.663883 0.658778
O O2 0.710036 0.683179 0.796301
O O3 0.632445 0.380560 0.728640
O O4 0.790412 0.570321 0.752673
O O5 0.853805 0.063556 0.383477
O O6 0.961733 0.114829 0.527026
O O7 0.829700 0.748715 0.395839
O O8 0.255312 0.559565 0.931149
O O9 0.321782 0.390207 0.040058
O O10 0.417224 0.670084 0.049921
O O11 0.373543 0.156844 0.703976
O O12 0.308105 0.389060 0.605208
O O13 0.421285 0.125604 0.903233
O O14 0.276601 0.194255 0.914057
O O15 0.499279 0.119248 0.847806
O O16 0.129615 0.492333 0.480777
#
# Coordination Sequence:
#
# PCOD9254568 Si02
#       8
#     8   8   8   8   8   8   8   8
#     4  10  16  32  51  84 110 138 175 234 272 315
#     4  10  20  37  59  82 115 145 182 231 276 326
#     4  10  20  37  54  83 115 146 179 232 273 323
#     4  10  20  33  58  82 108 147 190 223 271 330
#     4  10  19  33  55  83 112 143 185 224 278 323
#     4  10  18  31  54  79 114 136 182 231 276 313
#     4  11  21  35  58  84 113 144 186 229 272 329
#     4   9  18  34  52  78 115 138 176 230 273 312
#
# _framework density 25.707713999999999
#
# number of rings (size 3 to 8) (size 9 to 14) (size 15 to 20)
#    0.000    2.000    5.000    2.250    0.000    0.000 
#    0.000    5.000    0.000    3.000    0.000    3.500 
#    0.000    0.000    0.000    0.000    0.000    0.000 
#
# Total GULP energy -179134.225074 kJ/mol
# GULP energy per Si atom -5597.944534 kJ/mol
# Density = 2.564920 g / cm^3
# Si number density = 25.707714 Si / 1000 Ang^3
#
#
#
# Elastic Constant Matrix: (Units=GPa)
#
#
# Indices 1 2 3 4 5 6 
#
# 1 84.1823 19.0910 27.6194 0.0000 -19.6229 0.0000
# 2 19.0910 58.4973 12.3047 0.0000 -0.4959 0.0000
# 3 27.6194 12.3047 180.7197 0.0000 -23.0295 0.0000
# 4 0.0000 0.0000 0.0000 23.7702 0.0000 -2.9038
# 5 -19.6229 -0.4959 -23.0295 0.0000 37.5419 0.0000
# 6 0.0000 0.0000 0.0000 -2.9038 0.0000 14.3346
#
#
#
# Elastic Compliance Matrix: (Units=1/GPa)
#
#
# Indices 1 2 3 4 5 6 
#
# 1 0.014920 -0.004585 -0.001065 0.000000 0.007084 0.000000
# 2 -0.004585 0.018762 -0.000923 0.000000 -0.002715 0.000000
# 3 -0.001065 -0.000923 0.006169 0.000000 0.003215 0.000000
# 4 0.000000 0.000000 0.000000 0.043137 0.000000 0.008738
# 5 0.007084 -0.002715 0.003215 0.000000 0.032276 0.000000
# 6 0.000000 0.000000 0.000000 0.008738 0.000000 0.071531
#
#
# Mechanical properties :
#
#
# Convention : Reuss Voigt Hill
#
# Bulk Modulus (GPa) = 37.44640 49.04773 43.24707
# Shear Modulus (GPa) = 23.94144 32.75494 28.34819
#
# Velocity S-wave (km/s) = 3.05502 3.57337 3.32431
# Velocity P-wave (km/s) = 5.20020 6.01213 5.62084
#
# Compressibility (1/GPa) = 0.02670483
#
# Stress axis : x y z
#
# Youngs Moduli (GPa) = 67.02573 53.29854 162.10696
#
# Poissons Ratio (x) = 0.24437 0.17268
# Poissons Ratio (y) = 0.30731 0.14957
# Poissons Ratio (z) = 0.07140 0.04918
#
# Static dielectric constant tensor:
#      x y z
#    x 2.041420 0.000000 -0.037330 
#    y 0.000000 2.030740 0.000000 
#    z -0.037330 0.000000 2.073870 
# 
# From -- ./inp_files/298683.got.cif
#   From: 2010.05.17/outbox.cif.g08.bks.cpg/sg15_150_cif.got.tgz:298683.got - 2010.06.03 18:47:42.
