data_PCOD9254224
_publ_section_title
;
Structure prediction by ZEFSAII (Michael W. Deem and Ramdas Pophale) SiO2 
 PCOD9254224
Probable space group: C 2/C
;
_chemical_formula_sum "Si O2"
_cell_formula_units_Z 64
_cell_length_a 6.814128
_cell_length_b 23.828005
_cell_length_c 15.051085
_cell_angle_alpha 90.000000
_cell_angle_beta 102.188172
_cell_angle_gamma 90.000000
_cell_volume 2388.716171
_symmetry_space_group_name_H-M "C 2/C"
_symmetry_group_IT_number 15
_symmetry_cell_setting 'monoclinic'
loop_
_space_group_symop_operation_xyz
x,y,z
-x,y,1/2-z
-x,-y,-z
x,-y,1/2+z
1/2+x,1/2+y,z
1/2-x,1/2+y,1/2-z
1/2-x,1/2-y,-z
1/2+x,1/2-y,1/2+z
loop_
_atom_site_type_symbol
_atom_site_label
_atom_site_fract_x
_atom_site_fract_y
_atom_site_fract_z
Si Si1 0.823705 0.218755 0.821686
Si Si2 0.102616 0.683830 0.632620
Si Si3 0.557153 0.821341 0.565035
Si Si4 0.430005 0.351621 0.488889
Si Si5 0.675855 0.069535 0.163442
Si Si6 0.195302 0.443654 0.169447
Si Si7 0.129627 0.044003 0.619546
Si Si8 0.866295 0.919777 0.867118
O O1 0.779808 0.203976 0.715384
O O2 0.601484 0.209379 0.844573
O O3 0.912205 0.279590 0.850335
O O4 0.953466 0.177296 0.896438
O O5 0.096452 0.615791 0.638210
O O6 0.094887 0.697207 0.527128
O O7 0.772346 0.818911 0.533787
O O8 0.546551 0.884778 0.599481
O O9 0.334895 0.411770 0.453745
O O10 0.621068 0.367222 0.566179
O O11 0.712834 0.082649 0.271083
O O12 0.906624 0.075889 0.150966
O O13 0.605634 0.005457 0.143162
O O14 0.240762 0.444415 0.279555
O O15 0.404347 0.446159 0.135063
O O16 0.159541 0.980533 0.591250
#
# Coordination Sequence:
#
# PCOD9254224 Si02
#       8
#     8   8   8   8   8   8   8   8
#     4  10  21  33  48  74 104 130 168 215 251 306
#     4  10  19  33  51  73 101 133 168 207 258 299
#     4  10  21  33  50  75 102 134 170 207 257 305
#     4  10  16  28  47  73 101 129 164 210 255 292
#     4   8  16  30  46  73 104 134 165 206 251 306
#     4   9  17  31  50  74 103 133 169 208 255 300
#     4   9  16  28  47  74 101 127 168 209 246 302
#     4   8  15  25  45  71 102 132 162 205 256 295
#
# _framework density 26.792632999999999
#
# number of rings (size 3 to 8) (size 9 to 14) (size 15 to 20)
#    0.000    2.750    1.250    3.375    0.000    5.500 
#    0.000    0.000    0.000    3.000    0.000    0.000 
#    0.000    0.000    0.000    0.000    0.000    0.000 
#
# Total GULP energy -179162.719489 kJ/mol
# GULP energy per Si atom -5598.834984 kJ/mol
# Density = 2.673165 g / cm^3
# Si number density = 26.792633 Si / 1000 Ang^3
#
#
#
# Elastic Constant Matrix: (Units=GPa)
#
#
# Indices 1 2 3 4 5 6 
#
# 1 95.1919 9.7100 37.8124 0.0000 9.2519 0.0000
# 2 9.7100 121.6001 71.1112 0.0000 0.8257 0.0000
# 3 37.8124 71.1112 158.6027 0.0000 5.9646 0.0000
# 4 0.0000 0.0000 0.0000 54.7581 0.0000 -1.2775
# 5 9.2519 0.8257 5.9646 0.0000 42.1131 0.0000
# 6 0.0000 0.0000 0.0000 -1.2775 0.0000 78.7638
#
#
#
# Elastic Compliance Matrix: (Units=1/GPa)
#
#
# Indices 1 2 3 4 5 6 
#
# 1 0.011879 0.000914 -0.003160 0.000000 -0.002180 0.000000
# 2 0.000914 0.011227 -0.005264 0.000000 0.000325 0.000000
# 3 -0.003160 -0.005264 0.009439 0.000000 -0.000539 0.000000
# 4 0.000000 0.000000 0.000000 0.018269 0.000000 0.000296
# 5 -0.002180 0.000325 -0.000539 0.000000 0.024295 0.000000
# 6 0.000000 0.000000 0.000000 0.000296 0.000000 0.012701
#
#
# Mechanical properties :
#
#
# Convention : Reuss Voigt Hill
#
# Bulk Modulus (GPa) = 57.06025 68.07355 62.56690
# Shear Modulus (GPa) = 46.01091 52.24440 49.12766
#
# Velocity S-wave (km/s) = 4.14852 4.42062 4.28673
# Velocity P-wave (km/s) = 6.65509 7.17764 6.92130
#
# Compressibility (1/GPa) = 0.01752533
#
# Stress axis : x y z
#
# Youngs Moduli (GPa) = 84.18262 89.07337 105.94598
#
# Poissons Ratio (x) = -0.08143 0.33478
# Poissons Ratio (y) = -0.07696 0.55767
# Poissons Ratio (z) = 0.26601 0.46886
#
# Static dielectric constant tensor:
#      x y z
#    x 2.174170 0.000000 0.007480 
#    y 0.000000 2.043300 0.000000 
#    z 0.007480 0.000000 2.054270 
# 
# From -- ./inp_files/200678.got.cif
#   From: 2010.05.17/outbox.cif.g08.bks.cpg/sg15_101_cif.got.tgz:200678.got - 2010.06.03 18:47:42.
