data_PCOD9254256
_publ_section_title
;
Structure prediction by ZEFSAII (Michael W. Deem and Ramdas Pophale) SiO2 
 PCOD9254256
Probable space group: C 2/C
;
_chemical_formula_sum "Si O2"
_cell_formula_units_Z 52
_cell_length_a 20.988408
_cell_length_b 8.978747
_cell_length_c 14.000353
_cell_angle_alpha 90.000000
_cell_angle_beta 123.864770
_cell_angle_gamma 90.000000
_cell_volume 2190.776442
_symmetry_space_group_name_H-M "C 2/C"
_symmetry_group_IT_number 15
_symmetry_cell_setting 'monoclinic'
loop_
_space_group_symop_operation_xyz
x,y,z
-x,y,1/2-z
-x,-y,-z
x,-y,1/2+z
1/2+x,1/2+y,z
1/2-x,1/2+y,1/2-z
1/2-x,1/2-y,-z
1/2+x,1/2-y,1/2+z
loop_
_atom_site_type_symbol
_atom_site_label
_atom_site_fract_x
_atom_site_fract_y
_atom_site_fract_z
Si Si1 0.146824 0.497398 0.158966
Si Si2 0.283787 0.612573 0.384046
Si Si3 0.834650 0.192833 0.632303
Si Si4 0.462078 0.254216 0.365185
Si Si5 0.597145 0.969846 0.910827
Si Si6 0.430057 0.316755 0.882125
Si Si7 0.500000 0.239668 0.750000
O O1 0.223468 0.498946 0.286248
O O2 0.101216 0.647543 0.142686
O O3 0.092104 0.359764 0.139020
O O4 0.148680 0.497895 0.046287
O O5 0.236977 0.770486 0.357903
O O6 0.316770 0.600373 0.520706
O O7 0.352885 0.618075 0.365311
O O8 0.912505 0.148035 0.750553
O O9 0.854191 0.363814 0.616905
O O10 0.504848 0.339769 0.484093
O O11 0.525568 0.140591 0.375621
O O12 0.564401 0.124047 0.844079
O O13 0.464580 0.335849 0.806097
#
# Coordination Sequence:
#
# PCOD9254256 Si02
#       7
#     8   8   8   8   8   8   4
#     4  10  18  32  47  74 117 142 164 214 268 322
#     4  10  21  31  45  77 116 143 168 208 267 330
#     4  10  18  30  50  76 111 136 168 216 272 316
#     4  10  16  28  51  79 108 129 165 230 271 303
#     4  11  16  28  53  81 106 131 171 219 273 319
#     4  11  20  32  51  79 112 137 175 213 267 320
#     4  12  18  28  52  80 102 144 164 214 276 322
#
# _framework density 23.735876000000001
#
# number of rings (size 3 to 8) (size 9 to 14) (size 15 to 20)
#    0.000    1.538    7.692    1.846    0.000    0.000 
#    0.000    0.769    0.000    0.000    0.000    4.308 
#    9.231    0.000    0.000    0.000    0.000    0.000 
#
# Total GULP energy -145037.996401 kJ/mol
# GULP energy per Si atom -5578.384477 kJ/mol
# Density = 2.368185 g / cm^3
# Si number density = 23.735876 Si / 1000 Ang^3
#
#
#
# Elastic Constant Matrix: (Units=GPa)
#
#
# Indices 1 2 3 4 5 6 
#
# 1 87.9896 -4.4137 69.4522 0.0000 -5.3183 0.0000
# 2 -4.4137 50.6152 41.5670 0.0000 7.8038 0.0000
# 3 69.4522 41.5670 213.7187 0.0000 6.6596 0.0000
# 4 0.0000 0.0000 0.0000 7.5328 0.0000 -6.2341
# 5 -5.3183 7.8038 6.6596 0.0000 41.1835 0.0000
# 6 0.0000 0.0000 0.0000 -6.2341 0.0000 -15.7761
#
#
#
# Elastic Compliance Matrix: (Units=1/GPa)
#
#
# Indices 1 2 3 4 5 6 
#
# 1 0.017450 0.007037 -0.007104 0.000000 0.002069 0.000000
# 2 0.007037 0.026936 -0.007432 0.000000 -0.002993 0.000000
# 3 -0.007104 -0.007432 0.008460 0.000000 -0.000877 0.000000
# 4 0.000000 0.000000 0.000000 0.100037 0.000000 -0.039531
# 5 0.002069 -0.002993 -0.000877 0.000000 0.025258 0.000000
# 6 0.000000 0.000000 0.000000 -0.039531 0.000000 -0.047766
#
#
# Mechanical properties :
#
#
# Convention : Reuss Voigt Hill
#
# Bulk Modulus (GPa) = 26.42185 62.83716 44.62951
# Shear Modulus (GPa) = 31.64753 22.96923 27.30838
#
# Velocity S-wave (km/s) = 3.65543 3.11416 3.39560
# Velocity P-wave (km/s) = 5.38256 6.28185 5.84951
#
# Compressibility (1/GPa) = 0.03784746
#
# Stress axis : x y z
#
# Youngs Moduli (GPa) = 57.30584 37.12548 118.19699
#
# Poissons Ratio (x) = -0.26124 0.83965
# Poissons Ratio (y) = -0.40324 0.87847
# Poissons Ratio (z) = 0.40709 0.27593
#
# Static dielectric constant tensor:
#      x y z
#    x 2.019710 0.000000 -0.013480 
#    y 0.000000 1.878340 0.000000 
#    z -0.013480 0.000000 1.996150 
# 
# From -- ./inp_files/167359.got.cif
#   From: 2010.05.17/outbox.cif.g08.bks.cpg/sg15_84_cif.got.tgz:167359.got - 2010.06.03 18:47:42.
