data_PCOD9254015
_publ_section_title
;
Structure prediction by ZEFSAII (Michael W. Deem and Ramdas Pophale) SiO2 
 PCOD9254015
Probable space group: C 2/C
;
_chemical_formula_sum "Si O2"
_cell_formula_units_Z 64
_cell_length_a 9.257458
_cell_length_b 23.487075
_cell_length_c 23.169920
_cell_angle_alpha 90.000000
_cell_angle_beta 140.104568
_cell_angle_gamma 90.000000
_cell_volume 3231.218786
_symmetry_space_group_name_H-M "C 2/C"
_symmetry_group_IT_number 15
_symmetry_cell_setting 'monoclinic'
loop_
_space_group_symop_operation_xyz
x,y,z
-x,y,1/2-z
-x,-y,-z
x,-y,1/2+z
1/2+x,1/2+y,z
1/2-x,1/2+y,1/2-z
1/2-x,1/2-y,-z
1/2+x,1/2-y,1/2+z
loop_
_atom_site_type_symbol
_atom_site_label
_atom_site_fract_x
_atom_site_fract_y
_atom_site_fract_z
Si Si1 0.227105 0.157764 0.653331
Si Si2 0.742069 0.968469 0.668566
Si Si3 0.732246 0.963325 0.357973
Si Si4 0.988452 0.577447 0.594061
Si Si5 0.307504 0.370460 0.596694
Si Si6 0.704402 0.680904 0.769552
Si Si7 0.765244 0.573226 0.204732
Si Si8 0.833873 0.256271 0.090635
O O1 0.500000 0.156565 0.750000
O O2 0.138589 0.093510 0.621001
O O3 0.120212 0.182859 0.677948
O O4 0.212297 0.194719 0.590980
O O5 0.742426 0.912807 0.628686
O O6 0.677991 0.953747 0.714962
O O7 0.000000 0.988132 0.750000
O O8 0.602110 0.021499 0.602200
O O9 0.500000 0.963407 0.250000
O O10 0.668623 0.948856 0.403927
O O11 0.828467 0.023798 0.367446
O O12 0.852805 0.613773 0.505983
O O13 0.173075 0.619823 0.679514
O O14 0.563110 0.383849 0.655178
O O15 0.295928 0.304444 0.609081
O O16 0.500000 0.689438 0.750000
O O17 0.904941 0.726467 0.834148
O O18 0.000000 0.595132 0.250000
O O19 0.750000 0.250000 0.000000
#
# Coordination Sequence:
#
# PCOD9254015 Si02
#       8
#     8   8   8   8   8   8   8   8
#     4   9  17  34  62  90 110 158 209 245 298 366
#     4  10  21  37  58  88 124 165 202 241 302 372
#     4  10  15  32  61  87 115 156 202 242 299 354
#     4  12  19  38  62  91 130 151 205 259 306 362
#     4  11  25  37  61  91 122 169 199 242 316 373
#     4  11  22  36  65  97 114 152 208 266 303 349
#     4  10  20  38  60  83 124 160 202 248 295 371
#     4  11  21  43  64  82 123 167 205 248 303 370
#
# _framework density 19.806768000000002
#
# number of rings (size 3 to 8) (size 9 to 14) (size 15 to 20)
#    0.000    1.500    7.500    0.750    0.000    6.500 
#    0.000    0.625    2.750    0.000    0.000    0.000 
#    0.000    0.000    0.000    0.000    0.000    0.000 
#
# Total GULP energy -178435.525072 kJ/mol
# GULP energy per Si atom -5576.110158 kJ/mol
# Density = 1.976169 g / cm^3
# Si number density = 19.806768 Si / 1000 Ang^3
#
#
#
# Elastic Constant Matrix: (Units=GPa)
#
#
# Indices 1 2 3 4 5 6 
#
# 1 85.6788 -0.5240 15.4383 0.0001 -20.9707 0.0004
# 2 -0.5240 79.0939 3.4156 0.0000 -0.6425 0.0001
# 3 15.4383 3.4156 39.2335 0.0001 -10.5250 0.0002
# 4 0.0001 0.0000 0.0001 22.4333 0.0001 -3.5242
# 5 -20.9707 -0.6425 -10.5250 0.0001 18.1567 0.0002
# 6 0.0004 0.0001 0.0002 -3.5242 0.0002 22.1383
#
#
#
# Elastic Compliance Matrix: (Units=1/GPa)
#
#
# Indices 1 2 3 4 5 6 
#
# 1 0.016366 0.000326 -0.001651 0.000000 0.017957 0.000000
# 2 0.000326 0.012698 -0.001199 0.000000 0.000131 0.000000
# 3 -0.001651 -0.001199 0.030456 0.000000 0.015705 0.000000
# 4 0.000000 0.000000 0.000000 0.045720 -0.000001 0.007278
# 5 0.017957 0.000131 0.015705 -0.000001 0.084925 -0.000001
# 6 0.000000 0.000000 0.000000 0.007278 -0.000001 0.046329
#
#
# Mechanical properties :
#
#
# Convention : Reuss Voigt Hill
#
# Bulk Modulus (GPa) = 18.35812 26.74068 22.54940
# Shear Modulus (GPa) = 19.25305 24.92409 22.08857
#
# Velocity S-wave (km/s) = 3.12114 3.55119 3.34309
# Velocity P-wave (km/s) = 4.71990 5.50860 5.12943
#
# Compressibility (1/GPa) = 0.05447180
#
# Stress axis : x y z
#
# Youngs Moduli (GPa) = 61.10167 78.75147 32.83466
#
# Poissons Ratio (x) = -0.02564 0.05421
# Poissons Ratio (y) = -0.01989 0.03935
# Poissons Ratio (z) = 0.10089 0.09439
#
# Static dielectric constant tensor:
#      x y z
#    x 1.702540 0.000000 -0.013900 
#    y 0.000000 1.737970 0.000000 
#    z -0.013900 0.000000 1.724400 
# 
# From -- ./inp_files/234473.got.cif
#   From: 2010.05.17/outbox.cif.g08.bks.cpg/sg15_118_cif.got.tgz:234473.got - 2010.06.03 18:47:42.
