data_PCOD9254762
_publ_section_title
;
Structure prediction by ZEFSAII (Michael W. Deem and Ramdas Pophale) SiO2 
 PCOD9254762
Probable space group: C 2/C
;
_chemical_formula_sum "Si O2"
_cell_formula_units_Z 52
_cell_length_a 9.996262
_cell_length_b 18.537489
_cell_length_c 15.241911
_cell_angle_alpha 90.000000
_cell_angle_beta 129.341232
_cell_angle_gamma 90.000000
_cell_volume 2184.355182
_symmetry_space_group_name_H-M "C 2/C"
_symmetry_group_IT_number 15
_symmetry_cell_setting 'monoclinic'
loop_
_space_group_symop_operation_xyz
x,y,z
-x,y,1/2-z
-x,-y,-z
x,-y,1/2+z
1/2+x,1/2+y,z
1/2-x,1/2+y,1/2-z
1/2-x,1/2-y,-z
1/2+x,1/2-y,1/2+z
loop_
_atom_site_type_symbol
_atom_site_label
_atom_site_fract_x
_atom_site_fract_y
_atom_site_fract_z
Si Si1 0.679875 0.460622 0.095117
Si Si2 0.456726 0.657620 0.441651
Si Si3 0.000000 0.211242 0.750000
Si Si4 0.129305 0.675808 0.611483
Si Si5 0.106743 0.347582 0.899749
Si Si6 0.117983 0.552444 0.990126
Si Si7 0.250774 0.430539 0.729935
O O1 0.008208 0.379982 0.408109
O O2 0.740293 0.492877 0.213854
O O3 0.500000 0.500000 0.000000
O O4 0.626404 0.376595 0.057310
O O5 0.444595 0.742815 0.418603
O O6 0.289235 0.636828 0.430680
O O7 0.408904 0.616621 0.332183
O O8 0.832139 0.172577 0.720129
O O9 0.933912 0.265990 0.647829
O O10 0.135848 0.650939 0.513968
O O11 0.197131 0.518909 0.935463
O O12 0.929061 0.392194 0.812921
O O13 0.250953 0.570746 0.124319
O O14 0.000000 0.500000 0.000000
#
# Coordination Sequence:
#
# PCOD9254762 Si02
#       7
#     8   8   4   8   8   8   8
#     4  10  25  42  71 100 136 181 236 281 335 419
#     4  10  19  38  66 103 129 175 232 275 349 406
#     4  10  16  34  60 100 128 174 222 274 344 396
#     4  10  22  38  66  99 140 171 228 292 334 416
#     4  10  18  34  68  96 132 178 228 270 342 408
#     4  11  27  45  65 102 138 183 235 282 349 413
#     4  10  21  41  72  91 140 188 222 278 348 403
#
# _framework density 23.805651999999998
#
# number of rings (size 3 to 8) (size 9 to 14) (size 15 to 20)
#    0.000    1.846    3.077    1.846   10.769    3.077 
#    5.538    0.000    0.000    1.846    0.000    0.000 
#    0.000    0.000    0.000    0.000    0.000    0.000 
#
# Total GULP energy -145084.572719 kJ/mol
# GULP energy per Si atom -5580.175874 kJ/mol
# Density = 2.375147 g / cm^3
# Si number density = 23.805652 Si / 1000 Ang^3
#
#
#
# Elastic Constant Matrix: (Units=GPa)
#
#
# Indices 1 2 3 4 5 6 
#
# 1 108.9172 41.0127 14.3859 0.0000 7.0437 0.0000
# 2 41.0127 130.0880 24.3137 0.0000 19.9609 0.0000
# 3 14.3859 24.3137 55.7179 0.0000 16.4109 0.0000
# 4 0.0000 0.0000 0.0000 40.3364 0.0000 5.6254
# 5 7.0437 19.9609 16.4109 0.0000 21.2648 0.0000
# 6 0.0000 0.0000 0.0000 5.6254 0.0000 -227.1231
#
#
#
# Elastic Compliance Matrix: (Units=1/GPa)
#
#
# Indices 1 2 3 4 5 6 
#
# 1 0.010521 -0.003127 -0.001540 0.000000 0.000639 0.000000
# 2 -0.003127 0.010061 -0.001432 0.000000 -0.007303 0.000000
# 3 -0.001540 -0.001432 0.023844 0.000000 -0.016547 0.000000
# 4 0.000000 0.000000 0.000000 0.024706 0.000000 0.000612
# 5 0.000639 -0.007303 -0.016547 0.000000 0.066440 0.000000
# 6 0.000000 0.000000 0.000000 0.000612 0.000000 -0.004388
#
#
# Mechanical properties :
#
#
# Convention : Reuss Voigt Hill
#
# Bulk Modulus (GPa) = 31.02919 50.46084 40.74501
# Shear Modulus (GPa) = 32.44123 -18.77032 6.83546
#
# Velocity S-wave (km/s) = 3.69555 -2.81104 1.69635
# Velocity P-wave (km/s) = 5.59215 3.27217 4.58144
#
# Compressibility (1/GPa) = 0.03222772
#
# Stress axis : x y z
#
# Youngs Moduli (GPa) = 95.04901 99.39110 41.93979
#
# Poissons Ratio (x) = 0.31081 0.06459
# Poissons Ratio (y) = 0.29723 0.06005
# Poissons Ratio (z) = 0.14638 0.14232
#
# Static dielectric constant tensor:
#      x y z
#    x 1.920100 0.000000 0.018440 
#    y 0.000000 2.015480 0.000000 
#    z 0.018440 0.000000 1.977560 
# 
# From -- ./inp_files/211547.got.cif
#   From: 2010.05.17/outbox.cif.g08.bks.cpg/sg15_106_cif.got.tgz:211547.got - 2010.06.03 18:47:42.
