data_PCOD9254673
_publ_section_title
;
Structure prediction by ZEFSAII (Michael W. Deem and Ramdas Pophale) SiO2 
 PCOD9254673
Probable space group: C 2/C
;
_chemical_formula_sum "Si O2"
_cell_formula_units_Z 60
_cell_length_a 21.775137
_cell_length_b 9.015345
_cell_length_c 18.018961
_cell_angle_alpha 90.000000
_cell_angle_beta 117.090701
_cell_angle_gamma 90.000000
_cell_volume 3149.219203
_symmetry_space_group_name_H-M "C 2/C"
_symmetry_group_IT_number 15
_symmetry_cell_setting 'monoclinic'
loop_
_space_group_symop_operation_xyz
x,y,z
-x,y,1/2-z
-x,-y,-z
x,-y,1/2+z
1/2+x,1/2+y,z
1/2-x,1/2+y,1/2-z
1/2-x,1/2-y,-z
1/2+x,1/2-y,1/2+z
loop_
_atom_site_type_symbol
_atom_site_label
_atom_site_fract_x
_atom_site_fract_y
_atom_site_fract_z
Si Si1 0.768507 0.910560 0.540593
Si Si2 0.394076 0.687991 0.401392
Si Si3 0.406476 0.467932 0.534989
Si Si4 0.431501 0.318466 0.173096
Si Si5 0.530826 0.851745 0.425058
Si Si6 0.000000 0.723861 0.750000
Si Si7 0.134360 0.392743 0.986018
Si Si8 0.630287 0.425082 0.772915
O O1 0.750000 0.750000 0.500000
O O2 0.828359 0.980535 0.521983
O O3 0.803058 0.891448 0.640545
O O4 0.701475 0.012062 0.505290
O O5 0.418273 0.549056 0.464260
O O6 0.457938 0.795555 0.416389
O O7 0.350448 0.784052 0.436287
O O8 0.362119 0.621055 0.308653
O O9 0.450641 0.553224 0.622522
O O10 0.422937 0.295447 0.540505
O O11 0.500000 0.258857 0.250000
O O12 0.389034 0.406262 0.213628
O O13 0.390555 0.201550 0.099530
O O14 0.519347 0.872430 0.331260
O O15 0.572281 0.994784 0.474312
O O16 0.934287 0.825447 0.734415
#
# Coordination Sequence:
#
# PCOD9254673 Si02
#       8
#     8   8   8   8   8   4   8   8
#     4  11  21  42  67  86 122 172 215 248 314 377
#     4  10  23  38  60  92 127 159 207 258 323 359
#     4  10  20  37  66  87 117 170 211 252 301 382
#     4  10  19  36  60  92 120 158 213 261 296 362
#     4  11  19  36  61  88 126 162 200 261 320 363
#     4  10  16  32  62  92 112 156 226 252 300 360
#     4  11  24  38  60  96 134 162 202 263 319 374
#     4  10  19  38  65  86 120 166 208 263 297 375
#
# _framework density 19.052341999999999
#
# number of rings (size 3 to 8) (size 9 to 14) (size 15 to 20)
#    0.000    1.600    4.667    1.600    0.933    5.867 
#    2.400    0.000    0.000    0.000    0.000    0.000 
#    0.000    0.000    0.000    0.000    0.000    0.000 
#
# Total GULP energy -167249.776513 kJ/mol
# GULP energy per Si atom -5574.992550 kJ/mol
# Density = 1.900898 g / cm^3
# Si number density = 19.052342 Si / 1000 Ang^3
#
#
#
# Elastic Constant Matrix: (Units=GPa)
#
#
# Indices 1 2 3 4 5 6 
#
# 1 46.0130 30.1938 40.1479 0.0000 -0.3858 0.0000
# 2 30.1938 101.6103 66.2549 0.0000 -3.6333 0.0000
# 3 40.1479 66.2549 152.0601 0.0000 -7.4808 0.0000
# 4 0.0000 0.0000 0.0000 36.1200 0.0000 2.0172
# 5 -0.3858 -3.6333 -7.4808 0.0000 26.6498 0.0000
# 6 0.0000 0.0000 0.0000 2.0172 0.0000 25.5965
#
#
#
# Elastic Compliance Matrix: (Units=1/GPa)
#
#
# Indices 1 2 3 4 5 6 
#
# 1 0.030220 -0.005286 -0.005769 0.000000 -0.001903 0.000000
# 2 -0.005286 0.014673 -0.004972 0.000000 0.000528 0.000000
# 3 -0.005769 -0.004972 0.010371 0.000000 0.002150 0.000000
# 4 0.000000 0.000000 0.000000 0.027808 0.000000 -0.002192
# 5 -0.001903 0.000528 0.002150 0.000000 0.038172 0.000000
# 6 0.000000 0.000000 0.000000 -0.002192 0.000000 0.039241
#
#
# Mechanical properties :
#
#
# Convention : Reuss Voigt Hill
#
# Bulk Modulus (GPa) = 43.08414 63.65294 53.36854
# Shear Modulus (GPa) = 24.96575 28.54572 26.75573
#
# Velocity S-wave (km/s) = 3.62384 3.87496 3.75150
# Velocity P-wave (km/s) = 6.33816 7.31454 6.84378
#
# Compressibility (1/GPa) = 0.02321040
#
# Stress axis : x y z
#
# Youngs Moduli (GPa) = 33.09116 68.15294 96.41807
#
# Poissons Ratio (x) = 0.36026 0.55625
# Poissons Ratio (y) = 0.17492 0.47935
# Poissons Ratio (z) = 0.19091 0.33882
#
# Static dielectric constant tensor:
#      x y z
#    x 1.684270 0.000000 -0.010010 
#    y 0.000000 1.667410 0.000000 
#    z -0.010010 0.000000 1.675600 
# 
# From -- ./inp_files/214310.got.cif
#   From: 2010.05.17/outbox.cif.g08.bks.cpg/sg15_108_cif.got.tgz:214310.got - 2010.06.03 18:47:42.
