data_PCOD9254663
_publ_section_title
;
Structure prediction by ZEFSAII (Michael W. Deem and Ramdas Pophale) SiO2 
 PCOD9254663
Probable space group: C 2/C
;
_chemical_formula_sum "Si O2"
_cell_formula_units_Z 52
_cell_length_a 34.280509
_cell_length_b 6.865161
_cell_length_c 14.849922
_cell_angle_alpha 90.000000
_cell_angle_beta 140.516221
_cell_angle_gamma 90.000000
_cell_volume 2222.201770
_symmetry_space_group_name_H-M "C 2/C"
_symmetry_group_IT_number 15
_symmetry_cell_setting 'monoclinic'
loop_
_space_group_symop_operation_xyz
x,y,z
-x,y,1/2-z
-x,-y,-z
x,-y,1/2+z
1/2+x,1/2+y,z
1/2-x,1/2+y,1/2-z
1/2-x,1/2-y,-z
1/2+x,1/2-y,1/2+z
loop_
_atom_site_type_symbol
_atom_site_label
_atom_site_fract_x
_atom_site_fract_y
_atom_site_fract_z
Si Si1 0.000000 0.977158 0.250000
Si Si2 0.539325 0.136239 0.192792
Si Si3 0.132867 0.001986 0.051992
Si Si4 0.637785 0.040661 0.509371
Si Si5 0.583111 0.957518 0.592288
Si Si6 0.343890 0.325221 0.728294
Si Si7 0.211172 0.221663 0.557431
O O1 0.985525 0.834513 0.308268
O O2 0.066038 0.068782 0.395500
O O3 0.579757 0.031142 0.339932
O O4 0.576767 0.177044 0.168039
O O5 0.483391 0.996109 0.068126
O O6 0.138549 0.006965 0.170041
O O7 0.139866 0.231071 0.036966
O O8 0.189544 0.899507 0.104426
O O9 0.626811 0.928258 0.584186
O O10 0.691657 0.942256 0.548225
O O11 0.603724 0.163513 0.672299
O O12 0.281622 0.224614 0.655817
O O13 0.327432 0.363807 0.595611
#
# Coordination Sequence:
#
# PCOD9254663 Si02
#       7
#     4   8   8   8   8   8   8
#     4  10  18  40  60  86 132 158 200 262 310 360
#     4  10  16  32  60  86 119 156 198 253 304 365
#     4  10  23  43  63  91 127 162 204 262 312 366
#     4  10  20  39  63  88 118 167 203 254 309 368
#     4  10  18  32  60  89 116 161 204 248 312 355
#     4  10  22  42  64  91 128 166 206 269 301 372
#     4  11  24  43  63  92 128 162 216 252 309 376
#
# _framework density 23.400216
#
# number of rings (size 3 to 8) (size 9 to 14) (size 15 to 20)
#    0.000    1.846    6.154    0.000    4.308    0.000 
#    8.308    3.846    0.000    0.000    0.000    0.000 
#    0.000    0.000    0.000    0.000    0.000    0.000 
#
# Total GULP energy -145180.990065 kJ/mol
# GULP energy per Si atom -5583.884233 kJ/mol
# Density = 2.334696 g / cm^3
# Si number density = 23.400216 Si / 1000 Ang^3
#
#
#
# Elastic Constant Matrix: (Units=GPa)
#
#
# Indices 1 2 3 4 5 6 
#
# 1 93.7597 17.0898 2.7760 0.0000 -14.1330 0.0000
# 2 17.0898 42.8178 3.1037 0.0000 1.8200 0.0000
# 3 2.7760 3.1037 76.1842 0.0000 -23.7157 0.0000
# 4 0.0000 0.0000 0.0000 9.0864 0.0000 3.2672
# 5 -14.1330 1.8200 -23.7157 0.0000 33.9089 0.0000
# 6 0.0000 0.0000 0.0000 3.2672 0.0000 30.8803
#
#
#
# Elastic Compliance Matrix: (Units=1/GPa)
#
#
# Indices 1 2 3 4 5 6 
#
# 1 0.012648 -0.005480 0.001911 0.000000 0.006903 0.000000
# 2 -0.005480 0.025960 -0.002560 0.000000 -0.005468 0.000000
# 3 0.001911 -0.002560 0.017195 0.000000 0.012960 0.000000
# 4 0.000000 0.000000 0.000000 0.114407 0.000000 -0.012105
# 5 0.006903 -0.005468 0.012960 0.000000 0.041726 0.000000
# 6 0.000000 0.000000 0.000000 -0.012105 0.000000 0.033664
#
#
# Mechanical properties :
#
#
# Convention : Reuss Voigt Hill
#
# Bulk Modulus (GPa) = 22.96463 28.74451 25.85457
# Shear Modulus (GPa) = 18.35717 27.42792 22.89255
#
# Velocity S-wave (km/s) = 2.80391 3.42734 3.13118
# Velocity P-wave (km/s) = 4.50752 5.28893 4.91378
#
# Compressibility (1/GPa) = 0.04354522
#
# Stress axis : x y z
#
# Youngs Moduli (GPa) = 79.06171 38.52064 58.15581
#
# Poissons Ratio (x) = 0.21110 -0.11114
# Poissons Ratio (y) = 0.43328 0.14888
# Poissons Ratio (z) = -0.15109 0.09862
#
# Static dielectric constant tensor:
#      x y z
#    x 1.903370 0.000000 -0.013210 
#    y 0.000000 1.908430 0.000000 
#    z -0.013210 0.000000 1.889730 
# 
# From -- ./inp_files/181224.got.cif
#   From: 2010.05.17/outbox.cif.g08.bks.cpg/sg15_91_cif.got.tgz:181224.got - 2010.06.03 18:47:42.
