data_PCOD9254589
_publ_section_title
;
Structure prediction by ZEFSAII (Michael W. Deem and Ramdas Pophale) SiO2 
 PCOD9254589
Probable space group: C 2/C
;
_chemical_formula_sum "Si O2"
_cell_formula_units_Z 64
_cell_length_a 25.996235
_cell_length_b 16.140572
_cell_length_c 12.206263
_cell_angle_alpha 90.000000
_cell_angle_beta 41.228870
_cell_angle_gamma 90.000000
_cell_volume 3375.535304
_symmetry_space_group_name_H-M "C 2/C"
_symmetry_group_IT_number 15
_symmetry_cell_setting 'monoclinic'
loop_
_space_group_symop_operation_xyz
x,y,z
-x,y,1/2-z
-x,-y,-z
x,-y,1/2+z
1/2+x,1/2+y,z
1/2-x,1/2+y,1/2-z
1/2-x,1/2-y,-z
1/2+x,1/2-y,1/2+z
loop_
_atom_site_type_symbol
_atom_site_label
_atom_site_fract_x
_atom_site_fract_y
_atom_site_fract_z
Si Si1 0.586301 0.409836 0.147158
Si Si2 0.200841 0.205169 0.323670
Si Si3 0.231573 0.982329 0.984163
Si Si4 0.954174 0.261403 0.705404
Si Si5 0.408614 0.829239 0.140695
Si Si6 0.349287 0.975507 0.105906
Si Si7 0.327439 0.109537 0.981624
Si Si8 0.294750 0.158523 0.518902
O O1 0.500000 0.436978 0.250000
O O2 0.640175 0.483970 0.104180
O O3 0.569417 0.334751 0.258898
O O4 0.638455 0.362588 0.969656
O O5 0.153215 0.269396 0.322844
O O6 0.271625 0.166695 0.143507
O O7 0.232575 0.258926 0.375671
O O8 0.243072 0.890962 0.016398
O O9 0.268118 0.050875 0.006080
O O10 0.283486 0.989765 0.792426
O O11 0.000000 0.272009 0.750000
O O12 0.009075 0.288552 0.518988
O O13 0.877662 0.317205 0.834338
O O14 0.380643 0.842722 0.309075
O O15 0.407750 0.920319 0.084487
O O16 0.376277 0.049674 0.984381
O O17 0.310500 0.908790 0.087758
#
# Coordination Sequence:
#
# PCOD9254589 Si02
#       8
#     8   8   8   8   8   8   8   8
#     4  10  18  33  57  78 105 138 180 234 273 312
#     4  10  17  32  54  79 105 137 185 227 264 319
#     4  10  20  34  53  82 108 142 181 226 277 329
#     4  10  16  32  53  77 105 139 184 224 257 310
#     4  10  18  32  54  76 106 146 185 218 262 333
#     4   9  17  33  49  74 116 138 173 225 268 319
#     4  10  20  32  51  81 112 141 179 224 277 329
#     4   9  19  32  55  81 102 145 184 223 267 319
#
# _framework density 18.959955999999998
#
# number of rings (size 3 to 8) (size 9 to 14) (size 15 to 20)
#    0.000    2.250    6.250    0.375    0.000    2.000 
#    0.000    7.500    0.000    0.000    0.000    0.000 
#    0.000    0.000    0.000    0.000    0.000    0.000 
#
# Total GULP energy -178301.732937 kJ/mol
# GULP energy per Si atom -5571.929154 kJ/mol
# Density = 1.891680 g / cm^3
# Si number density = 18.959956 Si / 1000 Ang^3
#
#
#
# Elastic Constant Matrix: (Units=GPa)
#
#
# Indices 1 2 3 4 5 6 
#
# 1 -34.3552 2.9788 -2.1684 0.0000 -34.8770 0.0000
# 2 2.9788 38.1053 40.0359 0.0000 9.3458 0.0000
# 3 -2.1684 40.0359 117.9609 0.0000 1.8034 0.0000
# 4 0.0000 0.0000 0.0000 33.8974 0.0000 -3.6667
# 5 -34.8770 9.3458 1.8034 0.0000 -4.3290 0.0000
# 6 0.0000 0.0000 0.0000 -3.6667 0.0000 30.3926
#
#
#
# Elastic Compliance Matrix: (Units=1/GPa)
#
#
# Indices 1 2 3 4 5 6 
#
# 1 0.007133 0.011225 -0.003150 0.000000 -0.034543 0.000000
# 2 0.011225 0.041460 -0.013763 0.000000 -0.006660 0.000000
# 3 -0.003150 -0.013763 0.013074 0.000000 0.001115 0.000000
# 4 0.000000 0.000000 0.000000 0.029891 0.000000 0.003606
# 5 -0.034543 -0.006660 0.001115 0.000000 0.033388 0.000000
# 6 0.000000 0.000000 0.000000 0.003606 0.000000 0.033338
#
#
# Mechanical properties :
#
#
# Convention : Reuss Voigt Hill
#
# Bulk Modulus (GPa) = 19.88551 22.60042 21.24296
# Shear Modulus (GPa) = 26.82066 17.38318 22.10192
#
# Velocity S-wave (km/s) = 3.76519 3.03122 3.41796
# Velocity P-wave (km/s) = 5.42339 4.91904 5.17736
#
# Compressibility (1/GPa) = 0.05028788
#
# Stress axis : x y z
#
# Youngs Moduli (GPa) = 140.20268 24.11987 76.48967
#
# Poissons Ratio (x) = -0.27074 0.24098
# Poissons Ratio (y) = -1.57374 1.05274
# Poissons Ratio (z) = 0.44170 0.33197
#
# Static dielectric constant tensor:
#      x y z
#    x 1.699580 0.000000 0.018910 
#    y 0.000000 1.684330 0.000000 
#    z 0.018910 0.000000 1.633900 
# 
# From -- ./inp_files/126877.got.cif
#   From: 2010.05.17/outbox.cif.g08.bks.cpg/sg15_64_cif.got.tgz:126877.got - 2010.06.03 18:47:42.
