data_PCOD9254749
_publ_section_title
;
Structure prediction by ZEFSAII (Michael W. Deem and Ramdas Pophale) SiO2 
 PCOD9254749
Probable space group: C 2/C
;
_chemical_formula_sum "Si O2"
_cell_formula_units_Z 40
_cell_length_a 15.901360
_cell_length_b 8.185777
_cell_length_c 13.688496
_cell_angle_alpha 90.000000
_cell_angle_beta 57.693357
_cell_angle_gamma 90.000000
_cell_volume 1505.945781
_symmetry_space_group_name_H-M "C 2/C"
_symmetry_group_IT_number 15
_symmetry_cell_setting 'monoclinic'
loop_
_space_group_symop_operation_xyz
x,y,z
-x,y,1/2-z
-x,-y,-z
x,-y,1/2+z
1/2+x,1/2+y,z
1/2-x,1/2+y,1/2-z
1/2-x,1/2-y,-z
1/2+x,1/2-y,1/2+z
loop_
_atom_site_type_symbol
_atom_site_label
_atom_site_fract_x
_atom_site_fract_y
_atom_site_fract_z
Si Si1 0.756773 0.057521 0.027807
Si Si2 0.531697 0.692265 0.837596
Si Si3 0.401088 0.077133 0.514588
Si Si4 0.601817 0.637874 0.204942
Si Si5 0.772025 0.610837 0.232683
O O1 0.763420 0.056249 0.139321
O O2 0.750000 0.250000 0.000000
O O3 0.649011 0.997492 0.051659
O O4 0.842442 0.952148 0.920605
O O5 0.500000 0.756648 0.750000
O O6 0.557424 0.505938 0.802342
O O7 0.631254 0.778920 0.810421
O O8 0.441791 0.743001 0.963622
O O9 0.500000 0.000000 0.500000
O O10 0.311711 0.043120 0.644435
O O11 0.500000 0.737128 0.250000
O O12 0.691729 0.700575 0.214295
#
# Coordination Sequence:
#
# PCOD9254749 Si02
#       5
#     8   8   8   8   8
#     4  11  18  34  58  83 109 145 197 238 267 333
#     4  10  16  34  58  83 110 145 197 236 267 327
#     4   9  19  31  54  86 110 139 189 243 272 318
#     4  10  21  34  54  83 117 151 190 230 281 336
#     4  10  20  32  56  88 111 147 192 239 281 321
#
# _framework density 26.561378999999999
#
# number of rings (size 3 to 8) (size 9 to 14) (size 15 to 20)
#    0.000    2.000    4.000    1.200    0.000    0.800 
#    0.000    0.000    0.000   14.400    5.200    0.000 
#    0.000    0.000    0.000    0.000    0.000    0.000 
#
# Total GULP energy -111761.105055 kJ/mol
# GULP energy per Si atom -5588.055253 kJ/mol
# Density = 2.650092 g / cm^3
# Si number density = 26.561379 Si / 1000 Ang^3
#
#
#
# Elastic Constant Matrix: (Units=GPa)
#
#
# Indices 1 2 3 4 5 6 
#
# 1 222.5923 -5.3385 45.1635 0.0000 -8.6053 0.0000
# 2 -5.3385 26.8319 15.0259 0.0000 -11.0957 0.0000
# 3 45.1635 15.0259 126.3478 0.0000 3.2037 0.0000
# 4 0.0000 0.0000 0.0000 37.6302 0.0000 -5.1119
# 5 -8.6053 -11.0957 3.2037 0.0000 46.2962 0.0000
# 6 0.0000 0.0000 0.0000 -5.1119 0.0000 22.2515
#
#
#
# Elastic Compliance Matrix: (Units=1/GPa)
#
#
# Indices 1 2 3 4 5 6 
#
# 1 0.005086 0.003009 -0.002222 0.000000 0.001820 0.000000
# 2 0.003009 0.046836 -0.006956 0.000000 0.012266 0.000000
# 3 -0.002222 -0.006956 0.009606 0.000000 -0.002745 0.000000
# 4 0.000000 0.000000 0.000000 0.027430 0.000000 0.006302
# 5 0.001820 0.012266 -0.002745 0.000000 0.025068 0.000000
# 6 0.000000 0.000000 0.000000 0.006302 0.000000 0.046388
#
#
# Mechanical properties :
#
#
# Convention : Reuss Voigt Hill
#
# Bulk Modulus (GPa) = 20.33009 53.94153 37.13581
# Shear Modulus (GPa) = 26.43416 42.63032 34.53224
#
# Velocity S-wave (km/s) = 3.15812 4.01056 3.60959
# Velocity P-wave (km/s) = 4.57918 6.46517 5.60211
#
# Compressibility (1/GPa) = 0.04918817
#
# Stress axis : x y z
#
# Youngs Moduli (GPa) = 196.62288 21.35132 104.10372
#
# Poissons Ratio (x) = -0.06424 0.23131
# Poissons Ratio (y) = -0.59162 0.72419
# Poissons Ratio (z) = 0.43689 0.14853
#
# Static dielectric constant tensor:
#      x y z
#    x 2.227430 0.000000 0.029220 
#    y 0.000000 2.175080 0.000000 
#    z 0.029220 0.000000 2.041670 
# 
# From -- ./inp_files/85733.got.cif
#   From: 2010.05.17/outbox.cif.g08.bks.cpg/sg15_43_cif.got.tgz:85733.got - 2010.06.03 18:47:42.
