data_PCOD9254508
_publ_section_title
;
Structure prediction by ZEFSAII (Michael W. Deem and Ramdas Pophale) SiO2 
 PCOD9254508
Probable space group: C 2/C
;
_chemical_formula_sum "Si O2"
_cell_formula_units_Z 40
_cell_length_a 13.721280
_cell_length_b 19.726237
_cell_length_c 25.468892
_cell_angle_alpha 90.000000
_cell_angle_beta 159.071252
_cell_angle_gamma 90.000000
_cell_volume 2462.456163
_symmetry_space_group_name_H-M "C 2/C"
_symmetry_group_IT_number 15
_symmetry_cell_setting 'monoclinic'
loop_
_space_group_symop_operation_xyz
x,y,z
-x,y,1/2-z
-x,-y,-z
x,-y,1/2+z
1/2+x,1/2+y,z
1/2-x,1/2+y,1/2-z
1/2-x,1/2-y,-z
1/2+x,1/2-y,1/2+z
loop_
_atom_site_type_symbol
_atom_site_label
_atom_site_fract_x
_atom_site_fract_y
_atom_site_fract_z
Si Si1 0.052213 0.735890 0.218394
Si Si2 0.829101 0.431117 0.912457
Si Si3 0.560993 0.220333 0.722119
Si Si4 0.075420 0.679239 0.955029
Si Si5 0.467879 0.181953 0.064854
O O1 0.351531 0.767629 0.363545
O O2 0.000000 0.707687 0.250000
O O3 0.004660 0.684385 0.146288
O O4 0.842677 0.798880 0.104750
O O5 0.500000 0.440543 0.750000
O O6 0.917244 0.383599 0.907270
O O7 0.919822 0.387603 0.008573
O O8 0.000000 0.500000 0.000000
O O9 0.500000 0.196483 0.750000
O O10 0.364132 0.284064 0.609522
O O11 0.495228 0.169541 0.641695
O O12 0.860070 0.252450 0.868447
#
# Coordination Sequence:
#
# PCOD9254508 Si02
#       5
#     8   8   8   8   8
#     4  10  18  29  53  79 108 133 160 215 268 308
#     4  12  24  38  53  74 108 144 179 213 248 314
#     4  10  16  31  53  77 104 131 162 224 268 309
#     4  10  19  30  52  76 104 135 173 207 265 308
#     4  10  19  32  48  78 108 133 171 209 257 313
#
# _framework density 16.243943999999999
#
# number of rings (size 3 to 8) (size 9 to 14) (size 15 to 20)
#    0.000    1.600    6.000    0.000    2.800    0.000 
#    0.000    0.000    0.000    1.200    0.000    2.800 
#    0.000    0.000    0.000    0.000    0.000    0.000 
#
# Total GULP energy -111468.091099 kJ/mol
# GULP energy per Si atom -5573.404555 kJ/mol
# Density = 1.620697 g / cm^3
# Si number density = 16.243944 Si / 1000 Ang^3
#
#
#
# Elastic Constant Matrix: (Units=GPa)
#
#
# Indices 1 2 3 4 5 6 
#
# 1 145.4687 39.7421 22.3360 -0.0005 -32.8136 -0.0023
# 2 39.7421 75.2519 19.9462 0.0051 -12.4417 -0.0028
# 3 22.3360 19.9462 50.8580 0.0106 -2.4189 -0.0025
# 4 -0.0005 0.0051 0.0106 17.0298 -0.0029 0.6726
# 5 -32.8136 -12.4417 -2.4189 -0.0029 36.1056 -0.0043
# 6 -0.0023 -0.0028 -0.0025 0.6726 -0.0043 15.2384
#
#
#
# Elastic Compliance Matrix: (Units=1/GPa)
#
#
# Indices 1 2 3 4 5 6 
#
# 1 0.009917 -0.003242 -0.002717 0.000004 0.007714 0.000002
# 2 -0.003242 0.016744 -0.005025 -0.000002 0.002487 0.000003
# 3 -0.002717 -0.005025 0.022699 -0.000013 -0.002680 0.000002
# 4 0.000004 -0.000002 -0.000013 0.058823 0.000007 -0.002596
# 5 0.007714 0.002487 -0.002680 0.000007 0.035384 0.000011
# 6 0.000002 0.000003 0.000002 -0.002596 0.000011 0.065738
#
#
# Mechanical properties :
#
#
# Convention : Reuss Voigt Hill
#
# Bulk Modulus (GPa) = 36.50624 48.40302 42.45463
# Shear Modulus (GPa) = 20.79826 26.31171 23.55498
#
# Velocity S-wave (km/s) = 3.58211 4.02902 3.81212
# Velocity P-wave (km/s) = 6.29533 7.17679 6.75046
#
# Compressibility (1/GPa) = 0.02739258
#
# Stress axis : x y z
#
# Youngs Moduli (GPa) = 100.83436 59.72342 44.05456
#
# Poissons Ratio (x) = 0.19362 0.11970
# Poissons Ratio (y) = 0.32690 0.22136
# Poissons Ratio (z) = 0.27398 0.30009
#
# Static dielectric constant tensor:
#      x y z
#    x 1.610570 0.000000 -0.008360 
#    y 0.000000 1.488710 -0.000010 
#    z -0.008360 -0.000010 1.557670 
# 
# From -- ./inp_files/39926.got.cif
#   From: 2010.05.17/outbox.cif.g08.bks.cpg/sg15_20_cif.got.tgz:39926.got - 2010.06.03 18:47:42.
