data_PCOD9254140
_publ_section_title
;
Structure prediction by ZEFSAII (Michael W. Deem and Ramdas Pophale) SiO2 
 PCOD9254140
Probable space group: C 2/C
;
_chemical_formula_sum "Si O2"
_cell_formula_units_Z 60
_cell_length_a 12.378901
_cell_length_b 14.555690
_cell_length_c 16.174087
_cell_angle_alpha 90.000000
_cell_angle_beta 98.489139
_cell_angle_gamma 90.000000
_cell_volume 2882.373228
_symmetry_space_group_name_H-M "C 2/C"
_symmetry_group_IT_number 15
_symmetry_cell_setting 'monoclinic'
loop_
_space_group_symop_operation_xyz
x,y,z
-x,y,1/2-z
-x,-y,-z
x,-y,1/2+z
1/2+x,1/2+y,z
1/2-x,1/2+y,1/2-z
1/2-x,1/2-y,-z
1/2+x,1/2-y,1/2+z
loop_
_atom_site_type_symbol
_atom_site_label
_atom_site_fract_x
_atom_site_fract_y
_atom_site_fract_z
Si Si1 0.000000 0.983607 0.250000
Si Si2 0.115927 0.371638 0.725384
Si Si3 0.033364 0.403460 0.543957
Si Si4 0.697723 0.899568 0.909189
Si Si5 0.917992 0.131247 0.505574
Si Si6 0.093380 0.930907 0.908515
Si Si7 0.603437 0.673325 0.651177
Si Si8 0.719941 0.883994 0.456936
O O1 0.927198 0.916704 0.299370
O O2 0.919156 0.046611 0.187993
O O3 0.113126 0.414600 0.632948
O O4 0.198437 0.390436 0.809692
O O5 0.112852 0.262617 0.708461
O O6 0.000000 0.402624 0.750000
O O7 0.103437 0.352412 0.480518
O O8 0.000000 0.500000 0.500000
O O9 0.918430 0.367358 0.566552
O O10 0.795610 0.845606 0.965166
O O11 0.707927 0.008479 0.930370
O O12 0.985449 0.118743 0.429070
O O13 0.000163 0.182678 0.577044
O O14 0.906902 0.030614 0.546806
O O15 0.196543 0.878863 0.956555
O O16 0.714169 0.661768 0.610716
#
# Coordination Sequence:
#
# PCOD9254140 Si02
#       8
#     4   8   8   8   8   8   8   8
#     4  10  16  26  48  76 110 130 170 220 270 322
#     4  10  20  35  54  78 109 141 182 225 269 316
#     4   9  19  34  53  73 101 142 185 217 250 315
#     4   9  17  33  56  79 106 137 180 228 263 313
#     4   8  15  30  49  74 105 135 168 211 275 315
#     4   8  15  26  47  77 105 133 162 215 265 321
#     4  10  19  32  53  78 109 140 171 224 277 330
#     4   9  18  33  52  78 108 140 180 216 268 325
#
# _framework density 20.816179999999999
#
# number of rings (size 3 to 8) (size 9 to 14) (size 15 to 20)
#    0.000    2.933    0.667    2.400    0.000    2.667 
#    0.000    2.667    5.867    0.000    0.000    7.467 
#    0.000    0.000    0.000    0.000    0.000    0.000 
#
# Total GULP energy -167055.842784 kJ/mol
# GULP energy per Si atom -5568.528093 kJ/mol
# Density = 2.076880 g / cm^3
# Si number density = 20.816180 Si / 1000 Ang^3
#
#
#
# Elastic Constant Matrix: (Units=GPa)
#
#
# Indices 1 2 3 4 5 6 
#
# 1 109.8237 5.1027 43.0418 0.0000 -5.0986 0.0000
# 2 5.1027 25.9457 2.4667 0.0000 -1.1671 0.0000
# 3 43.0418 2.4667 106.4884 0.0000 -1.3394 0.0000
# 4 0.0000 0.0000 0.0000 24.1841 0.0000 -5.9319
# 5 -5.0986 -1.1671 -1.3394 0.0000 30.9053 0.0000
# 6 0.0000 0.0000 0.0000 -5.9319 0.0000 6.0414
#
#
#
# Elastic Compliance Matrix: (Units=1/GPa)
#
#
# Indices 1 2 3 4 5 6 
#
# 1 0.010970 -0.001671 -0.004376 0.000000 0.001557 0.000000
# 2 -0.001671 0.038944 -0.000212 0.000000 0.001186 0.000000
# 3 -0.004376 -0.000212 0.011161 0.000000 -0.000246 0.000000
# 4 0.000000 0.000000 0.000000 0.054468 0.000000 0.053481
# 5 0.001557 0.001186 -0.000246 0.000000 0.032648 0.000000
# 6 0.000000 0.000000 0.000000 0.053481 0.000000 0.218038
#
#
# Mechanical properties :
#
#
# Convention : Reuss Voigt Hill
#
# Bulk Modulus (GPa) = 20.59394 38.16448 29.37921
# Shear Modulus (GPa) = 12.66038 25.00259 18.83149
#
# Velocity S-wave (km/s) = 2.46885 3.46947 3.01101
# Velocity P-wave (km/s) = 4.24755 5.86715 5.12177
#
# Compressibility (1/GPa) = 0.04855797
#
# Stress axis : x y z
#
# Youngs Moduli (GPa) = 91.15412 25.67773 89.59618
#
# Poissons Ratio (x) = 0.04292 0.39206
# Poissons Ratio (y) = 0.15236 0.01896
# Poissons Ratio (z) = 0.39888 0.00543
#
# Static dielectric constant tensor:
#      x y z
#    x 1.785340 0.000000 -0.013790 
#    y 0.000000 1.762060 0.000000 
#    z -0.013790 0.000000 1.775530 
# 
# From -- ./inp_files/145729.got.cif
#   From: 2010.05.17/outbox.cif.g08.bks.cpg/sg15_73_cif.got.tgz:145729.got - 2010.06.03 18:47:42.
