data_PCOD9254118
_publ_section_title
;
Structure prediction by ZEFSAII (Michael W. Deem and Ramdas Pophale) SiO2 
 PCOD9254118
Probable space group: C 2/C
;
_chemical_formula_sum "Si O2"
_cell_formula_units_Z 56
_cell_length_a 28.126643
_cell_length_b 7.770240
_cell_length_c 9.121714
_cell_angle_alpha 90.000000
_cell_angle_beta 93.102589
_cell_angle_gamma 90.000000
_cell_volume 1990.635481
_symmetry_space_group_name_H-M "C 2/C"
_symmetry_group_IT_number 15
_symmetry_cell_setting 'monoclinic'
loop_
_space_group_symop_operation_xyz
x,y,z
-x,y,1/2-z
-x,-y,-z
x,-y,1/2+z
1/2+x,1/2+y,z
1/2-x,1/2+y,1/2-z
1/2-x,1/2-y,-z
1/2+x,1/2-y,1/2+z
loop_
_atom_site_type_symbol
_atom_site_label
_atom_site_fract_x
_atom_site_fract_y
_atom_site_fract_z
Si Si1 0.615123 0.292106 0.212464
Si Si2 0.723447 0.460563 0.594020
Si Si3 0.604472 0.166736 0.676722
Si Si4 0.450906 0.273172 0.568706
Si Si5 0.171429 0.112811 0.355231
Si Si6 0.175027 0.389192 0.949194
Si Si7 0.542558 0.672446 0.931097
O O1 0.633594 0.470045 0.290593
O O2 0.652955 0.159795 0.288246
O O3 0.566881 0.248037 0.294065
O O4 0.594957 0.292329 0.045203
O O5 0.688255 0.604969 0.524274
O O6 0.717714 0.435564 0.765615
O O7 0.777255 0.498191 0.560622
O O8 0.699127 0.289994 0.517218
O O9 0.563020 0.157165 0.794094
O O10 0.648445 0.217685 0.787749
O O11 0.631736 0.062002 0.551149
O O12 0.581275 0.313411 0.568090
O O13 0.465341 0.471697 0.609356
O O14 0.497148 0.224403 0.482785
#
# Coordination Sequence:
#
# PCOD9254118 Si02
#       7
#     8   8   8   8   8   8   8
#     4  10  17  27  40  59  83 118 142 178 207 249
#     4   9  17  30  44  62  76 108 143 187 215 259
#     4  10  17  27  40  59  83 118 142 178 207 249
#     4  11  17  24  38  59  83 112 154 179 192 230
#     4  10  16  26  45  60  80 106 151 178 210 246
#     4   8  18  31  42  54  85 113 141 171 234 255
#     4  10  18  25  36  57  87 116 145 178 201 232
#
# _framework density 28.131717999999999
#
# number of rings (size 3 to 8) (size 9 to 14) (size 15 to 20)
#    0.000    2.286    2.857    2.571    0.000    2.286 
#    0.000    1.429    0.000    6.857    0.000    0.000 
#    0.000    0.000    0.000   61.714    0.000    0.000 
#
# Total GULP energy -156288.460024 kJ/mol
# GULP energy per Si atom -5581.730715 kJ/mol
# Density = 2.806769 g / cm^3
# Si number density = 28.131718 Si / 1000 Ang^3
#
#
#
# Elastic Constant Matrix: (Units=GPa)
#
#
# Indices 1 2 3 4 5 6 
#
# 1 141.9533 4.6303 14.2761 0.0000 -8.3364 0.0000
# 2 4.6303 80.3889 -5.2824 0.0000 6.7255 0.0000
# 3 14.2761 -5.2824 120.3098 0.0000 19.5290 0.0000
# 4 0.0000 0.0000 0.0000 19.1140 0.0000 11.3306
# 5 -8.3364 6.7255 19.5290 0.0000 45.1794 0.0000
# 6 0.0000 0.0000 0.0000 11.3306 0.0000 -2.0435
#
#
#
# Elastic Compliance Matrix: (Units=1/GPa)
#
#
# Indices 1 2 3 4 5 6 
#
# 1 0.007304 -0.000666 -0.001216 0.000000 0.001973 0.000000
# 2 -0.000666 0.012753 0.001040 0.000000 -0.002471 0.000000
# 3 -0.001216 0.001040 0.009210 0.000000 -0.004360 0.000000
# 4 0.000000 0.000000 0.000000 0.012204 0.000000 0.067668
# 5 0.001973 -0.002471 -0.004360 0.000000 0.024750 0.000000
# 6 0.000000 0.000000 0.000000 0.067668 0.000000 -0.114153
#
#
# Mechanical properties :
#
#
# Convention : Reuss Voigt Hill
#
# Bulk Modulus (GPa) = 36.25389 41.09999 38.67694
# Shear Modulus (GPa) = -134.94347 34.38517 -50.27915
#
# Velocity S-wave (km/s) = -6.93344 3.49992 -4.23221
# Velocity P-wave (km/s) = 7.15413 5.56544 3.17864
#
# Compressibility (1/GPa) = 0.02758325
#
# Stress axis : x y z
#
# Youngs Moduli (GPa) = 136.90305 78.41335 108.58243
#
# Poissons Ratio (x) = 0.05220 0.13206
# Poissons Ratio (y) = 0.09113 -0.11293
# Poissons Ratio (z) = 0.16650 -0.08155
#
# Static dielectric constant tensor:
#      x y z
#    x 2.218690 0.000000 -0.067130 
#    y 0.000000 2.320520 0.000000 
#    z -0.067130 0.000000 2.142500 
# 
# From -- ./inp_files/69614.got.cif
#   From: 2010.05.17/outbox.cif.g08.bks.cpg/sg15_35_cif.got.tgz:69614.got - 2010.06.03 18:47:42.
