data_PCOD9254913
_publ_section_title
;
Structure prediction by ZEFSAII (Michael W. Deem and Ramdas Pophale) SiO2 
 PCOD9254913
Probable space group: C 2/C
;
_chemical_formula_sum "Si O2"
_cell_formula_units_Z 48
_cell_length_a 19.501721
_cell_length_b 8.379752
_cell_length_c 12.505592
_cell_angle_alpha 90.000000
_cell_angle_beta 90.033530
_cell_angle_gamma 90.000000
_cell_volume 2043.658312
_symmetry_space_group_name_H-M "C 2/C"
_symmetry_group_IT_number 15
_symmetry_cell_setting 'monoclinic'
loop_
_space_group_symop_operation_xyz
x,y,z
-x,y,1/2-z
-x,-y,-z
x,-y,1/2+z
1/2+x,1/2+y,z
1/2-x,1/2+y,1/2-z
1/2-x,1/2-y,-z
1/2+x,1/2-y,1/2+z
loop_
_atom_site_type_symbol
_atom_site_label
_atom_site_fract_x
_atom_site_fract_y
_atom_site_fract_z
Si Si1 0.000000 0.500815 0.750000
Si Si2 0.000000 0.016527 0.250000
Si Si3 0.875226 0.255347 0.252340
Si Si4 0.554700 0.737594 0.619175
Si Si5 0.834001 0.813945 0.194040
Si Si6 0.157812 0.895279 0.951145
Si Si7 0.730677 0.448923 0.640058
O O1 0.927124 0.595466 0.749743
O O2 0.990347 0.393288 0.856953
O O3 0.067137 0.119653 0.253672
O O4 0.006292 0.910016 0.145277
O O5 0.827379 0.193513 0.349157
O O6 0.829204 0.226211 0.146710
O O7 0.609261 0.731211 0.717857
O O8 0.597264 0.695063 0.514971
O O9 0.799524 0.652764 0.150725
O O10 0.781988 0.931839 0.259807
O O11 0.857661 0.930725 0.099488
O O12 0.216629 0.944435 0.035596
#
# Coordination Sequence:
#
# PCOD9254913 Si02
#       7
#     4   4   8   8   8   8   8
#     4  10  24  40  58  86 132 164 200 254 316 354
#     4  10  16  40  58  82 118 162 200 246 308 354
#     4  10  21  39  62  89 121 164 202 257 305 363
#     4  10  21  39  62  89 121 164 202 257 305 363
#     4  10  21  39  64  90 124 163 204 258 305 363
#     4  10  19  40  65  95 115 160 221 241 310 366
#     4  10  21  39  64  90 124 163 204 258 305 363
#
# _framework density 23.487293000000001
#
# number of rings (size 3 to 8) (size 9 to 14) (size 15 to 20)
#    0.000    2.000    5.000    0.500    2.333    1.333 
#    0.000   15.000    0.000    0.000    0.000    0.000 
#    0.000    0.000    0.000    0.000    0.000    0.000 
#
# Total GULP energy -133683.750894 kJ/mol
# GULP energy per Si atom -5570.156287 kJ/mol
# Density = 2.343383 g / cm^3
# Si number density = 23.487293 Si / 1000 Ang^3
#
#
#
# Elastic Constant Matrix: (Units=GPa)
#
#
# Indices 1 2 3 4 5 6 
#
# 1 75.2711 22.6509 10.1873 0.0000 7.3906 0.0000
# 2 22.6509 99.7151 16.6086 0.0000 3.3085 0.0000
# 3 10.1873 16.6086 76.7312 0.0000 6.8652 0.0000
# 4 0.0000 0.0000 0.0000 36.1756 0.0000 -2.9288
# 5 7.3906 3.3085 6.8652 0.0000 20.0743 0.0000
# 6 0.0000 0.0000 0.0000 -2.9288 0.0000 66.0632
#
#
#
# Elastic Compliance Matrix: (Units=1/GPa)
#
#
# Indices 1 2 3 4 5 6 
#
# 1 0.014780 -0.003056 -0.000886 0.000000 -0.004635 0.000000
# 2 -0.003056 0.011054 -0.001985 0.000000 -0.000018 0.000000
# 3 -0.000886 -0.001985 0.013948 0.000000 -0.004117 0.000000
# 4 0.000000 0.000000 0.000000 0.027743 0.000000 0.001230
# 5 -0.004635 -0.000018 -0.004117 0.000000 0.052932 0.000000
# 6 0.000000 0.000000 0.000000 0.001230 0.000000 0.015192
#
#
# Mechanical properties :
#
#
# Convention : Reuss Voigt Hill
#
# Bulk Modulus (GPa) = 35.80731 38.95676 37.38204
# Shear Modulus (GPa) = 31.88527 37.94731 34.91629
#
# Velocity S-wave (km/s) = 3.68850 4.02388 3.85983
# Velocity P-wave (km/s) = 5.78087 6.18151 5.98455
#
# Compressibility (1/GPa) = 0.02792726
#
# Stress axis : x y z
#
# Youngs Moduli (GPa) = 67.65934 90.46479 71.69379
#
# Poissons Ratio (x) = 0.27646 0.06353
# Poissons Ratio (y) = 0.20677 0.14234
# Poissons Ratio (z) = 0.05996 0.17960
#
# Static dielectric constant tensor:
#      x y z
#    x 1.982130 0.000000 -0.072250 
#    y 0.000000 1.965510 0.000000 
#    z -0.072250 0.000000 2.444390 
# 
# From -- ./inp_files/116400.got.cif
#   From: 2010.05.17/outbox.cif.g08.bks.cpg/sg15_59_cif.got.tgz:116400.got - 2010.06.03 18:47:42.
