data_PCOD9254617
_publ_section_title
;
Structure prediction by ZEFSAII (Michael W. Deem and Ramdas Pophale) SiO2 
 PCOD9254617
Probable space group: C 2/C
;
_chemical_formula_sum "Si O2"
_cell_formula_units_Z 64
_cell_length_a 9.016423
_cell_length_b 17.773897
_cell_length_c 15.670943
_cell_angle_alpha 90.000000
_cell_angle_beta 84.064926
_cell_angle_gamma 90.000000
_cell_volume 2497.916175
_symmetry_space_group_name_H-M "C 2/C"
_symmetry_group_IT_number 15
_symmetry_cell_setting 'monoclinic'
loop_
_space_group_symop_operation_xyz
x,y,z
-x,y,1/2-z
-x,-y,-z
x,-y,1/2+z
1/2+x,1/2+y,z
1/2-x,1/2+y,1/2-z
1/2-x,1/2-y,-z
1/2+x,1/2-y,1/2+z
loop_
_atom_site_type_symbol
_atom_site_label
_atom_site_fract_x
_atom_site_fract_y
_atom_site_fract_z
Si Si1 0.858721 0.087686 0.984481
Si Si2 0.976814 0.788008 0.945252
Si Si3 0.517760 0.982886 0.841731
Si Si4 0.816186 0.010122 0.161302
Si Si5 0.201775 0.742191 0.165916
Si Si6 0.696289 0.581692 0.688652
Si Si7 0.662377 0.652456 0.208516
Si Si8 0.974745 0.351197 0.958323
O O1 0.977697 0.155097 0.982081
O O2 0.884822 0.044745 0.071984
O O3 0.686082 0.117984 0.997155
O O4 0.869229 0.045350 0.894078
O O5 0.139787 0.776054 0.890385
O O6 0.860193 0.830046 0.890093
O O7 0.941911 0.704200 0.981428
O O8 0.500000 0.944023 0.750000
O O9 0.348957 0.008897 0.864902
O O10 0.557577 0.923100 0.912485
O O11 0.633763 0.049752 0.823072
O O12 0.819431 0.073656 0.238987
O O13 0.863901 0.939720 0.214797
O O14 0.185901 0.830279 0.175802
O O15 0.215087 0.705769 0.257968
O O16 0.080274 0.700555 0.116510
O O17 0.500000 0.678487 0.250000
#
# Coordination Sequence:
#
# PCOD9254617 Si02
#       8
#     8   8   8   8   8   8   8   8
#     4  10  17  34  53  77 110 143 182 234 282 336
#     4  10  17  29  57  81 101 135 186 238 279 325
#     4   9  20  34  51  76 113 158 180 213 291 362
#     4  10  20  35  52  77 112 152 180 225 295 341
#     4  10  17  32  55  83 109 132 184 243 278 323
#     4  11  21  33  54  84 116 141 185 237 283 335
#     4  10  18  32  56  79 105 143 186 234 276 338
#     4  10  16  32  56  77 109 145 185 226 290 342
#
# _framework density 25.621358000000001
#
# number of rings (size 3 to 8) (size 9 to 14) (size 15 to 20)
#    0.000    2.000    7.500    0.750    0.000    6.500 
#    2.250    0.625    0.000    5.250    0.000    0.000 
#    0.000    0.000    0.000    0.000    0.000    0.000 
#
# Total GULP energy -178549.856715 kJ/mol
# GULP energy per Si atom -5579.683022 kJ/mol
# Density = 2.556304 g / cm^3
# Si number density = 25.621358 Si / 1000 Ang^3
#
#
#
# Elastic Constant Matrix: (Units=GPa)
#
#
# Indices 1 2 3 4 5 6 
#
# 1 51.6807 14.6579 24.0931 0.0000 -4.5245 0.0000
# 2 14.6579 47.9299 31.0312 0.0000 5.2109 0.0000
# 3 24.0931 31.0312 130.3278 0.0000 17.6655 0.0000
# 4 0.0000 0.0000 0.0000 51.4109 0.0000 7.2381
# 5 -4.5245 5.2109 17.6655 0.0000 32.2513 0.0000
# 6 0.0000 0.0000 0.0000 7.2381 0.0000 15.2896
#
#
#
# Elastic Compliance Matrix: (Units=1/GPa)
#
#
# Indices 1 2 3 4 5 6 
#
# 1 0.023195 -0.005259 -0.003880 0.000000 0.006229 0.000000
# 2 -0.005259 0.025879 -0.004886 0.000000 -0.002243 0.000000
# 3 -0.003880 -0.004886 0.010284 0.000000 -0.005388 0.000000
# 4 0.000000 0.000000 0.000000 0.020840 0.000000 -0.009866
# 5 0.006229 -0.002243 -0.005388 0.000000 0.035194 0.000000
# 6 0.000000 0.000000 0.000000 -0.009866 0.000000 0.070074
#
#
# Mechanical properties :
#
#
# Convention : Reuss Voigt Hill
#
# Bulk Modulus (GPa) = 31.93957 41.05585 36.49771
# Shear Modulus (GPa) = 22.32622 30.46745 26.39683
#
# Velocity S-wave (km/s) = 2.95514 3.45214 3.21326
# Velocity P-wave (km/s) = 4.91292 5.65230 5.29553
#
# Compressibility (1/GPa) = 0.03130913
#
# Stress axis : x y z
#
# Youngs Moduli (GPa) = 43.11215 38.64140 97.23958
#
# Poissons Ratio (x) = 0.20320 0.37731
# Poissons Ratio (y) = 0.22671 0.47508
# Poissons Ratio (z) = 0.16729 0.18879
#
# Static dielectric constant tensor:
#      x y z
#    x 2.122570 0.000000 -0.096550 
#    y 0.000000 2.017980 0.000000 
#    z -0.096550 0.000000 2.097150 
# 
# From -- ./inp_files/205116.got.cif
#   From: 2010.05.17/outbox.cif.g08.bks.cpg/sg15_103_cif.got.tgz:205116.got - 2010.06.03 18:47:42.
