data_PCOD9254476
_publ_section_title
;
Structure prediction by ZEFSAII (Michael W. Deem and Ramdas Pophale) SiO2 
 PCOD9254476
Probable space group: C 2/C
;
_chemical_formula_sum "Si O2"
_cell_formula_units_Z 44
_cell_length_a 11.989592
_cell_length_b 15.288094
_cell_length_c 9.850033
_cell_angle_alpha 90.000000
_cell_angle_beta 111.217027
_cell_angle_gamma 90.000000
_cell_volume 1683.108540
_symmetry_space_group_name_H-M "C 2/C"
_symmetry_group_IT_number 15
_symmetry_cell_setting 'monoclinic'
loop_
_space_group_symop_operation_xyz
x,y,z
-x,y,1/2-z
-x,-y,-z
x,-y,1/2+z
1/2+x,1/2+y,z
1/2-x,1/2+y,1/2-z
1/2-x,1/2-y,-z
1/2+x,1/2-y,1/2+z
loop_
_atom_site_type_symbol
_atom_site_label
_atom_site_fract_x
_atom_site_fract_y
_atom_site_fract_z
Si Si1 0.730431 0.491582 0.851550
Si Si2 0.458758 0.719235 0.582332
Si Si3 0.690349 0.683912 0.209783
Si Si4 0.070201 0.621386 0.065377
Si Si5 0.500000 0.183784 0.750000
Si Si6 0.610312 0.432663 0.064573
O O1 0.656166 0.410962 0.751852
O O2 0.870459 0.472634 0.882013
O O3 0.678054 0.568996 0.740068
O O4 0.703188 0.472444 0.995960
O O5 0.500000 0.694688 0.750000
O O6 0.334331 0.687803 0.461509
O O7 0.458358 0.825579 0.574228
O O8 0.551535 0.663948 0.525197
O O9 0.825480 0.684241 0.323957
O O10 0.607801 0.757248 0.239295
O O11 0.054907 0.630711 0.898571
O O12 0.500000 0.500000 0.000000
#
# Coordination Sequence:
#
# PCOD9254476 Si02
#       6
#     8   8   8   8   4   8
#     4  10  22  36  55  85 119 156 188 240 293 359
#     4  11  22  35  57  91 120 155 193 242 303 356
#     4   9  19  33  53  84 118 142 190 240 287 343
#     4   9  21  36  58  83 118 153 199 242 291 349
#     4  10  16  30  60  82 104 148 198 242 282 338
#     4  12  21  33  58  86 124 152 186 235 305 357
#
# _framework density 26.142105000000001
#
# number of rings (size 3 to 8) (size 9 to 14) (size 15 to 20)
#    1.091    0.727    1.818    4.364    2.545    0.727 
#    0.000    0.000    0.000    1.091    0.000    0.000 
#    0.000    0.000    0.000    0.000    0.000    0.000 
#
# Total GULP energy -122493.993438 kJ/mol
# GULP energy per Si atom -5567.908793 kJ/mol
# Density = 2.608260 g / cm^3
# Si number density = 26.142105 Si / 1000 Ang^3
#
#
#
# Elastic Constant Matrix: (Units=GPa)
#
#
# Indices 1 2 3 4 5 6 
#
# 1 60.6245 9.5361 13.7670 0.0000 0.3909 0.0000
# 2 9.5361 45.6456 -9.0992 0.0000 -1.4766 0.0000
# 3 13.7670 -9.0992 187.6256 0.0000 -4.2320 0.0000
# 4 0.0000 0.0000 0.0000 40.5266 0.0000 56.8412
# 5 0.3909 -1.4766 -4.2320 0.0000 28.2519 0.0000
# 6 0.0000 0.0000 0.0000 56.8412 0.0000 296.2205
#
#
#
# Elastic Compliance Matrix: (Units=1/GPa)
#
#
# Indices 1 2 3 4 5 6 
#
# 1 0.017461 -0.003966 -0.001489 0.000000 -0.000672 0.000000
# 2 -0.003966 0.023072 0.001443 0.000000 0.001477 0.000000
# 3 -0.001489 0.001443 0.005530 0.000000 0.000924 0.000000
# 4 0.000000 0.000000 0.000000 0.033762 0.000000 -0.006478
# 5 -0.000672 0.001477 0.000924 0.000000 0.035621 0.000000
# 6 0.000000 0.000000 0.000000 -0.006478 0.000000 0.004619
#
#
# Mechanical properties :
#
#
# Convention : Reuss Voigt Hill
#
# Bulk Modulus (GPa) = 26.28857 35.81152 31.05004
# Shear Modulus (GPa) = 35.51938 91.64592 63.58265
#
# Velocity S-wave (km/s) = 3.69006 5.92730 4.93708
# Velocity P-wave (km/s) = 5.31350 7.78283 6.66355
#
# Compressibility (1/GPa) = 0.03803935
#
# Stress axis : x y z
#
# Youngs Moduli (GPa) = 57.26951 43.34251 180.83703
#
# Poissons Ratio (x) = 0.17192 0.26922
# Poissons Ratio (y) = 0.22716 -0.26100
# Poissons Ratio (z) = 0.08526 -0.06255
#
# Static dielectric constant tensor:
#      x y z
#    x 2.156090 0.000000 -0.017800 
#    y 0.000000 2.155680 0.000000 
#    z -0.017800 0.000000 2.119350 
# 
# From -- ./inp_files/97588.got.cif
#   From: 2010.05.17/outbox.cif.g08.bks.cpg/sg15_49_cif.got.tgz:97588.got - 2010.06.03 18:47:42.
