data_PCOD9254632
_publ_section_title
;
Structure prediction by ZEFSAII (Michael W. Deem and Ramdas Pophale) SiO2 
 PCOD9254632
Probable space group: C 2/C
;
_chemical_formula_sum "Si O2"
_cell_formula_units_Z 52
_cell_length_a 7.187985
_cell_length_b 14.888015
_cell_length_c 20.617731
_cell_angle_alpha 90.000000
_cell_angle_beta 117.799637
_cell_angle_gamma 90.000000
_cell_volume 1951.748590
_symmetry_space_group_name_H-M "C 2/C"
_symmetry_group_IT_number 15
_symmetry_cell_setting 'monoclinic'
loop_
_space_group_symop_operation_xyz
x,y,z
-x,y,1/2-z
-x,-y,-z
x,-y,1/2+z
1/2+x,1/2+y,z
1/2-x,1/2+y,1/2-z
1/2-x,1/2-y,-z
1/2+x,1/2-y,1/2+z
loop_
_atom_site_type_symbol
_atom_site_label
_atom_site_fract_x
_atom_site_fract_y
_atom_site_fract_z
Si Si1 0.347387 0.732897 0.830217
Si Si2 0.000000 0.865697 0.750000
Si Si3 0.672144 0.197121 0.626765
Si Si4 0.123129 0.937751 0.096213
Si Si5 0.246719 0.511881 0.626724
Si Si6 0.466734 0.144759 0.036643
Si Si7 0.580919 0.628018 0.061258
O O1 0.188289 0.794631 0.764261
O O2 0.578844 0.722548 0.836538
O O3 0.268385 0.635553 0.840767
O O4 0.383435 0.784122 0.903878
O O5 0.107034 0.937282 0.815761
O O6 0.557608 0.162720 0.542290
O O7 0.555125 0.294144 0.609964
O O8 0.684403 0.097545 0.661692
O O9 0.193392 0.040321 0.108981
O O10 0.890588 0.949538 0.091303
O O11 0.102834 0.905818 0.017534
O O12 0.054988 0.452946 0.569039
O O13 0.246878 0.163533 0.036108
#
# Coordination Sequence:
#
# PCOD9254632 Si02
#       7
#     8   4   8   8   8   8   8
#     4   9  17  34  55  74 104 151 186 207 265 342
#     4  10  22  38  54  74 102 154 194 228 254 310
#     4  10  17  33  57  86 107 144 176 219 280 336
#     4  10  19  34  54  83 114 142 170 227 273 323
#     4  10  21  34  56  79 111 143 189 226 263 315
#     4  10  16  32  57  84 110 141 178 214 277 339
#     4  10  18  31  54  86 117 136 167 214 288 341
#
# _framework density 26.642775
#
# number of rings (size 3 to 8) (size 9 to 14) (size 15 to 20)
#    0.000    2.154    4.615    1.385    0.000    0.000 
#    0.000   16.154    0.000    0.000    0.000    0.000 
#    0.000    0.000    0.000    0.000    0.000    0.000 
#
# Total GULP energy -144928.012742 kJ/mol
# GULP energy per Si atom -5574.154336 kJ/mol
# Density = 2.658214 g / cm^3
# Si number density = 26.642775 Si / 1000 Ang^3
#
#
#
# Elastic Constant Matrix: (Units=GPa)
#
#
# Indices 1 2 3 4 5 6 
#
# 1 72.1484 6.6492 10.6006 0.0000 15.8165 0.0000
# 2 6.6492 229.2160 32.4858 0.0000 -1.0734 0.0000
# 3 10.6006 32.4858 99.4165 0.0000 -0.4763 0.0000
# 4 0.0000 0.0000 0.0000 37.0867 0.0000 17.2886
# 5 15.8165 -1.0734 -0.4763 0.0000 15.9051 0.0000
# 6 0.0000 0.0000 0.0000 17.2886 0.0000 25.3497
#
#
#
# Elastic Compliance Matrix: (Units=1/GPa)
#
#
# Indices 1 2 3 4 5 6 
#
# 1 0.018146 -0.000340 -0.001910 0.000000 -0.018125 0.000000
# 2 -0.000340 0.004582 -0.001458 0.000000 0.000604 0.000000
# 3 -0.001910 -0.001458 0.010749 0.000000 0.002123 0.000000
# 4 0.000000 0.000000 0.000000 0.039532 0.000000 -0.026961
# 5 -0.018125 0.000604 0.002123 0.000000 0.081001 0.000000
# 6 0.000000 0.000000 0.000000 -0.026961 0.000000 0.057836
#
#
# Mechanical properties :
#
#
# Convention : Reuss Voigt Hill
#
# Bulk Modulus (GPa) = 38.37462 55.58354 46.97908
# Shear Modulus (GPa) = 21.93458 39.07133 30.50296
#
# Velocity S-wave (km/s) = 2.87241 3.83363 3.38729
# Velocity P-wave (km/s) = 5.04337 6.36423 5.74191
#
# Compressibility (1/GPa) = 0.02605889
#
# Stress axis : x y z
#
# Youngs Moduli (GPa) = 55.10928 218.24316 93.03185
#
# Poissons Ratio (x) = 0.07431 0.17773
# Poissons Ratio (y) = 0.01876 0.13564
# Poissons Ratio (z) = 0.10528 0.31821
#
# Static dielectric constant tensor:
#      x y z
#    x 2.182300 0.000000 -0.040090 
#    y 0.000000 2.218590 0.000000 
#    z -0.040090 0.000000 2.127070 
# 
# From -- ./inp_files/236882.got.cif
#   From: 2010.05.17/outbox.cif.g08.bks.cpg/sg15_119_cif.got.tgz:236882.got - 2010.06.03 18:47:42.
