data_PCOD9254541
_publ_section_title
;
Structure prediction by ZEFSAII (Michael W. Deem and Ramdas Pophale) SiO2 
 PCOD9254541
Probable space group: C 2/C
;
_chemical_formula_sum "Si O2"
_cell_formula_units_Z 64
_cell_length_a 15.216104
_cell_length_b 25.529998
_cell_length_c 17.493199
_cell_angle_alpha 90.000000
_cell_angle_beta 26.102268
_cell_angle_gamma 90.000000
_cell_volume 2989.862431
_symmetry_space_group_name_H-M "C 2/C"
_symmetry_group_IT_number 15
_symmetry_cell_setting 'monoclinic'
loop_
_space_group_symop_operation_xyz
x,y,z
-x,y,1/2-z
-x,-y,-z
x,-y,1/2+z
1/2+x,1/2+y,z
1/2-x,1/2+y,1/2-z
1/2-x,1/2-y,-z
1/2+x,1/2-y,1/2+z
loop_
_atom_site_type_symbol
_atom_site_label
_atom_site_fract_x
_atom_site_fract_y
_atom_site_fract_z
Si Si1 0.997256 0.735003 0.527004
Si Si2 0.094936 0.197002 0.255362
Si Si3 0.015846 0.646515 0.062635
Si Si4 0.279243 0.478788 0.963160
Si Si5 0.107530 0.552158 0.441957
Si Si6 0.574457 0.345053 0.979301
Si Si7 0.536465 0.590122 0.066235
Si Si8 0.808068 0.899977 0.454642
O O1 0.932450 0.760802 0.656634
O O2 0.026062 0.787957 0.452769
O O3 0.167376 0.695668 0.427736
O O4 0.887077 0.696399 0.554779
O O5 0.999968 0.141720 0.352839
O O6 0.000000 0.214083 0.250000
O O7 0.009607 0.599633 0.006194
O O8 0.788235 0.659212 0.267058
O O9 0.134284 0.629463 0.044900
O O10 0.500000 0.476952 0.750000
O O11 0.137463 0.453185 0.009729
O O12 0.293638 0.444205 0.028021
O O13 0.242169 0.539190 0.014214
O O14 0.330754 0.557303 0.232104
O O15 0.000000 0.500000 0.500000
O O16 0.443112 0.386919 0.034243
O O17 0.627918 0.369382 0.019026
O O18 0.000000 0.900946 0.250000
#
# Coordination Sequence:
#
# PCOD9254541 Si02
#       8
#     8   8   8   8   8   8   8   8
#     4  11  22  40  62  92 124 162 211 254 305 360
#     4  11  21  38  62  95 124 168 202 250 302 375
#     4  11  22  41  63  90 122 166 206 252 314 368
#     4   9  18  33  57  92 122 153 203 245 296 364
#     4  10  16  31  58  88 116 156 199 247 286 359
#     4  10  23  42  61  88 124 165 206 259 309 371
#     4   9  19  36  60  85 125 163 199 238 312 368
#     4  11  24  38  62  93 120 160 208 261 307 363
#
# _framework density 21.405666
#
# number of rings (size 3 to 8) (size 9 to 14) (size 15 to 20)
#    0.000    1.750    5.000    1.875    1.750    1.000 
#    0.000    0.000    0.000    0.000    0.000    0.000 
#    0.000    0.000    0.000    0.000    0.000    0.000 
#
# Total GULP energy -178380.766354 kJ/mol
# GULP energy per Si atom -5574.398949 kJ/mol
# Density = 2.135695 g / cm^3
# Si number density = 21.405666 Si / 1000 Ang^3
#
#
#
# Elastic Constant Matrix: (Units=GPa)
#
#
# Indices 1 2 3 4 5 6 
#
# 1 208.4522 94.0508 3.9706 0.0783 3.7073 -0.0319
# 2 94.0508 137.1995 11.5374 0.0441 15.4178 -0.0162
# 3 3.9706 11.5374 17.1457 0.1066 8.4384 -0.0510
# 4 0.0783 0.0441 0.1066 18.2432 -0.0220 -4.1373
# 5 3.7073 15.4178 8.4384 -0.0220 14.5134 0.0274
# 6 -0.0319 -0.0162 -0.0510 -4.1373 0.0274 45.6818
#
#
#
# Elastic Compliance Matrix: (Units=1/GPa)
#
#
# Indices 1 2 3 4 5 6 
#
# 1 0.007128 -0.005317 0.000061 -0.000014 0.003793 0.000000
# 2 -0.005317 0.012281 -0.001793 -0.000008 -0.010645 0.000004
# 3 0.000061 -0.001793 0.082077 -0.000515 -0.045833 0.000072
# 4 -0.000014 -0.000008 -0.000515 0.055968 0.000387 0.005068
# 5 0.003793 -0.010645 -0.045833 0.000387 0.105890 -0.000081
# 6 0.000000 0.000004 0.000072 0.005068 -0.000081 0.022350
#
#
# Mechanical properties :
#
#
# Convention : Reuss Voigt Hill
#
# Bulk Modulus (GPa) = 11.44348 64.65722 38.05035
# Shear Modulus (GPa) = 15.20121 32.57026 23.88574
#
# Velocity S-wave (km/s) = 2.66775 3.90497 3.34407
# Velocity P-wave (km/s) = 3.85316 7.11357 5.72056
#
# Compressibility (1/GPa) = 0.08738598
#
# Stress axis : x y z
#
# Youngs Moduli (GPa) = 140.29526 81.42750 12.18374
#
# Poissons Ratio (x) = 0.43299 -0.00074
# Poissons Ratio (y) = 0.74602 0.02185
# Poissons Ratio (z) = -0.00855 0.14601
#
# Static dielectric constant tensor:
#      x y z
#    x 1.795110 0.000040 -0.001780 
#    y 0.000040 1.683730 0.000140 
#    z -0.001780 0.000140 1.922340 
# 
# From -- ./inp_files/207307.got.cif
#   From: 2010.05.17/outbox.cif.g08.bks.cpg/sg15_104_cif.got.tgz:207307.got - 2010.06.03 18:47:42.
