data_PCOD9254344
_publ_section_title
;
Structure prediction by ZEFSAII (Michael W. Deem and Ramdas Pophale) SiO2 
 PCOD9254344
Probable space group: C 2/C
;
_chemical_formula_sum "Si O2"
_cell_formula_units_Z 48
_cell_length_a 17.214756
_cell_length_b 33.114224
_cell_length_c 5.455234
_cell_angle_alpha 90.000000
_cell_angle_beta 82.914822
_cell_angle_gamma 90.000000
_cell_volume 3086.027460
_symmetry_space_group_name_H-M "C 2/C"
_symmetry_group_IT_number 15
_symmetry_cell_setting 'monoclinic'
loop_
_space_group_symop_operation_xyz
x,y,z
-x,y,1/2-z
-x,-y,-z
x,-y,1/2+z
1/2+x,1/2+y,z
1/2-x,1/2+y,1/2-z
1/2-x,1/2-y,-z
1/2+x,1/2-y,1/2+z
loop_
_atom_site_type_symbol
_atom_site_label
_atom_site_fract_x
_atom_site_fract_y
_atom_site_fract_z
Si Si1 0.760961 0.173964 0.701808
Si Si2 0.410199 0.483312 0.520081
Si Si3 0.950476 0.890622 0.517599
Si Si4 0.084103 0.226369 0.809432
Si Si5 0.797198 0.839883 0.684473
Si Si6 0.854505 0.748585 0.712028
O O1 0.849616 0.191875 0.693384
O O2 0.760986 0.147720 0.457480
O O3 0.703443 0.212080 0.709192
O O4 0.746565 0.151988 0.963696
O O5 0.500000 0.500000 0.500000
O O6 0.374043 0.496855 0.792037
O O7 0.415148 0.435328 0.493510
O O8 0.881418 0.859428 0.603730
O O9 0.000000 0.892035 0.750000
O O10 0.000000 0.881846 0.250000
O O11 0.109331 0.255371 0.573893
O O12 0.000000 0.211148 0.750000
O O13 0.087183 0.246048 0.078917
O O14 0.807543 0.791136 0.708801
#
# Coordination Sequence:
#
# PCOD9254344 Si02
#       6
#     8   8   8   8   8   8
#     4  10  19  34  46  55  77 116 143 157 211 290
#     4  10  16  30  46  56  71 111 149 156 190 283
#     4  12  21  30  42  62  87 105 130 180 233 266
#     4  10  18  27  43  63  78  94 131 181 212 240
#     4  10  20  28  41  61  75  96 134 179 209 241
#     4  10  19  33  46  55  77 116 143 157 211 290
#
# _framework density 15.553976
#
# number of rings (size 3 to 8) (size 9 to 14) (size 15 to 20)
#    0.000    1.667    3.333    6.500    0.000    8.000 
#    0.000    0.000    0.000    0.000    0.000    0.000 
#    0.000    0.000    0.000    0.000    0.000    0.000 
#
# Total GULP energy -133669.541025 kJ/mol
# GULP energy per Si atom -5569.564209 kJ/mol
# Density = 1.551857 g / cm^3
# Si number density = 15.553976 Si / 1000 Ang^3
#
#
#
# Elastic Constant Matrix: (Units=GPa)
#
#
# Indices 1 2 3 4 5 6 
#
# 1 19.6683 9.7742 7.6439 0.0000 4.0444 0.0000
# 2 9.7742 34.5992 19.8403 0.0000 -7.5889 0.0000
# 3 7.6439 19.8403 174.0536 0.0000 3.2472 0.0000
# 4 0.0000 0.0000 0.0000 8.2530 0.0000 1.7728
# 5 4.0444 -7.5889 3.2472 0.0000 20.1887 0.0000
# 6 0.0000 0.0000 0.0000 1.7728 0.0000 0.3297
#
#
#
# Elastic Compliance Matrix: (Units=1/GPa)
#
#
# Indices 1 2 3 4 5 6 
#
# 1 0.067393 -0.024116 0.000211 0.000000 -0.022600 0.000000
# 2 -0.024116 0.042888 -0.004233 0.000000 0.021634 0.000000
# 3 0.000211 -0.004233 0.006268 0.000000 -0.002642 0.000000
# 4 0.000000 0.000000 0.000000 -0.781213 0.000000 4.200981
# 5 -0.022600 0.021634 -0.002642 0.000000 0.062617 0.000000
# 6 0.000000 0.000000 0.000000 4.200981 0.000000-19.557440
#
#
# Mechanical properties :
#
#
# Convention : Reuss Voigt Hill
#
# Bulk Modulus (GPa) = 16.59162 33.64864 25.12013
# Shear Modulus (GPa) = -0.24897 18.49179 9.12141
#
# Velocity S-wave (km/s) = -0.40052 3.45175 2.42427
# Velocity P-wave (km/s) = 3.23673 6.12916 4.90117
#
# Compressibility (1/GPa) = 0.06027140
#
# Stress axis : x y z
#
# Youngs Moduli (GPa) = 14.83831 23.31667 159.54249
#
# Poissons Ratio (x) = 0.56231 -0.03366
# Poissons Ratio (y) = 0.35785 0.67538
# Poissons Ratio (z) = -0.00313 0.09871
#
# Static dielectric constant tensor:
#      x y z
#    x 1.518100 0.000000 0.004720 
#    y 0.000000 1.508850 0.000000 
#    z 0.004720 0.000000 1.680160 
# 
# From -- ./inp_files/11099.got.cif
#   From: 2010.05.17/outbox.cif.g08.bks.cpg/sg15_6_cif.got.tgz:11099.got - 2010.06.03 18:47:42.
