data_PCOD9254936
_publ_section_title
;
Structure prediction by ZEFSAII (Michael W. Deem and Ramdas Pophale) SiO2 
 PCOD9254936
Probable space group: C 2/C
;
_chemical_formula_sum "Si O2"
_cell_formula_units_Z 48
_cell_length_a 7.279984
_cell_length_b 30.875278
_cell_length_c 13.024763
_cell_angle_alpha 90.000000
_cell_angle_beta 36.956798
_cell_angle_gamma 90.000000
_cell_volume 1760.107743
_symmetry_space_group_name_H-M "C 2/C"
_symmetry_group_IT_number 15
_symmetry_cell_setting 'monoclinic'
loop_
_space_group_symop_operation_xyz
x,y,z
-x,y,1/2-z
-x,-y,-z
x,-y,1/2+z
1/2+x,1/2+y,z
1/2-x,1/2+y,1/2-z
1/2-x,1/2-y,-z
1/2+x,1/2-y,1/2+z
loop_
_atom_site_type_symbol
_atom_site_label
_atom_site_fract_x
_atom_site_fract_y
_atom_site_fract_z
Si Si1 0.731855 0.811482 0.278886
Si Si2 0.563175 0.239180 0.422533
Si Si3 0.867233 0.397110 0.105499
Si Si4 0.149567 0.932071 0.887129
Si Si5 0.185325 0.974996 0.269795
Si Si6 0.192779 0.649826 0.266287
O O1 0.507329 0.778791 0.435384
O O2 0.620508 0.859618 0.316768
O O3 0.000000 0.814159 0.250000
O O4 0.811909 0.787532 0.139446
O O5 0.250000 0.250000 0.500000
O O6 0.737779 0.198429 0.291262
O O7 0.500000 0.403056 0.250000
O O8 0.965175 0.444368 0.104785
O O9 0.013421 0.376310 0.938163
O O10 0.500000 0.919066 0.750000
O O11 0.049133 0.886588 0.878071
O O12 0.213656 0.976801 0.798901
O O13 0.971712 0.946973 0.068732
O O14 0.000000 0.983386 0.250000
O O15 0.000000 0.660776 0.250000
#
# Coordination Sequence:
#
# PCOD9254936 Si02
#       6
#     8   8   8   8   8   8
#     4   8  14  21  31  50  75 106 143 177 216 266
#     4   9  15  22  33  52  81 115 147 180 220 272
#     4   9  16  25  39  58  81 113 150 186 227 271
#     4  10  21  33  48  71  94 122 162 200 241 288
#     4  10  20  34  50  68  93 125 161 202 241 283
#     4  10  17  25  39  59  85 119 152 186 229 279
#
# _framework density 27.271056000000002
#
# number of rings (size 3 to 8) (size 9 to 14) (size 15 to 20)
#    0.000    2.667    0.000    6.500    0.000    4.000 
#    0.000    0.000    0.000    0.000    0.000    0.000 
#    0.000    1.333    0.000   32.500    0.000   29.833 
#
# Total GULP energy -133723.169337 kJ/mol
# GULP energy per Si atom -5571.798722 kJ/mol
# Density = 2.720899 g / cm^3
# Si number density = 27.271056 Si / 1000 Ang^3
#
#
#
# Elastic Constant Matrix: (Units=GPa)
#
#
# Indices 1 2 3 4 5 6 
#
# 1 72.1264 10.2220 18.3730 0.0000 4.0922 0.0000
# 2 10.2220 193.1678 42.0359 0.0000 8.5110 0.0000
# 3 18.3730 42.0359 56.5554 0.0000 17.9228 0.0000
# 4 0.0000 0.0000 0.0000 76.0422 0.0000 6.5921
# 5 4.0922 8.5110 17.9228 0.0000 32.9501 0.0000
# 6 0.0000 0.0000 0.0000 6.5921 0.0000 14.4086
#
#
#
# Elastic Compliance Matrix: (Units=1/GPa)
#
#
# Indices 1 2 3 4 5 6 
#
# 1 0.015160 0.000352 -0.005511 0.000000 0.001024 0.000000
# 2 0.000352 0.006216 -0.005089 0.000000 0.001119 0.000000
# 3 -0.005511 -0.005089 0.027333 0.000000 -0.012868 0.000000
# 4 0.000000 0.000000 0.000000 0.013694 0.000000 -0.006265
# 5 0.001024 0.001119 -0.012868 0.000000 0.036932 0.000000
# 6 0.000000 0.000000 0.000000 -0.006265 0.000000 0.072269
#
#
# Mechanical properties :
#
#
# Convention : Reuss Voigt Hill
#
# Bulk Modulus (GPa) = 35.44519 51.45682 43.45101
# Shear Modulus (GPa) = 24.81304 41.42809 33.12057
#
# Velocity S-wave (km/s) = 3.01967 3.90182 3.48874
# Velocity P-wave (km/s) = 5.01831 6.26167 5.67415
#
# Compressibility (1/GPa) = 0.02821257
#
# Stress axis : x y z
#
# Youngs Moduli (GPa) = 65.96099 160.86364 36.58572
#
# Poissons Ratio (x) = -0.05661 0.20163
# Poissons Ratio (y) = -0.02321 0.18620
# Poissons Ratio (z) = 0.36353 0.81870
#
# Static dielectric constant tensor:
#      x y z
#    x 2.491250 0.000000 -0.153410 
#    y 0.000000 2.231700 0.000000 
#    z -0.153410 0.000000 2.224090 
# 
# From -- ./inp_files/148938.got.cif
#   From: 2010.05.17/outbox.cif.g08.bks.cpg/sg15_75_cif.got.tgz:148938.got - 2010.06.03 18:47:42.
