data_PCOD9254753
_publ_section_title
;
Structure prediction by ZEFSAII (Michael W. Deem and Ramdas Pophale) SiO2 
 PCOD9254753
Probable space group: C 2/C
;
_chemical_formula_sum "Si O2"
_cell_formula_units_Z 44
_cell_length_a 16.536435
_cell_length_b 7.859498
_cell_length_c 22.191831
_cell_angle_alpha 90.000000
_cell_angle_beta 34.804742
_cell_angle_gamma 90.000000
_cell_volume 1646.264985
_symmetry_space_group_name_H-M "C 2/C"
_symmetry_group_IT_number 15
_symmetry_cell_setting 'monoclinic'
loop_
_space_group_symop_operation_xyz
x,y,z
-x,y,1/2-z
-x,-y,-z
x,-y,1/2+z
1/2+x,1/2+y,z
1/2-x,1/2+y,1/2-z
1/2-x,1/2-y,-z
1/2+x,1/2-y,1/2+z
loop_
_atom_site_type_symbol
_atom_site_label
_atom_site_fract_x
_atom_site_fract_y
_atom_site_fract_z
Si Si1 0.312396 0.203749 0.577197
Si Si2 0.703147 0.578941 0.974701
Si Si3 0.000000 0.788045 0.250000
Si Si4 0.467496 0.976418 0.880654
Si Si5 0.388405 0.600884 0.149675
Si Si6 0.254513 0.197993 0.818076
O O1 0.294517 0.387585 0.555113
O O2 0.429078 0.097839 0.469347
O O3 0.358952 0.258478 0.615868
O O4 0.153511 0.125035 0.666187
O O5 0.825443 0.576940 0.948458
O O6 0.744209 0.703860 0.895241
O O7 0.539860 0.607861 0.088389
O O8 0.013402 0.673691 0.180904
O O9 0.605354 0.090610 0.785913
O O10 0.269393 0.629685 0.272779
O O11 0.372734 0.419013 0.127646
#
# Coordination Sequence:
#
# PCOD9254753 Si02
#       6
#     8   8   4   8   8   8
#     4  10  21  35  65  94 124 162 214 268 310 382
#     4  10  21  41  64  90 125 173 208 261 322 385
#     4  10  16  34  58  90 114 160 200 254 312 374
#     4  11  20  38  65  90 123 165 216 252 317 383
#     4  11  25  39  65  92 131 164 216 261 326 377
#     4  11  23  41  65  90 126 171 206 267 318 387
#
# _framework density 26.727167000000001
#
# number of rings (size 3 to 8) (size 9 to 14) (size 15 to 20)
#    0.000    1.455    5.455    4.364    5.091    2.909 
#    0.000    0.000    0.000    0.000    0.000    0.000 
#    0.000    0.000    0.000    0.000    0.000    0.000 
#
# Total GULP energy -123261.988601 kJ/mol
# GULP energy per Si atom -5602.817664 kJ/mol
# Density = 2.666634 g / cm^3
# Si number density = 26.727167 Si / 1000 Ang^3
#
#
#
# Elastic Constant Matrix: (Units=GPa)
#
#
# Indices 1 2 3 4 5 6 
#
# 1 74.0516 25.8698 18.7490 0.0000 -20.8195 -0.0001
# 2 25.8698 46.8711 17.2748 0.0000 5.1821 -0.0003
# 3 18.7490 17.2748 122.0224 -0.0001 -20.8063 0.0000
# 4 0.0000 0.0000 -0.0001 49.9352 0.0000 1.3154
# 5 -20.8195 5.1821 -20.8063 0.0000 58.1472 0.0000
# 6 -0.0001 -0.0003 0.0000 1.3154 0.0000 25.2903
#
#
#
# Elastic Compliance Matrix: (Units=1/GPa)
#
#
# Indices 1 2 3 4 5 6 
#
# 1 0.019987 -0.011950 0.000024 0.000000 0.008230 0.000000
# 2 -0.011950 0.030285 -0.003878 0.000000 -0.008365 0.000000
# 3 0.000024 -0.003878 0.009373 0.000000 0.003708 0.000000
# 4 0.000000 0.000000 0.000000 0.020053 0.000000 -0.001043
# 5 0.008230 -0.008365 0.003708 0.000000 0.022217 0.000000
# 6 0.000000 0.000000 0.000000 -0.001043 0.000000 0.039595
#
#
# Mechanical properties :
#
#
# Convention : Reuss Voigt Hill
#
# Bulk Modulus (GPa) = 35.66742 40.74805 38.20773
# Shear Modulus (GPa) = 27.40295 38.74463 33.07379
#
# Velocity S-wave (km/s) = 3.20548 3.81154 3.52157
# Velocity P-wave (km/s) = 5.20328 5.88638 5.55534
#
# Compressibility (1/GPa) = 0.02803679
#
# Stress axis : x y z
#
# Youngs Moduli (GPa) = 50.03370 33.01989 106.69246
#
# Poissons Ratio (x) = 0.39459 -0.00257
# Poissons Ratio (y) = 0.59790 0.41372
# Poissons Ratio (z) = -0.00120 0.12804
#
# Static dielectric constant tensor:
#      x y z
#    x 2.022250 0.000000 -0.008190 
#    y 0.000000 2.201640 0.000000 
#    z -0.008190 0.000000 2.075700 
# 
# From -- ./inp_files/298083.got.cif
#   From: 2010.05.17/outbox.cif.g08.bks.cpg/sg15_150_cif.got.tgz:298083.got - 2010.06.03 18:47:42.
