data_PCOD9254373
_publ_section_title
;
Structure prediction by ZEFSAII (Michael W. Deem and Ramdas Pophale) SiO2 
 PCOD9254373
Probable space group: C 2/C
;
_chemical_formula_sum "Si O2"
_cell_formula_units_Z 32
_cell_length_a 33.236103
_cell_length_b 8.184858
_cell_length_c 5.483582
_cell_angle_alpha 90.000000
_cell_angle_beta 62.769353
_cell_angle_gamma 90.000000
_cell_volume 1326.390012
_symmetry_space_group_name_H-M "C 2/C"
_symmetry_group_IT_number 15
_symmetry_cell_setting 'monoclinic'
loop_
_space_group_symop_operation_xyz
x,y,z
-x,y,1/2-z
-x,-y,-z
x,-y,1/2+z
1/2+x,1/2+y,z
1/2-x,1/2+y,1/2-z
1/2-x,1/2-y,-z
1/2+x,1/2-y,1/2+z
loop_
_atom_site_type_symbol
_atom_site_label
_atom_site_fract_x
_atom_site_fract_y
_atom_site_fract_z
Si Si1 0.981544 0.688125 0.051162
Si Si2 0.846225 0.945531 0.341095
Si Si3 0.623096 0.899837 0.652720
Si Si4 0.243929 0.558988 0.063574
O O1 0.927713 0.674338 0.200754
O O2 0.000000 0.763948 0.250000
O O3 0.000000 0.763875 0.750000
O O4 0.000000 0.500000 0.000000
O O5 0.844709 0.755938 0.411641
O O6 0.795068 0.013416 0.449984
O O7 0.868013 0.032829 0.514418
O O8 0.627552 0.990485 0.382456
O O9 0.222305 0.474813 0.886736
O O10 0.250000 0.750000 0.000000
#
# Coordination Sequence:
#
# PCOD9254373 Si02
#       4
#     8   8   8   8
#     4  10  16  30  49  78 105 133 173 236 287 311
#     4  10  23  41  55  79 122 157 174 217 297 344
#     4  12  21  33  59  88 103 142 196 240 265 324
#     4  10  21  38  61  84 113 151 186 227 276 328
#
# _framework density 24.125634000000002
#
# number of rings (size 3 to 8) (size 9 to 14) (size 15 to 20)
#    0.000    1.500    5.000    2.250    0.000    2.000 
#    0.000    0.000    0.000    4.500    0.000    0.000 
#    0.000    0.000    0.000    0.000    0.000    0.000 
#
# Total GULP energy -89467.217703 kJ/mol
# GULP energy per Si atom -5591.701106 kJ/mol
# Density = 2.407072 g / cm^3
# Si number density = 24.125634 Si / 1000 Ang^3
#
#
#
# Elastic Constant Matrix: (Units=GPa)
#
#
# Indices 1 2 3 4 5 6 
#
# 1 108.1550 15.8418 75.3048 0.0000 23.1766 0.0000
# 2 15.8418 77.1532 41.3402 0.0000 29.4626 0.0000
# 3 75.3048 41.3402 205.3387 0.0000 77.3164 0.0000
# 4 0.0000 0.0000 0.0000 22.4726 0.0000 11.6129
# 5 23.1766 29.4626 77.3164 0.0000 69.7715 0.0000
# 6 0.0000 0.0000 0.0000 11.6129 0.0000 13.7378
#
#
#
# Elastic Compliance Matrix: (Units=1/GPa)
#
#
# Indices 1 2 3 4 5 6 
#
# 1 0.012534 -0.000479 -0.005163 0.000000 0.001760 0.000000
# 2 -0.000479 0.015624 -0.000936 0.000000 -0.005401 0.000000
# 3 -0.005163 -0.000936 0.010566 0.000000 -0.009598 0.000000
# 4 0.000000 0.000000 0.000000 0.079014 0.000000 -0.066793
# 5 0.001760 -0.005401 -0.009598 0.000000 0.026665 0.000000
# 6 0.000000 0.000000 0.000000 -0.066793 0.000000 0.129253
#
#
# Mechanical properties :
#
#
# Convention : Reuss Voigt Hill
#
# Bulk Modulus (GPa) = 39.11303 72.84673 55.97988
# Shear Modulus (GPa) = 16.93001 38.40705 27.66853
#
# Velocity S-wave (km/s) = 2.65192 3.99427 3.39019
# Velocity P-wave (km/s) = 5.06205 7.17861 6.21115
#
# Compressibility (1/GPa) = 0.02556693
#
# Stress axis : x y z
#
# Youngs Moduli (GPa) = 79.78507 64.00546 94.64506
#
# Poissons Ratio (x) = 0.03068 0.48863
# Poissons Ratio (y) = 0.03824 0.08859
# Poissons Ratio (z) = 0.41191 0.05991
#
# Static dielectric constant tensor:
#      x y z
#    x 2.022830 0.000000 0.065260 
#    y 0.000000 1.869760 0.000000 
#    z 0.065260 0.000000 2.071570 
# 
# From -- ./inp_files/17915.got.cif
#   From: 2010.05.17/outbox.cif.g08.bks.cpg/sg15_9_cif.got.tgz:17915.got - 2010.06.03 18:47:42.
