data_PCOD9254360
_publ_section_title
;
Structure prediction by ZEFSAII (Michael W. Deem and Ramdas Pophale) SiO2 
 PCOD9254360
Probable space group: C 2/C
;
_chemical_formula_sum "Si O2"
_cell_formula_units_Z 60
_cell_length_a 12.051262
_cell_length_b 19.183727
_cell_length_c 13.225029
_cell_angle_alpha 90.000000
_cell_angle_beta 80.135390
_cell_angle_gamma 90.000000
_cell_volume 3012.265928
_symmetry_space_group_name_H-M "C 2/C"
_symmetry_group_IT_number 15
_symmetry_cell_setting 'monoclinic'
loop_
_space_group_symop_operation_xyz
x,y,z
-x,y,1/2-z
-x,-y,-z
x,-y,1/2+z
1/2+x,1/2+y,z
1/2-x,1/2+y,1/2-z
1/2-x,1/2-y,-z
1/2+x,1/2-y,1/2+z
loop_
_atom_site_type_symbol
_atom_site_label
_atom_site_fract_x
_atom_site_fract_y
_atom_site_fract_z
Si Si1 0.466313 0.754847 0.989628
Si Si2 0.120928 0.190512 0.680937
Si Si3 0.000000 0.561794 0.250000
Si Si4 0.304105 0.879203 0.285498
Si Si5 0.159993 0.236100 0.103314
Si Si6 0.345945 0.180175 0.192411
Si Si7 0.413031 0.096737 0.568495
Si Si8 0.632846 0.977417 0.061185
O O1 0.395630 0.698727 0.936621
O O2 0.562643 0.783253 0.896672
O O3 0.538360 0.724986 0.072373
O O4 0.397736 0.823692 0.034242
O O5 0.202459 0.136875 0.724360
O O6 0.161016 0.267000 0.712107
O O7 0.000000 0.177676 0.750000
O O8 0.901749 0.609775 0.219415
O O9 0.941525 0.519768 0.347264
O O10 0.341879 0.806421 0.329728
O O11 0.395836 0.905623 0.191290
O O12 0.283454 0.932243 0.381814
O O13 0.223996 0.177663 0.159063
O O14 0.250000 0.250000 0.000000
O O15 0.338831 0.036951 0.525224
O O16 0.543967 0.077141 0.526932
#
# Coordination Sequence:
#
# PCOD9254360 Si02
#       8
#     8   8   4   8   8   8   8   8
#     4  10  16  30  48  76 108 139 179 229 278 336
#     4   9  18  34  56  78 102 141 189 239 283 326
#     4  12  16  32  54  74 118 146 188 232 276 338
#     4  11  21  36  53  81 117 147 192 232 285 347
#     4   9  19  30  51  77 108 142 182 233 282 329
#     4   9  16  29  49  77 104 137 181 231 273 328
#     4  11  21  32  52  80 119 151 181 227 286 349
#     4  11  22  33  50  82 115 158 181 225 285 342
#
# _framework density 19.918559999999999
#
# number of rings (size 3 to 8) (size 9 to 14) (size 15 to 20)
#    0.000    1.867    6.000    0.800    0.000    0.533 
#    0.000    0.000    0.000    0.800    0.000    0.000 
#    0.000    0.000    0.000    0.000    0.000    0.000 
#
# Total GULP energy -167157.617432 kJ/mol
# GULP energy per Si atom -5571.920581 kJ/mol
# Density = 1.987322 g / cm^3
# Si number density = 19.918560 Si / 1000 Ang^3
#
#
#
# Elastic Constant Matrix: (Units=GPa)
#
#
# Indices 1 2 3 4 5 6 
#
# 1 85.8725 36.2980 26.1691 0.0000 46.9884 0.0000
# 2 36.2980 57.4710 23.2563 0.0000 22.0260 0.0000
# 3 26.1691 23.2563 80.4055 0.0000 28.0147 0.0000
# 4 0.0000 0.0000 0.0000 36.1306 0.0000 15.5117
# 5 46.9884 22.0260 28.0147 0.0000 35.5133 0.0000
# 6 0.0000 0.0000 0.0000 15.5117 0.0000 29.6968
#
#
#
# Elastic Compliance Matrix: (Units=1/GPa)
#
#
# Indices 1 2 3 4 5 6 
#
# 1 0.049781 -0.009508 0.010263 0.000000 -0.068066 0.000000
# 2 -0.009508 0.024955 -0.004294 0.000000 0.000490 0.000000
# 3 0.010263 -0.004294 0.019502 0.000000 -0.026301 0.000000
# 4 0.000000 0.000000 0.000000 0.035678 0.000000 -0.018636
# 5 -0.068066 0.000490 -0.026301 0.000000 0.138661 0.000000
# 6 0.000000 0.000000 0.000000 -0.018636 0.000000 0.043408
#
#
# Mechanical properties :
#
#
# Convention : Reuss Voigt Hill
#
# Bulk Modulus (GPa) = 11.47304 43.91064 27.69184
# Shear Modulus (GPa) = 14.36302 29.46987 21.91644
#
# Velocity S-wave (km/s) = 2.68822 3.85062 3.32068
# Velocity P-wave (km/s) = 3.92528 6.47014 5.35119
#
# Compressibility (1/GPa) = 0.08716087
#
# Stress axis : x y z
#
# Youngs Moduli (GPa) = 20.08796 40.07207 51.27610
#
# Poissons Ratio (x) = 0.38100 -0.52627
# Poissons Ratio (y) = 0.19099 0.22019
# Poissons Ratio (z) = -0.20617 0.17208
#
# Static dielectric constant tensor:
#      x y z
#    x 1.790200 0.000000 0.033560 
#    y 0.000000 1.733490 0.000000 
#    z 0.033560 0.000000 1.775020 
# 
# From -- ./inp_files/146725.got.cif
#   From: 2010.05.17/outbox.cif.g08.bks.cpg/sg15_74_cif.got.tgz:146725.got - 2010.06.03 18:47:42.
