data_PCOD9254317
_publ_section_title
;
Structure prediction by ZEFSAII (Michael W. Deem and Ramdas Pophale) SiO2 
 PCOD9254317
Probable space group: C 2/C
;
_chemical_formula_sum "Si O2"
_cell_formula_units_Z 32
_cell_length_a 7.947894
_cell_length_b 13.369209
_cell_length_c 18.780443
_cell_angle_alpha 90.000000
_cell_angle_beta 34.299498
_cell_angle_gamma 90.000000
_cell_volume 1124.532546
_symmetry_space_group_name_H-M "C 2/C"
_symmetry_group_IT_number 15
_symmetry_cell_setting 'monoclinic'
loop_
_space_group_symop_operation_xyz
x,y,z
-x,y,1/2-z
-x,-y,-z
x,-y,1/2+z
1/2+x,1/2+y,z
1/2-x,1/2+y,1/2-z
1/2-x,1/2-y,-z
1/2+x,1/2-y,1/2+z
loop_
_atom_site_type_symbol
_atom_site_label
_atom_site_fract_x
_atom_site_fract_y
_atom_site_fract_z
Si Si1 0.916755 0.805211 0.355071
Si Si2 0.713461 0.449589 0.485705
Si Si3 0.291250 0.728410 0.611412
Si Si4 0.161718 0.423371 0.765697
O O1 0.564279 0.796538 0.490663
O O2 0.000000 0.849528 0.250000
O O3 0.069007 0.842048 0.374231
O O4 0.044295 0.690720 0.309868
O O5 0.500000 0.500000 0.500000
O O6 0.793812 0.341440 0.424681
O O7 0.510818 0.433387 0.626227
O O8 0.011885 0.515415 0.381909
O O9 0.000000 0.774793 0.750000
O O10 0.000000 0.462654 0.750000
#
# Coordination Sequence:
#
# PCOD9254317 Si02
#       4
#     8   8   8   8
#     4  10  20  37  50  79 120 144 172 238 283 317
#     4  10  16  29  51  79 103 133 183 230 265 311
#     4  11  21  32  55  82 109 147 189 219 279 334
#     4   9  16  29  49  75 109 129 174 233 271 301
#
# _framework density 28.456267
#
# number of rings (size 3 to 8) (size 9 to 14) (size 15 to 20)
#    0.000    2.000    7.500    2.250    0.000    1.000 
#    0.000    0.000    0.000    0.000    0.000   36.750 
#    0.000    0.000    0.000    0.000    0.000    0.000 
#
# Total GULP energy -89600.807290 kJ/mol
# GULP energy per Si atom -5600.050456 kJ/mol
# Density = 2.839150 g / cm^3
# Si number density = 28.456267 Si / 1000 Ang^3
#
#
#
# Elastic Constant Matrix: (Units=GPa)
#
#
# Indices 1 2 3 4 5 6 
#
# 1 92.7931 19.2216 45.7024 -0.0013 2.9664 -0.0003
# 2 19.2216 91.8375 64.2834 -0.0141 12.0238 0.0022
# 3 45.7024 64.2834 303.3159 0.0074 3.3265 -0.0031
# 4 -0.0013 -0.0141 0.0074 38.8669 -0.0116 11.3197
# 5 2.9664 12.0238 3.3265 -0.0116 34.9216 -0.0010
# 6 -0.0003 0.0022 -0.0031 11.3197 -0.0010 32.0686
#
#
#
# Elastic Compliance Matrix: (Units=1/GPa)
#
#
# Indices 1 2 3 4 5 6 
#
# 1 0.011805 -0.001383 -0.001481 0.000000 -0.000385 0.000000
# 2 -0.001383 0.013578 -0.002622 0.000005 -0.004308 -0.000003
# 3 -0.001481 -0.002622 0.004069 -0.000002 0.000641 0.000001
# 4 0.000000 0.000005 -0.000002 0.028677 0.000008 -0.010122
# 5 -0.000385 -0.004308 0.000641 0.000008 0.030090 -0.000001
# 6 0.000000 -0.000003 0.000001 -0.010122 -0.000001 0.034756
#
#
# Mechanical properties :
#
#
# Convention : Reuss Voigt Hill
#
# Bulk Modulus (GPa) = 54.11814 82.92902 68.52358
# Shear Modulus (GPa) = 35.68686 45.08738 40.38712
#
# Velocity S-wave (km/s) = 3.54516 3.98483 3.77141
# Velocity P-wave (km/s) = 5.98472 7.09772 6.56485
#
# Compressibility (1/GPa) = 0.01847809
#
# Stress axis : x y z
#
# Youngs Moduli (GPa) = 84.70886 73.65093 245.77708
#
# Poissons Ratio (x) = 0.10190 0.36407
# Poissons Ratio (y) = 0.11719 0.64440
# Poissons Ratio (z) = 0.12548 0.19310
#
# Static dielectric constant tensor:
#      x y z
#    x 2.329030 0.000010 0.008700 
#    y 0.000010 2.232340 0.000000 
#    z 0.008700 0.000000 2.233040 
# 
# From -- ./inp_files/232416.got.cif
#   From: 2010.05.17/outbox.cif.g08.bks.cpg/sg15_117_cif.got.tgz:232416.got - 2010.06.03 18:47:42.
