data_PCOD9254517
_publ_section_title
;
Structure prediction by ZEFSAII (Michael W. Deem and Ramdas Pophale) SiO2 
 PCOD9254517
Probable space group: C 2/C
;
_chemical_formula_sum "Si O2"
_cell_formula_units_Z 48
_cell_length_a 22.671738
_cell_length_b 5.898250
_cell_length_c 20.477775
_cell_angle_alpha 90.000000
_cell_angle_beta 112.348821
_cell_angle_gamma 90.000000
_cell_volume 2532.672226
_symmetry_space_group_name_H-M "C 2/C"
_symmetry_group_IT_number 15
_symmetry_cell_setting 'monoclinic'
loop_
_space_group_symop_operation_xyz
x,y,z
-x,y,1/2-z
-x,-y,-z
x,-y,1/2+z
1/2+x,1/2+y,z
1/2-x,1/2+y,1/2-z
1/2-x,1/2-y,-z
1/2+x,1/2-y,1/2+z
loop_
_atom_site_type_symbol
_atom_site_label
_atom_site_fract_x
_atom_site_fract_y
_atom_site_fract_z
Si Si1 0.161876 0.585074 0.217133
Si Si2 0.728381 0.999698 0.517429
Si Si3 0.867607 0.033171 0.900799
Si Si4 0.245904 0.691641 0.657807
Si Si5 0.088635 0.396055 0.488017
Si Si6 0.050193 0.645423 0.608191
O O1 0.155101 0.783857 0.161225
O O2 0.215494 0.417455 0.210210
O O3 0.188840 0.686065 0.295203
O O4 0.094112 0.458566 0.183669
O O5 0.750000 0.750000 0.500000
O O6 0.651328 0.999617 0.482508
O O7 0.750000 0.250000 0.500000
O O8 0.750168 0.008711 0.602542
O O9 0.808291 0.868120 0.887590
O O10 0.926691 0.900749 0.893484
O O11 0.890770 0.149653 0.976724
O O12 0.071397 0.527267 0.548338
O O13 0.025030 0.386459 0.418516
#
# Coordination Sequence:
#
# PCOD9254517 Si02
#       6
#     8   8   8   8   8   8
#     4  10  19  31  57  88 114 149 190 267 324 355
#     4  12  26  41  60  88 125 173 209 246 296 378
#     4  10  16  31  53  89 117 149 183 253 333 366
#     4  11  20  34  56  86 123 151 206 254 317 371
#     4  10  19  35  55  83 123 150 202 248 310 372
#     4   9  19  32  56  90 114 150 188 265 325 362
#
# _framework density 18.952313
#
# number of rings (size 3 to 8) (size 9 to 14) (size 15 to 20)
#    0.000    1.667    6.667    1.500    0.000    0.000 
#    0.000    0.000    0.000    1.000    0.000    0.000 
#    0.000    0.000    0.000    0.000    0.000    0.000 
#
# Total GULP energy -133701.530002 kJ/mol
# GULP energy per Si atom -5570.897083 kJ/mol
# Density = 1.890918 g / cm^3
# Si number density = 18.952313 Si / 1000 Ang^3
#
#
#
# Elastic Constant Matrix: (Units=GPa)
#
#
# Indices 1 2 3 4 5 6 
#
# 1 123.4987 45.6650 43.3396 0.0000 34.7010 0.0000
# 2 45.6650 88.8842 20.1304 0.0000 10.6656 0.0000
# 3 43.3396 20.1304 60.6471 0.0000 28.2059 0.0000
# 4 0.0000 0.0000 0.0000 36.2234 0.0000 -2.9794
# 5 34.7010 10.6656 28.2059 0.0000 31.0741 0.0000
# 6 0.0000 0.0000 0.0000 -2.9794 0.0000 15.7394
#
#
#
# Elastic Compliance Matrix: (Units=1/GPa)
#
#
# Indices 1 2 3 4 5 6 
#
# 1 0.014363 -0.005287 -0.003277 0.000000 -0.011251 0.000000
# 2 -0.005287 0.014125 -0.002425 0.000000 0.003257 0.000000
# 3 -0.003277 -0.002425 0.030365 0.000000 -0.023071 0.000000
# 4 0.000000 0.000000 0.000000 0.028043 0.000000 0.005308
# 5 -0.011251 0.003257 -0.023071 0.000000 0.064568 0.000000
# 6 0.000000 0.000000 0.000000 0.005308 0.000000 0.064540
#
#
# Mechanical properties :
#
#
# Convention : Reuss Voigt Hill
#
# Bulk Modulus (GPa) = 27.11829 54.58887 40.85358
# Shear Modulus (GPa) = 19.97799 27.53371 23.75585
#
# Velocity S-wave (km/s) = 3.25024 3.81568 3.54426
# Velocity P-wave (km/s) = 5.33153 6.94826 6.19288
#
# Compressibility (1/GPa) = 0.03687548
#
# Stress axis : x y z
#
# Youngs Moduli (GPa) = 69.62095 70.79488 32.93232
#
# Poissons Ratio (x) = 0.37430 0.10792
# Poissons Ratio (y) = 0.36810 0.07987
# Poissons Ratio (z) = 0.22814 0.17169
#
# Static dielectric constant tensor:
#      x y z
#    x 1.682160 0.000000 -0.014090 
#    y 0.000000 1.749490 0.000000 
#    z -0.014090 0.000000 1.679890 
# 
# From -- ./inp_files/217798.got.cif
#   From: 2010.05.17/outbox.cif.g08.bks.cpg/sg15_109_cif.got.tgz:217798.got - 2010.06.03 18:47:42.
