data_PCOD9254607
_publ_section_title
;
Structure prediction by ZEFSAII (Michael W. Deem and Ramdas Pophale) SiO2 
 PCOD9254607
Probable space group: C 2/C
;
_chemical_formula_sum "Si O2"
_cell_formula_units_Z 52
_cell_length_a 23.351934
_cell_length_b 17.206476
_cell_length_c 14.137334
_cell_angle_alpha 90.000000
_cell_angle_beta 151.759913
_cell_angle_gamma 90.000000
_cell_volume 2687.800229
_symmetry_space_group_name_H-M "C 2/C"
_symmetry_group_IT_number 15
_symmetry_cell_setting 'monoclinic'
loop_
_space_group_symop_operation_xyz
x,y,z
-x,y,1/2-z
-x,-y,-z
x,-y,1/2+z
1/2+x,1/2+y,z
1/2-x,1/2+y,1/2-z
1/2-x,1/2-y,-z
1/2+x,1/2-y,1/2+z
loop_
_atom_site_type_symbol
_atom_site_label
_atom_site_fract_x
_atom_site_fract_y
_atom_site_fract_z
Si Si1 0.210558 0.114590 0.188869
Si Si2 0.618423 0.656443 0.357822
Si Si3 0.500000 0.631602 0.750000
Si Si4 0.648068 0.233784 0.719976
Si Si5 0.867601 0.013408 0.262181
Si Si6 0.188887 0.839274 0.370795
Si Si7 0.113242 0.311379 0.694167
O O1 0.176127 0.197210 0.186785
O O2 0.217112 0.053650 0.282605
O O3 0.327551 0.131685 0.296431
O O4 0.099202 0.088811 0.958952
O O5 0.500000 0.659554 0.250000
O O6 0.613728 0.720972 0.267340
O O7 0.737093 0.679678 0.590876
O O8 0.626976 0.573198 0.317626
O O9 0.414162 0.676218 0.698704
O O10 0.530118 0.187416 0.515093
O O11 0.823465 0.928348 0.172710
O O12 0.000000 0.000000 0.500000
O O13 0.157395 0.778426 0.242720
O O14 0.318098 0.828252 0.607699
#
# Coordination Sequence:
#
# PCOD9254607 Si02
#       7
#     8   8   4   8   8   8   8
#     4  10  20  33  60  87 118 153 196 244 296 343
#     4  10  22  35  60  86 114 151 200 244 302 354
#     4  10  16  32  54  88 114 148 184 240 290 334
#     4  10  19  38  55  86 118 154 197 245 290 355
#     4  11  21  37  58  86 120 148 196 257 294 340
#     4  10  20  34  58  91 118 150 203 239 296 344
#     4  10  20  36  59  85 119 157 192 240 294 357
#
# _framework density 19.346677
#
# number of rings (size 3 to 8) (size 9 to 14) (size 15 to 20)
#    0.000    1.846    3.077    1.846    1.077    0.000 
#    0.000    0.769    0.000    3.692    0.000    0.000 
#    0.000    0.000    0.000    0.000    0.000    0.000 
#
# Total GULP energy -145013.235178 kJ/mol
# GULP energy per Si atom -5577.432122 kJ/mol
# Density = 1.930264 g / cm^3
# Si number density = 19.346677 Si / 1000 Ang^3
#
#
#
# Elastic Constant Matrix: (Units=GPa)
#
#
# Indices 1 2 3 4 5 6 
#
# 1 62.7026 34.0297 15.4367 0.0000 2.0934 0.0000
# 2 34.0297 111.5489 48.8539 0.0000 7.4188 0.0000
# 3 15.4367 48.8539 139.5384 0.0000 8.2500 0.0000
# 4 0.0000 0.0000 0.0000 21.0014 0.0000 -1.2006
# 5 2.0934 7.4188 8.2500 0.0000 15.8851 0.0000
# 6 0.0000 0.0000 0.0000 -1.2006 0.0000 15.5684
#
#
#
# Elastic Compliance Matrix: (Units=1/GPa)
#
#
# Indices 1 2 3 4 5 6 
#
# 1 0.019114 -0.005805 -0.000096 0.000000 0.000242 0.000000
# 2 -0.005805 0.012503 -0.003544 0.000000 -0.003234 0.000000
# 3 -0.000096 -0.003544 0.008583 0.000000 -0.002790 0.000000
# 4 0.000000 0.000000 0.000000 0.047827 0.000000 0.003688
# 5 0.000242 -0.003234 -0.002790 0.000000 0.065879 0.000000
# 6 0.000000 0.000000 0.000000 0.003688 0.000000 0.064517
#
#
# Mechanical properties :
#
#
# Convention : Reuss Voigt Hill
#
# Bulk Modulus (GPa) = 46.92830 56.71450 51.82140
# Shear Modulus (GPa) = 20.45683 24.85562 22.65623
#
# Velocity S-wave (km/s) = 3.25527 3.58823 3.42580
# Velocity P-wave (km/s) = 6.19986 6.82244 6.51858
#
# Compressibility (1/GPa) = 0.02130911
#
# Stress axis : x y z
#
# Youngs Moduli (GPa) = 52.31648 79.98232 116.51095
#
# Poissons Ratio (x) = 0.46430 0.01124
# Poissons Ratio (y) = 0.30370 0.41291
# Poissons Ratio (z) = 0.00505 0.28346
#
# Static dielectric constant tensor:
#      x y z
#    x 1.713400 0.000000 -0.027220 
#    y 0.000000 1.686410 0.000000 
#    z -0.027220 0.000000 1.679450 
# 
# From -- ./inp_files/174022.got.cif
#   From: 2010.05.17/outbox.cif.g08.bks.cpg/sg15_88_cif.got.tgz:174022.got - 2010.06.03 18:47:42.
