data_PCOD9254598
_publ_section_title
;
Structure prediction by ZEFSAII (Michael W. Deem and Ramdas Pophale) SiO2 
 PCOD9254598
Probable space group: C 2/C
;
_chemical_formula_sum "Si O2"
_cell_formula_units_Z 56
_cell_length_a 18.922785
_cell_length_b 19.091597
_cell_length_c 18.364432
_cell_angle_alpha 90.000000
_cell_angle_beta 27.950562
_cell_angle_gamma 90.000000
_cell_volume 3109.629153
_symmetry_space_group_name_H-M "C 2/C"
_symmetry_group_IT_number 15
_symmetry_cell_setting 'monoclinic'
loop_
_space_group_symop_operation_xyz
x,y,z
-x,y,1/2-z
-x,-y,-z
x,-y,1/2+z
1/2+x,1/2+y,z
1/2-x,1/2+y,1/2-z
1/2-x,1/2-y,-z
1/2+x,1/2-y,1/2+z
loop_
_atom_site_type_symbol
_atom_site_label
_atom_site_fract_x
_atom_site_fract_y
_atom_site_fract_z
Si Si1 0.402680 0.652425 0.281783
Si Si2 0.354249 0.420119 0.188546
Si Si3 0.132624 0.264870 0.011305
Si Si4 0.662310 0.417689 0.813729
Si Si5 0.990185 0.187775 0.671909
Si Si6 0.654292 0.806263 0.301701
Si Si7 0.764687 0.303137 0.818518
O O1 0.500000 0.606847 0.250000
O O2 0.244609 0.684496 0.453061
O O3 0.362768 0.618878 0.240998
O O4 0.522175 0.714027 0.155152
O O5 0.309804 0.501185 0.229409
O O6 0.398273 0.379043 0.222828
O O7 0.221442 0.376647 0.272300
O O8 0.504558 0.413440 0.001862
O O9 0.238810 0.219140 0.861857
O O10 0.016936 0.309565 0.067952
O O11 0.779591 0.374960 0.758335
O O12 0.907272 0.257596 0.715289
O O13 0.000000 0.189018 0.750000
O O14 0.156404 0.184137 0.485757
O O15 0.673180 0.746678 0.345731
#
# Coordination Sequence:
#
# PCOD9254598 Si02
#       7
#     8   8   8   8   8   8   8
#     4  11  21  32  50  77 107 134 167 213 262 307
#     4   9  19  32  53  76 101 137 174 216 255 307
#     4  10  18  31  52  74 105 128 169 216 253 303
#     4  10  18  33  52  77 100 137 182 206 259 308
#     4  10  20  33  52  80 106 133 171 212 271 309
#     4  10  16  32  54  77 100 129 174 218 253 295
#     4  10  18  31  56  76 100 136 168 222 250 303
#
# _framework density 18.008576999999999
#
# number of rings (size 3 to 8) (size 9 to 14) (size 15 to 20)
#    0.000    2.000    4.286    2.571    0.000    0.571 
#    0.000    0.714    0.000    0.000    0.000    0.000 
#    0.000    0.000    0.000    0.000    0.000    0.000 
#
# Total GULP energy -156009.656686 kJ/mol
# GULP energy per Si atom -5571.773453 kJ/mol
# Density = 1.796759 g / cm^3
# Si number density = 18.008577 Si / 1000 Ang^3
#
#
#
# Elastic Constant Matrix: (Units=GPa)
#
#
# Indices 1 2 3 4 5 6 
#
# 1 85.8360 34.0190 16.6269 -0.0149 -6.1755 0.0057
# 2 34.0190 102.3983 12.1394 0.0026 -6.2562 -0.0002
# 3 16.6269 12.1394 51.6919 0.0056 -2.8529 -0.0014
# 4 -0.0149 0.0026 0.0056 16.6500 -0.0035 -5.2674
# 5 -6.1755 -6.2562 -2.8529 -0.0035 32.6786 -0.0003
# 6 0.0057 -0.0002 -0.0014 -5.2674 -0.0003 8.8645
#
#
#
# Elastic Compliance Matrix: (Units=1/GPa)
#
#
# Indices 1 2 3 4 5 6 
#
# 1 0.014088 -0.004174 -0.003465 0.000014 0.001561 -0.000001
# 2 -0.004174 0.011380 -0.001259 -0.000005 0.001280 0.000000
# 3 -0.003465 -0.001259 0.020806 -0.000010 0.000921 0.000000
# 4 0.000014 -0.000005 -0.000010 0.073964 0.000009 0.043950
# 5 0.001561 0.001280 0.000921 0.000009 0.031221 0.000006
# 6 -0.000001 0.000000 0.000000 0.043950 0.000006 0.138924
#
#
# Mechanical properties :
#
#
# Convention : Reuss Voigt Hill
#
# Bulk Modulus (GPa) = 35.11542 40.61078 37.86310
# Shear Modulus (GPa) = 15.73943 23.44803 19.59373
#
# Velocity S-wave (km/s) = 2.95955 3.61230 3.30210
# Velocity P-wave (km/s) = 5.58750 6.32440 5.96734
#
# Compressibility (1/GPa) = 0.02847752
#
# Stress axis : x y z
#
# Youngs Moduli (GPa) = 70.98263 87.87324 48.06199
#
# Poissons Ratio (x) = 0.36680 0.16654
# Poissons Ratio (y) = 0.29630 0.06052
# Poissons Ratio (z) = 0.24596 0.11065
#
# Static dielectric constant tensor:
#      x y z
#    x 1.670630 0.000000 0.013100 
#    y 0.000000 1.638050 0.000000 
#    z 0.013100 0.000000 1.616130 
# 
# From -- ./inp_files/211870.got.cif
#   From: 2010.05.17/outbox.cif.g08.bks.cpg/sg15_106_cif.got.tgz:211870.got - 2010.06.03 18:47:42.
