data_PCOD9254112
_publ_section_title
;
Structure prediction by ZEFSAII (Michael W. Deem and Ramdas Pophale) SiO2 
 PCOD9254112
Probable space group: C 2/C
;
_chemical_formula_sum "Si O2"
_cell_formula_units_Z 48
_cell_length_a 21.722096
_cell_length_b 6.754598
_cell_length_c 15.457688
_cell_angle_alpha 90.000000
_cell_angle_beta 130.852419
_cell_angle_gamma 90.000000
_cell_volume 1715.519003
_symmetry_space_group_name_H-M "C 2/C"
_symmetry_group_IT_number 15
_symmetry_cell_setting 'monoclinic'
loop_
_space_group_symop_operation_xyz
x,y,z
-x,y,1/2-z
-x,-y,-z
x,-y,1/2+z
1/2+x,1/2+y,z
1/2-x,1/2+y,1/2-z
1/2-x,1/2-y,-z
1/2+x,1/2-y,1/2+z
loop_
_atom_site_type_symbol
_atom_site_label
_atom_site_fract_x
_atom_site_fract_y
_atom_site_fract_z
Si Si1 0.683252 0.099028 0.337247
Si Si2 0.845217 0.824261 0.880856
Si Si3 0.068777 0.761294 0.908772
Si Si4 0.589394 0.906259 0.593492
Si Si5 0.622853 0.664251 0.281174
Si Si6 0.576772 0.782962 0.880398
O O1 0.763214 0.140282 0.357217
O O2 0.606013 0.156407 0.205574
O O3 0.661250 0.216623 0.403521
O O4 0.675312 0.864097 0.341647
O O5 0.849979 0.588426 0.865455
O O6 0.848569 0.916947 0.786759
O O7 0.916181 0.829597 0.020979
O O8 0.113809 0.886714 0.875816
O O9 0.070519 0.523393 0.889780
O O10 0.973053 0.803018 0.825226
O O11 0.105211 0.763839 0.038376
O O12 0.500000 0.000000 0.500000
O O13 0.500000 0.726468 0.750000
#
# Coordination Sequence:
#
# PCOD9254112 Si02
#       6
#     8   8   8   8   8   8
#     4  10  17  27  40  68 101 115 140 194 235 269
#     4  10  19  25  41  69  99 117 143 187 241 271
#     4   9  14  27  47  67  83 114 157 195 212 258
#     4  10  16  29  49  66  88 122 160 185 221 268
#     4   9  16  28  44  65  95 116 147 186 232 256
#     4  10  16  26  43  65  91 117 148 185 227 272
#
# _framework density 27.979869999999998
#
# number of rings (size 3 to 8) (size 9 to 14) (size 15 to 20)
#    0.000    2.333    6.667    1.500    0.000    0.000 
#    0.000    0.833    0.000    0.000    0.000   18.667 
#   20.000    0.000    0.000    0.000    0.000    0.000 
#
# Total GULP energy -134017.692381 kJ/mol
# GULP energy per Si atom -5584.070516 kJ/mol
# Density = 2.791619 g / cm^3
# Si number density = 27.979870 Si / 1000 Ang^3
#
#
#
# Elastic Constant Matrix: (Units=GPa)
#
#
# Indices 1 2 3 4 5 6 
#
# 1 210.2515 23.2852 24.2465 0.0000 -2.9938 0.0000
# 2 23.2852 81.5821 -6.1580 -0.0001 11.4658 0.0000
# 3 24.2465 -6.1580 74.4581 0.0000 -17.8853 0.0000
# 4 0.0000 -0.0001 0.0000 28.1664 0.0000 -9.5701
# 5 -2.9938 11.4658 -17.8853 0.0000 64.3627 0.0000
# 6 0.0000 0.0000 0.0000 -9.5701 0.0000 33.9821
#
#
#
# Elastic Compliance Matrix: (Units=1/GPa)
#
#
# Indices 1 2 3 4 5 6 
#
# 1 0.005142 -0.001607 -0.001801 0.000000 0.000025 0.000000
# 2 -0.001607 0.013095 0.001102 0.000000 -0.002101 0.000000
# 3 -0.001801 0.001102 0.015045 0.000000 0.003901 0.000000
# 4 0.000000 0.000000 0.000000 0.039260 0.000000 0.011056
# 5 0.000025 -0.002101 0.003901 0.000000 0.016996 0.000000
# 6 0.000000 0.000000 0.000000 0.011056 0.000000 0.032541
#
#
# Mechanical properties :
#
#
# Convention : Reuss Voigt Hill
#
# Bulk Modulus (GPa) = 34.88202 49.89322 42.38762
# Shear Modulus (GPa) = 36.69733 46.96344 41.83038
#
# Velocity S-wave (km/s) = 3.62548 4.10136 3.87074
# Velocity P-wave (km/s) = 5.47899 6.34813 5.92951
#
# Compressibility (1/GPa) = 0.02866806
#
# Stress axis : x y z
#
# Youngs Moduli (GPa) = 194.46520 76.36613 66.46684
#
# Poissons Ratio (x) = 0.12274 0.11974
# Poissons Ratio (y) = 0.31254 -0.07322
# Poissons Ratio (z) = 0.35032 -0.08413
#
# Static dielectric constant tensor:
#      x y z
#    x 2.198060 0.000000 -0.109540 
#    y 0.000000 2.317480 0.000000 
#    z -0.109540 0.000000 2.229030 
# 
# From -- ./inp_files/209899.got.cif
#   From: 2010.05.17/outbox.cif.g08.bks.cpg/sg15_105_cif.got.tgz:209899.got - 2010.06.03 18:47:42.
