data_PCOD9254925
_publ_section_title
;
Structure prediction by ZEFSAII (Michael W. Deem and Ramdas Pophale) SiO2 
 PCOD9254925
Probable space group: C 2/C
;
_chemical_formula_sum "Si O2"
_cell_formula_units_Z 40
_cell_length_a 12.540218
_cell_length_b 34.054814
_cell_length_c 5.383920
_cell_angle_alpha 90.000000
_cell_angle_beta 65.911701
_cell_angle_gamma 90.000000
_cell_volume 2099.006348
_symmetry_space_group_name_H-M "C 2/C"
_symmetry_group_IT_number 15
_symmetry_cell_setting 'monoclinic'
loop_
_space_group_symop_operation_xyz
x,y,z
-x,y,1/2-z
-x,-y,-z
x,-y,1/2+z
1/2+x,1/2+y,z
1/2-x,1/2+y,1/2-z
1/2-x,1/2-y,-z
1/2+x,1/2-y,1/2+z
loop_
_atom_site_type_symbol
_atom_site_label
_atom_site_fract_x
_atom_site_fract_y
_atom_site_fract_z
Si Si1 0.701499 0.084610 0.114530
Si Si2 0.125092 0.455504 0.197089
Si Si3 0.844919 0.013557 0.997961
Si Si4 0.137974 0.720803 0.609071
Si Si5 0.865602 0.330458 0.886185
O O1 0.656494 0.072598 0.432351
O O2 0.819641 0.059099 0.976845
O O3 0.712315 0.130879 0.070037
O O4 0.625279 0.068599 0.954268
O O5 0.220842 0.489562 0.134490
O O6 0.000000 0.472868 0.250000
O O7 0.898823 0.006448 0.210658
O O8 0.250000 0.750000 0.500000
O O9 0.147558 0.697112 0.341504
O O10 0.000000 0.735737 0.750000
O O11 0.150923 0.693041 0.840694
O O12 0.000000 0.344926 0.750000
#
# Coordination Sequence:
#
# PCOD9254925 Si02
#       5
#     8   8   8   8   8
#     4  10  18  26  36  53  79 110 149 194 229 259
#     4  10  17  23  32  47  72 110 154 192 222 259
#     4   8  16  24  31  45  69 106 151 190 219 255
#     4  10  21  37  55  75  98 124 157 194 237 293
#     4  10  19  30  47  70  94 122 157 198 240 282
#
# _framework density 19.056635
#
# number of rings (size 3 to 8) (size 9 to 14) (size 15 to 20)
#    0.000    2.400    0.000    3.600    0.000    9.600 
#    0.000    0.000    0.000    0.000    0.000    0.000 
#    0.000    0.000    0.000    0.000    0.000  180.000 
#
# Total GULP energy -111397.906968 kJ/mol
# GULP energy per Si atom -5569.895348 kJ/mol
# Density = 1.901326 g / cm^3
# Si number density = 19.056635 Si / 1000 Ang^3
#
#
#
# Elastic Constant Matrix: (Units=GPa)
#
#
# Indices 1 2 3 4 5 6 
#
# 1 95.9467 41.7282 37.1761 0.0000 13.6211 0.0000
# 2 41.7282 86.5469 25.5089 0.0000 -0.0871 0.0000
# 3 37.1761 25.5089 94.0569 0.0000 35.4159 0.0000
# 4 0.0000 0.0000 0.0000 81.2261 0.0000 -208.7854
# 5 13.6211 -0.0871 35.4159 0.0000 42.0325 0.0000
# 6 0.0000 0.0000 0.0000 -208.7854 0.0000 804.1074
#
#
#
# Elastic Compliance Matrix: (Units=1/GPa)
#
#
# Indices 1 2 3 4 5 6 
#
# 1 0.014655 -0.006049 -0.003455 0.000000 -0.001850 0.000000
# 2 -0.006049 0.015594 -0.003791 0.000000 0.005187 0.000000
# 3 -0.003455 -0.003791 0.018465 0.000000 -0.014447 0.000000
# 4 0.000000 0.000000 0.000000 0.037016 0.000000 0.009611
# 5 -0.001850 0.005187 -0.014447 0.000000 0.036574 0.000000
# 6 0.000000 0.000000 0.000000 0.009611 0.000000 0.003739
#
#
# Mechanical properties :
#
#
# Convention : Reuss Voigt Hill
#
# Bulk Modulus (GPa) = 45.20194 53.93079 49.56637
# Shear Modulus (GPa) = 31.24830 196.94901 114.09865
#
# Velocity S-wave (km/s) = 4.05379 10.17712 7.74619
# Velocity P-wave (km/s) = 6.75886 12.90194 10.29908
#
# Compressibility (1/GPa) = 0.02212294
#
# Stress axis : x y z
#
# Youngs Moduli (GPa) = 68.23745 64.12841 54.15521
#
# Poissons Ratio (x) = 0.38793 0.18710
# Poissons Ratio (y) = 0.41279 0.20532
# Poissons Ratio (z) = 0.23575 0.24313
#
# Static dielectric constant tensor:
#      x y z
#    x 1.795500 0.000000 -0.079500 
#    y 0.000000 1.652490 0.000000 
#    z -0.079500 0.000000 1.777080 
# 
# From -- ./inp_files/5711.got.cif
#   From: 2010.05.17/outbox.cif.g08.bks.cpg/sg15_3_cif.got.tgz:5711.got - 2010.06.03 18:47:42.
