data_PCOD9254278
_publ_section_title
;
Structure prediction by ZEFSAII (Michael W. Deem and Ramdas Pophale) SiO2 
 PCOD9254278
Probable space group: C 2/C
;
_chemical_formula_sum "Si O2"
_cell_formula_units_Z 44
_cell_length_a 7.038807
_cell_length_b 12.530174
_cell_length_c 22.726340
_cell_angle_alpha 90.000000
_cell_angle_beta 62.044230
_cell_angle_gamma 90.000000
_cell_volume 1770.511204
_symmetry_space_group_name_H-M "C 2/C"
_symmetry_group_IT_number 15
_symmetry_cell_setting 'monoclinic'
loop_
_space_group_symop_operation_xyz
x,y,z
-x,y,1/2-z
-x,-y,-z
x,-y,1/2+z
1/2+x,1/2+y,z
1/2-x,1/2+y,1/2-z
1/2-x,1/2-y,-z
1/2+x,1/2-y,1/2+z
loop_
_atom_site_type_symbol
_atom_site_label
_atom_site_fract_x
_atom_site_fract_y
_atom_site_fract_z
Si Si1 0.315839 0.026862 0.153834
Si Si2 0.964099 0.159468 0.009467
Si Si3 0.347666 0.960154 0.470357
Si Si4 0.000000 0.248871 0.750000
Si Si5 0.616582 0.402666 0.788409
Si Si6 0.948092 0.757211 0.384900
O O1 0.247466 0.010135 0.231208
O O2 0.439008 0.140617 0.133823
O O3 0.090639 0.044860 0.151147
O O4 0.481991 0.941318 0.106329
O O5 0.185125 0.133125 0.009767
O O6 0.026614 0.187650 0.933304
O O7 0.806929 0.243781 0.063445
O O8 0.809864 0.055966 0.026476
O O9 0.500000 0.000000 0.500000
O O10 0.790485 0.325387 0.790320
O O11 0.003489 0.192997 0.813234
O O12 0.500000 0.341844 0.750000
#
# Coordination Sequence:
#
# PCOD9254278 Si02
#       6
#     8   8   8   4   8   8
#     4   7  15  31  49  77 105 128 191 228 280 323
#     4   9  20  35  50  78 120 138 186 239 289 337
#     4  10  19  33  52  78 105 156 181 227 280 354
#     4  10  16  28  56  78 102 142 180 224 304 330
#     4   7  15  28  46  79 100 129 172 243 261 337
#     4   9  17  34  53  82 107 145 185 242 290 342
#
# _framework density 24.851580999999999
#
# number of rings (size 3 to 8) (size 9 to 14) (size 15 to 20)
#    1.091    2.182    0.000    0.000    2.545    0.000 
#    3.273    2.727    0.000    2.182   14.182    0.000 
#    0.000    0.000    0.000    0.000    0.000    0.000 
#
# Total GULP energy -122495.852582 kJ/mol
# GULP energy per Si atom -5567.993299 kJ/mol
# Density = 2.479502 g / cm^3
# Si number density = 24.851581 Si / 1000 Ang^3
#
#
#
# Elastic Constant Matrix: (Units=GPa)
#
#
# Indices 1 2 3 4 5 6 
#
# 1 128.3869 24.0068 43.1580 0.0000 -26.3868 0.0000
# 2 24.0068 53.2343 13.6237 0.0000 -11.9094 0.0000
# 3 43.1580 13.6237 142.4608 0.0000 1.4081 0.0000
# 4 0.0000 0.0000 0.0000 16.8942 0.0000 -1.8939
# 5 -26.3868 -11.9094 1.4081 0.0000 31.7037 0.0000
# 6 0.0000 0.0000 0.0000 -1.8939 0.0000 21.3759
#
#
#
# Elastic Compliance Matrix: (Units=1/GPa)
#
#
# Indices 1 2 3 4 5 6 
#
# 1 0.011032 -0.002257 -0.003210 0.000000 0.008477 0.000000
# 2 -0.002257 0.021579 -0.001442 0.000000 0.006292 0.000000
# 3 -0.003210 -0.001442 0.008165 0.000000 -0.003576 0.000000
# 4 0.000000 0.000000 0.000000 0.059786 0.000000 0.005297
# 5 0.008477 0.006292 -0.003576 0.000000 0.041119 0.000000
# 6 0.000000 0.000000 0.000000 0.005297 0.000000 0.047251
#
#
# Mechanical properties :
#
#
# Convention : Reuss Voigt Hill
#
# Bulk Modulus (GPa) = 37.09457 53.96210 45.52833
# Shear Modulus (GPa) = 23.61411 30.21435 26.91423
#
# Velocity S-wave (km/s) = 3.08588 3.49060 3.29446
# Velocity P-wave (km/s) = 5.25887 6.16495 5.72985
#
# Compressibility (1/GPa) = 0.02695812
#
# Stress axis : x y z
#
# Youngs Moduli (GPa) = 90.64268 46.34051 122.47072
#
# Poissons Ratio (x) = 0.10460 0.39315
# Poissons Ratio (y) = 0.20460 0.17660
# Poissons Ratio (z) = 0.29097 0.06682
#
# Static dielectric constant tensor:
#      x y z
#    x 2.015190 0.000000 0.013010 
#    y 0.000000 2.036240 0.000000 
#    z 0.013010 0.000000 2.103640 
# 
# From -- ./inp_files/264907.got.cif
#   From: 2010.05.17/outbox.cif.g08.bks.cpg/sg15_133_cif.got.tgz:264907.got - 2010.06.03 18:47:42.
