data_PCOD9254064
_publ_section_title
;
Structure prediction by ZEFSAII (Michael W. Deem and Ramdas Pophale) SiO2 
 PCOD9254064
Probable space group: C 2/C
;
_chemical_formula_sum "Si O2"
_cell_formula_units_Z 44
_cell_length_a 27.072966
_cell_length_b 6.618765
_cell_length_c 13.020959
_cell_angle_alpha 90.000000
_cell_angle_beta 132.284596
_cell_angle_gamma 90.000000
_cell_volume 1726.144493
_symmetry_space_group_name_H-M "C 2/C"
_symmetry_group_IT_number 15
_symmetry_cell_setting 'monoclinic'
loop_
_space_group_symop_operation_xyz
x,y,z
-x,y,1/2-z
-x,-y,-z
x,-y,1/2+z
1/2+x,1/2+y,z
1/2-x,1/2+y,1/2-z
1/2-x,1/2-y,-z
1/2+x,1/2-y,1/2+z
loop_
_atom_site_type_symbol
_atom_site_label
_atom_site_fract_x
_atom_site_fract_y
_atom_site_fract_z
Si Si1 0.730478 0.684237 0.323405
Si Si2 0.205456 0.623377 0.294573
Si Si3 0.076345 0.547159 0.495762
Si Si4 0.413966 0.280940 0.801643
Si Si5 0.346575 0.084807 0.081595
Si Si6 0.500000 0.720361 0.250000
O O1 0.745652 0.707832 0.223199
O O2 0.654102 0.629609 0.243925
O O3 0.785919 0.538322 0.445662
O O4 0.739301 0.911961 0.375810
O O5 0.138045 0.564881 0.138844
O O6 0.181952 0.723174 0.367668
O O7 0.047113 0.693580 0.543188
O O8 0.107977 0.672195 0.445054
O O9 0.035607 0.371451 0.381979
O O10 0.453155 0.398837 0.766274
O O11 0.389746 0.084675 0.702278
#
# Coordination Sequence:
#
# PCOD9254064 Si02
#       6
#     8   8   8   8   8   4
#     4   9  16  28  43  64  89 111 137 174 210 254
#     4   9  16  27  43  64  90 113 137 171 210 253
#     4   8  15  25  38  61  87 108 139 177 208 245
#     4   9  16  25  38  60  85 110 143 177 205 247
#     4   8  14  26  44  62  84 113 139 167 211 260
#     4  10  16  24  40  58  84 120 144 170 214 246
#
# _framework density 25.490335999999999
#
# number of rings (size 3 to 8) (size 9 to 14) (size 15 to 20)
#    0.000    3.636    0.000    2.727    0.000    0.000 
#    0.000    8.182    0.000    0.000    0.000   20.364 
#    0.000   84.364    0.000   18.909    0.000    0.000 
#
# Total GULP energy -122510.980000 kJ/mol
# GULP energy per Si atom -5568.680909 kJ/mol
# Density = 2.543232 g / cm^3
# Si number density = 25.490336 Si / 1000 Ang^3
#
#
#
# Elastic Constant Matrix: (Units=GPa)
#
#
# Indices 1 2 3 4 5 6 
#
# 1 208.0505 -20.4111 44.4155 0.0000 -53.3538 0.0000
# 2 -20.4111 27.5763 20.9298 0.0000 -4.5729 0.0000
# 3 44.4155 20.9298 83.9514 0.0000 -28.7657 0.0000
# 4 0.0000 0.0000 0.0000 24.9306 0.0000 -6.1930
# 5 -53.3538 -4.5729 -28.7657 0.0000 42.8581 0.0000
# 6 0.0000 0.0000 0.0000 -6.1930 0.0000 12.3514
#
#
#
# Elastic Compliance Matrix: (Units=1/GPa)
#
#
# Indices 1 2 3 4 5 6 
#
# 1 0.009628 0.012377 -0.004701 0.000000 0.010150 0.000000
# 2 0.012377 0.061052 -0.018516 0.000000 0.009495 0.000000
# 3 -0.004701 -0.018516 0.021211 0.000000 0.006408 0.000000
# 4 0.000000 0.000000 0.000000 0.045818 0.000000 0.022973
# 5 0.010150 0.009495 0.006408 0.000000 0.041283 0.000000
# 6 0.000000 0.000000 0.000000 0.022973 0.000000 0.092481
#
#
# Mechanical properties :
#
#
# Convention : Reuss Voigt Hill
#
# Bulk Modulus (GPa) = 14.24276 45.49405 29.86841
# Shear Modulus (GPa) = 15.79503 34.33763 25.06633
#
# Velocity S-wave (km/s) = 2.49197 3.67425 3.13927
# Velocity P-wave (km/s) = 3.72553 5.99053 4.98829
#
# Compressibility (1/GPa) = 0.07021110
#
# Stress axis : x y z
#
# Youngs Moduli (GPa) = 103.86876 16.37952 47.14598
#
# Poissons Ratio (x) = -0.20274 0.22165
# Poissons Ratio (y) = -1.28562 0.87293
# Poissons Ratio (z) = 0.48832 0.30328
#
# Static dielectric constant tensor:
#      x y z
#    x 2.247280 0.000000 0.021100 
#    y 0.000000 2.132090 0.000000 
#    z 0.021100 0.000000 2.026800 
# 
# From -- ./inp_files/171056.got.cif
#   From: 2010.05.17/outbox.cif.g08.bks.cpg/sg15_86_cif.got.tgz:171056.got - 2010.06.03 18:47:42.
