data_PCOD9254750
_publ_section_title
;
Structure prediction by ZEFSAII (Michael W. Deem and Ramdas Pophale) SiO2 
 PCOD9254750
Probable space group: C 2/C
;
_chemical_formula_sum "Si O2"
_cell_formula_units_Z 56
_cell_length_a 14.266839
_cell_length_b 19.204740
_cell_length_c 11.930013
_cell_angle_alpha 90.000000
_cell_angle_beta 117.464240
_cell_angle_gamma 90.000000
_cell_volume 2900.327420
_symmetry_space_group_name_H-M "C 2/C"
_symmetry_group_IT_number 15
_symmetry_cell_setting 'monoclinic'
loop_
_space_group_symop_operation_xyz
x,y,z
-x,y,1/2-z
-x,-y,-z
x,-y,1/2+z
1/2+x,1/2+y,z
1/2-x,1/2+y,1/2-z
1/2-x,1/2-y,-z
1/2+x,1/2-y,1/2+z
loop_
_atom_site_type_symbol
_atom_site_label
_atom_site_fract_x
_atom_site_fract_y
_atom_site_fract_z
Si Si1 0.631148 0.237658 0.474233
Si Si2 0.872348 0.378131 0.176781
Si Si3 0.607047 0.351642 0.294662
Si Si4 0.467852 0.089049 0.111103
Si Si5 0.310372 0.891900 0.888009
Si Si6 0.764552 0.742251 0.738132
Si Si7 0.708918 0.958463 0.148663
O O1 0.750000 0.250000 0.500000
O O2 0.576542 0.301555 0.383307
O O3 0.587626 0.164546 0.407451
O O4 0.645373 0.240608 0.614810
O O5 0.817049 0.304322 0.172051
O O6 0.832538 0.428085 0.255829
O O7 0.000000 0.375060 0.250000
O O8 0.828423 0.396458 0.030677
O O9 0.500000 0.396855 0.250000
O O10 0.659510 0.297263 0.231268
O O11 0.703260 0.406232 0.351800
O O12 0.500000 0.059757 0.250000
O O13 0.574483 0.102977 0.103786
O O14 0.388683 0.044072 0.992527
O O15 0.261475 0.819634 0.817382
O O16 0.252279 0.962624 0.818097
#
# Coordination Sequence:
#
# PCOD9254750 Si02
#       7
#     8   8   8   8   8   8   8
#     4  10  16  34  58  87 121 145 191 259 300 347
#     4  11  22  42  60  83 126 165 201 248 308 365
#     4  10  20  38  64  86 122 160 201 258 311 351
#     4  12  22  36  62  97 123 156 201 249 323 365
#     4  12  25  36  62  88 123 168 204 245 310 372
#     4  10  21  38  59  89 119 159 209 251 297 361
#     4  11  25  40  57  93 129 158 202 260 302 366
#
# _framework density 19.308164999999999
#
# number of rings (size 3 to 8) (size 9 to 14) (size 15 to 20)
#    0.000    1.143    5.714    3.857    2.000    0.000 
#    0.000    0.714    0.000    4.286    0.000    0.000 
#    0.000    0.000    0.000    0.000    0.000    0.000 
#
# Total GULP energy -155965.067382 kJ/mol
# GULP energy per Si atom -5570.180978 kJ/mol
# Density = 1.926422 g / cm^3
# Si number density = 19.308165 Si / 1000 Ang^3
#
#
#
# Elastic Constant Matrix: (Units=GPa)
#
#
# Indices 1 2 3 4 5 6 
#
# 1 66.4921 27.5391 12.5792 0.0000 -6.3646 0.0000
# 2 27.5391 133.6858 8.2756 0.0000 0.3280 0.0000
# 3 12.5792 8.2756 63.7128 0.0000 -9.5599 0.0000
# 4 0.0000 0.0000 0.0000 4.3758 0.0000 7.2365
# 5 -6.3646 0.3280 -9.5599 0.0000 18.0158 0.0000
# 6 0.0000 0.0000 0.0000 7.2365 0.0000 8.9743
#
#
#
# Elastic Compliance Matrix: (Units=1/GPa)
#
#
# Indices 1 2 3 4 5 6 
#
# 1 0.017371 -0.003453 -0.002228 0.000000 0.005017 0.000000
# 2 -0.003453 0.008236 -0.000645 0.000000 -0.001712 0.000000
# 3 -0.002228 -0.000645 0.017496 0.000000 0.008508 0.000000
# 4 0.000000 0.000000 0.000000 -0.685174 0.000000 0.552500
# 5 0.005017 -0.001712 0.008508 0.000000 0.061826 0.000000
# 6 0.000000 0.000000 0.000000 0.552500 0.000000 -0.334086
#
#
# Mechanical properties :
#
#
# Convention : Reuss Voigt Hill
#
# Bulk Modulus (GPa) = 32.84014 40.07537 36.45775
# Shear Modulus (GPa) = -5.60834 20.63962 7.51564
#
# Velocity S-wave (km/s) = -1.70615 3.27304 1.97507
# Velocity P-wave (km/s) = 3.62823 5.92321 4.91164
#
# Compressibility (1/GPa) = 0.03045054
#
# Stress axis : x y z
#
# Youngs Moduli (GPa) = 57.56633 121.42377 57.15647
#
# Poissons Ratio (x) = 0.41925 0.12737
# Poissons Ratio (y) = 0.19877 0.03686
# Poissons Ratio (z) = 0.12828 0.07830
#
# Static dielectric constant tensor:
#      x y z
#    x 1.854320 0.000000 0.317820 
#    y 0.000000 1.777840 0.000000 
#    z 0.317820 0.000000 2.255710 
# 
# From -- ./inp_files/98401.got.cif
#   From: 2010.05.17/outbox.cif.g08.bks.cpg/sg15_50_cif.got.tgz:98401.got - 2010.06.03 18:47:42.
