data_PCOD9254864
_publ_section_title
;
Structure prediction by ZEFSAII (Michael W. Deem and Ramdas Pophale) SiO2 
 PCOD9254864
Probable space group: C 2/C
;
_chemical_formula_sum "Si O2"
_cell_formula_units_Z 52
_cell_length_a 17.389349
_cell_length_b 14.896587
_cell_length_c 7.930105
_cell_angle_alpha 90.000000
_cell_angle_beta 100.444025
_cell_angle_gamma 90.000000
_cell_volume 2020.196356
_symmetry_space_group_name_H-M "C 2/C"
_symmetry_group_IT_number 15
_symmetry_cell_setting 'monoclinic'
loop_
_space_group_symop_operation_xyz
x,y,z
-x,y,1/2-z
-x,-y,-z
x,-y,1/2+z
1/2+x,1/2+y,z
1/2-x,1/2+y,1/2-z
1/2-x,1/2-y,-z
1/2+x,1/2-y,1/2+z
loop_
_atom_site_type_symbol
_atom_site_label
_atom_site_fract_x
_atom_site_fract_y
_atom_site_fract_z
Si Si1 0.000000 0.141392 0.250000
Si Si2 0.415237 0.593385 0.897128
Si Si3 0.468191 0.096346 0.926266
Si Si4 0.354486 0.221297 0.734276
Si Si5 0.242203 0.632506 0.340881
Si Si6 0.183191 0.002067 0.884919
Si Si7 0.102629 0.296660 0.628216
O O1 0.925358 0.205580 0.253795
O O2 0.015621 0.094983 0.438127
O O3 0.399936 0.527636 0.735432
O O4 0.406851 0.693678 0.828475
O O5 0.339595 0.567435 0.978349
O O6 0.500000 0.102955 0.750000
O O7 0.381607 0.135400 0.855479
O O8 0.517416 0.164985 0.058299
O O9 0.500000 0.000000 0.000000
O O10 0.284775 0.276441 0.794207
O O11 0.349234 0.196477 0.532527
O O12 0.278427 0.591427 0.524825
O O13 0.262696 0.553237 0.217657
O O14 0.150583 0.649583 0.286244
#
# Coordination Sequence:
#
# PCOD9254864 Si02
#       7
#     4   8   8   8   8   8   8
#     4  10  16  36  64  78 112 162 190 234 294 364
#     4  10  20  39  58  85 121 157 194 249 292 364
#     4  10  21  41  62  88 117 155 204 253 295 360
#     4  10  18  38  62  84 118 159 201 235 307 365
#     4  11  22  39  61  90 120 164 196 250 302 367
#     4  10  23  38  55  91 125 146 205 247 295 357
#     4  10  20  38  67  82 120 163 200 242 310 357
#
# _framework density 25.740071
#
# number of rings (size 3 to 8) (size 9 to 14) (size 15 to 20)
#    0.000    1.846    6.923    0.462    0.000    3.692 
#    5.538    0.000    0.000    0.000    0.000    0.000 
#    0.000    0.000    0.000    0.000    0.000    0.000 
#
# Total GULP energy -145289.476858 kJ/mol
# GULP energy per Si atom -5588.056802 kJ/mol
# Density = 2.568149 g / cm^3
# Si number density = 25.740071 Si / 1000 Ang^3
#
#
#
# Elastic Constant Matrix: (Units=GPa)
#
#
# Indices 1 2 3 4 5 6 
#
# 1 35.5936 -4.5227 18.1820 0.0000 8.7856 0.0000
# 2 -4.5227 93.7308 26.8288 0.0000 4.3151 0.0000
# 3 18.1820 26.8288 103.1261 0.0000 14.0701 0.0000
# 4 0.0000 0.0000 0.0000 54.0301 0.0000 16.1678
# 5 8.7856 4.3151 14.0701 0.0000 37.8517 0.0000
# 6 0.0000 0.0000 0.0000 16.1678 0.0000 7.5081
#
#
#
# Elastic Compliance Matrix: (Units=1/GPa)
#
#
# Indices 1 2 3 4 5 6 
#
# 1 0.033036 0.003568 -0.005953 0.000000 -0.005862 0.000000
# 2 0.003568 0.011914 -0.003614 0.000000 -0.000843 0.000000
# 3 -0.005953 -0.003614 0.012053 0.000000 -0.002687 0.000000
# 4 0.000000 0.000000 0.000000 0.052043 0.000000 -0.112069
# 5 -0.005862 -0.000843 -0.002687 0.000000 0.028874 0.000000
# 6 0.000000 0.000000 0.000000 -0.112069 0.000000 0.374515
#
#
# Mechanical properties :
#
#
# Convention : Reuss Voigt Hill
#
# Bulk Modulus (GPa) = 22.21931 34.82521 28.52226
# Shear Modulus (GPa) = 9.26895 32.67548 20.97222
#
# Velocity S-wave (km/s) = 1.89968 3.56679 2.85751
# Velocity P-wave (km/s) = 3.66915 5.52463 4.68957
#
# Compressibility (1/GPa) = 0.04500590
#
# Stress axis : x y z
#
# Youngs Moduli (GPa) = 30.26994 83.93398 82.96646
#
# Poissons Ratio (x) = -0.29946 0.49390
# Poissons Ratio (y) = -0.10800 0.29980
# Poissons Ratio (z) = 0.18020 0.30330
#
# Static dielectric constant tensor:
#      x y z
#    x 2.027900 0.000000 -0.007660 
#    y 0.000000 2.131030 0.000000 
#    z -0.007660 0.000000 2.084340 
# 
# From -- ./inp_files/61679.got.cif
#   From: 2010.05.17/outbox.cif.g08.bks.cpg/sg15_31_cif.got.tgz:61679.got - 2010.06.03 18:47:42.
