data_PCOD9254547
_publ_section_title
;
Structure prediction by ZEFSAII (Michael W. Deem and Ramdas Pophale) SiO2 
 PCOD9254547
Probable space group: C 2/C
;
_chemical_formula_sum "Si O2"
_cell_formula_units_Z 56
_cell_length_a 9.051723
_cell_length_b 22.665800
_cell_length_c 15.627011
_cell_angle_alpha 90.000000
_cell_angle_beta 133.907568
_cell_angle_gamma 90.000000
_cell_volume 2309.871432
_symmetry_space_group_name_H-M "C 2/C"
_symmetry_group_IT_number 15
_symmetry_cell_setting 'monoclinic'
loop_
_space_group_symop_operation_xyz
x,y,z
-x,y,1/2-z
-x,-y,-z
x,-y,1/2+z
1/2+x,1/2+y,z
1/2-x,1/2+y,1/2-z
1/2-x,1/2-y,-z
1/2+x,1/2-y,1/2+z
loop_
_atom_site_type_symbol
_atom_site_label
_atom_site_fract_x
_atom_site_fract_y
_atom_site_fract_z
Si Si1 0.564232 0.717249 0.094293
Si Si2 0.825383 0.692012 0.742943
Si Si3 0.897306 0.080923 0.910532
Si Si4 0.760326 0.594168 0.154871
Si Si5 0.743506 0.505623 0.293131
Si Si6 0.858960 0.668958 0.492626
Si Si7 0.195576 0.541614 0.009811
O O1 0.725850 0.752317 0.219790
O O2 0.689323 0.661251 0.115425
O O3 0.464765 0.770948 0.997534
O O4 0.363078 0.691163 0.063073
O O5 0.662193 0.649138 0.634704
O O6 0.000000 0.715728 0.750000
O O7 0.974143 0.655045 0.865670
O O8 0.819488 0.045275 0.798565
O O9 0.791814 0.063157 0.958393
O O10 0.133700 0.066269 0.025519
O O11 0.695403 0.564339 0.218220
O O12 0.000000 0.586925 0.250000
O O13 0.988828 0.493065 0.403429
O O14 0.321267 0.505773 0.132842
O O15 0.837587 0.603365 0.448752
#
# Coordination Sequence:
#
# PCOD9254547 Si02
#       7
#     8   8   8   8   8   8   8
#     4   9  19  35  63 105 137 170 225 282 349 417
#     4  10  16  31  67 103 133 171 217 281 351 413
#     4  12  21  44  71  97 140 194 233 288 360 413
#     4  12  26  45  64  95 138 194 240 290 345 417
#     4  11  25  40  67 107 142 177 231 296 353 431
#     4   9  17  36  65 106 138 165 219 291 349 413
#     4  11  21  41  72 107 139 176 232 294 361 424
#
# _framework density 24.243772
#
# number of rings (size 3 to 8) (size 9 to 14) (size 15 to 20)
#    0.857    0.571    4.286    1.714    0.000    1.714 
#    0.000    2.143    0.000    0.000    7.429    0.000 
#    0.000    0.000    0.000    0.000    0.000    0.000 
#
# Total GULP energy -155880.051368 kJ/mol
# GULP energy per Si atom -5567.144692 kJ/mol
# Density = 2.418859 g / cm^3
# Si number density = 24.243772 Si / 1000 Ang^3
#
#
#
# Elastic Constant Matrix: (Units=GPa)
#
#
# Indices 1 2 3 4 5 6 
#
# 1 57.2298 21.1194 40.4679 0.0000 -13.1072 0.0000
# 2 21.1194 102.8980 29.3353 0.0000 -19.8587 0.0000
# 3 40.4679 29.3353 182.0107 0.0000 -29.6256 0.0000
# 4 0.0000 0.0000 0.0000 39.9361 0.0000 1.4774
# 5 -13.1072 -19.8587 -29.6256 0.0000 33.7791 0.0000
# 6 0.0000 0.0000 0.0000 1.4774 0.0000 26.2475
#
#
#
# Elastic Compliance Matrix: (Units=1/GPa)
#
#
# Indices 1 2 3 4 5 6 
#
# 1 0.022039 -0.002733 -0.003883 0.000000 0.003539 0.000000
# 2 -0.002733 0.011412 -0.000364 0.000000 0.005329 0.000000
# 3 -0.003883 -0.000364 0.007158 0.000000 0.004557 0.000000
# 4 0.000000 0.000000 0.000000 0.025092 0.000000 -0.001412
# 5 0.003539 0.005329 0.004557 0.000000 0.038107 0.000000
# 6 0.000000 0.000000 0.000000 -0.001412 0.000000 0.038178
#
#
# Mechanical properties :
#
#
# Convention : Reuss Voigt Hill
#
# Bulk Modulus (GPa) = 37.52843 58.22042 47.87442
# Shear Modulus (GPa) = 30.33436 36.74027 33.53732
#
# Velocity S-wave (km/s) = 3.54110 3.89710 3.72336
# Velocity P-wave (km/s) = 5.67736 6.65707 6.18664
#
# Compressibility (1/GPa) = 0.02664646
#
# Stress axis : x y z
#
# Youngs Moduli (GPa) = 45.37498 87.62993 139.70301
#
# Poissons Ratio (x) = 0.23951 0.54254
# Poissons Ratio (y) = 0.12402 0.05087
# Poissons Ratio (z) = 0.17621 0.03191
#
# Static dielectric constant tensor:
#      x y z
#    x 2.013560 0.000000 -0.010540 
#    y 0.000000 2.017780 0.000000 
#    z -0.010540 0.000000 1.987060 
# 
# From -- ./inp_files/271168.got.cif
#   From: 2010.05.17/outbox.cif.g08.bks.cpg/sg15_136_cif.got.tgz:271168.got - 2010.06.03 18:47:42.
