data_PCOD9254056
_publ_section_title
;
Structure prediction by ZEFSAII (Michael W. Deem and Ramdas Pophale) SiO2 
 PCOD9254056
Probable space group: C 2/C
;
_chemical_formula_sum "Si O2"
_cell_formula_units_Z 48
_cell_length_a 13.478459
_cell_length_b 8.116712
_cell_length_c 17.220687
_cell_angle_alpha 90.000000
_cell_angle_beta 60.602212
_cell_angle_gamma 90.000000
_cell_volume 1641.364553
_symmetry_space_group_name_H-M "C 2/C"
_symmetry_group_IT_number 15
_symmetry_cell_setting 'monoclinic'
loop_
_space_group_symop_operation_xyz
x,y,z
-x,y,1/2-z
-x,-y,-z
x,-y,1/2+z
1/2+x,1/2+y,z
1/2-x,1/2+y,1/2-z
1/2-x,1/2-y,-z
1/2+x,1/2-y,1/2+z
loop_
_atom_site_type_symbol
_atom_site_label
_atom_site_fract_x
_atom_site_fract_y
_atom_site_fract_z
Si Si1 0.674867 0.351213 0.339760
Si Si2 0.291536 0.909594 0.920346
Si Si3 0.887054 0.392557 0.174503
Si Si4 0.082450 0.026070 0.583189
Si Si5 0.409192 0.839149 0.496612
Si Si6 0.500000 0.362789 0.750000
Si Si7 0.000000 0.357639 0.750000
O O1 0.744600 0.477405 0.367307
O O2 0.753578 0.354759 0.233055
O O3 0.546996 0.412810 0.375501
O O4 0.655731 0.182985 0.396440
O O5 0.346526 0.037851 0.961524
O O6 0.391306 0.800731 0.842891
O O7 0.173401 0.856213 0.006303
O O8 0.937939 0.247371 0.210366
O O9 0.935388 0.545355 0.205599
O O10 0.955776 0.378978 0.066951
O O11 0.096272 0.850066 0.532801
O O12 0.091022 0.968656 0.668553
#
# Coordination Sequence:
#
# PCOD9254056 Si02
#       7
#     8   8   8   8   8   4   4
#     4  10  16  23  36  62  89 110 139 182 218 246
#     4   9  14  23  37  58  87 118 142 166 208 265
#     4   8  14  24  38  56  83 115 144 168 204 256
#     4  10  17  23  37  60  88 115 139 179 220 248
#     4   9  15  24  39  59  86 120 143 165 210 268
#     4   9  16  28  40  58  86 121 148 167 208 264
#     4   7  12  20  34  54  78 109 140 163 192 246
#
# _framework density 29.243962
#
# number of rings (size 3 to 8) (size 9 to 14) (size 15 to 20)
#    0.000    3.000    0.000    8.000    0.000    0.000 
#    0.000    0.000    0.000    0.000    0.000   32.667 
#    0.000   37.333    0.000    0.000    0.000    0.000 
#
# Total GULP energy -134197.763785 kJ/mol
# GULP energy per Si atom -5591.573491 kJ/mol
# Density = 2.917740 g / cm^3
# Si number density = 29.243962 Si / 1000 Ang^3
#
#
#
# Elastic Constant Matrix: (Units=GPa)
#
#
# Indices 1 2 3 4 5 6 
#
# 1 150.2278 28.1848 64.7205 0.0000 -19.9412 0.0000
# 2 28.1848 64.6273 14.5563 0.0000 -9.3248 0.0000
# 3 64.7205 14.5563 255.4650 0.0000 -51.2937 0.0000
# 4 0.0000 0.0000 0.0000 35.2665 0.0000 -1.5380
# 5 -19.9412 -9.3248 -51.2937 0.0000 59.4790 0.0000
# 6 0.0000 0.0000 0.0000 -1.5380 0.0000 43.3964
#
#
#
# Elastic Compliance Matrix: (Units=1/GPa)
#
#
# Indices 1 2 3 4 5 6 
#
# 1 0.008064 -0.003022 -0.001721 0.000000 0.000746 0.000000
# 2 -0.003022 0.017014 0.000155 0.000000 0.001788 0.000000
# 3 -0.001721 0.000155 0.005117 0.000000 0.003860 0.000000
# 4 0.000000 0.000000 0.000000 0.028399 0.000000 0.001006
# 5 0.000746 0.001788 0.003860 0.000000 0.020672 0.000000
# 6 0.000000 0.000000 0.000000 0.001006 0.000000 0.023079
#
#
# Mechanical properties :
#
#
# Convention : Reuss Voigt Hill
#
# Bulk Modulus (GPa) = 47.57481 76.13815 61.85648
# Shear Modulus (GPa) = 42.18474 51.81893 47.00183
#
# Velocity S-wave (km/s) = 3.80216 4.21402 4.01338
# Velocity P-wave (km/s) = 5.96480 7.05474 6.53254
#
# Compressibility (1/GPa) = 0.02101953
#
# Stress axis : x y z
#
# Youngs Moduli (GPa) = 124.00997 58.77468 195.44214
#
# Poissons Ratio (x) = 0.17759 0.33637
# Poissons Ratio (y) = 0.37470 -0.03030
# Poissons Ratio (z) = 0.21343 -0.00911
#
# Static dielectric constant tensor:
#      x y z
#    x 2.252770 0.000000 0.029550 
#    y 0.000000 2.465160 0.000000 
#    z 0.029550 0.000000 2.425340 
# 
# From -- ./inp_files/196159.got.cif
#   From: 2010.05.17/outbox.cif.g08.bks.cpg/sg15_99_cif.got.tgz:196159.got - 2010.06.03 18:47:42.
