data_PCOD9254677
_publ_section_title
;
Structure prediction by ZEFSAII (Michael W. Deem and Ramdas Pophale) SiO2 
 PCOD9254677
Probable space group: C 2/C
;
_chemical_formula_sum "Si O2"
_cell_formula_units_Z 40
_cell_length_a 12.488672
_cell_length_b 25.295623
_cell_length_c 12.088123
_cell_angle_alpha 90.000000
_cell_angle_beta 27.126123
_cell_angle_gamma 90.000000
_cell_volume 1741.158999
_symmetry_space_group_name_H-M "C 2/C"
_symmetry_group_IT_number 15
_symmetry_cell_setting 'monoclinic'
loop_
_space_group_symop_operation_xyz
x,y,z
-x,y,1/2-z
-x,-y,-z
x,-y,1/2+z
1/2+x,1/2+y,z
1/2-x,1/2+y,1/2-z
1/2-x,1/2-y,-z
1/2+x,1/2-y,1/2+z
loop_
_atom_site_type_symbol
_atom_site_label
_atom_site_fract_x
_atom_site_fract_y
_atom_site_fract_z
Si Si1 0.500000 0.340536 0.250000
Si Si2 0.000000 0.506304 0.750000
Si Si3 0.397908 0.564383 0.996352
Si Si4 0.737843 0.688189 0.968970
Si Si5 0.777841 0.220612 0.761762
Si Si6 0.657978 0.460819 0.710798
O O1 0.395332 0.380581 0.436574
O O2 0.673167 0.306229 0.165012
O O3 0.190219 0.469355 0.632964
O O4 0.083946 0.542754 0.573128
O O5 0.381458 0.570368 0.142125
O O6 0.614647 0.523681 0.776818
O O7 0.719209 0.685972 0.853060
O O8 0.000000 0.665989 0.750000
O O9 0.500000 0.668121 0.250000
O O10 0.750000 0.750000 0.000000
O O11 0.014354 0.255528 0.518237
O O12 0.500000 0.448220 0.750000
#
# Coordination Sequence:
#
# PCOD9254677 Si02
#       6
#     4   4   8   8   8   8
#     4  12  26  42  59  92 132 172 214 273 324 386
#     4  10  16  32  63  96 114 164 212 249 310 388
#     4  10  20  38  56  91 123 165 203 257 317 377
#     4  10  16  34  67  94 115 154 216 268 318 390
#     4  12  24  43  67  96 130 177 224 270 332 393
#     4   9  18  35  64  86 122 160 209 252 313 389
#
# _framework density 22.973205
#
# number of rings (size 3 to 8) (size 9 to 14) (size 15 to 20)
#    0.000    1.600    7.000    1.200    0.000    1.600 
#    0.000    1.000    0.000    0.000    5.200    0.000 
#    0.000    0.000    0.000    0.000    0.000    0.000 
#
# Total GULP energy -111438.716412 kJ/mol
# GULP energy per Si atom -5571.935821 kJ/mol
# Density = 2.292092 g / cm^3
# Si number density = 22.973205 Si / 1000 Ang^3
#
#
#
# Elastic Constant Matrix: (Units=GPa)
#
#
# Indices 1 2 3 4 5 6 
#
# 1 155.4684 3.1723 32.1861 -0.0014 27.1456 -0.0021
# 2 3.1723 26.0358 13.6835 -0.0004 0.1318 -0.0013
# 3 32.1861 13.6835 123.5348 -0.0044 4.8932 -0.0004
# 4 -0.0014 -0.0004 -0.0044 7.1440 0.0002 11.9218
# 5 27.1456 0.1318 4.8932 0.0002 40.9072 -0.0003
# 6 -0.0021 -0.0013 -0.0004 11.9218 -0.0003 2.6784
#
#
#
# Elastic Compliance Matrix: (Units=1/GPa)
#
#
# Indices 1 2 3 4 5 6 
#
# 1 0.007654 0.000041 -0.001806 0.000001 -0.004863 0.000000
# 2 0.000041 0.040790 -0.004544 0.000005 0.000385 -0.000003
# 3 -0.001806 -0.004544 0.009064 -0.000001 0.000129 0.000004
# 4 0.000001 0.000005 -0.000001 -0.021777 0.000000 0.096930
# 5 -0.004863 0.000385 0.000129 0.000000 0.027656 -0.000001
# 6 0.000000 -0.000003 0.000004 0.096930 -0.000001 -0.058084
#
#
# Mechanical properties :
#
#
# Convention : Reuss Voigt Hill
#
# Bulk Modulus (GPa) = 22.27674 44.79143 33.53409
# Shear Modulus (GPa) = 152.04370 27.21239 89.62804
#
# Velocity S-wave (km/s) = 8.14412 3.44543 6.25291
# Velocity P-wave (km/s) = 9.90725 5.94706 8.17071
#
# Compressibility (1/GPa) = 0.04488987
#
# Stress axis : x y z
#
# Youngs Moduli (GPa) = 130.64268 24.51584 110.33002
#
# Poissons Ratio (x) = -0.00101 0.19928
# Poissons Ratio (y) = -0.00539 0.50136
# Poissons Ratio (z) = 0.23597 0.11140
#
# Static dielectric constant tensor:
#      x y z
#    x 1.815990 0.000000 0.002870 
#    y 0.000000 1.939480 0.000000 
#    z 0.002870 0.000000 1.975360 
# 
# From -- ./inp_files/92212.got.cif
#   From: 2010.05.17/outbox.cif.g08.bks.cpg/sg15_47_cif.got.tgz:92212.got - 2010.06.03 18:47:42.
