data_PCOD9254081
_publ_section_title
;
Structure prediction by ZEFSAII (Michael W. Deem and Ramdas Pophale) SiO2 
 PCOD9254081
Probable space group: C 2/C
;
_chemical_formula_sum "Si O2"
_cell_formula_units_Z 56
_cell_length_a 5.623075
_cell_length_b 19.139681
_cell_length_c 22.123697
_cell_angle_alpha 90.000000
_cell_angle_beta 120.552762
_cell_angle_gamma 90.000000
_cell_volume 2050.457808
_symmetry_space_group_name_H-M "C 2/C"
_symmetry_group_IT_number 15
_symmetry_cell_setting 'monoclinic'
loop_
_space_group_symop_operation_xyz
x,y,z
-x,y,1/2-z
-x,-y,-z
x,-y,1/2+z
1/2+x,1/2+y,z
1/2-x,1/2+y,1/2-z
1/2-x,1/2-y,-z
1/2+x,1/2-y,1/2+z
loop_
_atom_site_type_symbol
_atom_site_label
_atom_site_fract_x
_atom_site_fract_y
_atom_site_fract_z
Si Si1 0.068631 0.507586 0.659315
Si Si2 0.919633 0.233849 0.584816
Si Si3 0.829522 0.346288 0.789761
Si Si4 0.590145 0.381495 0.920073
Si Si5 0.791082 0.427493 0.520541
Si Si6 0.585451 0.227735 0.917725
Si Si7 0.531153 0.471173 0.140576
O O1 0.899791 0.492275 0.574895
O O2 0.851121 0.545528 0.674240
O O3 0.132473 0.429159 0.691236
O O4 0.345842 0.545528 0.674240
O O5 0.750000 0.250000 0.500000
O O6 0.700418 0.194654 0.599011
O O7 0.026955 0.299465 0.638478
O O8 0.195627 0.194654 0.599011
O O9 0.500000 0.331698 0.750000
O O10 0.000000 0.331699 0.750000
O O11 0.428291 0.390427 0.962660
O O12 0.922347 0.390427 0.962660
O O13 0.522694 0.305635 0.886347
O O14 0.478264 0.443614 0.864133
O O15 0.631086 0.449360 0.440543
O O16 0.750000 0.250000 0.000000
#
# Coordination Sequence:
#
# PCOD9254081 Si02
#       7
#     8   8   8   8   8   8   8
#     4  10  18  30  46  65 100 142 173 208 262 319
#     4  10  20  36  55  74 100 143 194 241 288 341
#     4  12  24  37  53  79 113 155 196 231 282 365
#     4  10  16  25  39  62  97 130 162 206 266 324
#     4  10  18  27  45  70  96 134 174 210 259 313
#     4  10  19  31  50  74 100 141 186 229 283 349
#     4  10  17  28  46  70  96 133 175 213 257 311
#
# _framework density 27.310976
#
# number of rings (size 3 to 8) (size 9 to 14) (size 15 to 20)
#    0.000    1.714    0.000   10.286    0.000    0.000 
#    0.000    0.000    0.000    0.000    0.000    0.000 
#    0.000    0.000    0.000  894.857    0.000    0.000 
#
# Total GULP energy -156592.610793 kJ/mol
# GULP energy per Si atom -5592.593243 kJ/mol
# Density = 2.724882 g / cm^3
# Si number density = 27.310976 Si / 1000 Ang^3
#
#
#
# Elastic Constant Matrix: (Units=GPa)
#
#
# Indices 1 2 3 4 5 6 
#
# 1 389.5184 23.9382 76.2861 0.0000 -10.3138 0.0000
# 2 23.9382 60.7877 25.4250 0.0000 0.0578 0.0000
# 3 76.2861 25.4250 165.9983 0.0000 1.5937 0.0000
# 4 0.0000 0.0000 0.0000 26.7914 0.0000 0.8176
# 5 -10.3138 0.0578 1.5937 0.0000 24.8769 0.0000
# 6 0.0000 0.0000 0.0000 0.8176 0.0000 5.8302
#
#
#
# Elastic Compliance Matrix: (Units=1/GPa)
#
#
# Indices 1 2 3 4 5 6 
#
# 1 0.002882 -0.000617 -0.001242 0.000000 0.001276 0.000000
# 2 -0.000617 0.017709 -0.002428 0.000000 -0.000141 0.000000
# 3 -0.001242 -0.002428 0.006976 0.000000 -0.000956 0.000000
# 4 0.000000 0.000000 0.000000 0.037486 0.000000 -0.005257
# 5 0.001276 -0.000141 -0.000956 0.000000 0.040789 0.000000
# 6 0.000000 0.000000 0.000000 -0.005257 0.000000 0.172257
#
#
# Mechanical properties :
#
#
# Convention : Reuss Voigt Hill
#
# Bulk Modulus (GPa) = 52.64791 96.40034 74.52412
# Shear Modulus (GPa) = 17.06464 44.21005 30.63734
#
# Velocity S-wave (km/s) = 2.50237 4.02775 3.35296
# Velocity P-wave (km/s) = 5.26005 7.55012 6.50663
#
# Compressibility (1/GPa) = 0.01899411
#
# Stress axis : x y z
#
# Youngs Moduli (GPa) = 346.94866 56.46836 143.34621
#
# Poissons Ratio (x) = 0.03482 0.17809
# Poissons Ratio (y) = 0.21393 0.34800
# Poissons Ratio (z) = 0.43104 0.13709
#
# Static dielectric constant tensor:
#      x y z
#    x 2.241080 0.000000 -0.001830 
#    y 0.000000 2.159190 0.000000 
#    z -0.001830 0.000000 2.194010 
# 
# From -- ./inp_files/228325.got.cif
#   From: 2010.05.17/outbox.cif.g08.bks.cpg/sg15_115_cif.got.tgz:228325.got - 2010.06.03 18:47:42.
