data_PCOD9254803
_publ_section_title
;
Structure prediction by ZEFSAII (Michael W. Deem and Ramdas Pophale) SiO2 
 PCOD9254803
Probable space group: C 2/C
;
_chemical_formula_sum "Si O2"
_cell_formula_units_Z 52
_cell_length_a 20.269162
_cell_length_b 22.389872
_cell_length_c 11.177072
_cell_angle_alpha 90.000000
_cell_angle_beta 148.337298
_cell_angle_gamma 90.000000
_cell_volume 2662.604476
_symmetry_space_group_name_H-M "C 2/C"
_symmetry_group_IT_number 15
_symmetry_cell_setting 'monoclinic'
loop_
_space_group_symop_operation_xyz
x,y,z
-x,y,1/2-z
-x,-y,-z
x,-y,1/2+z
1/2+x,1/2+y,z
1/2-x,1/2+y,1/2-z
1/2-x,1/2-y,-z
1/2+x,1/2-y,1/2+z
loop_
_atom_site_type_symbol
_atom_site_label
_atom_site_fract_x
_atom_site_fract_y
_atom_site_fract_z
Si Si1 0.865327 0.779995 0.483056
Si Si2 0.023761 0.542662 0.150553
Si Si3 0.229601 0.373236 0.883301
Si Si4 0.000000 0.178737 0.750000
Si Si5 0.654089 0.137400 0.740779
Si Si6 0.951299 0.267153 0.878600
Si Si7 0.850598 0.644633 0.509326
O O1 0.775090 0.833790 0.370882
O O2 0.885678 0.773940 0.374174
O O3 0.815248 0.715154 0.450568
O O4 0.000000 0.788951 0.750000
O O5 0.162817 0.572078 0.349401
O O6 0.000000 0.520267 0.250000
O O7 0.000000 0.500000 0.000000
O O8 0.919945 0.593696 0.961492
O O9 0.156926 0.314719 0.824497
O O10 0.189669 0.380250 0.681363
O O11 0.378078 0.359551 0.101521
O O12 0.980765 0.225860 0.612558
O O13 0.555485 0.192093 0.604082
O O14 0.691692 0.115059 0.931423
O O15 0.000000 0.639906 0.750000
#
# Coordination Sequence:
#
# PCOD9254803 Si02
#       7
#     8   8   8   4   8   8   8
#     4  10  19  30  50  88 126 163 199 231 285 365
#     4  11  27  46  70  90 110 154 216 281 323 362
#     4  10  23  38  61  89 126 167 207 248 311 369
#     4  12  24  34  56  90 140 172 190 238 306 396
#     4  11  21  35  61  84 124 157 204 256 300 359
#     4  10  20  33  53  85 129 170 201 232 286 368
#     4  10  16  35  56  86 121 162 199 235 285 358
#
# _framework density 19.52975
#
# number of rings (size 3 to 8) (size 9 to 14) (size 15 to 20)
#    0.000    1.538    6.154    2.769   10.769    0.000 
#    0.000    0.000    1.692    0.923    0.000    0.000 
#    0.000    0.000    0.000    0.000    0.000    0.000 
#
# Total GULP energy -144886.047688 kJ/mol
# GULP energy per Si atom -5572.540296 kJ/mol
# Density = 1.948530 g / cm^3
# Si number density = 19.529750 Si / 1000 Ang^3
#
#
#
# Elastic Constant Matrix: (Units=GPa)
#
#
# Indices 1 2 3 4 5 6 
#
# 1 84.4003 39.3006 27.1198 0.0000 -6.8706 0.0000
# 2 39.3006 26.0930 12.1504 0.0000 7.8378 0.0000
# 3 27.1198 12.1504 61.0226 0.0000 9.6557 0.0000
# 4 0.0000 0.0000 0.0000 13.5600 0.0000 -14.1495
# 5 -6.8706 7.8378 9.6557 0.0000 40.2465 0.0000
# 6 0.0000 0.0000 0.0000 -14.1495 0.0000 65.7968
#
#
#
# Elastic Compliance Matrix: (Units=1/GPa)
#
#
# Indices 1 2 3 4 5 6 
#
# 1 0.074337 -0.116243 -0.016093 0.000000 0.039189 0.000000
# 2 -0.116243 0.225688 0.017481 0.000000 -0.067990 0.000000
# 3 -0.016093 0.017481 0.021862 0.000000 -0.011397 0.000000
# 4 0.000000 0.000000 0.000000 0.095082 0.000000 0.020447
# 5 0.039189 -0.067990 -0.011397 0.000000 0.047512 0.000000
# 6 0.000000 0.000000 0.000000 0.020447 0.000000 0.019595
#
#
# Mechanical properties :
#
#
# Convention : Reuss Voigt Hill
#
# Bulk Modulus (GPa) = 10.84837 36.51751 23.68294
# Shear Modulus (GPa) = 6.71581 30.11700 18.41641
#
# Velocity S-wave (km/s) = 1.85640 3.93123 3.07415
# Velocity P-wave (km/s) = 3.18776 6.27257 4.97528
#
# Compressibility (1/GPa) = 0.09217976
#
# Stress axis : x y z
#
# Youngs Moduli (GPa) = 13.45220 4.43089 45.74190
#
# Poissons Ratio (x) = 0.51506 0.73610
# Poissons Ratio (y) = 1.56372 -0.79963
# Poissons Ratio (z) = 0.21648 -0.07746
#
# Static dielectric constant tensor:
#      x y z
#    x 1.755740 0.000000 -0.016100 
#    y 0.000000 1.717250 0.000000 
#    z -0.016100 0.000000 1.720800 
# 
# From -- ./inp_files/114398.got.cif
#   From: 2010.05.17/outbox.cif.g08.bks.cpg/sg15_58_cif.got.tgz:114398.got - 2010.06.03 18:47:42.
