data_PCOD9254191
_publ_section_title
;
Structure prediction by ZEFSAII (Michael W. Deem and Ramdas Pophale) SiO2 
 PCOD9254191
Probable space group: C 2/C
;
_chemical_formula_sum "Si O2"
_cell_formula_units_Z 52
_cell_length_a 7.097710
_cell_length_b 28.313967
_cell_length_c 13.579331
_cell_angle_alpha 90.000000
_cell_angle_beta 124.350349
_cell_angle_gamma 90.000000
_cell_volume 2253.037863
_symmetry_space_group_name_H-M "C 2/C"
_symmetry_group_IT_number 15
_symmetry_cell_setting 'monoclinic'
loop_
_space_group_symop_operation_xyz
x,y,z
-x,y,1/2-z
-x,-y,-z
x,-y,1/2+z
1/2+x,1/2+y,z
1/2-x,1/2+y,1/2-z
1/2-x,1/2-y,-z
1/2+x,1/2-y,1/2+z
loop_
_atom_site_type_symbol
_atom_site_label
_atom_site_fract_x
_atom_site_fract_y
_atom_site_fract_z
Si Si1 0.893512 0.043470 0.028302
Si Si2 0.662538 0.184201 0.134013
Si Si3 0.556693 0.648198 0.107489
Si Si4 0.904625 0.572125 0.822831
Si Si5 0.500000 0.506269 0.750000
Si Si6 0.863704 0.329109 0.371444
Si Si7 0.693189 0.295444 0.124840
O O1 0.025716 0.094045 0.059623
O O2 0.889862 0.027811 0.139280
O O3 0.630082 0.046304 0.922927
O O4 0.000000 0.000000 0.000000
O O5 0.724114 0.162454 0.260175
O O6 0.717958 0.239670 0.148208
O O7 0.841360 0.156221 0.117338
O O8 0.424520 0.184639 0.001837
O O9 0.509555 0.684827 0.004396
O O10 0.688986 0.538534 0.752930
O O11 0.843990 0.614832 0.874630
O O12 0.000000 0.594431 0.750000
O O13 0.680449 0.315443 0.232426
O O14 0.087666 0.311621 0.375403
#
# Coordination Sequence:
#
# PCOD9254191 Si02
#       7
#     8   8   8   8   4   8   8
#     4  12  24  42  65  92 134 181 221 276 339 388
#     4  10  17  27  49  86 133 157 211 270 326 389
#     4  10  18  31  50  81 129 167 204 271 322 386
#     4  12  22  45  63  93 131 167 220 283 328 398
#     4  12  28  40  72  92 122 180 230 268 342 394
#     4  10  17  29  53  80 127 161 201 273 321 376
#     4  10  16  27  50  84 123 171 206 257 328 402
#
# _framework density 23.079947000000001
#
# number of rings (size 3 to 8) (size 9 to 14) (size 15 to 20)
#    0.000    1.231    6.154    6.000    0.000    0.000 
#    0.000    0.000    0.000    0.000    0.000    1.077 
#    0.000    0.000    0.000    0.000    0.000    0.000 
#
# Total GULP energy -144825.453632 kJ/mol
# GULP energy per Si atom -5570.209755 kJ/mol
# Density = 2.302742 g / cm^3
# Si number density = 23.079947 Si / 1000 Ang^3
#
#
#
# Elastic Constant Matrix: (Units=GPa)
#
#
# Indices 1 2 3 4 5 6 
#
# 1 34.8314 11.7338 30.9418 0.0000 -17.3444 0.0000
# 2 11.7338 125.9441 22.1473 0.0000 9.5224 0.0000
# 3 30.9418 22.1473 153.5401 0.0000 5.4392 0.0000
# 4 0.0000 0.0000 0.0000 50.2647 0.0000 10.4696
# 5 -17.3444 9.5224 5.4392 0.0000 -7.2899 0.0000
# 6 0.0000 0.0000 0.0000 10.4696 0.0000 18.6129
#
#
#
# Elastic Compliance Matrix: (Units=1/GPa)
#
#
# Indices 1 2 3 4 5 6 
#
# 1 0.013791 0.001480 -0.001850 0.000000 -0.032259 0.000000
# 2 0.001480 0.007680 -0.001595 0.000000 0.005322 0.000000
# 3 -0.001850 -0.001595 0.006852 0.000000 0.007431 0.000000
# 4 0.000000 0.000000 0.000000 0.022535 0.000000 -0.012676
# 5 -0.032259 0.005322 0.007431 0.000000 -0.047927 0.000000
# 6 0.000000 0.000000 0.000000 -0.012676 0.000000 0.060856
#
#
# Mechanical properties :
#
#
# Convention : Reuss Voigt Hill
#
# Bulk Modulus (GPa) = 40.99380 49.32904 45.16142
# Shear Modulus (GPa) = 65.92070 28.95041 47.43555
#
# Velocity S-wave (km/s) = 5.35013 3.54553 4.53843
# Velocity P-wave (km/s) = 7.48100 6.17904 6.86097
#
# Compressibility (1/GPa) = 0.02439394
#
# Stress axis : x y z
#
# Youngs Moduli (GPa) = 72.51171 130.20537 145.93261
#
# Poissons Ratio (x) = -0.19264 0.26994
# Poissons Ratio (y) = -0.10728 0.23269
# Poissons Ratio (z) = 0.13413 0.20762
#
# Static dielectric constant tensor:
#      x y z
#    x 1.865970 0.000000 0.040600 
#    y 0.000000 1.877520 0.000000 
#    z 0.040600 0.000000 1.896980 
# 
# From -- ./inp_files/138750.got.cif
#   From: 2010.05.17/outbox.cif.g08.bks.cpg/sg15_70_cif.got.tgz:138750.got - 2010.06.03 18:47:42.
