data_PCOD9254487
_publ_section_title
;
Structure prediction by ZEFSAII (Michael W. Deem and Ramdas Pophale) SiO2 
 PCOD9254487
Probable space group: C 2/C
;
_chemical_formula_sum "Si O2"
_cell_formula_units_Z 44
_cell_length_a 19.994101
_cell_length_b 10.133224
_cell_length_c 8.712427
_cell_angle_alpha 90.000000
_cell_angle_beta 70.139139
_cell_angle_gamma 90.000000
_cell_volume 1660.186611
_symmetry_space_group_name_H-M "C 2/C"
_symmetry_group_IT_number 15
_symmetry_cell_setting 'monoclinic'
loop_
_space_group_symop_operation_xyz
x,y,z
-x,y,1/2-z
-x,-y,-z
x,-y,1/2+z
1/2+x,1/2+y,z
1/2-x,1/2+y,1/2-z
1/2-x,1/2-y,-z
1/2+x,1/2-y,1/2+z
loop_
_atom_site_type_symbol
_atom_site_label
_atom_site_fract_x
_atom_site_fract_y
_atom_site_fract_z
Si Si1 0.531408 0.364553 0.074460
Si Si2 0.612411 0.105363 0.140834
Si Si3 0.622152 0.705182 0.257002
Si Si4 0.737495 0.849068 0.370023
Si Si5 0.625807 0.297650 0.395834
Si Si6 0.000000 0.605428 0.750000
O O1 0.500000 0.440216 0.250000
O O2 0.575500 0.241339 0.111112
O O3 0.457378 0.329974 0.051941
O O4 0.588964 0.404139 0.899655
O O5 0.629572 0.153536 0.302430
O O6 0.554948 0.997755 0.136592
O O7 0.683483 0.055263 0.000066
O O8 0.689776 0.775052 0.280848
O O9 0.555012 0.806360 0.301476
O O10 0.640381 0.682965 0.065232
O O11 0.750000 0.750000 0.500000
O O12 0.813649 0.880722 0.241516
#
# Coordination Sequence:
#
# PCOD9254487 Si02
#       6
#     8   8   8   8   8   4
#     4   9  16  30  42  63  96 129 172 197 258 296
#     4   9  19  31  47  69 102 145 167 204 255 312
#     4  11  21  28  47  76  97 137 174 221 257 291
#     4   9  20  34  46  59  94 145 184 205 255 309
#     4  10  16  31  45  65  94 133 182 217 243 296
#     4  12  20  32  52  78 118 130 188 200 254 326
#
# _framework density 26.503046000000001
#
# number of rings (size 3 to 8) (size 9 to 14) (size 15 to 20)
#    0.000    2.182    4.545    1.636    0.000    6.545 
#    0.000    0.000    0.000    0.000    0.000    0.000 
#    0.000    0.000    0.000  266.727    0.000    0.727 
#
# Total GULP energy -122484.563017 kJ/mol
# GULP energy per Si atom -5567.480137 kJ/mol
# Density = 2.644272 g / cm^3
# Si number density = 26.503046 Si / 1000 Ang^3
#
#
#
# Elastic Constant Matrix: (Units=GPa)
#
#
# Indices 1 2 3 4 5 6 
#
# 1 142.7770 17.7054 43.3374 0.0000 -23.5169 0.0000
# 2 17.7054 49.3823 26.4161 0.0000 -15.7457 0.0000
# 3 43.3374 26.4161 193.9387 0.0000 -24.5458 0.0000
# 4 0.0000 0.0000 0.0000 9.5772 0.0000 -2.1236
# 5 -23.5169 -15.7457 -24.5458 0.0000 76.8358 0.0000
# 6 0.0000 0.0000 0.0000 -2.1236 0.0000 30.8393
#
#
#
# Elastic Compliance Matrix: (Units=1/GPa)
#
#
# Indices 1 2 3 4 5 6 
#
# 1 0.007879 -0.001581 -0.001335 0.000000 0.001661 0.000000
# 2 -0.001581 0.023202 -0.002362 0.000000 0.003516 0.000000
# 3 -0.001335 -0.002362 0.005902 0.000000 0.000993 0.000000
# 4 0.000000 0.000000 0.000000 0.106034 0.000000 0.007301
# 5 0.001661 0.003516 0.000993 0.000000 0.014561 0.000000
# 6 0.000000 0.000000 0.000000 0.007301 0.000000 0.032929
#
#
# Mechanical properties :
#
#
# Convention : Reuss Voigt Hill
#
# Bulk Modulus (GPa) = 37.84106 62.33509 50.08808
# Shear Modulus (GPa) = 23.82417 43.35972 33.59195
#
# Velocity S-wave (km/s) = 3.00146 4.04917 3.56402
# Velocity P-wave (km/s) = 5.13037 6.74033 5.98969
#
# Compressibility (1/GPa) = 0.02642632
#
# Stress axis : x y z
#
# Youngs Moduli (GPa) = 126.92301 43.10035 169.43528
#
# Poissons Ratio (x) = 0.06815 0.22620
# Poissons Ratio (y) = 0.20068 0.40019
# Poissons Ratio (z) = 0.16944 0.10180
#
# Static dielectric constant tensor:
#      x y z
#    x 2.087320 0.000000 0.029080 
#    y 0.000000 2.345110 0.000000 
#    z 0.029080 0.000000 2.250790 
# 
# From -- ./inp_files/55812.got.cif
#   From: 2010.05.17/outbox.cif.g08.bks.cpg/sg15_28_cif.got.tgz:55812.got - 2010.06.03 18:47:42.
