data_PCOD9254534
_publ_section_title
;
Structure prediction by ZEFSAII (Michael W. Deem and Ramdas Pophale) SiO2 
 PCOD9254534
Probable space group: C 2/C
;
_chemical_formula_sum "Si O2"
_cell_formula_units_Z 24
_cell_length_a 7.712953
_cell_length_b 27.528008
_cell_length_c 5.105957
_cell_angle_alpha 90.000000
_cell_angle_beta 110.562252
_cell_angle_gamma 90.000000
_cell_volume 1015.040884
_symmetry_space_group_name_H-M "C 2/C"
_symmetry_group_IT_number 15
_symmetry_cell_setting 'monoclinic'
loop_
_space_group_symop_operation_xyz
x,y,z
-x,y,1/2-z
-x,-y,-z
x,-y,1/2+z
1/2+x,1/2+y,z
1/2-x,1/2+y,1/2-z
1/2-x,1/2-y,-z
1/2+x,1/2-y,1/2+z
loop_
_atom_site_type_symbol
_atom_site_label
_atom_site_fract_x
_atom_site_fract_y
_atom_site_fract_z
Si Si1 0.116678 0.210455 0.564399
Si Si2 0.788854 0.479051 0.417870
Si Si3 0.877260 0.371494 0.441457
O O1 0.250000 0.250000 0.500000
O O2 0.232070 0.167702 0.762663
O O3 0.000000 0.231312 0.750000
O O4 0.000000 0.192330 0.250000
O O5 0.701829 0.512334 0.591758
O O6 0.792417 0.422649 0.489255
O O7 0.000000 0.500000 0.500000
O O8 0.000000 0.383173 0.250000
O O9 0.000000 0.353028 0.750000
#
# Coordination Sequence:
#
# PCOD9254534 Si02
#       3
#     8   8   8
#     4  12  28  50  72  99 140 185 237 296 359 422
#     4  10  16  31  57 100 134 167 225 280 309 396
#     4  12  22  39  70 106 134 178 232 289 341 403
#
# _framework density 23.644369000000001
#
# number of rings (size 3 to 8) (size 9 to 14) (size 15 to 20)
#    0.000    0.667    6.667    4.000    0.000    2.667 
#    0.000    0.000    0.000    6.000    0.000    0.000 
#    0.000    0.000    0.000    0.000    0.000    0.000 
#
# Total GULP energy -67078.612642 kJ/mol
# GULP energy per Si atom -5589.884387 kJ/mol
# Density = 2.359055 g / cm^3
# Si number density = 23.644369 Si / 1000 Ang^3
#
#
#
# Elastic Constant Matrix: (Units=GPa)
#
#
# Indices 1 2 3 4 5 6 
#
# 1 66.2089 25.3395 37.1282 0.0000 -5.5897 0.0000
# 2 25.3395 155.0567 55.0196 0.0000 22.9601 0.0000
# 3 37.1282 55.0196 214.2924 0.0000 -13.1766 0.0000
# 4 0.0000 0.0000 0.0000 43.8504 0.0000 -3.1896
# 5 -5.5897 22.9601 -13.1766 0.0000 41.2479 0.0000
# 6 0.0000 0.0000 0.0000 -3.1896 0.0000 4.1819
#
#
#
# Elastic Compliance Matrix: (Units=1/GPa)
#
#
# Indices 1 2 3 4 5 6 
#
# 1 0.017575 -0.002550 -0.002200 0.000000 0.003099 0.000000
# 2 -0.002550 0.008450 -0.002079 0.000000 -0.005713 0.000000
# 3 -0.002200 -0.002079 0.005747 0.000000 0.002695 0.000000
# 4 0.000000 0.000000 0.000000 0.024144 0.000000 0.018415
# 5 0.003099 -0.005713 0.002695 0.000000 0.028705 0.000000
# 6 0.000000 0.000000 0.000000 0.018415 0.000000 0.253169
#
#
# Mechanical properties :
#
#
# Convention : Reuss Voigt Hill
#
# Bulk Modulus (GPa) = 55.20657 74.50365 64.85511
# Shear Modulus (GPa) = 13.98656 39.06076 26.52366
#
# Velocity S-wave (km/s) = 2.43480 4.06890 3.35292
# Velocity P-wave (km/s) = 5.59497 7.32483 6.51755
#
# Compressibility (1/GPa) = 0.01811378
#
# Stress axis : x y z
#
# Youngs Moduli (GPa) = 56.89920 118.34776 174.00097
#
# Poissons Ratio (x) = 0.30184 0.38274
# Poissons Ratio (y) = 0.14512 0.36172
# Poissons Ratio (z) = 0.12516 0.24603
#
# Static dielectric constant tensor:
#      x y z
#    x 1.971220 0.000000 -0.036020 
#    y 0.000000 1.873740 0.000000 
#    z -0.036020 0.000000 1.867000 
# 
# From -- ./inp_files/1898.got.cif
#   From: 2010.05.17/outbox.cif.g08.bks.cpg/sg15_1_cif.got.tgz:1898.got - 2010.06.03 18:47:42.
