data_PCOD9254779
_publ_section_title
;
Structure prediction by ZEFSAII (Michael W. Deem and Ramdas Pophale) SiO2 
 PCOD9254779
Probable space group: C 2/C
;
_chemical_formula_sum "Si O2"
_cell_formula_units_Z 52
_cell_length_a 5.356780
_cell_length_b 15.498760
_cell_length_c 26.961695
_cell_angle_alpha 90.000000
_cell_angle_beta 87.987948
_cell_angle_gamma 90.000000
_cell_volume 2237.072785
_symmetry_space_group_name_H-M "C 2/C"
_symmetry_group_IT_number 15
_symmetry_cell_setting 'monoclinic'
loop_
_space_group_symop_operation_xyz
x,y,z
-x,y,1/2-z
-x,-y,-z
x,-y,1/2+z
1/2+x,1/2+y,z
1/2-x,1/2+y,1/2-z
1/2-x,1/2-y,-z
1/2+x,1/2-y,1/2+z
loop_
_atom_site_type_symbol
_atom_site_label
_atom_site_fract_x
_atom_site_fract_y
_atom_site_fract_z
Si Si1 0.897225 0.240893 0.700251
Si Si2 0.800643 0.424603 0.994212
Si Si3 0.577134 0.528664 0.078809
Si Si4 0.737990 0.413455 0.158219
Si Si5 0.000000 0.612399 0.750000
Si Si6 0.888602 0.691946 0.095758
Si Si7 0.597894 0.797253 0.428955
O O1 0.671321 0.179023 0.717878
O O2 0.853953 0.305470 0.655723
O O3 0.000000 0.282055 0.750000
O O4 0.092498 0.170335 0.678579
O O5 0.661230 0.423473 0.942731
O O6 0.902450 0.336181 0.015754
O O7 0.600832 0.451083 0.038684
O O8 0.000000 0.500000 0.000000
O O9 0.566252 0.484474 0.132540
O O10 0.810282 0.595581 0.078622
O O11 0.872055 0.443389 0.207549
O O12 0.905328 0.375586 0.111837
O O13 0.658941 0.747656 0.076577
O O14 0.150406 0.741067 0.082694
#
# Coordination Sequence:
#
# PCOD9254779 Si02
#       7
#     8   8   8   8   4   8   8
#     4   9  19  35  63  85 121 159 212 247 310 378
#     4  10  24  42  63  88 122 173 207 262 304 381
#     4  10  24  40  60  90 126 160 212 258 320 360
#     4   9  19  37  60  88 115 167 201 256 294 385
#     4  10  16  34  62  88 110 162 210 246 304 376
#     4  11  23  42  62  96 123 164 202 268 312 376
#     4  10  23  40  66  88 126 163 209 250 317 373
#
# _framework density 23.24466
#
# number of rings (size 3 to 8) (size 9 to 14) (size 15 to 20)
#    0.000    2.154    1.538    0.000   10.769    1.231 
#    1.385    0.000    5.077    0.000    0.000    0.000 
#    0.000    0.000    0.000    0.000    0.000    0.000 
#
# Total GULP energy -144988.196667 kJ/mol
# GULP energy per Si atom -5576.469103 kJ/mol
# Density = 2.319175 g / cm^3
# Si number density = 23.244660 Si / 1000 Ang^3
#
#
#
# Elastic Constant Matrix: (Units=GPa)
#
#
# Indices 1 2 3 4 5 6 
#
# 1 76.6800 14.0521 33.4153 0.0000 27.2401 0.0000
# 2 14.0521 62.0423 60.9674 0.0000 19.7029 0.0000
# 3 33.4153 60.9674 190.0543 0.0000 47.2232 0.0000
# 4 0.0000 0.0000 0.0000 36.6822 0.0000 5.1300
# 5 27.2401 19.7029 47.2232 0.0000 37.1802 0.0000
# 6 0.0000 0.0000 0.0000 5.1300 0.0000 20.4195
#
#
#
# Elastic Compliance Matrix: (Units=1/GPa)
#
#
# Indices 1 2 3 4 5 6 
#
# 1 0.017633 0.000024 0.000154 0.000000 -0.013127 0.000000
# 2 0.000024 0.023998 -0.006631 0.000000 -0.004313 0.000000
# 3 0.000154 -0.006631 0.009522 0.000000 -0.008692 0.000000
# 4 0.000000 0.000000 0.000000 0.028254 0.000000 -0.007098
# 5 -0.013127 -0.004313 -0.008692 0.000000 0.049839 0.000000
# 6 0.000000 0.000000 0.000000 -0.007098 0.000000 0.050756
#
#
# Mechanical properties :
#
#
# Convention : Reuss Voigt Hill
#
# Bulk Modulus (GPa) = 26.14642 60.62736 43.38689
# Shear Modulus (GPa) = 24.31228 33.54583 28.92906
#
# Velocity S-wave (km/s) = 3.23759 3.80302 3.53164
# Velocity P-wave (km/s) = 5.02482 6.73965 5.94439
#
# Compressibility (1/GPa) = 0.03824616
#
# Stress axis : x y z
#
# Youngs Moduli (GPa) = 56.71165 41.66957 105.02507
#
# Poissons Ratio (x) = -0.00099 -0.01615
# Poissons Ratio (y) = -0.00135 0.69642
# Poissons Ratio (z) = -0.00872 0.27631
#
# Static dielectric constant tensor:
#      x y z
#    x 1.980070 0.000000 -0.021460 
#    y 0.000000 1.903580 0.000000 
#    z -0.021460 0.000000 1.973120 
# 
# From -- ./inp_files/285832.got.cif
#   From: 2010.05.17/outbox.cif.g08.bks.cpg/sg15_143_cif.got.tgz:285832.got - 2010.06.03 18:47:42.
