data_PCOD9254077
_publ_section_title
;
Structure prediction by ZEFSAII (Michael W. Deem and Ramdas Pophale) SiO2 
 PCOD9254077
Probable space group: C 2/C
;
_chemical_formula_sum "Si O2"
_cell_formula_units_Z 40
_cell_length_a 19.859380
_cell_length_b 6.740592
_cell_length_c 10.844538
_cell_angle_alpha 90.000000
_cell_angle_beta 98.333272
_cell_angle_gamma 90.000000
_cell_volume 1436.365722
_symmetry_space_group_name_H-M "C 2/C"
_symmetry_group_IT_number 15
_symmetry_cell_setting 'monoclinic'
loop_
_space_group_symop_operation_xyz
x,y,z
-x,y,1/2-z
-x,-y,-z
x,-y,1/2+z
1/2+x,1/2+y,z
1/2-x,1/2+y,1/2-z
1/2-x,1/2-y,-z
1/2+x,1/2-y,1/2+z
loop_
_atom_site_type_symbol
_atom_site_label
_atom_site_fract_x
_atom_site_fract_y
_atom_site_fract_z
Si Si1 0.763444 0.480829 0.539587
Si Si2 0.470052 0.785329 0.924156
Si Si3 0.187495 0.950726 0.779509
Si Si4 0.609090 0.145620 0.315325
Si Si5 0.549634 0.650282 0.152646
O O1 0.750000 0.250000 0.500000
O O2 0.730156 0.497082 0.667390
O O3 0.733134 0.598460 0.412621
O O4 0.844117 0.494797 0.588426
O O5 0.412682 0.899278 0.831273
O O6 0.539891 0.802101 0.865924
O O7 0.442245 0.556251 0.920855
O O8 0.502568 0.808352 0.067639
O O9 0.149489 0.149590 0.811172
O O10 0.125570 0.807440 0.721293
O O11 0.500000 0.596514 0.250000
#
# Coordination Sequence:
#
# PCOD9254077 Si02
#       5
#     8   8   8   8   8
#     4  10  21  35  54  75 111 151 176 215 269 331
#     4   9  16  28  50  74  99 133 174 223 272 321
#     4  10  19  32  52  80 112 140 178 218 269 331
#     4   9  17  33  51  76 103 139 177 210 270 320
#     4  10  16  24  47  78 102 127 166 226 292 316
#
# _framework density 27.848061000000001
#
# number of rings (size 3 to 8) (size 9 to 14) (size 15 to 20)
#    0.000    2.400    4.000    2.400    5.600    0.000 
#    0.000    4.000    4.400    4.800    0.000    0.000 
#    0.000    0.000    0.000    0.000    0.000    0.000 
#
# Total GULP energy -111694.422589 kJ/mol
# GULP energy per Si atom -5584.721129 kJ/mol
# Density = 2.778468 g / cm^3
# Si number density = 27.848061 Si / 1000 Ang^3
#
#
#
# Elastic Constant Matrix: (Units=GPa)
#
#
# Indices 1 2 3 4 5 6 
#
# 1 113.9370 22.2114 68.5901 0.0000 39.2883 0.0000
# 2 22.2114 80.0882 70.7942 0.0000 18.9802 0.0000
# 3 68.5901 70.7942 231.1889 0.0000 71.8189 0.0000
# 4 0.0000 0.0000 0.0000 57.1851 0.0000 32.6291
# 5 39.2883 18.9802 71.8189 0.0000 76.3370 0.0000
# 6 0.0000 0.0000 0.0000 32.6291 0.0000 24.0712
#
#
#
# Elastic Compliance Matrix: (Units=1/GPa)
#
#
# Indices 1 2 3 4 5 6 
#
# 1 0.011426 -0.000434 -0.002068 0.000000 -0.003827 0.000000
# 2 -0.000434 0.017186 -0.005477 0.000000 0.001102 0.000000
# 3 -0.002068 -0.005477 0.008283 0.000000 -0.005367 0.000000
# 4 0.000000 0.000000 0.000000 0.077187 0.000000 -0.104628
# 5 -0.003827 0.001102 -0.005367 0.000000 0.019845 0.000000
# 6 0.000000 0.000000 0.000000 -0.104628 0.000000 0.183370
#
#
# Mechanical properties :
#
#
# Convention : Reuss Voigt Hill
#
# Bulk Modulus (GPa) = 47.75858 83.15617 65.45738
# Shear Modulus (GPa) = 14.69581 49.09322 31.89452
#
# Velocity S-wave (km/s) = 2.29969 4.20324 3.38791
# Velocity P-wave (km/s) = 4.92325 7.31313 6.23379
#
# Compressibility (1/GPa) = 0.02093864
#
# Stress axis : x y z
#
# Youngs Moduli (GPa) = 87.51933 58.18605 120.72395
#
# Poissons Ratio (x) = 0.02523 0.24969
# Poissons Ratio (y) = 0.03795 0.66115
# Poissons Ratio (z) = 0.18102 0.31866
#
# Static dielectric constant tensor:
#      x y z
#    x 2.108100 0.000000 0.062160 
#    y 0.000000 5.555650 0.000000 
#    z 0.062160 0.000000 2.345930 
# 
# From -- ./inp_files/109772.got.cif
#   From: 2010.05.17/outbox.cif.g08.bks.cpg/sg15_55_cif.got.tgz:109772.got - 2010.06.03 18:47:42.
