data_PCOD9254071
_publ_section_title
;
Structure prediction by ZEFSAII (Michael W. Deem and Ramdas Pophale) SiO2 
 PCOD9254071
Probable space group: C 2/C
;
_chemical_formula_sum "Si O2"
_cell_formula_units_Z 40
_cell_length_a 15.209210
_cell_length_b 25.896138
_cell_length_c 8.499470
_cell_angle_alpha 90.000000
_cell_angle_beta 152.430066
_cell_angle_gamma 90.000000
_cell_volume 1549.372637
_symmetry_space_group_name_H-M "C 2/C"
_symmetry_group_IT_number 15
_symmetry_cell_setting 'monoclinic'
loop_
_space_group_symop_operation_xyz
x,y,z
-x,y,1/2-z
-x,-y,-z
x,-y,1/2+z
1/2+x,1/2+y,z
1/2-x,1/2+y,1/2-z
1/2-x,1/2-y,-z
1/2+x,1/2-y,1/2+z
loop_
_atom_site_type_symbol
_atom_site_label
_atom_site_fract_x
_atom_site_fract_y
_atom_site_fract_z
Si Si1 0.284035 0.986358 0.095139
Si Si2 0.042207 0.291788 0.060073
Si Si3 0.755971 0.076304 0.285620
Si Si4 0.701184 0.311866 0.721305
Si Si5 0.097609 0.397558 0.062971
O O1 0.236179 0.936326 0.126044
O O2 0.500000 0.000000 0.500000
O O3 0.178158 0.039833 0.964461
O O4 0.268367 0.964276 0.895588
O O5 0.164676 0.302007 0.413547
O O6 0.056987 0.234586 0.017145
O O7 0.131780 0.336998 0.094668
O O8 0.826302 0.300895 0.766183
O O9 0.859010 0.128172 0.388125
O O10 0.552661 0.098663 0.028765
O O11 0.000000 0.417104 0.750000
#
# Coordination Sequence:
#
# PCOD9254071 Si02
#       5
#     8   8   8   8   8
#     4  10  16  24  41  62  93 128 150 187 247 286
#     4   9  17  30  49  69  98 129 159 199 236 285
#     4  10  18  28  41  67  97 126 155 200 239 290
#     4   9  17  31  50  71  98 124 164 199 236 280
#     4  10  17  27  42  68  99 127 153 193 243 291
#
# _framework density 25.816903
#
# number of rings (size 3 to 8) (size 9 to 14) (size 15 to 20)
#    0.000    2.400    2.000    4.800    2.800    0.000 
#    0.000    4.000    0.000    0.000    0.000    1.400 
#    0.000    0.000    0.000    0.400    0.000    0.000 
#
# Total GULP energy -111470.338784 kJ/mol
# GULP energy per Si atom -5573.516939 kJ/mol
# Density = 2.575814 g / cm^3
# Si number density = 25.816903 Si / 1000 Ang^3
#
#
#
# Elastic Constant Matrix: (Units=GPa)
#
#
# Indices 1 2 3 4 5 6 
#
# 1 53.3243 72.7119 23.5754 0.0000 -20.2605 0.0000
# 2 72.7119 275.2025 20.2470 0.0000 -17.7950 0.0000
# 3 23.5754 20.2470 68.2293 0.0000 -20.6101 0.0000
# 4 0.0000 0.0000 0.0000 12.3914 0.0000 -10.1141
# 5 -20.2605 -17.7950 -20.6101 0.0000 33.6436 0.0000
# 6 0.0000 0.0000 0.0000 -10.1141 0.0000 46.0231
#
#
#
# Elastic Compliance Matrix: (Units=1/GPa)
#
#
# Indices 1 2 3 4 5 6 
#
# 1 0.039679 -0.009028 -0.006449 0.000000 0.015169 0.000000
# 2 -0.009028 0.005839 0.000831 0.000000 -0.001839 0.000000
# 3 -0.006449 0.000831 0.019140 0.000000 0.008281 0.000000
# 4 0.000000 0.000000 0.000000 0.098340 0.000000 0.021611
# 5 0.015169 -0.001839 0.008281 0.000000 0.042958 0.000000
# 6 0.000000 0.000000 0.000000 0.021611 0.000000 0.026477
#
#
# Mechanical properties :
#
#
# Convention : Reuss Voigt Hill
#
# Bulk Modulus (GPa) = 28.27655 69.98055 49.12855
# Shear Modulus (GPa) = 18.28064 37.09310 27.68687
#
# Velocity S-wave (km/s) = 2.66388 3.79459 3.27835
# Velocity P-wave (km/s) = 4.52086 6.80911 5.77936
#
# Compressibility (1/GPa) = 0.03536499
#
# Stress axis : x y z
#
# Youngs Moduli (GPa) = 25.20257 171.26290 52.24786
#
# Poissons Ratio (x) = 1.54620 0.33695
# Poissons Ratio (y) = 0.22754 -0.04343
# Poissons Ratio (z) = 0.16253 -0.14236
#
# Static dielectric constant tensor:
#      x y z
#    x 2.118430 0.000000 0.063180 
#    y 0.000000 2.203210 0.000000 
#    z 0.063180 0.000000 2.098390 
# 
# From -- ./inp_files/51956.got.cif
#   From: 2010.05.17/outbox.cif.g08.bks.cpg/sg15_26_cif.got.tgz:51956.got - 2010.06.03 18:47:42.
