data_PCOD9254466
_publ_section_title
;
Structure prediction by ZEFSAII (Michael W. Deem and Ramdas Pophale) SiO2 
 PCOD9254466
Probable space group: C 2/C
;
_chemical_formula_sum "Si O2"
_cell_formula_units_Z 60
_cell_length_a 8.835684
_cell_length_b 14.870419
_cell_length_c 23.207974
_cell_angle_alpha 90.000000
_cell_angle_beta 117.670519
_cell_angle_gamma 90.000000
_cell_volume 2700.562596
_symmetry_space_group_name_H-M "C 2/C"
_symmetry_group_IT_number 15
_symmetry_cell_setting 'monoclinic'
loop_
_space_group_symop_operation_xyz
x,y,z
-x,y,1/2-z
-x,-y,-z
x,-y,1/2+z
1/2+x,1/2+y,z
1/2-x,1/2+y,1/2-z
1/2-x,1/2-y,-z
1/2+x,1/2-y,1/2+z
loop_
_atom_site_type_symbol
_atom_site_label
_atom_site_fract_x
_atom_site_fract_y
_atom_site_fract_z
Si Si1 0.177541 0.713388 0.891319
Si Si2 0.211117 0.943482 0.015367
Si Si3 0.244056 0.983672 0.341522
Si Si4 0.355651 0.801571 0.419285
Si Si5 0.500000 0.724126 0.250000
Si Si6 0.328632 0.601395 0.412289
Si Si7 0.638148 0.556129 0.208281
Si Si8 0.568655 0.881044 0.549294
O O1 0.268941 0.622646 0.926748
O O2 0.097868 0.717094 0.814123
O O3 0.307168 0.795945 0.917930
O O4 0.027949 0.721291 0.912859
O O5 0.228582 0.041525 0.044579
O O6 0.353520 0.931677 0.992639
O O7 0.033529 0.915011 0.954690
O O8 0.268941 0.883333 0.369565
O O9 0.235730 0.993353 0.271055
O O10 0.390814 0.049881 0.391985
O O11 0.058439 0.020605 0.329412
O O12 0.269213 0.704203 0.406789
O O13 0.401221 0.837001 0.491056
O O14 0.619657 0.654998 0.234676
O O15 0.284204 0.565385 0.341013
#
# Coordination Sequence:
#
# PCOD9254466 Si02
#       8
#     8   8   8   8   4   8   8   8
#     4  11  18  33  55  83 107 139 172 227 273 306
#     4  10  20  31  56  78 110 133 179 218 267 310
#     4  10  20  33  54  80 106 139 181 222 264 316
#     4  11  20  31  55  81 109 135 175 222 274 313
#     4  10  16  30  58  74 100 134 182 214 262 314
#     4  11  19  35  54  78 103 146 176 218 260 321
#     4  10  19  36  55  74 105 143 181 218 260 323
#     4  11  17  36  54  81 107 140 171 229 272 313
#
# _framework density 22.217592
#
# number of rings (size 3 to 8) (size 9 to 14) (size 15 to 20)
#    0.000    1.600    8.000    1.200    0.000    1.067 
#    0.000    0.667    0.000    8.000    0.000    0.000 
#    0.000    0.000    0.000    0.000    0.000    0.000 
#
# Total GULP energy -167521.093933 kJ/mol
# GULP energy per Si atom -5584.036464 kJ/mol
# Density = 2.216702 g / cm^3
# Si number density = 22.217592 Si / 1000 Ang^3
#
#
#
# Elastic Constant Matrix: (Units=GPa)
#
#
# Indices 1 2 3 4 5 6 
#
# 1 13.6086 1.8016 9.8425 0.0000 -2.0214 0.0000
# 2 1.8016 130.8433 64.7350 0.0000 1.1680 0.0000
# 3 9.8425 64.7350 172.1964 0.0000 0.9003 0.0000
# 4 0.0000 0.0000 0.0000 40.9307 0.0000 3.6960
# 5 -2.0214 1.1680 0.9003 0.0000 23.5295 0.0000
# 6 0.0000 0.0000 0.0000 3.6960 0.0000 8.8617
#
#
#
# Elastic Compliance Matrix: (Units=1/GPa)
#
#
# Indices 1 2 3 4 5 6 
#
# 1 0.077930 0.001336 -0.004992 0.000000 0.006820 0.000000
# 2 0.001336 0.009415 -0.003615 0.000000 -0.000214 0.000000
# 3 -0.004992 -0.003615 0.007454 0.000000 -0.000535 0.000000
# 4 0.000000 0.000000 0.000000 0.025388 0.000000 -0.010588
# 5 0.006820 -0.000214 -0.000535 0.000000 0.043117 0.000000
# 6 0.000000 0.000000 0.000000 -0.010588 0.000000 0.117261
#
#
# Mechanical properties :
#
#
# Convention : Reuss Voigt Hill
#
# Bulk Modulus (GPa) = 12.45999 52.15630 32.30814
# Shear Modulus (GPa) = 15.53483 30.68234 23.10858
#
# Velocity S-wave (km/s) = 2.64713 3.72020 3.22856
# Velocity P-wave (km/s) = 3.86826 6.47915 5.33586
#
# Compressibility (1/GPa) = 0.08025689
#
# Stress axis : x y z
#
# Youngs Moduli (GPa) = 12.83210 106.21868 134.15071
#
# Poissons Ratio (x) = -0.14191 0.66972
# Poissons Ratio (y) = -0.01714 0.48489
# Poissons Ratio (z) = 0.06406 0.38393
#
# Static dielectric constant tensor:
#      x y z
#    x 1.901330 0.000000 0.034590 
#    y 0.000000 1.860640 0.000000 
#    z 0.034590 0.000000 1.818990 
# 
# From -- ./inp_files/238401.got.cif
#   From: 2010.05.17/outbox.cif.g08.bks.cpg/sg15_120_cif.got.tgz:238401.got - 2010.06.03 18:47:42.
