data_PCOD9254638
_publ_section_title
;
Structure prediction by ZEFSAII (Michael W. Deem and Ramdas Pophale) SiO2 
 PCOD9254638
Probable space group: C 2/C
;
_chemical_formula_sum "Si O2"
_cell_formula_units_Z 52
_cell_length_a 11.994220
_cell_length_b 13.239595
_cell_length_c 17.629407
_cell_angle_alpha 90.000000
_cell_angle_beta 49.054972
_cell_angle_gamma 90.000000
_cell_volume 2114.589843
_symmetry_space_group_name_H-M "C 2/C"
_symmetry_group_IT_number 15
_symmetry_cell_setting 'monoclinic'
loop_
_space_group_symop_operation_xyz
x,y,z
-x,y,1/2-z
-x,-y,-z
x,-y,1/2+z
1/2+x,1/2+y,z
1/2-x,1/2+y,1/2-z
1/2-x,1/2-y,-z
1/2+x,1/2-y,1/2+z
loop_
_atom_site_type_symbol
_atom_site_label
_atom_site_fract_x
_atom_site_fract_y
_atom_site_fract_z
Si Si1 0.771588 0.850952 0.833333
Si Si2 0.174783 0.997092 0.554613
Si Si3 0.617090 0.447433 0.863372
Si Si4 0.806958 0.271348 0.135048
Si Si5 0.000000 0.141500 0.750000
Si Si6 0.647399 0.871733 0.229359
Si Si7 0.541206 0.083992 0.045366
O O1 0.882416 0.905094 0.725168
O O2 0.792748 0.732176 0.834419
O O3 0.783489 0.905116 0.908446
O O4 0.616469 0.875089 0.860838
O O5 0.333406 0.037996 0.456624
O O6 0.084470 0.075926 0.648452
O O7 0.055196 0.970101 0.545647
O O8 0.665608 0.346589 0.883915
O O9 0.730991 0.540102 0.818205
O O10 0.634108 0.293931 0.223269
O O11 0.884695 0.328917 0.171327
O O12 0.873548 0.325091 0.032680
O O13 0.500000 0.902014 0.250000
O O14 0.500000 0.000000 0.000000
#
# Coordination Sequence:
#
# PCOD9254638 Si02
#       7
#     8   8   8   8   4   8   8
#     4  10  19  36  60  85 114 145 196 245 284 330
#     4  10  16  33  59  81 104 145 194 237 271 332
#     4  11  20  35  57  84 115 151 193 230 290 349
#     4  10  21  35  59  84 110 146 197 236 286 330
#     4  10  16  32  58  78 102 138 196 236 264 322
#     4  11  22  36  55  86 118 153 189 234 289 350
#     4   9  19  35  60  87 111 142 197 251 285 321
#
# _framework density 24.591056999999999
#
# number of rings (size 3 to 8) (size 9 to 14) (size 15 to 20)
#    0.000    1.846    3.077    3.692    1.077    0.000 
#    0.000   10.000    0.000    0.000    0.000    0.000 
#    0.000    0.000    0.000    0.000    0.000    0.000 
#
# Total GULP energy -145327.797715 kJ/mol
# GULP energy per Si atom -5589.530681 kJ/mol
# Density = 2.453509 g / cm^3
# Si number density = 24.591057 Si / 1000 Ang^3
#
#
#
# Elastic Constant Matrix: (Units=GPa)
#
#
# Indices 1 2 3 4 5 6 
#
# 1 108.7718 73.4399 29.5377 0.0000 -29.5968 0.0000
# 2 73.4399 162.7506 22.2249 0.0000 -30.6729 0.0000
# 3 29.5377 22.2249 48.6383 0.0000 -28.7303 0.0000
# 4 0.0000 0.0000 0.0000 12.1918 0.0000 2.7919
# 5 -29.5968 -30.6729 -28.7303 0.0000 44.1709 0.0000
# 6 0.0000 0.0000 0.0000 2.7919 0.0000 27.6462
#
#
#
# Elastic Compliance Matrix: (Units=1/GPa)
#
#
# Indices 1 2 3 4 5 6 
#
# 1 0.015108 -0.005572 -0.004766 0.000000 0.003154 0.000000
# 2 -0.005572 0.009133 0.001220 0.000000 0.003402 0.000000
# 3 -0.004766 0.001220 0.034932 0.000000 0.020375 0.000000
# 4 0.000000 0.000000 0.000000 0.083964 0.000000 -0.008479
# 5 0.003154 0.003402 0.020375 0.000000 0.040368 0.000000
# 6 0.000000 0.000000 0.000000 -0.008479 0.000000 0.037028
#
#
# Mechanical properties :
#
#
# Convention : Reuss Voigt Hill
#
# Bulk Modulus (GPa) = 24.42724 63.39619 43.91171
# Shear Modulus (GPa) = 19.80869 29.79899 24.80384
#
# Velocity S-wave (km/s) = 2.84125 3.48484 3.17938
# Velocity P-wave (km/s) = 4.55177 6.48292 5.60120
#
# Compressibility (1/GPa) = 0.04093791
#
# Stress axis : x y z
#
# Youngs Moduli (GPa) = 66.18938 109.48854 28.62706
#
# Poissons Ratio (x) = 0.61009 0.13643
# Poissons Ratio (y) = 0.36882 -0.03493
# Poissons Ratio (z) = 0.31545 -0.13361
#
# Static dielectric constant tensor:
#      x y z
#    x 2.018190 0.000000 0.000730 
#    y 0.000000 1.943050 0.000000 
#    z 0.000730 0.000000 2.020410 
# 
# From -- ./inp_files/236909.got.cif
#   From: 2010.05.17/outbox.cif.g08.bks.cpg/sg15_119_cif.got.tgz:236909.got - 2010.06.03 18:47:42.
