data_PCOD9254231
_publ_section_title
;
Structure prediction by ZEFSAII (Michael W. Deem and Ramdas Pophale) SiO2 
 PCOD9254231
Probable space group: C 2/C
;
_chemical_formula_sum "Si O2"
_cell_formula_units_Z 48
_cell_length_a 12.463482
_cell_length_b 28.209887
_cell_length_c 9.906974
_cell_angle_alpha 90.000000
_cell_angle_beta 55.163236
_cell_angle_gamma 90.000000
_cell_volume 2858.972834
_symmetry_space_group_name_H-M "C 2/C"
_symmetry_group_IT_number 15
_symmetry_cell_setting 'monoclinic'
loop_
_space_group_symop_operation_xyz
x,y,z
-x,y,1/2-z
-x,-y,-z
x,-y,1/2+z
1/2+x,1/2+y,z
1/2-x,1/2+y,1/2-z
1/2-x,1/2-y,-z
1/2+x,1/2-y,1/2+z
loop_
_atom_site_type_symbol
_atom_site_label
_atom_site_fract_x
_atom_site_fract_y
_atom_site_fract_z
Si Si1 0.106085 0.050163 0.787919
Si Si2 0.224312 0.361792 0.372083
Si Si3 0.039551 0.799873 0.380516
Si Si4 0.205418 0.142748 0.360097
Si Si5 0.421835 0.557337 0.178216
Si Si6 0.033148 0.309244 0.887219
O O1 0.228858 0.085437 0.702071
O O2 0.000000 0.066151 0.750000
O O3 0.133520 0.994617 0.743572
O O4 0.028989 0.052197 0.983443
O O5 0.320358 0.325535 0.224361
O O6 0.255862 0.360727 0.509985
O O7 0.076955 0.342445 0.465835
O O8 0.032857 0.745530 0.431647
O O9 0.000000 0.799833 0.250000
O O10 0.933142 0.830314 0.537751
O O11 0.185384 0.092381 0.304253
O O12 0.321460 0.170729 0.204864
O O13 0.500000 0.576934 0.250000
O O14 0.000000 0.308775 0.750000
#
# Coordination Sequence:
#
# PCOD9254231 Si02
#       6
#     8   8   8   8   8   8
#     4  10  17  32  51  74  94 121 162 203 241 277
#     4  10  16  28  48  72  99 127 154 196 246 282
#     4   9  15  26  45  71  98 126 160 198 235 277
#     4  10  17  30  46  71 101 125 157 198 241 283
#     4  10  20  30  50  74  96 122 162 204 236 279
#     4   9  18  26  43  74 104 125 153 198 245 285
#
# _framework density 16.789245999999999
#
# number of rings (size 3 to 8) (size 9 to 14) (size 15 to 20)
#    0.000    2.333    3.333    1.500    0.000    4.000 
#    0.000    0.833    0.000    2.000    0.000    0.000 
#    0.000    0.000    0.000    0.000    0.000    0.000 
#
# Total GULP energy -133619.934763 kJ/mol
# GULP energy per Si atom -5567.497282 kJ/mol
# Density = 1.675103 g / cm^3
# Si number density = 16.789246 Si / 1000 Ang^3
#
#
#
# Elastic Constant Matrix: (Units=GPa)
#
#
# Indices 1 2 3 4 5 6 
#
# 1 23.9502 12.2518 22.0723 0.0000 -4.7364 0.0000
# 2 12.2518 103.5898 32.7653 0.0000 -20.9895 0.0000
# 3 22.0723 32.7653 70.8920 0.0000 -22.9293 0.0000
# 4 0.0000 0.0000 0.0000 -1.2601 0.0000 1.6884
# 5 -4.7364 -20.9895 -22.9293 0.0000 24.1006 0.0000
# 6 0.0000 0.0000 0.0000 1.6884 0.0000 8.5783
#
#
#
# Elastic Compliance Matrix: (Units=1/GPa)
#
#
# Indices 1 2 3 4 5 6 
#
# 1 0.060319 -0.002610 -0.020909 0.000000 -0.010312 0.000000
# 2 -0.002610 0.012312 -0.002276 0.000000 0.008044 0.000000
# 3 -0.020909 -0.002276 0.028454 0.000000 0.020979 0.000000
# 4 0.000000 0.000000 0.000000 -0.627989 0.000000 0.123604
# 5 -0.010312 0.008044 0.020979 0.000000 0.066432 0.000000
# 6 0.000000 0.000000 0.000000 0.123604 0.000000 0.092245
#
#
# Mechanical properties :
#
#
# Convention : Reuss Voigt Hill
#
# Bulk Modulus (GPa) = 20.20443 36.95675 28.58059
# Shear Modulus (GPa) = -16.65898 15.03994 -0.80952
#
# Velocity S-wave (km/s) = -3.15340 2.99625 -0.69513
# Velocity P-wave (km/s) = 1.09468 5.83352 4.05165
#
# Compressibility (1/GPa) = 0.04949409
#
# Stress axis : x y z
#
# Youngs Moduli (GPa) = 16.57851 81.22168 35.14480
#
# Poissons Ratio (x) = 0.21198 0.73486
# Poissons Ratio (y) = 0.04327 0.07999
# Poissons Ratio (z) = 0.34665 0.18486
#
# Static dielectric constant tensor:
#      x y z
#    x 1.560180 0.000000 0.003540 
#    y 0.000000 1.605980 0.000000 
#    z 0.003540 0.000000 1.558720 
# 
# From -- ./inp_files/43780.got.cif
#   From: 2010.05.17/outbox.cif.g08.bks.cpg/sg15_22_cif.got.tgz:43780.got - 2010.06.03 18:47:42.
