data_PCOD9254863
_publ_section_title
;
Structure prediction by ZEFSAII (Michael W. Deem and Ramdas Pophale) SiO2 
 PCOD9254863
Probable space group: C 2/C
;
_chemical_formula_sum "Si O2"
_cell_formula_units_Z 44
_cell_length_a 5.192822
_cell_length_b 13.177141
_cell_length_c 24.899054
_cell_angle_alpha 90.000000
_cell_angle_beta 91.906318
_cell_angle_gamma 90.000000
_cell_volume 1702.813368
_symmetry_space_group_name_H-M "C 2/C"
_symmetry_group_IT_number 15
_symmetry_cell_setting 'monoclinic'
loop_
_space_group_symop_operation_xyz
x,y,z
-x,y,1/2-z
-x,-y,-z
x,-y,1/2+z
1/2+x,1/2+y,z
1/2-x,1/2+y,1/2-z
1/2-x,1/2-y,-z
1/2+x,1/2-y,1/2+z
loop_
_atom_site_type_symbol
_atom_site_label
_atom_site_fract_x
_atom_site_fract_y
_atom_site_fract_z
Si Si1 0.609680 0.336365 0.305034
Si Si2 0.639016 0.019707 0.089511
Si Si3 0.421901 0.653430 0.008564
Si Si4 0.757880 0.702230 0.917256
Si Si5 0.840851 0.026971 0.343998
Si Si6 0.500000 0.009420 0.750000
O O1 0.500000 0.288442 0.250000
O O2 0.703250 0.269754 0.355296
O O3 0.390132 0.407118 0.330524
O O4 0.829800 0.415793 0.286720
O O5 0.749943 0.066188 0.034607
O O6 0.371634 0.054031 0.113267
O O7 0.873308 0.052643 0.131750
O O8 0.573992 0.899749 0.085421
O O9 0.640650 0.702559 0.048656
O O10 0.250000 0.750000 0.000000
O O11 0.534345 0.644843 0.949873
O O12 0.704069 0.055459 0.286421
#
# Coordination Sequence:
#
# PCOD9254863 Si02
#       6
#     8   8   8   8   8   4
#     4   9  19  35  67 101 133 171 229 286 340 418
#     4  11  24  42  68  96 135 181 228 278 355 415
#     4  11  27  42  66  97 140 181 232 295 341 421
#     4  10  23  44  64 102 133 182 230 288 348 418
#     4  10  20  36  65 101 129 173 224 281 332 419
#     4  10  16  36  64 106 126 172 232 280 334 414
#
# _framework density 25.839590999999999
#
# number of rings (size 3 to 8) (size 9 to 14) (size 15 to 20)
#    0.000    1.818    3.636    0.545   10.182    0.727 
#    0.000    0.000    2.000    2.182    0.000    0.000 
#    0.000    0.000    0.000    0.000    0.000    0.000 
#
# Total GULP energy -122523.824882 kJ/mol
# GULP energy per Si atom -5569.264767 kJ/mol
# Density = 2.578078 g / cm^3
# Si number density = 25.839591 Si / 1000 Ang^3
#
#
#
# Elastic Constant Matrix: (Units=GPa)
#
#
# Indices 1 2 3 4 5 6 
#
# 1 130.0968 -4.5941 38.2270 0.0000 -17.3503 0.0000
# 2 -4.5941 39.7112 2.2160 0.0000 -10.8750 0.0000
# 3 38.2270 2.2160 164.7561 0.0000 -6.5314 0.0000
# 4 0.0000 0.0000 0.0000 40.0119 0.0000 7.6225
# 5 -17.3503 -10.8750 -6.5314 0.0000 49.9404 0.0000
# 6 0.0000 0.0000 0.0000 7.6225 0.0000 22.6478
#
#
#
# Elastic Compliance Matrix: (Units=1/GPa)
#
#
# Indices 1 2 3 4 5 6 
#
# 1 0.008755 0.002004 -0.001930 0.000000 0.003225 0.000000
# 2 0.002004 0.027240 -0.000572 0.000000 0.006553 0.000000
# 3 -0.001930 -0.000572 0.006527 0.000000 0.000059 0.000000
# 4 0.000000 0.000000 0.000000 0.026705 0.000000 -0.008988
# 5 0.003225 0.006553 0.000059 0.000000 0.022579 0.000000
# 6 0.000000 0.000000 0.000000 -0.008988 0.000000 0.047180
#
#
# Mechanical properties :
#
#
# Convention : Reuss Voigt Hill
#
# Bulk Modulus (GPa) = 24.08119 45.14020 34.61070
# Shear Modulus (GPa) = 32.50468 42.43438 37.46953
#
# Velocity S-wave (km/s) = 3.55059 4.05683 3.81213
# Velocity P-wave (km/s) = 5.11358 6.28102 5.72712
#
# Compressibility (1/GPa) = 0.04152619
#
# Stress axis : x y z
#
# Youngs Moduli (GPa) = 114.22419 36.71055 153.19865
#
# Poissons Ratio (x) = -0.07356 0.29573
# Poissons Ratio (y) = -0.22889 0.08756
# Poissons Ratio (z) = 0.22049 0.02098
#
# Static dielectric constant tensor:
#      x y z
#    x 2.187590 0.000000 0.711650 
#    y 0.000000 47.124640 0.000000 
#    z 0.711650 0.000000 0.268870 
# 
# From -- ./inp_files/285418.got.cif
#   From: 2010.05.17/outbox.cif.g08.bks.cpg/sg15_143_cif.got.tgz:285418.got - 2010.06.03 18:47:42.
