data_PCOD9254860
_publ_section_title
;
Structure prediction by ZEFSAII (Michael W. Deem and Ramdas Pophale) SiO2 
 PCOD9254860
Probable space group: C 2/C
;
_chemical_formula_sum "Si O2"
_cell_formula_units_Z 52
_cell_length_a 18.954610
_cell_length_b 20.006773
_cell_length_c 8.322231
_cell_angle_alpha 90.000000
_cell_angle_beta 131.764114
_cell_angle_gamma 90.000000
_cell_volume 2354.010431
_symmetry_space_group_name_H-M "C 2/C"
_symmetry_group_IT_number 15
_symmetry_cell_setting 'monoclinic'
loop_
_space_group_symop_operation_xyz
x,y,z
-x,y,1/2-z
-x,-y,-z
x,-y,1/2+z
1/2+x,1/2+y,z
1/2-x,1/2+y,1/2-z
1/2-x,1/2-y,-z
1/2+x,1/2-y,1/2+z
loop_
_atom_site_type_symbol
_atom_site_label
_atom_site_fract_x
_atom_site_fract_y
_atom_site_fract_z
Si Si1 0.013753 0.735943 0.042266
Si Si2 0.000000 0.827117 0.750000
Si Si3 0.000000 0.152298 0.750000
Si Si4 0.666340 0.568461 0.161468
Si Si5 0.623822 0.876511 0.153300
Si Si6 0.870293 0.621594 0.446545
Si Si7 0.500000 0.000000 0.500000
Si Si8 0.829631 0.083167 0.948272
O O1 0.958638 0.777962 0.821315
O O2 0.936884 0.685582 0.000442
O O3 0.051639 0.794151 0.212940
O O4 0.092200 0.689366 0.078073
O O5 0.920945 0.872972 0.549925
O O6 0.924216 0.105986 0.546922
O O7 0.762950 0.601815 0.243754
O O8 0.668124 0.574839 0.355846
O O9 0.665701 0.490170 0.119291
O O10 0.622935 0.873935 0.348588
O O11 0.573390 0.945712 0.031164
O O12 0.731374 0.880538 0.258177
O O13 0.938109 0.562631 0.484710
#
# Coordination Sequence:
#
# PCOD9254860 Si02
#       8
#     8   4   4   8   8   8   4   8
#     4  11  23  44  65  98 129 176 211 264 329 382
#     4  12  23  42  70  89 126 184 216 256 316 397
#     4  12  27  44  62  93 138 172 218 270 316 383
#     4  11  25  45  66  95 130 172 217 274 317 378
#     4  10  21  41  66  95 128 167 217 260 324 389
#     4  10  21  41  67  93 129 166 217 265 321 384
#     4  10  16  36  62  96 124 160 202 272 310 372
#     4  11  25  43  68  98 125 174 220 264 323 379
#
# _framework density 22.089960999999999
#
# number of rings (size 3 to 8) (size 9 to 14) (size 15 to 20)
#    0.000    1.231    4.615    1.846    2.154    3.692 
#   13.846    0.000    0.000    0.000    0.000    0.000 
#    0.000    0.000    0.000    0.000    0.000    0.000 
#
# Total GULP energy -144836.800723 kJ/mol
# GULP energy per Si atom -5570.646182 kJ/mol
# Density = 2.203968 g / cm^3
# Si number density = 22.089961 Si / 1000 Ang^3
#
#
#
# Elastic Constant Matrix: (Units=GPa)
#
#
# Indices 1 2 3 4 5 6 
#
# 1 70.5819 41.6428 12.6245 0.0000 21.5692 0.0000
# 2 41.6428 107.7621 18.5918 0.0000 13.3073 0.0000
# 3 12.6245 18.5918 41.3314 0.0000 18.2331 0.0000
# 4 0.0000 0.0000 0.0000 -3.8393 0.0000 -1.9699
# 5 21.5692 13.3073 18.2331 0.0000 35.8969 0.0000
# 6 0.0000 0.0000 0.0000 -1.9699 0.0000 84.4785
#
#
#
# Elastic Compliance Matrix: (Units=1/GPa)
#
#
# Indices 1 2 3 4 5 6 
#
# 1 0.021527 -0.007222 0.001544 0.000000 -0.011042 0.000000
# 2 -0.007222 0.012579 -0.004265 0.000000 0.001843 0.000000
# 3 0.001544 -0.004265 0.032675 0.000000 -0.015943 0.000000
# 4 0.000000 0.000000 0.000000 -0.257383 0.000000 -0.006002
# 5 -0.011042 0.001843 -0.015943 0.000000 0.041907 0.000000
# 6 0.000000 0.000000 0.000000 -0.006002 0.000000 0.011697
#
#
# Mechanical properties :
#
#
# Convention : Reuss Voigt Hill
#
# Bulk Modulus (GPa) = 21.32414 40.59929 30.96171
# Shear Modulus (GPa) = -49.26999 33.09495 -8.08752
#
# Velocity S-wave (km/s) = -4.72786 3.87484 -1.91550
# Velocity P-wave (km/s) = 4.48657 6.19985 3.02563
#
# Compressibility (1/GPa) = 0.04689521
#
# Stress axis : x y z
#
# Youngs Moduli (GPa) = 46.45394 79.49971 30.60460
#
# Poissons Ratio (x) = 0.57411 -0.04726
# Poissons Ratio (y) = 0.33547 0.13054
# Poissons Ratio (z) = -0.07174 0.33908
#
# Static dielectric constant tensor:
#      x y z
#    x 1.856540 0.000000 -0.043230 
#    y 0.000000 1.739580 0.000000 
#    z -0.043230 0.000000 1.860860 
# 
# From -- ./inp_files/57102.got.cif
#   From: 2010.05.17/outbox.cif.g08.bks.cpg/sg15_29_cif.got.tgz:57102.got - 2010.06.03 18:47:42.
