data_PCOD9254854
_publ_section_title
;
Structure prediction by ZEFSAII (Michael W. Deem and Ramdas Pophale) SiO2 
 PCOD9254854
Probable space group: C 2/C
;
_chemical_formula_sum "Si O2"
_cell_formula_units_Z 52
_cell_length_a 8.977963
_cell_length_b 16.686053
_cell_length_c 17.748242
_cell_angle_alpha 90.000000
_cell_angle_beta 111.423092
_cell_angle_gamma 90.000000
_cell_volume 2475.106286
_symmetry_space_group_name_H-M "C 2/C"
_symmetry_group_IT_number 15
_symmetry_cell_setting 'monoclinic'
loop_
_space_group_symop_operation_xyz
x,y,z
-x,y,1/2-z
-x,-y,-z
x,-y,1/2+z
1/2+x,1/2+y,z
1/2-x,1/2+y,1/2-z
1/2-x,1/2-y,-z
1/2+x,1/2-y,1/2+z
loop_
_atom_site_type_symbol
_atom_site_label
_atom_site_fract_x
_atom_site_fract_y
_atom_site_fract_z
Si Si1 0.729844 0.411996 0.194940
Si Si2 0.784832 0.431031 0.898002
Si Si3 0.500000 0.528628 0.250000
Si Si4 0.534899 0.710023 0.839255
Si Si5 0.097157 0.656096 0.461837
Si Si6 0.843268 0.389118 0.367684
Si Si7 0.195045 0.998084 0.036247
O O1 0.613072 0.474845 0.217401
O O2 0.623424 0.333120 0.158868
O O3 0.862962 0.386100 0.281292
O O4 0.766116 0.459463 0.125423
O O5 0.621434 0.420924 0.822771
O O6 0.857669 0.518333 0.891705
O O7 0.921336 0.370148 0.902060
O O8 0.745128 0.439357 0.978092
O O9 0.500000 0.748122 0.750000
O O10 0.621127 0.765008 0.916811
O O11 0.659540 0.639279 0.843773
O O12 0.077587 0.659858 0.549270
O O13 0.226309 0.585770 0.466341
O O14 0.000000 0.000000 0.000000
#
# Coordination Sequence:
#
# PCOD9254854 Si02
#       7
#     8   8   4   8   8   8   8
#     4  10  17  34  61  81 111 158 203 227 280 368
#     4  10  20  37  58  86 120 154 196 245 298 345
#     4  10  16  36  62  80 112 164 196 228 298 362
#     4  10  19  36  58  87 117 154 203 241 286 352
#     4  11  23  36  58  95 124 142 195 266 295 323
#     4   9  17  34  56  79 114 158 188 226 288 355
#     4  11  20  35  59  90 115 152 202 240 286 358
#
# _framework density 21.009198999999999
#
# number of rings (size 3 to 8) (size 9 to 14) (size 15 to 20)
#    0.000    1.846    5.385    3.231    0.000    2.462 
#    0.000    4.615    0.000    1.846    4.000    0.000 
#    0.000    0.000    0.000    0.000    0.000    0.000 
#
# Total GULP energy -144819.500500 kJ/mol
# GULP energy per Si atom -5569.980788 kJ/mol
# Density = 2.096138 g / cm^3
# Si number density = 21.009199 Si / 1000 Ang^3
#
#
#
# Elastic Constant Matrix: (Units=GPa)
#
#
# Indices 1 2 3 4 5 6 
#
# 1 59.6755 11.0715 18.7399 0.0000 -5.0118 0.0000
# 2 11.0715 27.6408 22.7390 0.0000 -3.7071 0.0000
# 3 18.7399 22.7390 152.7993 0.0000 -2.3980 0.0000
# 4 0.0000 0.0000 0.0000 20.5188 0.0000 4.8953
# 5 -5.0118 -3.7071 -2.3980 0.0000 27.9951 0.0000
# 6 0.0000 0.0000 0.0000 4.8953 0.0000 22.6769
#
#
#
# Elastic Compliance Matrix: (Units=1/GPa)
#
#
# Indices 1 2 3 4 5 6 
#
# 1 0.018490 -0.005982 -0.001340 0.000000 0.002403 0.000000
# 2 -0.005982 0.043854 -0.005726 0.000000 0.004246 0.000000
# 3 -0.001340 -0.005726 0.007555 0.000000 -0.000351 0.000000
# 4 0.000000 0.000000 0.000000 0.051382 0.000000 -0.011092
# 5 0.002403 0.004246 -0.000351 0.000000 0.036683 0.000000
# 6 0.000000 0.000000 0.000000 -0.011092 0.000000 0.046492
#
#
# Mechanical properties :
#
#
# Convention : Reuss Voigt Hill
#
# Bulk Modulus (GPa) = 22.82854 38.35737 30.59295
# Shear Modulus (GPa) = 20.39544 26.74250 23.56897
#
# Velocity S-wave (km/s) = 3.11912 3.57164 3.35302
# Velocity P-wave (km/s) = 4.88482 5.94187 5.43909
#
# Compressibility (1/GPa) = 0.04380482
#
# Stress axis : x y z
#
# Youngs Moduli (GPa) = 54.08443 22.80275 132.35456
#
# Poissons Ratio (x) = 0.13640 0.17732
# Poissons Ratio (y) = 0.32351 0.75786
# Poissons Ratio (z) = 0.07246 0.13057
#
# Static dielectric constant tensor:
#      x y z
#    x 1.780560 0.000000 0.030710 
#    y 0.000000 1.710510 0.000000 
#    z 0.030710 0.000000 1.881660 
# 
# From -- ./inp_files/190575.got.cif
#   From: 2010.05.17/outbox.cif.g08.bks.cpg/sg15_96_cif.got.tgz:190575.got - 2010.06.03 18:47:42.
