data_PCOD9254464
_publ_section_title
;
Structure prediction by ZEFSAII (Michael W. Deem and Ramdas Pophale) SiO2 
 PCOD9254464
Probable space group: C 2/C
;
_chemical_formula_sum "Si O2"
_cell_formula_units_Z 52
_cell_length_a 15.679333
_cell_length_b 11.458571
_cell_length_c 27.122203
_cell_angle_alpha 90.000000
_cell_angle_beta 143.645464
_cell_angle_gamma 90.000000
_cell_volume 2888.527874
_symmetry_space_group_name_H-M "C 2/C"
_symmetry_group_IT_number 15
_symmetry_cell_setting 'monoclinic'
loop_
_space_group_symop_operation_xyz
x,y,z
-x,y,1/2-z
-x,-y,-z
x,-y,1/2+z
1/2+x,1/2+y,z
1/2-x,1/2+y,1/2-z
1/2-x,1/2-y,-z
1/2+x,1/2-y,1/2+z
loop_
_atom_site_type_symbol
_atom_site_label
_atom_site_fract_x
_atom_site_fract_y
_atom_site_fract_z
Si Si1 0.542744 0.782424 0.435490
Si Si2 0.023586 0.862413 0.503401
Si Si3 0.332416 0.413800 0.578538
Si Si4 0.486959 0.048482 0.665373
Si Si5 0.237258 0.628342 0.466742
Si Si6 0.000000 0.867972 0.750000
Si Si7 0.698165 0.844831 0.334605
O O1 0.458339 0.719790 0.440278
O O2 0.590624 0.677008 0.422200
O O3 0.683595 0.847895 0.522972
O O4 0.480016 0.879635 0.369084
O O5 0.160526 0.856580 0.532541
O O6 0.867067 0.829431 0.408743
O O7 0.000000 0.000000 0.500000
O O8 0.297429 0.528262 0.531199
O O9 0.428218 0.434920 0.671363
O O10 0.358882 0.115357 0.637275
O O11 0.625679 0.059303 0.764899
O O12 0.418858 0.922983 0.621607
O O13 0.250000 0.750000 0.500000
O O14 0.879718 0.777076 0.713618
#
# Coordination Sequence:
#
# PCOD9254464 Si02
#       7
#     8   8   8   8   8   4   8
#     4  10  16  30  57  89 102 136 191 252 268 321
#     4  12  20  33  59  90 111 144 202 234 270 341
#     4  10  17  32  58  82 111 142 192 232 294 325
#     4   9  18  35  59  84 114 147 190 237 297 324
#     4  11  24  40  55  79 121 165 181 224 295 359
#     4  10  16  30  58  90 114 138 186 256 294 314
#     4  10  17  31  59  92 109 139 195 251 278 324
#
# _framework density 18.00225
#
# number of rings (size 3 to 8) (size 9 to 14) (size 15 to 20)
#    0.000    1.846    7.692    0.923    0.000    0.000 
#    0.000    7.692    3.385    0.000    0.000    0.000 
#    0.000    0.000    0.000    0.000    0.000    0.000 
#
# Total GULP energy -144784.745753 kJ/mol
# GULP energy per Si atom -5568.644067 kJ/mol
# Density = 1.796128 g / cm^3
# Si number density = 18.002250 Si / 1000 Ang^3
#
#
#
# Elastic Constant Matrix: (Units=GPa)
#
#
# Indices 1 2 3 4 5 6 
#
# 1 81.7332 44.2998 17.5450 0.0000 -18.1342 0.0000
# 2 44.2998 72.5775 5.5533 0.0000 -11.4025 0.0000
# 3 17.5450 5.5533 79.6274 0.0000 -21.3032 0.0000
# 4 0.0000 0.0000 0.0000 16.9145 0.0000 -9.0861
# 5 -18.1342 -11.4025 -21.3032 0.0000 21.9006 0.0000
# 6 0.0000 0.0000 0.0000 -9.0861 0.0000 25.8844
#
#
#
# Elastic Compliance Matrix: (Units=1/GPa)
#
#
# Indices 1 2 3 4 5 6 
#
# 1 0.020683 -0.010901 -0.000992 0.000000 0.010486 0.000000
# 2 -0.010901 0.020869 0.001945 0.000000 0.003731 0.000000
# 3 -0.000992 0.001945 0.017158 0.000000 0.016881 0.000000
# 4 0.000000 0.000000 0.000000 0.072860 0.000000 0.025576
# 5 0.010486 0.003731 0.016881 0.000000 0.072706 0.000000
# 6 0.000000 0.000000 0.000000 0.025576 0.000000 0.047611
#
#
# Mechanical properties :
#
#
# Convention : Reuss Voigt Hill
#
# Bulk Modulus (GPa) = 25.76422 40.97047 33.36734
# Shear Modulus (GPa) = 17.56109 24.04258 20.80183
#
# Velocity S-wave (km/s) = 3.12668 3.65846 3.40297
# Velocity P-wave (km/s) = 5.23236 6.37602 5.83229
#
# Compressibility (1/GPa) = 0.03881352
#
# Stress axis : x y z
#
# Youngs Moduli (GPa) = 48.34970 47.91682 58.28317
#
# Poissons Ratio (x) = 0.52234 0.05780
# Poissons Ratio (y) = 0.52706 -0.11334
# Poissons Ratio (z) = 0.04795 -0.09318
#
# Static dielectric constant tensor:
#      x y z
#    x 1.617100 0.000000 -0.015830 
#    y 0.000000 1.620190 0.000000 
#    z -0.015830 0.000000 1.680020 
# 
# From -- ./inp_files/295788.got.cif
#   From: 2010.05.17/outbox.cif.g08.bks.cpg/sg15_148_cif.got.tgz:295788.got - 2010.06.03 18:47:42.
