data_PCOD9254363
_publ_section_title
;
Structure prediction by ZEFSAII (Michael W. Deem and Ramdas Pophale) SiO2 
 PCOD9254363
Probable space group: C 2/C
;
_chemical_formula_sum "Si O2"
_cell_formula_units_Z 52
_cell_length_a 15.151825
_cell_length_b 24.974459
_cell_length_c 9.825924
_cell_angle_alpha 90.000000
_cell_angle_beta 140.906454
_cell_angle_gamma 90.000000
_cell_volume 2344.662859
_symmetry_space_group_name_H-M "C 2/C"
_symmetry_group_IT_number 15
_symmetry_cell_setting 'monoclinic'
loop_
_space_group_symop_operation_xyz
x,y,z
-x,y,1/2-z
-x,-y,-z
x,-y,1/2+z
1/2+x,1/2+y,z
1/2-x,1/2+y,1/2-z
1/2-x,1/2-y,-z
1/2+x,1/2-y,1/2+z
loop_
_atom_site_type_symbol
_atom_site_label
_atom_site_fract_x
_atom_site_fract_y
_atom_site_fract_z
Si Si1 0.657380 0.680098 0.451934
Si Si2 0.791106 0.938942 0.435832
Si Si3 0.749433 0.977488 0.656704
Si Si4 0.800313 0.776942 0.779931
Si Si5 0.500000 0.949882 0.750000
Si Si6 0.020519 0.399616 0.490099
Si Si7 0.543624 0.791453 0.645117
O O1 0.500000 0.700506 0.250000
O O2 0.655103 0.621487 0.517570
O O3 0.739118 0.722726 0.639990
O O4 0.711542 0.681110 0.359564
O O5 0.844451 0.958963 0.646035
O O6 0.813059 0.985737 0.351660
O O7 0.620438 0.928191 0.233440
O O8 0.658814 0.925944 0.593256
O O9 0.632621 0.015706 0.450476
O O10 0.707813 0.787971 0.803770
O O11 0.958844 0.762756 0.010096
O O12 0.536984 0.915175 0.666156
O O13 0.000546 0.336285 0.479295
O O14 0.500000 0.804079 0.750000
#
# Coordination Sequence:
#
# PCOD9254363 Si02
#       7
#     8   8   8   8   4   8   8
#     4  11  23  43  67  89 124 168 224 275 319 381
#     4  11  21  35  60  87 122 164 207 268 322 378
#     4  11  19  34  55  90 125 159 206 257 319 381
#     4  11  24  43  66  95 128 170 219 270 326 386
#     4  10  16  30  48  80 124 154 188 254 306 366
#     4  11  19  32  55  89 124 160 204 255 326 375
#     4  12  24  41  64  97 137 169 211 265 328 395
#
# _framework density 22.178028999999999
#
# number of rings (size 3 to 8) (size 9 to 14) (size 15 to 20)
#    0.000    0.923    6.923    2.308    0.000    0.000 
#    0.000    0.769    0.000    0.000    0.000    0.000 
#    0.000    0.000    0.000    0.000    0.000    0.000 
#
# Total GULP energy -144957.143233 kJ/mol
# GULP energy per Si atom -5575.274740 kJ/mol
# Density = 2.212755 g / cm^3
# Si number density = 22.178029 Si / 1000 Ang^3
#
#
#
# Elastic Constant Matrix: (Units=GPa)
#
#
# Indices 1 2 3 4 5 6 
#
# 1 79.0443 2.3741 13.0165 0.0000 -16.9305 0.0000
# 2 2.3741 71.8264 6.1954 0.0000 -8.6339 0.0000
# 3 13.0165 6.1954 40.3071 0.0000 -12.3887 0.0000
# 4 0.0000 0.0000 0.0000 28.4397 0.0000 -9.7618
# 5 -16.9305 -8.6339 -12.3887 0.0000 34.5895 0.0000
# 6 0.0000 0.0000 0.0000 -9.7618 0.0000 34.5030
#
#
#
# Elastic Compliance Matrix: (Units=1/GPa)
#
#
# Indices 1 2 3 4 5 6 
#
# 1 0.014425 0.000510 -0.002840 0.000000 0.006171 0.000000
# 2 0.000510 0.014427 -0.001347 0.000000 0.003368 0.000000
# 3 -0.002840 -0.001347 0.028546 0.000000 0.008498 0.000000
# 4 0.000000 0.000000 0.000000 0.038944 0.000000 0.011018
# 5 0.006171 0.003368 0.008498 0.000000 0.035815 0.000000
# 6 0.000000 0.000000 0.000000 0.011018 0.000000 0.032100
#
#
# Mechanical properties :
#
#
# Convention : Reuss Voigt Hill
#
# Bulk Modulus (GPa) = 19.98270 26.03887 23.01079
# Shear Modulus (GPa) = 26.55446 30.81257 28.68351
#
# Velocity S-wave (km/s) = 3.46400 3.73141 3.60019
# Velocity P-wave (km/s) = 5.00288 5.50735 5.26116
#
# Compressibility (1/GPa) = 0.05004328
#
# Stress axis : x y z
#
# Youngs Moduli (GPa) = 69.32296 69.31614 35.03172
#
# Poissons Ratio (x) = -0.03535 0.09950
# Poissons Ratio (y) = -0.03535 0.04718
# Poissons Ratio (z) = 0.19689 0.09336
#
# Static dielectric constant tensor:
#      x y z
#    x 1.817830 0.000000 0.004950 
#    y 0.000000 1.870660 0.000000 
#    z 0.004950 0.000000 1.819050 
# 
# From -- ./inp_files/43641.got.cif
#   From: 2010.05.17/outbox.cif.g08.bks.cpg/sg15_22_cif.got.tgz:43641.got - 2010.06.03 18:47:42.
