data_PCOD9254498
_publ_section_title
;
Structure prediction by ZEFSAII (Michael W. Deem and Ramdas Pophale) SiO2 
 PCOD9254498
Probable space group: C 2/C
;
_chemical_formula_sum "Si O2"
_cell_formula_units_Z 40
_cell_length_a 11.730211
_cell_length_b 9.974429
_cell_length_c 13.941352
_cell_angle_alpha 90.000000
_cell_angle_beta 90.444040
_cell_angle_gamma 90.000000
_cell_volume 1631.119267
_symmetry_space_group_name_H-M "C 2/C"
_symmetry_group_IT_number 15
_symmetry_cell_setting 'monoclinic'
loop_
_space_group_symop_operation_xyz
x,y,z
-x,y,1/2-z
-x,-y,-z
x,-y,1/2+z
1/2+x,1/2+y,z
1/2-x,1/2+y,1/2-z
1/2-x,1/2-y,-z
1/2+x,1/2-y,1/2+z
loop_
_atom_site_type_symbol
_atom_site_label
_atom_site_fract_x
_atom_site_fract_y
_atom_site_fract_z
Si Si1 0.619189 0.309391 0.493122
Si Si2 0.181567 0.072880 0.596583
Si Si3 0.842535 0.618831 0.439182
Si Si4 0.308932 0.567230 0.681117
Si Si5 0.059293 0.622975 0.649446
O O1 0.750000 0.250000 0.500000
O O2 0.617924 0.451957 0.545330
O O3 0.602723 0.347386 0.381438
O O4 0.539579 0.213483 0.555599
O O5 0.145378 0.224343 0.574111
O O6 0.308152 0.073015 0.546954
O O7 0.168662 0.044757 0.708520
O O8 0.730226 0.567160 0.376485
O O9 0.939402 0.529533 0.389711
O O10 0.191298 0.650704 0.677484
O O11 0.000000 0.642248 0.750000
#
# Coordination Sequence:
#
# PCOD9254498 Si02
#       5
#     8   8   8   8   8
#     4   9  17  31  49  74  95 125 162 211 228 286
#     4  10  16  31  51  75  95 116 171 206 249 266
#     4   8  19  28  47  77  95 123 157 215 234 283
#     4   8  18  28  54  71  93 126 162 204 240 280
#     4   9  18  33  48  69 103 134 161 191 246 294
#
# _framework density 24.523038
#
# number of rings (size 3 to 8) (size 9 to 14) (size 15 to 20)
#    1.200    2.000    2.000    0.000    5.600    0.000 
#    0.000    2.000    0.000    1.200    0.000    0.000 
#    0.000    0.000    0.000    0.000    0.000    0.000 
#
# Total GULP energy -111469.758110 kJ/mol
# GULP energy per Si atom -5573.487906 kJ/mol
# Density = 2.446722 g / cm^3
# Si number density = 24.523038 Si / 1000 Ang^3
#
#
#
# Elastic Constant Matrix: (Units=GPa)
#
#
# Indices 1 2 3 4 5 6 
#
# 1 45.3515 12.6841 26.5036 0.0000 -8.8140 0.0000
# 2 12.6841 141.2425 56.3864 0.0000 -15.1825 0.0000
# 3 26.5036 56.3864 237.1653 0.0000 -7.6065 0.0000
# 4 0.0000 0.0000 0.0000 36.0010 0.0000 -2.4777
# 5 -8.8140 -15.1825 -7.6065 0.0000 34.6203 0.0000
# 6 0.0000 0.0000 0.0000 -2.4777 0.0000 5.6480
#
#
#
# Elastic Compliance Matrix: (Units=1/GPa)
#
#
# Indices 1 2 3 4 5 6 
#
# 1 0.024718 -0.000662 -0.002429 0.000000 0.005469 0.000000
# 2 -0.000662 0.008172 -0.001772 0.000000 0.003026 0.000000
# 3 -0.002429 -0.001772 0.004899 0.000000 -0.000319 0.000000
# 4 0.000000 0.000000 0.000000 0.028642 0.000000 0.012565
# 5 0.005469 0.003026 -0.000319 0.000000 0.031534 0.000000
# 6 0.000000 0.000000 0.000000 0.012565 0.000000 0.182565
#
#
# Mechanical properties :
#
#
# Convention : Reuss Voigt Hill
#
# Bulk Modulus (GPa) = 35.63516 68.32305 51.97911
# Shear Modulus (GPa) = 16.68833 37.13289 26.91061
#
# Velocity S-wave (km/s) = 2.61150 3.89550 3.31624
# Velocity P-wave (km/s) = 4.86375 6.93934 5.99210
#
# Compressibility (1/GPa) = 0.02806217
#
# Stress axis : x y z
#
# Youngs Moduli (GPa) = 40.45669 122.36735 204.12343
#
# Poissons Ratio (x) = 0.08101 0.49591
# Poissons Ratio (y) = 0.02678 0.36169
# Poissons Ratio (z) = 0.09829 0.21682
#
# Static dielectric constant tensor:
#      x y z
#    x 2.185050 0.000000 -0.004820 
#    y 0.000000 1.904150 0.000000 
#    z -0.004820 0.000000 1.973270 
# 
# From -- ./inp_files/166788.got.cif
#   From: 2010.05.17/outbox.cif.g08.bks.cpg/sg15_84_cif.got.tgz:166788.got - 2010.06.03 18:47:42.
