data_PCOD9254405
_publ_section_title
;
Structure prediction by ZEFSAII (Michael W. Deem and Ramdas Pophale) SiO2 
 PCOD9254405
Probable space group: C 2/C
;
_chemical_formula_sum "Si O2"
_cell_formula_units_Z 56
_cell_length_a 16.863031
_cell_length_b 9.048195
_cell_length_c 18.289956
_cell_angle_alpha 90.000000
_cell_angle_beta 119.935563
_cell_angle_gamma 90.000000
_cell_volume 2418.368671
_symmetry_space_group_name_H-M "C 2/C"
_symmetry_group_IT_number 15
_symmetry_cell_setting 'monoclinic'
loop_
_space_group_symop_operation_xyz
x,y,z
-x,y,1/2-z
-x,-y,-z
x,-y,1/2+z
1/2+x,1/2+y,z
1/2-x,1/2+y,1/2-z
1/2-x,1/2-y,-z
1/2+x,1/2-y,1/2+z
loop_
_atom_site_type_symbol
_atom_site_label
_atom_site_fract_x
_atom_site_fract_y
_atom_site_fract_z
Si Si1 0.111406 0.421379 0.105531
Si Si2 0.901246 0.092781 0.844282
Si Si3 0.601110 0.476094 0.944057
Si Si4 0.967349 0.633483 0.313062
Si Si5 0.840377 0.746717 0.091495
Si Si6 0.207214 0.120694 0.131135
Si Si7 0.405896 0.192503 0.486402
O O1 0.178526 0.284575 0.140989
O O2 0.141036 0.537741 0.055952
O O3 0.091275 0.518643 0.168074
O O4 0.011723 0.351008 0.043904
O O5 0.898492 0.205834 0.911155
O O6 0.918772 0.205631 0.786509
O O7 0.812720 0.990298 0.811514
O O8 0.991217 0.991027 0.893422
O O9 0.635794 0.578109 0.893369
O O10 0.641576 0.558729 0.035189
O O11 0.625076 0.302790 0.963122
O O12 0.065855 0.675387 0.396344
O O13 0.000000 0.577835 0.250000
O O14 0.806029 0.640550 0.140942
O O15 0.750000 0.750000 0.000000
#
# Coordination Sequence:
#
# PCOD9254405 Si02
#       7
#     8   8   8   8   8   8   8
#     4  10  18  27  53  79 102 138 177 222 258 313
#     4   9  15  29  53  73  97 140 182 211 252 321
#     4   9  14  28  46  76 110 137 165 210 263 321
#     4  10  22  39  53  71 106 150 178 210 272 339
#     4   9  20  32  55  80 110 135 168 221 277 305
#     4  10  16  30  52  81 100 132 179 227 255 305
#     4   9  15  24  47  78 106 129 178 211 257 308
#
# _framework density 23.156103999999999
#
# number of rings (size 3 to 8) (size 9 to 14) (size 15 to 20)
#    0.000    2.571    2.857    0.857    6.000    0.000 
#    0.000    2.857    6.286    0.000    0.000    0.000 
#    0.000    0.000    0.000    0.000    0.000    0.000 
#
# Total GULP energy -155999.603637 kJ/mol
# GULP energy per Si atom -5571.414416 kJ/mol
# Density = 2.310340 g / cm^3
# Si number density = 23.156104 Si / 1000 Ang^3
#
#
#
# Elastic Constant Matrix: (Units=GPa)
#
#
# Indices 1 2 3 4 5 6 
#
# 1 100.3300 45.0182 3.7913 0.0000 5.0811 0.0000
# 2 45.0182 146.2393 12.3577 0.0000 -11.2875 0.0000
# 3 3.7913 12.3577 39.9194 0.0000 4.7680 0.0000
# 4 0.0000 0.0000 0.0000 15.6775 0.0000 -6.4646
# 5 5.0811 -11.2875 4.7680 0.0000 21.5166 0.0000
# 6 0.0000 0.0000 0.0000 -6.4646 0.0000 44.5410
#
#
#
# Elastic Compliance Matrix: (Units=1/GPa)
#
#
# Indices 1 2 3 4 5 6 
#
# 1 0.012081 -0.004187 0.000772 0.000000 -0.005221 0.000000
# 2 -0.004187 0.008879 -0.003108 0.000000 0.006335 0.000000
# 3 0.000772 -0.003108 0.026867 0.000000 -0.007766 0.000000
# 4 0.000000 0.000000 0.000000 0.067846 0.000000 0.009847
# 5 -0.005221 0.006335 -0.007766 0.000000 0.052753 0.000000
# 6 0.000000 0.000000 0.000000 0.009847 0.000000 0.023880
#
#
# Mechanical properties :
#
#
# Convention : Reuss Voigt Hill
#
# Bulk Modulus (GPa) = 28.75070 45.42480 37.08775
# Shear Modulus (GPa) = 23.04734 31.36845 27.20790
#
# Velocity S-wave (km/s) = 3.15826 3.68455 3.43151
# Velocity P-wave (km/s) = 5.07371 6.14496 5.63485
#
# Compressibility (1/GPa) = 0.03478176
#
# Stress axis : x y z
#
# Youngs Moduli (GPa) = 82.77344 112.62911 37.22078
#
# Poissons Ratio (x) = 0.47161 -0.02875
# Poissons Ratio (y) = 0.34660 0.11567
# Poissons Ratio (z) = -0.06394 0.35000
#
# Static dielectric constant tensor:
#      x y z
#    x 1.892900 0.000000 -0.076010 
#    y 0.000000 1.880730 0.000000 
#    z -0.076010 0.000000 2.010210 
# 
# From -- ./inp_files/247568.got.cif
#   From: 2010.05.17/outbox.cif.g08.bks.cpg/sg15_124_cif.got.tgz:247568.got - 2010.06.03 18:47:42.
