data_PCOD9254566
_publ_section_title
;
Structure prediction by ZEFSAII (Michael W. Deem and Ramdas Pophale) SiO2 
 PCOD9254566
Probable space group: C 2/C
;
_chemical_formula_sum "Si O2"
_cell_formula_units_Z 60
_cell_length_a 9.440980
_cell_length_b 27.271572
_cell_length_c 10.655991
_cell_angle_alpha 90.000000
_cell_angle_beta 71.055644
_cell_angle_gamma 90.000000
_cell_volume 2594.992816
_symmetry_space_group_name_H-M "C 2/C"
_symmetry_group_IT_number 15
_symmetry_cell_setting 'monoclinic'
loop_
_space_group_symop_operation_xyz
x,y,z
-x,y,1/2-z
-x,-y,-z
x,-y,1/2+z
1/2+x,1/2+y,z
1/2-x,1/2+y,1/2-z
1/2-x,1/2-y,-z
1/2+x,1/2-y,1/2+z
loop_
_atom_site_type_symbol
_atom_site_label
_atom_site_fract_x
_atom_site_fract_y
_atom_site_fract_z
Si Si1 0.500000 0.796254 0.250000
Si Si2 0.306584 0.248820 0.127949
Si Si3 0.668954 0.026725 0.735635
Si Si4 0.466002 0.152968 0.029444
Si Si5 0.280231 0.589552 0.465212
Si Si6 0.065976 0.151082 0.896862
Si Si7 0.268493 0.608688 0.892288
Si Si8 0.043972 0.019470 0.352049
O O1 0.649081 0.764164 0.239106
O O2 0.467398 0.830101 0.380895
O O3 0.387266 0.197060 0.126544
O O4 0.433989 0.290401 0.112038
O O5 0.250000 0.250000 0.000000
O O6 0.500000 0.015288 0.750000
O O7 0.724609 0.060396 0.603801
O O8 0.697950 0.057957 0.855974
O O9 0.777595 0.979815 0.700507
O O10 0.361612 0.105388 0.072900
O O11 0.636557 0.137492 0.000844
O O12 0.354658 0.639011 0.495684
O O13 0.415710 0.559770 0.367632
O O14 0.173409 0.135427 0.751196
O O15 0.918944 0.116561 0.931554
O O16 0.000000 0.982441 0.250000
O O17 0.000000 0.000000 0.500000
#
# Coordination Sequence:
#
# PCOD9254566 Si02
#       8
#     4   8   8   8   8   8   8   8
#     4  10  16  32  50  80 108 146 204 262 300 374
#     4  10  19  30  53  84 115 152 210 259 314 374
#     4  10  19  36  63  93 118 163 217 276 332 397
#     4  11  18  33  56  83 116 160 206 265 313 396
#     4  10  19  36  58  87 124 157 211 264 327 403
#     4  10  19  33  53  88 115 160 204 264 323 378
#     4  10  20  31  59  86 116 154 214 266 319 387
#     4  10  24  42  64  96 132 166 214 282 341 405
#
# _framework density 23.121452000000001
#
# number of rings (size 3 to 8) (size 9 to 14) (size 15 to 20)
#    0.000    1.867    5.333    0.800    5.600    0.533 
#    1.200    4.000    0.000    0.000    0.000    0.000 
#    0.000    0.000    0.000    0.000    0.000    0.000 
#
# Total GULP energy -167048.411278 kJ/mol
# GULP energy per Si atom -5568.280376 kJ/mol
# Density = 2.306883 g / cm^3
# Si number density = 23.121452 Si / 1000 Ang^3
#
#
#
# Elastic Constant Matrix: (Units=GPa)
#
#
# Indices 1 2 3 4 5 6 
#
# 1 160.8702 43.4921 35.9583 0.0000 -47.2821 0.0000
# 2 43.4921 62.3016 11.7408 0.0000 -28.1634 0.0000
# 3 35.9583 11.7408 41.5579 0.0000 -16.9946 0.0000
# 4 0.0000 0.0000 0.0000 16.9221 0.0000 -14.8828
# 5 -47.2821 -28.1634 -16.9946 0.0000 37.1811 0.0000
# 6 0.0000 0.0000 0.0000 -14.8828 0.0000 34.1734
#
#
#
# Elastic Compliance Matrix: (Units=1/GPa)
#
#
# Indices 1 2 3 4 5 6 
#
# 1 0.010750 -0.002143 -0.004636 0.000000 0.009928 0.000000
# 2 -0.002143 0.024859 0.001743 0.000000 0.016901 0.000000
# 3 -0.004636 0.001743 0.031621 0.000000 0.009878 0.000000
# 4 0.000000 0.000000 0.000000 0.095781 0.000000 0.041713
# 5 0.009928 0.016901 0.009878 0.000000 0.056838 0.000000
# 6 0.000000 0.000000 0.000000 0.041713 0.000000 0.047429
#
#
# Mechanical properties :
#
#
# Convention : Reuss Voigt Hill
#
# Bulk Modulus (GPa) = 17.49551 49.67912 33.58731
# Shear Modulus (GPa) = 16.86901 29.22454 23.04678
#
# Velocity S-wave (km/s) = 2.70401 3.55908 3.16059
# Velocity P-wave (km/s) = 4.16318 6.19856 5.27988
#
# Compressibility (1/GPa) = 0.05715751
#
# Stress axis : x y z
#
# Youngs Moduli (GPa) = 93.02548 40.22766 31.62428
#
# Poissons Ratio (x) = 0.08619 0.14661
# Poissons Ratio (y) = 0.19932 -0.05511
# Poissons Ratio (z) = 0.43126 -0.07010
#
# Static dielectric constant tensor:
#      x y z
#    x 1.943370 0.000000 0.117700 
#    y 0.000000 2.066140 0.000000 
#    z 0.117700 0.000000 2.195450 
# 
# From -- ./inp_files/82559.got.cif
#   From: 2010.05.17/outbox.cif.g08.bks.cpg/sg15_42_cif.got.tgz:82559.got - 2010.06.03 18:47:42.
