data_PCOD9254867
_publ_section_title
;
Structure prediction by ZEFSAII (Michael W. Deem and Ramdas Pophale) SiO2 
 PCOD9254867
Probable space group: C 2/C
;
_chemical_formula_sum "Si O2"
_cell_formula_units_Z 44
_cell_length_a 9.206655
_cell_length_b 23.792425
_cell_length_c 10.596103
_cell_angle_alpha 90.000000
_cell_angle_beta 67.128396
_cell_angle_gamma 90.000000
_cell_volume 2138.575836
_symmetry_space_group_name_H-M "C 2/C"
_symmetry_group_IT_number 15
_symmetry_cell_setting 'monoclinic'
loop_
_space_group_symop_operation_xyz
x,y,z
-x,y,1/2-z
-x,-y,-z
x,-y,1/2+z
1/2+x,1/2+y,z
1/2-x,1/2+y,1/2-z
1/2-x,1/2-y,-z
1/2+x,1/2-y,1/2+z
loop_
_atom_site_type_symbol
_atom_site_label
_atom_site_fract_x
_atom_site_fract_y
_atom_site_fract_z
Si Si1 0.331683 0.090466 0.424590
Si Si2 0.500000 0.000018 0.750000
Si Si3 0.606765 0.213369 0.096297
Si Si4 0.113873 0.416956 0.016757
Si Si5 0.896966 0.708554 0.914212
Si Si6 0.395714 0.504925 0.908699
O O1 0.316196 0.153842 0.385790
O O2 0.502893 0.092765 0.433997
O O3 0.351211 0.040663 0.316758
O O4 0.195831 0.064970 0.556948
O O5 0.499913 0.041747 0.865870
O O6 0.500000 0.233585 0.250000
O O7 0.750000 0.250000 0.000000
O O8 0.503705 0.209870 0.003858
O O9 0.150363 0.357935 0.073710
O O10 0.269708 0.453867 0.946229
O O11 0.000000 0.721312 0.750000
O O12 0.750000 0.750000 0.000000
O O13 0.500000 0.501964 0.750000
O O14 0.500000 0.500000 0.000000
#
# Coordination Sequence:
#
# PCOD9254867 Si02
#       6
#     8   4   8   8   8   8
#     4  10  23  39  66  88 124 173 219 252 308 396
#     4  10  16  36  64  84 114 152 228 240 288 368
#     4  11  24  43  67  97 128 171 219 269 324 382
#     4  10  23  39  66  88 124 173 219 252 308 396
#     4  11  24  43  67  97 128 171 219 269 324 382
#     4  11  26  37  58  94 131 159 202 268 331 358
#
# _framework density 20.574439999999999
#
# number of rings (size 3 to 8) (size 9 to 14) (size 15 to 20)
#    0.000    1.455    1.818    3.273   10.182    2.909 
#    0.000    0.000    0.000    0.000    0.000    0.000 
#    0.000    0.000    0.000    0.000    0.000    0.000 
#
# Total GULP energy -122507.407350 kJ/mol
# GULP energy per Si atom -5568.518516 kJ/mol
# Density = 2.052761 g / cm^3
# Si number density = 20.574440 Si / 1000 Ang^3
#
#
#
# Elastic Constant Matrix: (Units=GPa)
#
#
# Indices 1 2 3 4 5 6 
#
# 1 86.6839 28.8690 39.0208 0.0000 -7.6878 0.0000
# 2 28.8690 128.2308 58.2563 0.0000 -24.1362 0.0000
# 3 39.0208 58.2563 177.0409 0.0000 -13.5039 0.0000
# 4 0.0000 0.0000 0.0000 21.3361 0.0000 1.4271
# 5 -7.6878 -24.1362 -13.5039 0.0000 31.7841 0.0000
# 6 0.0000 0.0000 0.0000 1.4271 0.0000 10.3751
#
#
#
# Elastic Compliance Matrix: (Units=1/GPa)
#
#
# Indices 1 2 3 4 5 6 
#
# 1 0.013226 -0.001784 -0.002261 0.000000 0.000884 0.000000
# 2 -0.001784 0.010609 -0.002600 0.000000 0.006520 0.000000
# 3 -0.002261 -0.002600 0.007038 0.000000 0.000469 0.000000
# 4 0.000000 0.000000 0.000000 0.047304 0.000000 -0.006507
# 5 0.000884 0.006520 0.000469 0.000000 0.036826 0.000000
# 6 0.000000 0.000000 0.000000 -0.006507 0.000000 0.097280
#
#
# Mechanical properties :
#
#
# Convention : Reuss Voigt Hill
#
# Bulk Modulus (GPa) = 56.87426 71.58308 64.22867
# Shear Modulus (GPa) = 21.60436 30.41969 26.01203
#
# Velocity S-wave (km/s) = 3.24398 3.84932 3.55954
# Velocity P-wave (km/s) = 6.46021 7.39081 6.94113
#
# Compressibility (1/GPa) = 0.01758265
#
# Stress axis : x y z
#
# Youngs Moduli (GPa) = 75.60625 94.26291 142.08474
#
# Poissons Ratio (x) = 0.16820 0.32120
# Poissons Ratio (y) = 0.13491 0.36946
# Poissons Ratio (z) = 0.17092 0.24511
#
# Static dielectric constant tensor:
#      x y z
#    x 2.054540 0.000000 0.190440 
#    y 0.000000 1.806310 0.000000 
#    z 0.190440 0.000000 1.918560 
# 
# From -- ./inp_files/43349.got.cif
#   From: 2010.05.17/outbox.cif.g08.bks.cpg/sg15_22_cif.got.tgz:43349.got - 2010.06.03 18:47:42.
