data_PCOD9254978
_publ_section_title
;
Structure prediction by ZEFSAII (Michael W. Deem and Ramdas Pophale) SiO2 
 PCOD9254978
Probable space group: C 2/C
;
_chemical_formula_sum "Si O2"
_cell_formula_units_Z 64
_cell_length_a 21.675877
_cell_length_b 11.637466
_cell_length_c 24.234597
_cell_angle_alpha 90.000000
_cell_angle_beta 146.722774
_cell_angle_gamma 90.000000
_cell_volume 3354.272883
_symmetry_space_group_name_H-M "C 2/C"
_symmetry_group_IT_number 15
_symmetry_cell_setting 'monoclinic'
loop_
_space_group_symop_operation_xyz
x,y,z
-x,y,1/2-z
-x,-y,-z
x,-y,1/2+z
1/2+x,1/2+y,z
1/2-x,1/2+y,1/2-z
1/2-x,1/2-y,-z
1/2+x,1/2-y,1/2+z
loop_
_atom_site_type_symbol
_atom_site_label
_atom_site_fract_x
_atom_site_fract_y
_atom_site_fract_z
Si Si1 0.823383 0.897919 0.216621
Si Si2 0.375770 0.596347 0.180022
Si Si3 0.590514 0.242777 0.690605
Si Si4 0.083800 0.542436 0.515683
Si Si5 0.603848 0.193048 0.164215
Si Si6 0.825557 0.854794 0.381815
Si Si7 0.154579 0.685413 0.005507
Si Si8 0.841525 0.931731 0.833731
O O1 0.688790 0.883497 0.114932
O O2 0.883682 0.779451 0.275403
O O3 0.857490 0.965666 0.186849
O O4 0.848226 0.980726 0.287202
O O5 0.500000 0.608183 0.250000
O O6 0.371494 0.672831 0.232180
O O7 0.273617 0.649173 0.066985
O O8 0.693415 0.153011 0.764065
O O9 0.467296 0.196876 0.613523
O O10 0.588054 0.319875 0.632751
O O11 0.135913 0.426025 0.530454
O O12 0.000000 0.500000 0.500000
O O13 0.007133 0.616694 0.417776
O O14 0.610028 0.270128 0.112748
O O15 0.714810 0.114791 0.244161
O O16 0.832359 0.799746 0.447475
O O17 0.866378 0.985592 0.404207
#
# Coordination Sequence:
#
# PCOD9254978 Si02
#       8
#     8   8   8   8   8   8   8   8
#     4   9  19  31  45  72  95 123 168 195 236 287
#     4   9  19  37  53  67  89 120 164 214 251 281
#     4   9  18  29  45  71  97 121 165 203 231 288
#     4  11  17  28  47  71  96 135 165 183 220 292
#     4  10  17  26  45  68  99 134 159 189 227 279
#     4   9  17  27  40  66 102 136 155 182 231 280
#     4  10  19  30  48  71  95 127 164 196 232 293
#     4   9  16  26  41  67 105 135 149 184 233 280
#
# _framework density 19.080141000000001
#
# number of rings (size 3 to 8) (size 9 to 14) (size 15 to 20)
#    0.000    2.500    2.500    2.250    3.500    1.000 
#    0.000    2.500    0.000    3.000    0.000    7.875 
#    0.000    0.000    0.000    0.000    0.000    0.000 
#
# Total GULP energy -178191.277500 kJ/mol
# GULP energy per Si atom -5568.477422 kJ/mol
# Density = 1.903671 g / cm^3
# Si number density = 19.080141 Si / 1000 Ang^3
#
#
#
# Elastic Constant Matrix: (Units=GPa)
#
#
# Indices 1 2 3 4 5 6 
#
# 1 24.0472 4.6273 7.5428 0.0000 21.7322 0.0000
# 2 4.6273 54.4142 18.0908 0.0000 2.9681 0.0000
# 3 7.5428 18.0908 79.3465 0.0000 27.3492 0.0000
# 4 0.0000 0.0000 0.0000 27.8102 0.0000 1.4577
# 5 21.7322 2.9681 27.3492 0.0000 28.8294 0.0000
# 6 0.0000 0.0000 0.0000 1.4577 0.0000 10.9480
#
#
#
# Elastic Compliance Matrix: (Units=1/GPa)
#
#
# Indices 1 2 3 4 5 6 
#
# 1 0.269608 -0.033225 0.075508 0.000000 -0.271447 0.000000
# 2 -0.033225 0.024199 -0.015056 0.000000 0.036837 0.000000
# 3 0.075508 -0.015056 0.041518 0.000000 -0.094756 0.000000
# 4 0.000000 0.000000 0.000000 0.036211 0.000000 -0.004821
# 5 -0.271447 0.036837 -0.094756 0.000000 0.325407 0.000000
# 6 0.000000 0.000000 0.000000 -0.004821 0.000000 0.091983
#
#
# Mechanical properties :
#
#
# Convention : Reuss Voigt Hill
#
# Bulk Modulus (GPa) = 2.56555 24.25886 13.41220
# Shear Modulus (GPa) = 5.78437 22.02065 13.90251
#
# Velocity S-wave (km/s) = 1.74304 3.40091 2.70226
# Velocity P-wave (km/s) = 2.32346 5.30692 4.09645
#
# Compressibility (1/GPa) = 0.38978056
#
# Stress axis : x y z
#
# Youngs Moduli (GPa) = 3.70909 41.32356 24.08573
#
# Poissons Ratio (x) = 1.37297 -1.81867
# Poissons Ratio (y) = 0.12323 0.36263
# Poissons Ratio (z) = -0.28007 0.62217
#
# Static dielectric constant tensor:
#      x y z
#    x 1.675600 0.000000 0.014700 
#    y 0.000000 1.702650 0.000000 
#    z 0.014700 0.000000 1.765540 
# 
# From -- ./inp_files/283507.got.cif
#   From: 2010.05.17/outbox.cif.g08.bks.cpg/sg15_142_cif.got.tgz:283507.got - 2010.06.03 18:47:42.
