data_PCOD9254169
_publ_section_title
;
Structure prediction by ZEFSAII (Michael W. Deem and Ramdas Pophale) SiO2 
 PCOD9254169
Probable space group: C 2/C
;
_chemical_formula_sum "Si O2"
_cell_formula_units_Z 56
_cell_length_a 15.682676
_cell_length_b 28.748343
_cell_length_c 5.544164
_cell_angle_alpha 90.000000
_cell_angle_beta 110.700131
_cell_angle_gamma 90.000000
_cell_volume 2338.226021
_symmetry_space_group_name_H-M "C 2/C"
_symmetry_group_IT_number 15
_symmetry_cell_setting 'monoclinic'
loop_
_space_group_symop_operation_xyz
x,y,z
-x,y,1/2-z
-x,-y,-z
x,-y,1/2+z
1/2+x,1/2+y,z
1/2-x,1/2+y,1/2-z
1/2-x,1/2-y,-z
1/2+x,1/2-y,1/2+z
loop_
_atom_site_type_symbol
_atom_site_label
_atom_site_fract_x
_atom_site_fract_y
_atom_site_fract_z
Si Si1 0.390701 0.813437 0.890712
Si Si2 0.749909 0.457531 0.749875
Si Si3 0.554233 0.556644 0.054227
Si Si4 0.600958 0.665402 0.100947
Si Si5 0.317191 0.058452 0.817150
Si Si6 0.891872 0.202783 0.891883
Si Si7 0.902085 0.351040 0.402092
O O1 0.384098 0.758100 0.884099
O O2 0.356088 0.833608 0.602611
O O3 0.356085 0.833603 0.109602
O O4 0.497159 0.829306 0.997161
O O5 0.645702 0.473985 0.645690
O O6 0.817948 0.502127 0.817901
O O7 0.766169 0.431145 0.516780
O O8 0.766179 0.431143 0.015486
O O9 0.500000 0.550341 0.250000
O O10 0.587314 0.610246 0.087308
O O11 0.500000 0.550342 0.750000
O O12 0.645084 0.682312 0.394240
O O13 0.499199 0.688138 0.999198
O O14 0.645084 0.682310 0.895891
O O15 0.403321 0.092640 0.903299
#
# Coordination Sequence:
#
# PCOD9254169 Si02
#       7
#     8   8   8   8   8   8   8
#     4  10  19  30  53  96 114 144 186 243 290 319
#     4  10  23  40  62  81 109 146 202 235 283 364
#     4  12  21  37  57  90 116 139 189 244 305 334
#     4  10  16  27  46  75 115 147 168 208 288 349
#     4  10  21  42  59  79 107 158 198 229 286 349
#     4  10  16  28  46  80 124 142 172 214 292 348
#     4  10  18  32  56  81 119 145 191 237 281 339
#
# _framework density 23.949780000000001
#
# number of rings (size 3 to 8) (size 9 to 14) (size 15 to 20)
#    0.000    1.714    2.857    6.000    0.000    0.000 
#    0.000    8.571    0.000   41.143    0.000   34.000 
#    0.000    0.000    0.000    0.000    0.000    0.000 
#
# Total GULP energy -156290.605474 kJ/mol
# GULP energy per Si atom -5581.807338 kJ/mol
# Density = 2.389527 g / cm^3
# Si number density = 23.949780 Si / 1000 Ang^3
#
#
#
# Elastic Constant Matrix: (Units=GPa)
#
#
# Indices 1 2 3 4 5 6 
#
# 1 46.6493 27.8842 50.8568 0.0000 -10.9736 0.0000
# 2 27.8842 171.2529 46.7703 0.0000 -7.7729 0.0000
# 3 50.8568 46.7703 245.4655 0.0000 -70.8341 0.0000
# 4 0.0000 0.0000 0.000011376.5642 0.0000-4074.8054
# 5 -10.9736 -7.7729 -70.8341 0.0000 35.8753 0.0000
# 6 0.0000 0.0000 0.0000-4074.8054 0.0000 1473.1084
#
#
#
# Elastic Compliance Matrix: (Units=1/GPa)
#
#
# Indices 1 2 3 4 5 6 
#
# 1 0.029888 -0.003138 -0.007327 0.000000 -0.006005 0.000000
# 2 -0.003138 0.006571 -0.001088 0.000000 -0.001684 0.000000
# 3 -0.007327 -0.001088 0.011818 0.000000 0.020857 0.000000
# 4 0.000000 0.000000 0.000000 0.009512 0.000000 0.026311
# 5 -0.006005 -0.001684 0.020857 0.000000 0.066854 0.000000
# 6 0.000000 0.000000 0.000000 0.026311 0.000000 0.073457
#
#
# Mechanical properties :
#
#
# Convention : Reuss Voigt Hill
#
# Bulk Modulus (GPa) = 39.72896 79.37671 59.55284
# Shear Modulus (GPa) = 21.77733 2599.63333 1310.70533
#
# Velocity S-wave (km/s) = 3.01872 32.98194 23.41923
# Velocity P-wave (km/s) = 5.36420 38.51787 27.49910
#
# Compressibility (1/GPa) = 0.02517055
#
# Stress axis : x y z
#
# Youngs Moduli (GPa) = 33.45850 152.18612 84.61604
#
# Poissons Ratio (x) = 0.47754 0.62001
# Poissons Ratio (y) = 0.10499 0.09205
# Poissons Ratio (z) = 0.24516 0.16555
#
# Static dielectric constant tensor:
#      x y z
#    x 1.896540 0.000000 -0.029480 
#    y 0.000000 1.893880 0.000000 
#    z -0.029480 0.000000 1.968140 
# 
# From -- ./inp_files/12052.got.cif
#   From: 2010.05.17/outbox.cif.g08.bks.cpg/sg15_7_cif.got.tgz:12052.got - 2010.06.03 18:47:42.
