data_PCOD9254932
_publ_section_title
;
Structure prediction by ZEFSAII (Michael W. Deem and Ramdas Pophale) SiO2 
 PCOD9254932
Probable space group: C 2/C
;
_chemical_formula_sum "Si O2"
_cell_formula_units_Z 40
_cell_length_a 12.044986
_cell_length_b 38.570284
_cell_length_c 5.323540
_cell_angle_alpha 90.000000
_cell_angle_beta 85.961059
_cell_angle_gamma 90.000000
_cell_volume 2467.059971
_symmetry_space_group_name_H-M "C 2/C"
_symmetry_group_IT_number 15
_symmetry_cell_setting 'monoclinic'
loop_
_space_group_symop_operation_xyz
x,y,z
-x,y,1/2-z
-x,-y,-z
x,-y,1/2+z
1/2+x,1/2+y,z
1/2-x,1/2+y,1/2-z
1/2-x,1/2-y,-z
1/2+x,1/2-y,1/2+z
loop_
_atom_site_type_symbol
_atom_site_label
_atom_site_fract_x
_atom_site_fract_y
_atom_site_fract_z
Si Si1 0.869849 0.777656 0.726942
Si Si2 0.131377 0.592188 0.245554
Si Si3 0.240701 0.703386 0.751428
Si Si4 0.872101 0.486615 0.567767
Si Si5 0.865013 0.371475 0.256908
O O1 0.840838 0.736620 0.721175
O O2 0.825164 0.793092 0.472104
O O3 0.000000 0.782777 0.750000
O O4 0.803352 0.793233 0.975014
O O5 0.136182 0.551909 0.321330
O O6 0.177955 0.614278 0.469599
O O7 0.000000 0.599914 0.250000
O O8 0.173675 0.603900 0.966592
O O9 0.175404 0.667445 0.780015
O O10 0.822914 0.489517 0.296520
O O11 0.000000 0.500000 0.500000
O O12 0.000000 0.372370 0.250000
#
# Coordination Sequence:
#
# PCOD9254932 Si02
#       5
#     8   8   8   8   8
#     4  10  20  34  54  72  92 118 160 196 240 290
#     4  10  18  27  39  60  83 121 163 199 223 263
#     4  10  20  34  50  72  95 122 152 200 245 275
#     4  10  17  24  39  54  80 114 160 214 212 250
#     4  10  20  30  44  62  94 124 160 196 230 283
#
# _framework density 16.213629000000001
#
# number of rings (size 3 to 8) (size 9 to 14) (size 15 to 20)
#    0.000    2.000    2.000    3.600    5.600    0.000 
#    0.000    6.000    0.000    0.000    0.000    0.000 
#    0.000    0.000    0.000    0.000    0.000  252.000 
#
# Total GULP energy -111374.251028 kJ/mol
# GULP energy per Si atom -5568.712551 kJ/mol
# Density = 1.617673 g / cm^3
# Si number density = 16.213629 Si / 1000 Ang^3
#
#
#
# Elastic Constant Matrix: (Units=GPa)
#
#
# Indices 1 2 3 4 5 6 
#
# 1 23.4921 9.1830 15.5397 0.0000 7.6026 0.0000
# 2 9.1830 94.5129 52.2976 0.0000 6.3359 0.0000
# 3 15.5397 52.2976 146.7439 0.0000 15.5529 0.0000
# 4 0.0000 0.0000 0.0000 23.4202 0.0000 0.6111
# 5 7.6026 6.3359 15.5529 0.0000 11.0737 0.0000
# 6 0.0000 0.0000 0.0000 0.6111 0.0000 12.7306
#
#
#
# Elastic Compliance Matrix: (Units=1/GPa)
#
#
# Indices 1 2 3 4 5 6 
#
# 1 0.055701 -0.002310 -0.001366 0.000000 -0.035002 0.000000
# 2 -0.002310 0.013287 -0.004527 0.000000 0.000342 0.000000
# 3 -0.001366 -0.004527 0.009633 0.000000 -0.010001 0.000000
# 4 0.000000 0.000000 0.000000 0.042752 0.000000 -0.002052
# 5 -0.035002 0.000342 -0.010001 0.000000 0.128186 0.000000
# 6 0.000000 0.000000 0.000000 -0.002052 0.000000 0.078649
#
#
# Mechanical properties :
#
#
# Convention : Reuss Voigt Hill
#
# Bulk Modulus (GPa) = 16.07310 46.53217 31.30264
# Shear Modulus (GPa) = 13.68547 21.96014 17.82281
#
# Velocity S-wave (km/s) = 2.90844 3.68424 3.31909
# Velocity P-wave (km/s) = 4.60582 6.84543 5.83410
#
# Compressibility (1/GPa) = 0.06221575
#
# Stress axis : x y z
#
# Youngs Moduli (GPa) = 17.95296 75.26140 103.81480
#
# Poissons Ratio (x) = 0.17385 0.14177
# Poissons Ratio (y) = 0.04147 0.46996
# Poissons Ratio (z) = 0.02452 0.34070
#
# Static dielectric constant tensor:
#      x y z
#    x 1.524550 0.000000 0.034590 
#    y 0.000000 1.564330 0.000000 
#    z 0.034590 0.000000 1.623730 
# 
# From -- ./inp_files/5553.got.cif
#   From: 2010.05.17/outbox.cif.g08.bks.cpg/sg15_3_cif.got.tgz:5553.got - 2010.06.03 18:47:42.
