data_PCOD9254334
_publ_section_title
;
Structure prediction by ZEFSAII (Michael W. Deem and Ramdas Pophale) SiO2 
 PCOD9254334
Probable space group: C 2/C
;
_chemical_formula_sum "Si O2"
_cell_formula_units_Z 36
_cell_length_a 6.750724
_cell_length_b 22.977040
_cell_length_c 14.451465
_cell_angle_alpha 90.000000
_cell_angle_beta 142.578822
_cell_angle_gamma 90.000000
_cell_volume 1362.146128
_symmetry_space_group_name_H-M "C 2/C"
_symmetry_group_IT_number 15
_symmetry_cell_setting 'monoclinic'
loop_
_space_group_symop_operation_xyz
x,y,z
-x,y,1/2-z
-x,-y,-z
x,-y,1/2+z
1/2+x,1/2+y,z
1/2-x,1/2+y,1/2-z
1/2-x,1/2-y,-z
1/2+x,1/2-y,1/2+z
loop_
_atom_site_type_symbol
_atom_site_label
_atom_site_fract_x
_atom_site_fract_y
_atom_site_fract_z
Si Si1 0.797396 0.080044 0.524053
Si Si2 0.500000 0.293755 0.750000
Si Si3 0.136091 0.810342 0.195944
Si Si4 0.836438 0.381982 0.015371
Si Si5 0.338801 0.528751 0.292995
O O1 0.605757 0.085218 0.552120
O O2 0.524901 0.051683 0.357165
O O3 0.905162 0.146822 0.551367
O O4 0.098099 0.036437 0.650271
O O5 0.781862 0.251165 0.817737
O O6 0.647877 0.334979 0.882779
O O7 0.470064 0.845929 0.337317
O O8 0.000000 0.802473 0.250000
O O9 0.564110 0.429083 0.939033
O O10 0.500000 0.533411 0.250000
#
# Coordination Sequence:
#
# PCOD9254334 Si02
#       5
#     8   4   8   8   8
#     4  10  18  32  55  90 118 155 200 251 301 357
#     4  12  22  40  62  84 130 162 198 250 292 356
#     4  10  23  38  60  89 120 163 206 240 298 360
#     4  10  19  36  54  89 119 157 202 246 300 354
#     4  10  16  29  56  85 123 149 197 258 298 351
#
# _framework density 26.428882000000002
#
# number of rings (size 3 to 8) (size 9 to 14) (size 15 to 20)
#    0.000    1.778    3.333    6.667    0.000    3.556 
#    0.000    0.000    0.000    5.333    0.000    0.000 
#    0.000    0.000    0.000    0.000    0.000    0.000 
#
# Total GULP energy -100968.462207 kJ/mol
# GULP energy per Si atom -5609.359011 kJ/mol
# Density = 2.636873 g / cm^3
# Si number density = 26.428882 Si / 1000 Ang^3
#
#
#
# Elastic Constant Matrix: (Units=GPa)
#
#
# Indices 1 2 3 4 5 6 
#
# 1 103.8907 39.8764 21.8058 0.0000 11.8121 0.0000
# 2 39.8764 177.3479 48.7414 0.0000 8.2496 0.0000
# 3 21.8058 48.7414 107.4037 -0.0001 1.3743 0.0000
# 4 0.0000 0.0000 -0.0001 60.8110 0.0000 16.7203
# 5 11.8121 8.2496 1.3743 0.0000 44.9656 0.0000
# 6 0.0000 0.0000 0.0000 16.7203 0.0000 36.1856
#
#
#
# Elastic Compliance Matrix: (Units=1/GPa)
#
#
# Indices 1 2 3 4 5 6 
#
# 1 0.010941 -0.001992 -0.001286 0.000000 -0.002469 0.000000
# 2 -0.001992 0.006859 -0.002700 0.000000 -0.000653 0.000000
# 3 -0.001286 -0.002700 0.010791 0.000000 0.000503 0.000000
# 4 0.000000 0.000000 0.000000 0.018838 0.000000 -0.008704
# 5 -0.002469 -0.000653 0.000503 0.000000 0.022992 0.000000
# 6 0.000000 0.000000 0.000000 -0.008704 0.000000 0.031657
#
#
# Mechanical properties :
#
#
# Convention : Reuss Voigt Hill
#
# Bulk Modulus (GPa) = 60.11363 67.72106 63.91735
# Shear Modulus (GPa) = 41.81399 46.94034 44.37716
#
# Velocity S-wave (km/s) = 3.98192 4.21895 4.10215
# Velocity P-wave (km/s) = 6.62840 7.02939 6.83184
#
# Compressibility (1/GPa) = 0.01663516
#
# Stress axis : x y z
#
# Youngs Moduli (GPa) = 91.40248 145.79659 92.67376
#
# Poissons Ratio (x) = 0.29039 0.11916
# Poissons Ratio (y) = 0.18205 0.25021
# Poissons Ratio (z) = 0.11752 0.39364
#
# Static dielectric constant tensor:
#      x y z
#    x 2.231660 0.000000 -0.007810 
#    y 0.000000 1.949630 0.000000 
#    z -0.007810 0.000000 2.011280 
# 
# From -- ./inp_files/23285.got.cif
#   From: 2010.05.17/outbox.cif.g08.bks.cpg/sg15_12_cif.got.tgz:23285.got - 2010.06.03 18:47:42.
