data_PCOD9254304
_publ_section_title
;
Structure prediction by ZEFSAII (Michael W. Deem and Ramdas Pophale) SiO2 
 PCOD9254304
Probable space group: C 2/C
;
_chemical_formula_sum "Si O2"
_cell_formula_units_Z 40
_cell_length_a 11.119125
_cell_length_b 24.850979
_cell_length_c 7.216911
_cell_angle_alpha 90.000000
_cell_angle_beta 122.595938
_cell_angle_gamma 90.000000
_cell_volume 1680.082174
_symmetry_space_group_name_H-M "C 2/C"
_symmetry_group_IT_number 15
_symmetry_cell_setting 'monoclinic'
loop_
_space_group_symop_operation_xyz
x,y,z
-x,y,1/2-z
-x,-y,-z
x,-y,1/2+z
1/2+x,1/2+y,z
1/2-x,1/2+y,1/2-z
1/2-x,1/2-y,-z
1/2+x,1/2-y,1/2+z
loop_
_atom_site_type_symbol
_atom_site_label
_atom_site_fract_x
_atom_site_fract_y
_atom_site_fract_z
Si Si1 0.327862 0.237390 0.869409
Si Si2 0.518602 0.563118 0.985405
Si Si3 0.500000 0.838633 0.750000
Si Si4 0.338626 0.931770 0.776856
Si Si5 0.452671 0.678319 0.934103
Si Si6 0.000000 0.471329 0.250000
O O1 0.197245 0.208915 0.656785
O O2 0.250000 0.250000 0.000000
O O3 0.454692 0.196978 0.037701
O O4 0.412215 0.289585 0.867101
O O5 0.500000 0.567301 0.750000
O O6 0.434406 0.616297 0.979779
O O7 0.500000 0.500000 0.000000
O O8 0.676606 0.571572 0.194842
O O9 0.371871 0.879331 0.685468
O O10 0.371956 0.987176 0.693527
O O11 0.449288 0.936163 0.036979
O O12 0.500000 0.679297 0.750000
#
# Coordination Sequence:
#
# PCOD9254304 Si02
#       6
#     8   8   4   8   8   4
#     4  10  16  29  48  80 114 138 181 239 290 330
#     4  11  22  36  56  84 118 151 189 238 292 351
#     4  11  18  28  56  86 112 148 183 246 294 348
#     4  10  20  34  54  80 114 153 197 235 296 338
#     4   9  18  29  50  77 113 138 182 233 287 332
#     4   9  20  36  52  76 112 156 195 244 276 356
#
# _framework density 23.808358999999999
#
# number of rings (size 3 to 8) (size 9 to 14) (size 15 to 20)
#    0.000    2.000    3.000    4.800    0.000    3.200 
#    0.000    0.000    0.000    0.000    2.600    4.200 
#    0.000    0.000    0.000    0.000    0.000    0.000 
#
# Total GULP energy -111520.700193 kJ/mol
# GULP energy per Si atom -5576.035010 kJ/mol
# Density = 2.375417 g / cm^3
# Si number density = 23.808359 Si / 1000 Ang^3
#
#
#
# Elastic Constant Matrix: (Units=GPa)
#
#
# Indices 1 2 3 4 5 6 
#
# 1 26.6479 25.9042 17.0845 0.0000 15.5896 0.0000
# 2 25.9042 172.0363 37.8828 0.0000 22.7841 0.0000
# 3 17.0845 37.8828 60.5270 0.0000 6.5468 0.0000
# 4 0.0000 0.0000 0.0000 19.0724 0.0000 -1.8234
# 5 15.5896 22.7841 6.5468 0.0000 38.4357 0.0000
# 6 0.0000 0.0000 0.0000 -1.8234 0.0000 7.0028
#
#
#
# Elastic Compliance Matrix: (Units=1/GPa)
#
#
# Indices 1 2 3 4 5 6 
#
# 1 0.061303 -0.003705 -0.012768 0.000000 -0.020494 0.000000
# 2 -0.003705 0.007415 -0.003344 0.000000 -0.002323 0.000000
# 3 -0.012768 -0.003344 0.021846 0.000000 0.003440 0.000000
# 4 0.000000 0.000000 0.000000 0.053770 0.000000 0.014001
# 5 -0.020494 -0.002323 0.003440 0.000000 0.035121 0.000000
# 6 0.000000 0.000000 0.000000 0.014001 0.000000 0.146445
#
#
# Mechanical properties :
#
#
# Convention : Reuss Voigt Hill
#
# Bulk Modulus (GPa) = 19.63460 46.77268 33.20364
# Shear Modulus (GPa) = 13.07158 24.79150 18.93154
#
# Velocity S-wave (km/s) = 2.34569 3.23041 2.82292
# Velocity P-wave (km/s) = 3.94983 5.79674 4.96001
#
# Compressibility (1/GPa) = 0.05093051
#
# Stress axis : x y z
#
# Youngs Moduli (GPa) = 16.31244 134.87066 45.77474
#
# Poissons Ratio (x) = 0.49969 0.58445
# Poissons Ratio (y) = 0.06044 0.15305
# Poissons Ratio (z) = 0.20828 0.45095
#
# Static dielectric constant tensor:
#      x y z
#    x 1.950350 0.000000 -0.059380 
#    y 0.000000 1.998650 0.000000 
#    z -0.059380 0.000000 1.959970 
# 
# From -- ./inp_files/33352.got.cif
#   From: 2010.05.17/outbox.cif.g08.bks.cpg/sg15_17_cif.got.tgz:33352.got - 2010.06.03 18:47:42.
