data_PCOD9254002
_publ_section_title
;
Structure prediction by ZEFSAII (Michael W. Deem and Ramdas Pophale) SiO2 
 PCOD9254002
Probable space group: C 2/C
;
_chemical_formula_sum "Si O2"
_cell_formula_units_Z 56
_cell_length_a 13.973970
_cell_length_b 7.022034
_cell_length_c 20.259733
_cell_angle_alpha 90.000000
_cell_angle_beta 84.418115
_cell_angle_gamma 90.000000
_cell_volume 1978.573635
_symmetry_space_group_name_H-M "C 2/C"
_symmetry_group_IT_number 15
_symmetry_cell_setting 'monoclinic'
loop_
_space_group_symop_operation_xyz
x,y,z
-x,y,1/2-z
-x,-y,-z
x,-y,1/2+z
1/2+x,1/2+y,z
1/2-x,1/2+y,1/2-z
1/2-x,1/2-y,-z
1/2+x,1/2-y,1/2+z
loop_
_atom_site_type_symbol
_atom_site_label
_atom_site_fract_x
_atom_site_fract_y
_atom_site_fract_z
Si Si1 0.494648 0.783546 0.028761
Si Si2 0.614655 0.338852 0.157587
Si Si3 0.836061 0.177126 0.567041
Si Si4 0.893795 0.159155 0.700491
Si Si5 0.891077 0.613158 0.735308
Si Si6 0.313437 0.118632 0.598797
Si Si7 0.859655 0.602461 0.878688
O O1 0.380164 0.754654 0.045841
O O2 0.547773 0.796350 0.095968
O O3 0.566914 0.652829 0.981417
O O4 0.500000 0.000000 0.000000
O O5 0.647752 0.413063 0.227757
O O6 0.503411 0.389044 0.172887
O O7 0.698327 0.397771 0.102087
O O8 0.613178 0.114994 0.138407
O O9 0.842503 0.088353 0.639086
O O10 0.841518 0.401140 0.584065
O O11 0.724712 0.123991 0.560504
O O12 0.894098 0.385241 0.719103
O O13 0.844431 0.683931 0.670508
O O14 0.836470 0.672198 0.806173
O O15 0.000000 0.664794 0.750000
#
# Coordination Sequence:
#
# PCOD9254002 Si02
#       7
#     8   8   8   8   8   8   8
#     4  10  20  36  54  75 105 143 181 213 250 317
#     4  10  18  33  58  79 102 134 178 215 256 316
#     4  10  21  35  53  77 107 139 175 216 258 309
#     4   9  17  34  55  76 105 140 173 206 260 319
#     4  10  15  31  57  78  99 134 178 211 247 315
#     4  10  20  34  54  82 105 136 175 217 260 306
#     4  11  19  34  57  80 100 140 176 216 263 309
#
# _framework density 28.30322
#
# number of rings (size 3 to 8) (size 9 to 14) (size 15 to 20)
#    0.000    2.000    4.286    3.000    0.000    0.000 
#    0.000    8.571    3.143    0.000    0.000    0.000 
#    0.000    0.000    0.000    0.000    0.000    0.000 
#
# Total GULP energy -156214.115650 kJ/mol
# GULP energy per Si atom -5579.075559 kJ/mol
# Density = 2.823880 g / cm^3
# Si number density = 28.303220 Si / 1000 Ang^3
#
#
#
# Elastic Constant Matrix: (Units=GPa)
#
#
# Indices 1 2 3 4 5 6 
#
# 1 105.0580 8.5095 56.5430 0.0000 -62.2053 0.0000
# 2 8.5095 99.3300 25.2044 0.0000 -11.1489 0.0000
# 3 56.5430 25.2044 131.3217 0.0000 -27.6255 0.0000
# 4 0.0000 0.0000 0.0000 20.6224 0.0000 -17.8337
# 5 -62.2053 -11.1489 -27.6255 0.0000 72.7851 0.0000
# 6 0.0000 0.0000 0.0000 -17.8337 0.0000 18.8680
#
#
#
# Elastic Compliance Matrix: (Units=1/GPa)
#
#
# Indices 1 2 3 4 5 6 
#
# 1 0.023565 0.001689 -0.006715 0.000000 0.017849 0.000000
# 2 0.001689 0.010761 -0.002328 0.000000 0.002208 0.000000
# 3 -0.006715 -0.002328 0.010510 0.000000 -0.002107 0.000000
# 4 0.000000 0.000000 0.000000 0.265518 0.000000 0.250963
# 5 0.017849 0.002208 -0.002107 0.000000 0.028532 0.000000
# 6 0.000000 0.000000 0.000000 0.250963 0.000000 0.290206
#
#
# Mechanical properties :
#
#
# Convention : Reuss Voigt Hill
#
# Bulk Modulus (GPa) = 33.19358 57.35817 45.27588
# Shear Modulus (GPa) = 7.64709 38.81863 23.23286
#
# Velocity S-wave (km/s) = 1.64551 3.70743 2.86817
# Velocity P-wave (km/s) = 3.91964 6.21581 5.19615
#
# Compressibility (1/GPa) = 0.03012630
#
# Stress axis : x y z
#
# Youngs Moduli (GPa) = 42.43645 92.92530 95.14789
#
# Poissons Ratio (x) = -0.15692 0.63896
# Poissons Ratio (y) = -0.07166 0.22151
# Poissons Ratio (z) = 0.28498 0.21633
#
# Static dielectric constant tensor:
#      x y z
#    x 2.315900 0.000000 0.049270 
#    y 0.000000 2.327080 0.000000 
#    z 0.049270 0.000000 2.296890 
# 
# From -- ./inp_files/272659.got.cif
#   From: 2010.05.17/outbox.cif.g08.bks.cpg/sg15_137_cif.got.tgz:272659.got - 2010.06.03 18:47:42.
