data_PCOD9254757
_publ_section_title
;
Structure prediction by ZEFSAII (Michael W. Deem and Ramdas Pophale) SiO2 
 PCOD9254757
Probable space group: C 2/C
;
_chemical_formula_sum "Si O2"
_cell_formula_units_Z 44
_cell_length_a 15.129795
_cell_length_b 8.112322
_cell_length_c 17.721796
_cell_angle_alpha 90.000000
_cell_angle_beta 47.384650
_cell_angle_gamma 90.000000
_cell_volume 1600.715084
_symmetry_space_group_name_H-M "C 2/C"
_symmetry_group_IT_number 15
_symmetry_cell_setting 'monoclinic'
loop_
_space_group_symop_operation_xyz
x,y,z
-x,y,1/2-z
-x,-y,-z
x,-y,1/2+z
1/2+x,1/2+y,z
1/2-x,1/2+y,1/2-z
1/2-x,1/2-y,-z
1/2+x,1/2-y,1/2+z
loop_
_atom_site_type_symbol
_atom_site_label
_atom_site_fract_x
_atom_site_fract_y
_atom_site_fract_z
Si Si1 0.500000 0.859913 0.750000
Si Si2 0.766391 0.866780 0.562758
Si Si3 0.519822 0.417940 0.365661
Si Si4 0.623474 0.726731 0.216122
Si Si5 0.373177 0.776757 0.561020
Si Si6 0.373106 0.135587 0.632412
O O1 0.633944 0.935981 0.658983
O O2 0.486561 0.742263 0.684383
O O3 0.750000 0.750000 0.500000
O O4 0.809351 0.751358 0.607623
O O5 0.884271 0.970318 0.468869
O O6 0.588524 0.552114 0.275827
O O7 0.586186 0.364771 0.403740
O O8 0.500000 0.779480 0.250000
O O9 0.743270 0.722150 0.097258
O O10 0.670931 0.832975 0.258885
O O11 0.487833 0.809802 0.443055
O O12 0.366757 0.947036 0.613161
#
# Coordination Sequence:
#
# PCOD9254757 Si02
#       6
#     4   8   8   8   8   8
#     4  10  16  34  58  92 128 156 210 266 306 372
#     4   9  19  33  62  94 123 161 215 263 315 374
#     4  10  21  38  63  96 122 171 216 263 313 381
#     4  12  24  40  67  95 128 171 213 266 320 380
#     4  10  22  42  67  88 128 173 212 262 326 378
#     4  10  23  43  64  93 132 170 210 268 322 384
#
# _framework density 27.487715000000001
#
# number of rings (size 3 to 8) (size 9 to 14) (size 15 to 20)
#    0.000    1.818    0.909    3.273    2.545    3.636 
#    1.636    1.818   16.000    0.000    0.000    0.000 
#    0.000    0.000    0.000    0.000    0.000    0.000 
#
# Total GULP energy -123215.773552 kJ/mol
# GULP energy per Si atom -5600.716980 kJ/mol
# Density = 2.742515 g / cm^3
# Si number density = 27.487715 Si / 1000 Ang^3
#
#
#
# Elastic Constant Matrix: (Units=GPa)
#
#
# Indices 1 2 3 4 5 6 
#
# 1 115.9647 24.1815 72.1253 0.0000 -18.4719 0.0000
# 2 24.1815 71.3501 28.6174 0.0000 -23.2738 0.0000
# 3 72.1253 28.6174 202.3168 0.0000 -82.9694 0.0000
# 4 0.0000 0.0000 0.0000 40.2356 0.0000 -2.9946
# 5 -18.4719 -23.2738 -82.9694 0.0000 74.7683 0.0000
# 6 0.0000 0.0000 0.0000 -2.9946 0.0000 35.6543
#
#
#
# Elastic Compliance Matrix: (Units=1/GPa)
#
#
# Indices 1 2 3 4 5 6 
#
# 1 0.012100 -0.003236 -0.005584 0.000000 -0.004215 0.000000
# 2 -0.003236 0.016482 0.001098 0.000000 0.005550 0.000000
# 3 -0.005584 0.001098 0.011658 0.000000 0.011899 0.000000
# 4 0.000000 0.000000 0.000000 0.025010 0.000000 0.002101
# 5 -0.004215 0.005550 0.011899 0.000000 0.027265 0.000000
# 6 0.000000 0.000000 0.000000 0.002101 0.000000 0.028224
#
#
# Mechanical properties :
#
#
# Convention : Reuss Voigt Hill
#
# Bulk Modulus (GPa) = 40.33002 71.05333 55.69167
# Shear Modulus (GPa) = 34.61473 47.77882 41.19677
#
# Velocity S-wave (km/s) = 3.55248 4.17368 3.87555
# Velocity P-wave (km/s) = 5.61522 7.00938 6.35067
#
# Compressibility (1/GPa) = 0.02479543
#
# Stress axis : x y z
#
# Youngs Moduli (GPa) = 82.64506 60.67275 85.77911
#
# Poissons Ratio (x) = 0.19633 0.47902
# Poissons Ratio (y) = 0.26743 -0.09419
# Poissons Ratio (z) = 0.46152 -0.06662
#
# Static dielectric constant tensor:
#      x y z
#    x 2.050760 0.000000 -0.080090 
#    y 0.000000 2.201280 0.000000 
#    z -0.080090 0.000000 2.101370 
# 
# From -- ./inp_files/159334.got.cif
#   From: 2010.05.17/outbox.cif.g08.bks.cpg/sg15_80_cif.got.tgz:159334.got - 2010.06.03 18:47:42.
