data_PCOD9254328
_publ_section_title
;
Structure prediction by ZEFSAII (Michael W. Deem and Ramdas Pophale) SiO2 
 PCOD9254328
Probable space group: C 2/C
;
_chemical_formula_sum "Si O2"
_cell_formula_units_Z 60
_cell_length_a 25.246024
_cell_length_b 15.928866
_cell_length_c 12.763946
_cell_angle_alpha 90.000000
_cell_angle_beta 39.160385
_cell_angle_gamma 90.000000
_cell_volume 3241.392226
_symmetry_space_group_name_H-M "C 2/C"
_symmetry_group_IT_number 15
_symmetry_cell_setting 'monoclinic'
loop_
_space_group_symop_operation_xyz
x,y,z
-x,y,1/2-z
-x,-y,-z
x,-y,1/2+z
1/2+x,1/2+y,z
1/2-x,1/2+y,1/2-z
1/2-x,1/2-y,-z
1/2+x,1/2-y,1/2+z
loop_
_atom_site_type_symbol
_atom_site_label
_atom_site_fract_x
_atom_site_fract_y
_atom_site_fract_z
Si Si1 0.636351 0.643352 0.893967
Si Si2 0.604852 0.818891 0.845245
Si Si3 0.684842 0.028727 0.103790
Si Si4 0.874469 0.050946 0.812981
Si Si5 0.000000 0.937148 0.750000
Si Si6 0.444363 0.918076 0.105323
Si Si7 0.096104 0.775818 0.136947
Si Si8 0.326246 0.128115 0.595900
O O1 0.637437 0.742974 0.866856
O O2 0.615209 0.590865 0.819299
O O3 0.731068 0.619375 0.780180
O O4 0.568263 0.617760 0.083683
O O5 0.659699 0.902301 0.732939
O O6 0.596499 0.774578 0.745146
O O7 0.512981 0.847649 0.025192
O O8 0.625971 0.947782 0.205521
O O9 0.783164 0.008540 0.957404
O O10 0.666902 0.072846 0.020020
O O11 0.869564 0.132066 0.895537
O O12 0.949055 0.994002 0.743583
O O13 0.394310 0.896564 0.076820
O O14 0.500000 0.000000 0.000000
O O15 0.000000 0.780743 0.250000
O O16 0.152540 0.722813 0.971408
#
# Coordination Sequence:
#
# PCOD9254328 Si02
#       8
#     8   8   8   8   4   8   8   8
#     4  10  22  37  54  76 107 142 180 220 265 320
#     4   9  18  33  51  78 107 137 175 216 262 315
#     4   9  19  33  54  80 113 136 173 223 270 317
#     4  10  20  35  54  83 103 135 182 229 269 309
#     4  12  22  36  56  72 108 146 180 216 270 320
#     4  10  19  31  53  81 112 141 173 216 266 321
#     4  10  16  29  55  81 102 130 173 227 266 302
#     4  10  19  34  55  80 108 141 175 222 273 314
#
# _framework density 18.510563999999999
#
# number of rings (size 3 to 8) (size 9 to 14) (size 15 to 20)
#    0.000    2.133    2.000    2.000    0.000    3.200 
#    0.000    2.667    0.000    4.800    0.000    0.000 
#    0.000    0.000    0.000    0.000    0.000    0.000 
#
# Total GULP energy -167200.137397 kJ/mol
# GULP energy per Si atom -5573.337913 kJ/mol
# Density = 1.846843 g / cm^3
# Si number density = 18.510564 Si / 1000 Ang^3
#
#
#
# Elastic Constant Matrix: (Units=GPa)
#
#
# Indices 1 2 3 4 5 6 
#
# 1 40.5416 5.6700 13.2532 0.0000 -12.6483 0.0000
# 2 5.6700 38.9051 24.5143 0.0000 -3.0350 0.0000
# 3 13.2532 24.5143 106.1587 0.0000 -13.3198 0.0000
# 4 0.0000 0.0000 0.0000 22.1467 0.0000 -10.5747
# 5 -12.6483 -3.0350 -13.3198 0.0000 20.2150 0.0000
# 6 0.0000 0.0000 0.0000 -10.5747 0.0000 10.6799
#
#
#
# Elastic Compliance Matrix: (Units=1/GPa)
#
#
# Indices 1 2 3 4 5 6 
#
# 1 0.031084 -0.002463 -0.001001 0.000000 0.018420 0.000000
# 2 -0.002463 0.030276 -0.006875 0.000000 -0.001525 0.000000
# 3 -0.001001 -0.006875 0.011909 0.000000 0.006188 0.000000
# 4 0.000000 0.000000 0.000000 0.085645 0.000000 0.084802
# 5 0.018420 -0.001525 0.006188 0.000000 0.064842 0.000000
# 6 0.000000 0.000000 0.000000 0.084802 0.000000 0.177602
#
#
# Mechanical properties :
#
#
# Convention : Reuss Voigt Hill
#
# Bulk Modulus (GPa) = 19.01449 30.27558 24.64503
# Shear Modulus (GPa) = 11.37486 20.08618 15.73052
#
# Velocity S-wave (km/s) = 2.48161 3.29769 2.91832
# Velocity P-wave (km/s) = 4.30183 5.55797 4.96975
#
# Compressibility (1/GPa) = 0.05259148
#
# Stress axis : x y z
#
# Youngs Moduli (GPa) = 32.17054 33.02989 83.97078
#
# Poissons Ratio (x) = 0.08134 0.08404
# Poissons Ratio (y) = 0.07922 0.57732
# Poissons Ratio (z) = 0.03220 0.22709
#
# Static dielectric constant tensor:
#      x y z
#    x 1.634600 0.000000 -0.005000 
#    y 0.000000 1.646040 0.000000 
#    z -0.005000 0.000000 1.637300 
# 
# From -- ./inp_files/106380.got.cif
#   From: 2010.05.17/outbox.cif.g08.bks.cpg/sg15_54_cif.got.tgz:106380.got - 2010.06.03 18:47:42.
