data_PCOD9254651
_publ_section_title
;
Structure prediction by ZEFSAII (Michael W. Deem and Ramdas Pophale) SiO2 
 PCOD9254651
Probable space group: C 2/C
;
_chemical_formula_sum "Si O2"
_cell_formula_units_Z 40
_cell_length_a 7.914743
_cell_length_b 33.212366
_cell_length_c 9.730085
_cell_angle_alpha 90.000000
_cell_angle_beta 132.731386
_cell_angle_gamma 90.000000
_cell_volume 1878.756470
_symmetry_space_group_name_H-M "C 2/C"
_symmetry_group_IT_number 15
_symmetry_cell_setting 'monoclinic'
loop_
_space_group_symop_operation_xyz
x,y,z
-x,y,1/2-z
-x,-y,-z
x,-y,1/2+z
1/2+x,1/2+y,z
1/2-x,1/2+y,1/2-z
1/2-x,1/2-y,-z
1/2+x,1/2-y,1/2+z
loop_
_atom_site_type_symbol
_atom_site_label
_atom_site_fract_x
_atom_site_fract_y
_atom_site_fract_z
Si Si1 0.171687 0.416317 0.549362
Si Si2 0.081167 0.189933 0.994332
Si Si3 0.000000 0.841506 0.750000
Si Si4 0.508006 0.453430 0.539464
Si Si5 0.712962 0.105763 0.478361
Si Si6 0.000000 0.249763 0.750000
O O1 0.285786 0.372100 0.621682
O O2 0.264792 0.436289 0.461120
O O3 0.303005 0.443590 0.736677
O O4 0.911224 0.408393 0.450480
O O5 0.154301 0.148003 0.963882
O O6 0.300358 0.218880 0.106621
O O7 0.017068 0.182055 0.116717
O O8 0.906720 0.218144 0.813397
O O9 0.500000 0.500000 0.500000
O O10 0.607968 0.427823 0.469878
O O11 0.500000 0.108278 0.250000
#
# Coordination Sequence:
#
# PCOD9254651 Si02
#       6
#     8   8   4   8   8   4
#     4   9  17  31  53  81  97 152 190 231 278 358
#     4  11  19  38  56  88 112 160 189 244 288 352
#     4  10  16  32  64  79 108 148 205 228 274 360
#     4   9  17  29  48  80 106 132 184 241 277 336
#     4  10  16  32  59  76 102 152 193 226 286 352
#     4  10  24  34  56  85 128 146 191 244 304 336
#
# _framework density 21.290678
#
# number of rings (size 3 to 8) (size 9 to 14) (size 15 to 20)
#    0.000    2.400    7.000    0.000    0.000    1.600 
#    0.000    2.000    0.000    0.000    0.000    0.000 
#    0.000    0.000    0.000    0.000    0.000    0.000 
#
# Total GULP energy -111441.684687 kJ/mol
# GULP energy per Si atom -5572.084234 kJ/mol
# Density = 2.124222 g / cm^3
# Si number density = 21.290678 Si / 1000 Ang^3
#
#
#
# Elastic Constant Matrix: (Units=GPa)
#
#
# Indices 1 2 3 4 5 6 
#
# 1 177.8671 73.8418 18.6691 0.0000 -17.5918 0.0000
# 2 73.8418 179.4854 25.4393 0.0000 -14.8703 0.0000
# 3 18.6691 25.4393 39.5669 0.0000 -9.2941 0.0000
# 4 0.0000 0.0000 0.0000 14.7236 0.0000 -23.7099
# 5 -17.5918 -14.8703 -9.2941 0.0000 23.5877 0.0000
# 6 0.0000 0.0000 0.0000 -23.7099 0.0000 32.3275
#
#
#
# Elastic Compliance Matrix: (Units=1/GPa)
#
#
# Indices 1 2 3 4 5 6 
#
# 1 0.007093 -0.002507 -0.000952 0.000000 0.003334 0.000000
# 2 -0.002507 0.007158 -0.003084 0.000000 0.001428 0.000000
# 3 -0.000952 -0.003084 0.029844 0.000000 0.009105 0.000000
# 4 0.000000 0.000000 0.000000 -0.375093 0.000000 -0.275104
# 5 0.003334 0.001428 0.009105 0.000000 0.049370 0.000000
# 6 0.000000 0.000000 0.000000 -0.275104 0.000000 -0.170836
#
#
# Mechanical properties :
#
#
# Convention : Reuss Voigt Hill
#
# Bulk Modulus (GPa) = 32.24752 70.31332 51.28042
# Shear Modulus (GPa) = -11.65384 32.72570 10.53593
#
# Velocity S-wave (km/s) = -2.34213 3.92483 2.22696
# Velocity P-wave (km/s) = 2.80448 7.32367 5.54532
#
# Compressibility (1/GPa) = 0.03101014
#
# Stress axis : x y z
#
# Youngs Moduli (GPa) = 140.99321 139.69919 33.50718
#
# Poissons Ratio (x) = 0.35020 0.03188
# Poissons Ratio (y) = 0.35344 0.10334
# Poissons Ratio (z) = 0.13416 0.43085
#
# Static dielectric constant tensor:
#      x y z
#    x 1.791520 0.000000 -0.033240 
#    y 0.000000 1.716560 0.000000 
#    z -0.033240 0.000000 2.087360 
# 
# From -- ./inp_files/81917.got.cif
#   From: 2010.05.17/outbox.cif.g08.bks.cpg/sg15_41_cif.got.tgz:81917.got - 2010.06.03 18:47:42.
