data_PCOD9254879
_publ_section_title
;
Structure prediction by ZEFSAII (Michael W. Deem and Ramdas Pophale) SiO2 
 PCOD9254879
Probable space group: C 2/C
;
_chemical_formula_sum "Si O2"
_cell_formula_units_Z 52
_cell_length_a 17.249650
_cell_length_b 8.474230
_cell_length_c 17.751892
_cell_angle_alpha 90.000000
_cell_angle_beta 121.697976
_cell_angle_gamma 90.000000
_cell_volume 2207.841074
_symmetry_space_group_name_H-M "C 2/C"
_symmetry_group_IT_number 15
_symmetry_cell_setting 'monoclinic'
loop_
_space_group_symop_operation_xyz
x,y,z
-x,y,1/2-z
-x,-y,-z
x,-y,1/2+z
1/2+x,1/2+y,z
1/2-x,1/2+y,1/2-z
1/2-x,1/2-y,-z
1/2+x,1/2-y,1/2+z
loop_
_atom_site_type_symbol
_atom_site_label
_atom_site_fract_x
_atom_site_fract_y
_atom_site_fract_z
Si Si1 0.001347 0.218266 0.595400
Si Si2 0.848557 0.177280 0.109464
Si Si3 0.328149 0.761375 0.261168
Si Si4 0.500000 0.559763 0.750000
Si Si5 0.489004 0.048391 0.655675
Si Si6 0.203015 0.097714 0.017667
Si Si7 0.826464 0.952194 0.346108
O O1 0.028642 0.164689 0.693971
O O2 0.981359 0.402970 0.594905
O O3 0.904400 0.139260 0.527734
O O4 0.085589 0.155033 0.588281
O O5 0.798754 0.229967 0.159758
O O6 0.907217 0.324295 0.107955
O O7 0.923112 0.054935 0.179635
O O8 0.789804 0.065469 0.025778
O O9 0.415337 0.869871 0.311408
O O10 0.358167 0.602115 0.315180
O O11 0.239291 0.853036 0.242761
O O12 0.500000 0.002416 0.750000
O O13 0.250000 0.250000 0.000000
O O14 0.229245 0.040971 0.114932
#
# Coordination Sequence:
#
# PCOD9254879 Si02
#       7
#     8   8   8   4   8   8   8
#     4  11  22  41  67  99 134 178 226 283 342 414
#     4  10  20  42  67  95 130 178 223 283 331 414
#     4  11  23  39  70  95 136 166 232 279 344 407
#     4  10  16  36  70  92 122 176 214 270 328 392
#     4  10  20  38  69 103 129 172 232 287 334 413
#     4  11  28  45  68  93 141 182 230 282 354 420
#     4  12  26  44  65 104 136 179 223 295 349 413
#
# _framework density 23.552420000000001
#
# number of rings (size 3 to 8) (size 9 to 14) (size 15 to 20)
#    0.000    1.231    4.615    2.308    6.462    0.615 
#    0.000    1.538    0.000    0.000    0.000    0.000 
#    0.000    0.000    0.000    0.000    0.000    0.000 
#
# Total GULP energy -145110.445349 kJ/mol
# GULP energy per Si atom -5581.170975 kJ/mol
# Density = 2.349881 g / cm^3
# Si number density = 23.552420 Si / 1000 Ang^3
#
#
#
# Elastic Constant Matrix: (Units=GPa)
#
#
# Indices 1 2 3 4 5 6 
#
# 1 50.4674 8.7428 -2.0344 0.0000 10.5240 0.0000
# 2 8.7428 120.7739 15.7302 0.0000 -11.3769 0.0000
# 3 -2.0344 15.7302 38.9947 0.0000 4.5405 0.0000
# 4 0.0000 0.0000 0.0000 26.8288 0.0000 1.8172
# 5 10.5240 -11.3769 4.5405 0.0000 27.1433 0.0000
# 6 0.0000 0.0000 0.0000 1.8172 0.0000 26.1864
#
#
#
# Elastic Compliance Matrix: (Units=1/GPa)
#
#
# Indices 1 2 3 4 5 6 
#
# 1 0.022752 -0.003144 0.003708 0.000000 -0.010759 0.000000
# 2 -0.003144 0.009704 -0.004788 0.000000 0.006087 0.000000
# 3 0.003708 -0.004788 0.028730 0.000000 -0.008250 0.000000
# 4 0.000000 0.000000 0.000000 0.037449 0.000000 -0.002599
# 5 -0.010759 0.006087 -0.008250 0.000000 0.044945 0.000000
# 6 0.000000 0.000000 0.000000 -0.002599 0.000000 0.038368
#
#
# Mechanical properties :
#
#
# Convention : Reuss Voigt Hill
#
# Bulk Modulus (GPa) = 18.96075 28.34592 23.65333
# Shear Modulus (GPa) = 24.04131 28.55152 26.29641
#
# Velocity S-wave (km/s) = 3.19840 3.48552 3.34504
# Velocity P-wave (km/s) = 4.65914 5.31600 4.99837
#
# Compressibility (1/GPa) = 0.05274054
#
# Stress axis : x y z
#
# Youngs Moduli (GPa) = 43.95130 103.04534 34.80700
#
# Poissons Ratio (x) = 0.32393 -0.12906
# Poissons Ratio (y) = 0.13816 0.16664
# Poissons Ratio (z) = -0.16297 0.49333
#
# Static dielectric constant tensor:
#      x y z
#    x 1.979890 0.000000 -0.040420 
#    y 0.000000 1.891310 0.000000 
#    z -0.040420 0.000000 1.956400 
# 
# From -- ./inp_files/209711.got.cif
#   From: 2010.05.17/outbox.cif.g08.bks.cpg/sg15_105_cif.got.tgz:209711.got - 2010.06.03 18:47:42.
