data_PCOD9254630
_publ_section_title
;
Structure prediction by ZEFSAII (Michael W. Deem and Ramdas Pophale) SiO2 
 PCOD9254630
Probable space group: C 2/C
;
_chemical_formula_sum "Si O2"
_cell_formula_units_Z 64
_cell_length_a 20.728590
_cell_length_b 12.534437
_cell_length_c 19.668691
_cell_angle_alpha 90.000000
_cell_angle_beta 147.720979
_cell_angle_gamma 90.000000
_cell_volume 2729.141983
_symmetry_space_group_name_H-M "C 2/C"
_symmetry_group_IT_number 15
_symmetry_cell_setting 'monoclinic'
loop_
_space_group_symop_operation_xyz
x,y,z
-x,y,1/2-z
-x,-y,-z
x,-y,1/2+z
1/2+x,1/2+y,z
1/2-x,1/2+y,1/2-z
1/2-x,1/2-y,-z
1/2+x,1/2-y,1/2+z
loop_
_atom_site_type_symbol
_atom_site_label
_atom_site_fract_x
_atom_site_fract_y
_atom_site_fract_z
Si Si1 0.717648 0.888152 0.770635
Si Si2 0.973445 0.626459 0.986774
Si Si3 0.479168 0.183278 0.839041
Si Si4 0.534902 0.429951 0.465941
Si Si5 0.377383 0.019478 0.175441
Si Si6 0.238971 0.419510 0.542917
Si Si7 0.225878 0.055438 0.796462
Si Si8 0.440505 0.407743 0.632307
O O1 0.604443 0.832685 0.630651
O O2 0.659887 0.918236 0.791301
O O3 0.747910 0.991272 0.750235
O O4 0.855396 0.853417 0.912937
O O5 0.848404 0.622470 0.917984
O O6 0.000000 0.500000 0.000000
O O7 0.946145 0.673808 0.888499
O O8 0.400038 0.102730 0.722781
O O9 0.481558 0.306432 0.821605
O O10 0.614753 0.137909 0.950922
O O11 0.500000 0.500000 0.500000
O O12 0.404333 0.387916 0.324197
O O13 0.581191 0.512930 0.449260
O O14 0.500000 0.057555 0.250000
O O15 0.287464 0.017558 0.032129
O O16 0.286621 0.467453 0.655548
O O17 0.326200 0.356665 0.569711
O O18 0.500000 0.467131 0.750000
#
# Coordination Sequence:
#
# PCOD9254630 Si02
#       8
#     8   8   8   8   8   8   8   8
#     4  10  17  33  53  72  95 142 194 241 271 313
#     4  10  16  32  57  74  96 143 201 240 267 311
#     4  11  21  33  50  78 113 154 188 226 279 341
#     4  10  22  37  53  71 104 151 193 236 274 332
#     4  10  18  29  47  75 105 142 184 227 276 327
#     4  11  19  32  48  75 111 149 183 221 276 341
#     4  10  18  33  54  71  99 144 194 236 269 315
#     4  12  23  36  50  79 122 157 185 226 291 363
#
# _framework density 23.450593999999999
#
# number of rings (size 3 to 8) (size 9 to 14) (size 15 to 20)
#    0.000    1.500    7.500    2.250    0.000    0.000 
#    0.000    0.000    0.000    0.000    0.000    0.000 
#    0.000    4.000    0.000    0.625    0.250    0.000 
#
# Total GULP energy -178249.734065 kJ/mol
# GULP energy per Si atom -5570.304190 kJ/mol
# Density = 2.339722 g / cm^3
# Si number density = 23.450594 Si / 1000 Ang^3
#
#
#
# Elastic Constant Matrix: (Units=GPa)
#
#
# Indices 1 2 3 4 5 6 
#
# 1 153.0695 17.8516 26.7639 0.0000 -5.8220 0.0000
# 2 17.8516 56.2426 5.9565 0.0000 0.2953 0.0000
# 3 26.7639 5.9565 142.5204 0.0000 24.5207 0.0000
# 4 0.0000 0.0000 0.0000 -5.8196 0.0000 -12.3314
# 5 -5.8220 0.2953 24.5207 0.0000 47.4665 0.0000
# 6 0.0000 0.0000 0.0000 -12.3314 0.0000 18.4993
#
#
#
# Elastic Compliance Matrix: (Units=1/GPa)
#
#
# Indices 1 2 3 4 5 6 
#
# 1 0.007111 -0.002103 -0.001536 0.000000 0.001679 0.000000
# 2 -0.002103 0.018485 -0.000344 0.000000 -0.000195 0.000000
# 3 -0.001536 -0.000344 0.008069 0.000000 -0.004354 0.000000
# 4 0.000000 0.000000 0.000000 -0.071228 0.000000 -0.047479
# 5 0.001679 -0.000195 -0.004354 0.000000 0.023524 0.000000
# 6 0.000000 0.000000 0.000000 -0.047479 0.000000 0.022407
#
#
# Mechanical properties :
#
#
# Convention : Reuss Voigt Hill
#
# Bulk Modulus (GPa) = 38.91410 50.33072 44.62241
# Shear Modulus (GPa) = 200.79829 32.11327 116.45578
#
# Velocity S-wave (km/s) = 9.26348 3.70456 7.05463
# Velocity P-wave (km/s) = 11.44754 6.30931 9.24266
#
# Compressibility (1/GPa) = 0.02569763
#
# Stress axis : x y z
#
# Youngs Moduli (GPa) = 140.63272 54.09763 123.93718
#
# Poissons Ratio (x) = 0.11377 0.19040
# Poissons Ratio (y) = 0.29576 0.04264
# Poissons Ratio (z) = 0.21605 0.01861
#
# Static dielectric constant tensor:
#      x y z
#    x 1.877880 0.000000 0.114970 
#    y 0.000000 1.893460 0.000000 
#    z 0.114970 0.000000 2.082570 
# 
# From -- ./inp_files/211830.got.cif
#   From: 2010.05.17/outbox.cif.g08.bks.cpg/sg15_106_cif.got.tgz:211830.got - 2010.06.03 18:47:42.
