data_PCOD9254345
_publ_section_title
;
Structure prediction by ZEFSAII (Michael W. Deem and Ramdas Pophale) SiO2 
 PCOD9254345
Probable space group: C 2/C
;
_chemical_formula_sum "Si O2"
_cell_formula_units_Z 64
_cell_length_a 17.944997
_cell_length_b 26.984098
_cell_length_c 8.612538
_cell_angle_alpha 90.000000
_cell_angle_beta 100.579450
_cell_angle_gamma 90.000000
_cell_volume 4099.553160
_symmetry_space_group_name_H-M "C 2/C"
_symmetry_group_IT_number 15
_symmetry_cell_setting 'monoclinic'
loop_
_space_group_symop_operation_xyz
x,y,z
-x,y,1/2-z
-x,-y,-z
x,-y,1/2+z
1/2+x,1/2+y,z
1/2-x,1/2+y,1/2-z
1/2-x,1/2-y,-z
1/2+x,1/2-y,1/2+z
loop_
_atom_site_type_symbol
_atom_site_label
_atom_site_fract_x
_atom_site_fract_y
_atom_site_fract_z
Si Si1 0.275881 0.220458 0.660163
Si Si2 0.321623 0.791700 0.671435
Si Si3 0.093289 0.948364 0.625008
Si Si4 0.080171 0.056190 0.490907
Si Si5 0.342835 0.349434 0.328945
Si Si6 0.448762 0.745622 0.886031
Si Si7 0.401602 0.747974 0.396210
Si Si8 0.822256 0.853017 0.951016
O O1 0.250000 0.250000 0.500000
O O2 0.233114 0.247652 0.788234
O O3 0.239852 0.166374 0.639485
O O4 0.363544 0.227866 0.730767
O O5 0.389850 0.789951 0.823509
O O6 0.362074 0.775860 0.527736
O O7 0.264010 0.837040 0.624658
O O8 0.089378 0.946759 0.809416
O O9 0.152523 0.906685 0.597071
O O10 0.010318 0.936318 0.520268
O O11 0.106972 0.004428 0.575105
O O12 0.125006 0.101316 0.583373
O O13 0.399345 0.303883 0.390479
O O14 0.335860 0.352454 0.140739
O O15 0.500000 0.737903 0.750000
O O16 0.509184 0.752718 0.044862
O O17 0.375743 0.690350 0.398748
#
# Coordination Sequence:
#
# PCOD9254345 Si02
#       8
#     8   8   8   8   8   8   8   8
#     4  10  19  29  42  64  93 126 153 195 231 269
#     4   9  17  30  43  66  93 119 161 186 225 274
#     4  10  22  36  49  66  89 122 152 198 239 271
#     4  10  22  36  47  68  91 115 159 197 233 277
#     4  11  19  30  45  68  92 122 162 191 232 273
#     4   9  16  27  46  69  91 126 159 193 220 265
#     4  10  16  30  46  66  93 126 161 188 221 274
#     4  11  17  29  50  65  89 127 156 190 233 275
#
# _framework density 15.611457
#
# number of rings (size 3 to 8) (size 9 to 14) (size 15 to 20)
#    0.000    2.000    5.000    2.250    3.500    1.000 
#    0.000    1.875    0.000    0.000    0.000    0.000 
#    0.000    1.000    0.250    0.000    0.000    0.250 
#
# Total GULP energy -178344.219760 kJ/mol
# GULP energy per Si atom -5573.256867 kJ/mol
# Density = 1.557592 g / cm^3
# Si number density = 15.611457 Si / 1000 Ang^3
#
#
#
# Elastic Constant Matrix: (Units=GPa)
#
#
# Indices 1 2 3 4 5 6 
#
# 1 81.3467 50.2574 40.2934 0.0000 31.6953 0.0000
# 2 50.2574 108.9976 42.2183 0.0000 19.4351 0.0000
# 3 40.2934 42.2183 67.9801 0.0000 31.6658 0.0000
# 4 0.0000 0.0000 0.0000 24.2819 0.0000 6.6258
# 5 31.6953 19.4351 31.6658 0.0000 34.0700 0.0000
# 6 0.0000 0.0000 0.0000 6.6258 0.0000 26.6896
#
#
#
# Elastic Compliance Matrix: (Units=1/GPa)
#
#
# Indices 1 2 3 4 5 6 
#
# 1 0.024373 -0.007475 -0.002166 0.000000 -0.016397 0.000000
# 2 -0.007475 0.014374 -0.006905 0.000000 0.005173 0.000000
# 3 -0.002166 -0.006905 0.030877 0.000000 -0.022744 0.000000
# 4 0.000000 0.000000 0.000000 0.044175 0.000000 -0.010967
# 5 -0.016397 0.005173 -0.022744 0.000000 0.062793 0.000000
# 6 0.000000 0.000000 0.000000 -0.010967 0.000000 0.040190
#
#
# Mechanical properties :
#
#
# Convention : Reuss Voigt Hill
#
# Bulk Modulus (GPa) = 27.37527 58.20696 42.79111
# Shear Modulus (GPa) = 19.08010 25.37864 22.22937
#
# Velocity S-wave (km/s) = 3.49977 4.03630 3.77757
# Velocity P-wave (km/s) = 5.82277 7.68687 6.81882
#
# Compressibility (1/GPa) = 0.03652933
#
# Stress axis : x y z
#
# Youngs Moduli (GPa) = 41.02871 69.57192 32.38663
#
# Poissons Ratio (x) = 0.52008 0.07016
# Poissons Ratio (y) = 0.30671 0.22364
# Poissons Ratio (z) = 0.08888 0.48042
#
# Static dielectric constant tensor:
#      x y z
#    x 1.570500 0.000000 0.005800 
#    y 0.000000 1.493660 0.000000 
#    z 0.005800 0.000000 1.578730 
# 
# From -- ./inp_files/51277.got.cif
#   From: 2010.05.17/outbox.cif.g08.bks.cpg/sg15_26_cif.got.tgz:51277.got - 2010.06.03 18:47:42.
