data_PCOD9254061
_publ_section_title
;
Structure prediction by ZEFSAII (Michael W. Deem and Ramdas Pophale) SiO2 
 PCOD9254061
Probable space group: C 2/C
;
_chemical_formula_sum "Si O2"
_cell_formula_units_Z 56
_cell_length_a 9.909662
_cell_length_b 30.570906
_cell_length_c 12.896545
_cell_angle_alpha 90.000000
_cell_angle_beta 50.692477
_cell_angle_gamma 90.000000
_cell_volume 3023.048692
_symmetry_space_group_name_H-M "C 2/C"
_symmetry_group_IT_number 15
_symmetry_cell_setting 'monoclinic'
loop_
_space_group_symop_operation_xyz
x,y,z
-x,y,1/2-z
-x,-y,-z
x,-y,1/2+z
1/2+x,1/2+y,z
1/2-x,1/2+y,1/2-z
1/2-x,1/2-y,-z
1/2+x,1/2-y,1/2+z
loop_
_atom_site_type_symbol
_atom_site_label
_atom_site_fract_x
_atom_site_fract_y
_atom_site_fract_z
Si Si1 0.710321 0.661322 0.658916
Si Si2 0.201700 0.350360 0.623843
Si Si3 0.284424 0.976099 0.657723
Si Si4 0.103809 0.939050 0.927474
Si Si5 0.151742 0.070929 0.765024
Si Si6 0.386226 0.998353 0.396053
Si Si7 0.291587 0.244522 0.358703
O O1 0.500000 0.664782 0.750000
O O2 0.781842 0.652622 0.508808
O O3 0.742691 0.618229 0.711730
O O4 0.768837 0.710122 0.664925
O O5 0.313246 0.391252 0.605714
O O6 0.269766 0.304328 0.638921
O O7 0.000000 0.356578 0.750000
O O8 0.125940 0.954554 0.797815
O O9 0.311929 0.968090 0.523191
O O10 0.260026 0.028454 0.681133
O O11 0.469573 0.968306 0.624674
O O12 0.229065 0.973472 0.926332
O O13 0.929894 0.937158 0.081369
O O14 0.000000 0.072182 0.750000
O O15 0.500000 0.976082 0.250000
O O16 0.500000 0.241948 0.250000
O O17 0.250000 0.250000 0.500000
#
# Coordination Sequence:
#
# PCOD9254061 Si02
#       7
#     8   8   8   8   8   8   8
#     4   9  15  27  40  53  79 114 146 175 211 251
#     4  10  16  24  38  60  80 107 145 181 210 250
#     4  10  19  29  43  63  84 110 150 187 218 253
#     4  11  19  30  44  63  86 118 152 185 217 257
#     4  11  18  29  44  59  83 119 155 181 215 256
#     4   9  18  31  44  59  83 112 144 180 224 257
#     4   8  15  23  36  55  77 104 142 177 206 246
#
# _framework density 18.524346000000001
#
# number of rings (size 3 to 8) (size 9 to 14) (size 15 to 20)
#    0.000    2.286    4.286    1.714    0.000    1.143 
#    0.000    0.000    0.000    0.000    0.000    0.000 
#    0.000    0.000    0.000    9.000    1.714   12.857 
#
# Total GULP energy -155888.117436 kJ/mol
# GULP energy per Si atom -5567.432766 kJ/mol
# Density = 1.848218 g / cm^3
# Si number density = 18.524346 Si / 1000 Ang^3
#
#
#
# Elastic Constant Matrix: (Units=GPa)
#
#
# Indices 1 2 3 4 5 6 
#
# 1 15.2116 3.3900 7.3070 0.0000 6.2184 0.0000
# 2 3.3900 118.3275 22.6399 0.0000 3.6245 0.0000
# 3 7.3070 22.6399 171.6481 0.0000 4.7080 0.0000
# 4 0.0000 0.0000 0.0000 30.0771 0.0000 -2.0622
# 5 6.2184 3.6245 4.7080 0.0000 21.6959 0.0000
# 6 0.0000 0.0000 0.0000 -2.0622 0.0000 11.8330
#
#
#
# Elastic Compliance Matrix: (Units=1/GPa)
#
#
# Indices 1 2 3 4 5 6 
#
# 1 0.075761 -0.001047 -0.002511 0.000000 -0.020995 0.000000
# 2 -0.001047 0.008716 -0.001080 0.000000 -0.000922 0.000000
# 3 -0.002511 -0.001080 0.006087 0.000000 -0.000421 0.000000
# 4 0.000000 0.000000 0.000000 0.033650 0.000000 0.005865
# 5 -0.020995 -0.000922 -0.000421 0.000000 0.052354 0.000000
# 6 0.000000 0.000000 0.000000 0.005865 0.000000 0.085532
#
#
# Mechanical properties :
#
#
# Convention : Reuss Voigt Hill
#
# Bulk Modulus (GPa) = 12.30190 41.31788 26.80989
# Shear Modulus (GPa) = 16.75199 30.84453 23.79826
#
# Velocity S-wave (km/s) = 3.01046 4.08497 3.58816
# Velocity P-wave (km/s) = 4.32888 6.67850 5.62768
#
# Compressibility (1/GPa) = 0.08128823
#
# Stress axis : x y z
#
# Youngs Moduli (GPa) = 13.19934 114.73229 164.29182
#
# Poissons Ratio (x) = 0.12012 0.41257
# Poissons Ratio (y) = 0.01382 0.17740
# Poissons Ratio (z) = 0.03315 0.12388
#
# Static dielectric constant tensor:
#      x y z
#    x 1.672870 0.000000 0.017350 
#    y 0.000000 1.714520 0.000000 
#    z 0.017350 0.000000 1.718520 
# 
# From -- ./inp_files/156981.got.cif
#   From: 2010.05.17/outbox.cif.g08.bks.cpg/sg15_79_cif.got.tgz:156981.got - 2010.06.03 18:47:42.
