data_PCOD9254145
_publ_section_title
;
Structure prediction by ZEFSAII (Michael W. Deem and Ramdas Pophale) SiO2 
 PCOD9254145
Probable space group: C 2/C
;
_chemical_formula_sum "Si O2"
_cell_formula_units_Z 52
_cell_length_a 12.909533
_cell_length_b 13.620684
_cell_length_c 23.740746
_cell_angle_alpha 90.000000
_cell_angle_beta 149.741853
_cell_angle_gamma 90.000000
_cell_volume 2103.514032
_symmetry_space_group_name_H-M "C 2/C"
_symmetry_group_IT_number 15
_symmetry_cell_setting 'monoclinic'
loop_
_space_group_symop_operation_xyz
x,y,z
-x,y,1/2-z
-x,-y,-z
x,-y,1/2+z
1/2+x,1/2+y,z
1/2-x,1/2+y,1/2-z
1/2-x,1/2-y,-z
1/2+x,1/2-y,1/2+z
loop_
_atom_site_type_symbol
_atom_site_label
_atom_site_fract_x
_atom_site_fract_y
_atom_site_fract_z
Si Si1 0.197772 0.360122 0.497377
Si Si2 0.808276 0.559965 0.386917
Si Si3 0.763591 0.063181 0.319326
Si Si4 0.273294 0.783549 0.783416
Si Si5 0.203928 0.499664 0.904797
Si Si6 0.500000 0.179766 0.750000
Si Si7 0.206444 0.903295 0.255574
O O1 0.250000 0.250000 0.500000
O O2 0.269331 0.378995 0.595438
O O3 0.270660 0.456713 0.495921
O O4 0.947793 0.372855 0.376822
O O5 0.883049 0.635504 0.373813
O O6 0.668755 0.479587 0.288446
O O7 0.000000 0.500000 0.500000
O O8 0.514220 0.057445 0.195075
O O9 0.821785 0.062230 0.412207
O O10 0.822424 0.964539 0.314823
O O11 0.837042 0.154373 0.317447
O O12 0.398168 0.700383 0.808061
O O13 0.120282 0.735921 0.757416
O O14 0.157828 0.604317 0.853098
#
# Coordination Sequence:
#
# PCOD9254145 Si02
#       7
#     8   8   8   8   8   4   8
#     4  10  17  27  49  78 103 133 165 216 272 314
#     4   9  20  31  46  81 111 136 169 222 275 314
#     4   8  16  27  48  71  98 130 169 216 253 296
#     4  11  17  29  53  76 105 139 169 221 263 310
#     4   9  15  31  46  73 103 126 173 221 248 316
#     4  10  16  26  50  78 100 130 180 222 258 296
#     4   9  17  31  45  73 108 132 175 212 261 318
#
# _framework density 24.720538999999999
#
# number of rings (size 3 to 8) (size 9 to 14) (size 15 to 20)
#    0.000    2.769    4.615    1.846    0.000    0.000 
#    0.000    0.000    0.000    9.231    0.000    0.000 
#    0.000    0.000    0.000    0.000    0.000    0.000 
#
# Total GULP energy -144886.427982 kJ/mol
# GULP energy per Si atom -5572.554922 kJ/mol
# Density = 2.466427 g / cm^3
# Si number density = 24.720539 Si / 1000 Ang^3
#
#
#
# Elastic Constant Matrix: (Units=GPa)
#
#
# Indices 1 2 3 4 5 6 
#
# 1 105.7571 52.8137 44.2951 -0.0001 -40.5935 0.0000
# 2 52.8137 126.6899 8.0679 0.0000 -16.9323 -0.0001
# 3 44.2951 8.0679 48.1766 -0.0011 -15.3492 -0.0002
# 4 -0.0001 0.0000 -0.0011 40.5402 -0.0002 -16.4696
# 5 -40.5935 -16.9323 -15.3492 -0.0002 48.3217 0.0001
# 6 0.0000 -0.0001 -0.0002 -16.4696 0.0001 54.3266
#
#
#
# Elastic Compliance Matrix: (Units=1/GPa)
#
#
# Indices 1 2 3 4 5 6 
#
# 1 0.026488 -0.008048 -0.018709 0.000000 0.013489 0.000000
# 2 -0.008048 0.010738 0.005169 0.000000 -0.001356 0.000000
# 3 -0.018709 0.005169 0.036340 0.000001 -0.002362 0.000001
# 4 0.000000 0.000000 0.000001 0.028132 0.000000 0.008528
# 5 0.013489 -0.001356 -0.002362 0.000000 0.030801 0.000000
# 6 0.000000 0.000000 0.000001 0.008528 0.000000 0.020993
#
#
# Mechanical properties :
#
#
# Convention : Reuss Voigt Hill
#
# Bulk Modulus (GPa) = 32.90409 54.55300 43.72855
# Shear Modulus (GPa) = 24.17834 40.33416 32.25625
#
# Velocity S-wave (km/s) = 3.13080 4.04370 3.61617
# Velocity P-wave (km/s) = 5.13892 6.62705 5.92985
#
# Compressibility (1/GPa) = 0.03039135
#
# Stress axis : x y z
#
# Youngs Moduli (GPa) = 37.75259 93.12869 27.51777
#
# Poissons Ratio (x) = 0.74950 0.51482
# Poissons Ratio (y) = 0.30383 -0.14225
# Poissons Ratio (z) = 0.70630 -0.48141
#
# Static dielectric constant tensor:
#      x y z
#    x 2.066820 0.000000 0.025070 
#    y 0.000000 2.035150 0.000000 
#    z 0.025070 0.000000 2.046410 
# 
# From -- ./inp_files/269792.got.cif
#   From: 2010.05.17/outbox.cif.g08.bks.cpg/sg15_135_cif.got.tgz:269792.got - 2010.06.03 18:47:42.
