data_PCOD9254155
_publ_section_title
;
Structure prediction by ZEFSAII (Michael W. Deem and Ramdas Pophale) SiO2 
 PCOD9254155
Probable space group: C 2/C
;
_chemical_formula_sum "Si O2"
_cell_formula_units_Z 40
_cell_length_a 15.475383
_cell_length_b 8.861718
_cell_length_c 18.292826
_cell_angle_alpha 90.000000
_cell_angle_beta 140.965475
_cell_angle_gamma 90.000000
_cell_volume 1579.919308
_symmetry_space_group_name_H-M "C 2/C"
_symmetry_group_IT_number 15
_symmetry_cell_setting 'monoclinic'
loop_
_space_group_symop_operation_xyz
x,y,z
-x,y,1/2-z
-x,-y,-z
x,-y,1/2+z
1/2+x,1/2+y,z
1/2-x,1/2+y,1/2-z
1/2-x,1/2-y,-z
1/2+x,1/2-y,1/2+z
loop_
_atom_site_type_symbol
_atom_site_label
_atom_site_fract_x
_atom_site_fract_y
_atom_site_fract_z
Si Si1 0.189449 0.818233 0.359679
Si Si2 0.465671 0.076444 0.852496
Si Si3 0.496895 0.193589 0.468385
Si Si4 0.528295 0.444002 0.385256
Si Si5 0.699341 0.962648 0.383284
O O1 0.346755 0.851183 0.449848
O O2 0.126827 0.840152 0.398718
O O3 0.177764 0.636983 0.341368
O O4 0.104743 0.938185 0.254035
O O5 0.508481 0.178277 0.948929
O O6 0.347134 0.131361 0.718678
O O7 0.593364 0.057380 0.880573
O O8 0.417697 0.926353 0.865824
O O9 0.478213 0.359197 0.424566
O O10 0.646041 0.560359 0.486811
#
# Coordination Sequence:
#
# PCOD9254155 Si02
#       5
#     8   8   8   8   8
#     4  10  16  27  42  67  91 121 144 181 224 275
#     4  10  17  26  41  64  94 117 149 182 229 256
#     4  10  17  26  40  65  94 119 146 187 222 266
#     4  10  16  27  44  64  91 119 150 179 223 269
#     4  10  16  28  42  64  87 122 147 184 216 275
#
# _framework density 25.317748999999999
#
# number of rings (size 3 to 8) (size 9 to 14) (size 15 to 20)
#    0.000    2.000    6.000    2.400    0.000    0.000 
#    0.000    1.000    0.000    0.000    0.000    5.600 
#    0.000    0.000    0.000    0.000    0.000    0.200 
#
# Total GULP energy -111407.284091 kJ/mol
# GULP energy per Si atom -5570.364205 kJ/mol
# Density = 2.526012 g / cm^3
# Si number density = 25.317749 Si / 1000 Ang^3
#
#
#
# Elastic Constant Matrix: (Units=GPa)
#
#
# Indices 1 2 3 4 5 6 
#
# 1 73.0910 21.4566 46.4841 0.0000 -40.5601 0.0000
# 2 21.4566 19.3321 3.3944 0.0000 -10.2562 0.0000
# 3 46.4841 3.3944 139.8159 0.0000 -42.0613 0.0000
# 4 0.0000 0.0000 0.0000 -11.4369 0.0000 -6.3606
# 5 -40.5601 -10.2562 -42.0613 0.0000 49.9466 0.0000
# 6 0.0000 0.0000 0.0000 -6.3606 0.0000 23.5731
#
#
#
# Elastic Compliance Matrix: (Units=1/GPa)
#
#
# Indices 1 2 3 4 5 6 
#
# 1 0.036288 -0.029409 -0.005762 0.000000 0.018578 0.000000
# 2 -0.029409 0.082786 0.007630 0.000000 -0.000457 0.000000
# 3 -0.005762 0.007630 0.010643 0.000000 0.005850 0.000000
# 4 0.000000 0.000000 0.000000 -0.076028 0.000000 -0.020514
# 5 0.018578 -0.000457 0.005850 0.000000 0.039940 0.000000
# 6 0.000000 0.000000 0.000000 -0.020514 0.000000 0.036886
#
#
# Mechanical properties :
#
#
# Convention : Reuss Voigt Hill
#
# Bulk Modulus (GPa) = 13.39840 41.65659 27.52749
# Shear Modulus (GPa) = 23.75570 23.14349 23.44960
#
# Velocity S-wave (km/s) = 3.06650 3.02672 3.04667
# Velocity P-wave (km/s) = 4.22391 5.35761 4.82418
#
# Compressibility (1/GPa) = 0.07463580
#
# Stress axis : x y z
#
# Youngs Moduli (GPa) = 27.55695 12.07933 93.96211
#
# Poissons Ratio (x) = 0.35524 0.54141
# Poissons Ratio (y) = 0.81042 -0.71694
# Poissons Ratio (z) = 0.15878 -0.09217
#
# Static dielectric constant tensor:
#      x y z
#    x 1.921190 0.000000 0.051400 
#    y 0.000000 2.122010 0.000000 
#    z 0.051400 0.000000 2.194430 
# 
# From -- ./inp_files/152861.got.cif
#   From: 2010.05.17/outbox.cif.g08.bks.cpg/sg15_77_cif.got.tgz:152861.got - 2010.06.03 18:47:42.
