data_PCOD9254618
_publ_section_title
;
Structure prediction by ZEFSAII (Michael W. Deem and Ramdas Pophale) SiO2 
 PCOD9254618
Probable space group: C 2/C
;
_chemical_formula_sum "Si O2"
_cell_formula_units_Z 52
_cell_length_a 15.000054
_cell_length_b 13.330733
_cell_length_c 10.356051
_cell_angle_alpha 90.000000
_cell_angle_beta 81.526965
_cell_angle_gamma 90.000000
_cell_volume 2048.211442
_symmetry_space_group_name_H-M "C 2/C"
_symmetry_group_IT_number 15
_symmetry_cell_setting 'monoclinic'
loop_
_space_group_symop_operation_xyz
x,y,z
-x,y,1/2-z
-x,-y,-z
x,-y,1/2+z
1/2+x,1/2+y,z
1/2-x,1/2+y,1/2-z
1/2-x,1/2-y,-z
1/2+x,1/2-y,1/2+z
loop_
_atom_site_type_symbol
_atom_site_label
_atom_site_fract_x
_atom_site_fract_y
_atom_site_fract_z
Si Si1 0.529096 0.153722 0.424161
Si Si2 0.136710 0.201781 0.056226
Si Si3 0.126301 0.801803 0.059215
Si Si4 0.720574 0.792671 0.284984
Si Si5 0.395443 0.493890 0.067374
Si Si6 0.077602 0.449441 0.329369
Si Si7 0.500000 0.587505 0.250000
O O1 0.610633 0.196897 0.490729
O O2 0.471889 0.252564 0.397222
O O3 0.573316 0.069966 0.323024
O O4 0.456586 0.089655 0.523905
O O5 0.201595 0.226873 0.161691
O O6 0.155262 0.108784 0.955655
O O7 0.043395 0.162431 0.138556
O O8 0.179468 0.788800 0.181132
O O9 0.141917 0.915951 0.010345
O O10 0.166294 0.748584 0.922431
O O11 0.673203 0.900757 0.275292
O O12 0.500000 0.500000 0.000000
O O13 0.416028 0.523488 0.211444
O O14 0.000000 0.410040 0.250000
#
# Coordination Sequence:
#
# PCOD9254618 Si02
#       7
#     8   8   8   8   8   8   4
#     4  10  19  33  59  82 111 142 200 235 275 348
#     4  11  18  34  57  81 108 153 189 229 286 348
#     4  10  19  36  54  89 112 144 190 239 289 343
#     4  10  20  35  60  78 114 154 187 233 293 345
#     4  10  19  31  58  88 109 143 194 237 281 352
#     4  10  19  35  56  81 106 150 194 233 275 342
#     4  10  16  32  56  78 112 140 184 232 282 326
#
# _framework density 25.388005
#
# number of rings (size 3 to 8) (size 9 to 14) (size 15 to 20)
#    0.000    1.846    6.154    0.923    0.000    0.000 
#    4.154    1.538    0.000    0.923    0.000    0.000 
#    0.000    0.000    0.000    0.000    0.000    0.000 
#
# Total GULP energy -145091.974864 kJ/mol
# GULP energy per Si atom -5580.460572 kJ/mol
# Density = 2.533022 g / cm^3
# Si number density = 25.388005 Si / 1000 Ang^3
#
#
#
# Elastic Constant Matrix: (Units=GPa)
#
#
# Indices 1 2 3 4 5 6 
#
# 1 63.0951 17.7997 36.5010 0.0000 14.6105 0.0000
# 2 17.7997 133.3234 55.6669 0.0000 19.9810 0.0000
# 3 36.5010 55.6669 134.0155 0.0000 41.8542 0.0000
# 4 0.0000 0.0000 0.0000 43.2507 0.0000 4.3907
# 5 14.6105 19.9810 41.8542 0.0000 46.7986 0.0000
# 6 0.0000 0.0000 0.0000 4.3907 0.0000 10.1944
#
#
#
# Elastic Compliance Matrix: (Units=1/GPa)
#
#
# Indices 1 2 3 4 5 6 
#
# 1 0.018941 -0.000412 -0.004435 0.000000 -0.001772 0.000000
# 2 -0.000412 0.009100 -0.003461 0.000000 -0.000661 0.000000
# 3 -0.004435 -0.003461 0.012784 0.000000 -0.008571 0.000000
# 4 0.000000 0.000000 0.000000 0.024178 0.000000 -0.010414
# 5 -0.001772 -0.000661 -0.008571 0.000000 0.029869 0.000000
# 6 0.000000 0.000000 0.000000 -0.010414 0.000000 0.102578
#
#
# Mechanical properties :
#
#
# Convention : Reuss Voigt Hill
#
# Bulk Modulus (GPa) = 41.30533 61.15214 51.22874
# Shear Modulus (GPa) = 22.50882 34.74652 28.62767
#
# Velocity S-wave (km/s) = 2.98080 3.70350 3.36163
# Velocity P-wave (km/s) = 5.30583 6.51362 5.94050
#
# Compressibility (1/GPa) = 0.02420995
#
# Stress axis : x y z
#
# Youngs Moduli (GPa) = 52.79595 109.89270 78.22143
#
# Poissons Ratio (x) = 0.04524 0.34688
# Poissons Ratio (y) = 0.02174 0.27074
# Poissons Ratio (z) = 0.23413 0.38036
#
# Static dielectric constant tensor:
#      x y z
#    x 2.046340 0.000000 -0.066180 
#    y 0.000000 2.056780 0.000000 
#    z -0.066180 0.000000 -0.144370 
# 
# From -- ./inp_files/110934.got.cif
#   From: 2010.05.17/outbox.cif.g08.bks.cpg/sg15_56_cif.got.tgz:110934.got - 2010.06.03 18:47:42.
