data_PCOD9254427
_publ_section_title
;
Structure prediction by ZEFSAII (Michael W. Deem and Ramdas Pophale) SiO2 
 PCOD9254427
Probable space group: C 2/C
;
_chemical_formula_sum "Si O2"
_cell_formula_units_Z 48
_cell_length_a 20.459639
_cell_length_b 20.677234
_cell_length_c 5.346825
_cell_angle_alpha 90.000000
_cell_angle_beta 86.072622
_cell_angle_gamma 90.000000
_cell_volume 2256.655738
_symmetry_space_group_name_H-M "C 2/C"
_symmetry_group_IT_number 15
_symmetry_cell_setting 'monoclinic'
loop_
_space_group_symop_operation_xyz
x,y,z
-x,y,1/2-z
-x,-y,-z
x,-y,1/2+z
1/2+x,1/2+y,z
1/2-x,1/2+y,1/2-z
1/2-x,1/2-y,-z
1/2+x,1/2-y,1/2+z
loop_
_atom_site_type_symbol
_atom_site_label
_atom_site_fract_x
_atom_site_fract_y
_atom_site_fract_z
Si Si1 0.829285 0.141426 0.987020
Si Si2 0.178250 0.780254 0.517282
Si Si3 0.022370 0.896970 0.996318
Si Si4 0.713533 0.043930 0.142687
Si Si5 0.429346 0.955758 0.783163
Si Si6 0.533658 0.248715 0.491729
O O1 0.831158 0.197483 0.194392
O O2 0.900435 0.110730 0.002582
O O3 0.771029 0.094800 0.087335
O O4 0.821125 0.165856 0.704434
O O5 0.250000 0.750000 0.500000
O O6 0.111830 0.740655 0.473134
O O7 0.000000 0.928609 0.750000
O O8 0.000000 0.930855 0.250000
O O9 0.984176 0.826414 0.003048
O O10 0.641517 0.077623 0.175463
O O11 0.718308 0.003878 0.400852
O O12 0.500000 0.921293 0.750000
O O13 0.428805 0.998391 0.529234
O O14 0.500000 0.224278 0.250000
O O15 0.500000 0.221721 0.750000
#
# Coordination Sequence:
#
# PCOD9254427 Si02
#       6
#     8   8   8   8   8   8
#     4  12  21  36  58  81 114 151 180 238 277 327
#     4  12  23  35  55  88 113 139 185 241 281 331
#     4  10  16  30  54  79  95 136 202 224 249 316
#     4  10  21  36  55  83 113 145 184 228 283 330
#     4   8  14  27  49  75  97 126 176 220 249 310
#     4  10  16  32  54  77 100 138 195 231 249 316
#
# _framework density 21.270413000000001
#
# number of rings (size 3 to 8) (size 9 to 14) (size 15 to 20)
#    0.000    1.667    6.667    1.500    0.000    0.000 
#    0.000    0.000    0.000    6.000    0.000    0.000 
#    0.000    0.000    0.000    0.000    0.000    0.000 
#
# Total GULP energy -133742.040197 kJ/mol
# GULP energy per Si atom -5572.585008 kJ/mol
# Density = 2.122200 g / cm^3
# Si number density = 21.270413 Si / 1000 Ang^3
#
#
#
# Elastic Constant Matrix: (Units=GPa)
#
#
# Indices 1 2 3 4 5 6 
#
# 1 227.4868 23.4716 22.9885 0.0000 -22.4084 0.0000
# 2 23.4716 21.1520 6.1795 0.0000 1.2257 0.0000
# 3 22.9885 6.1795 142.3211 0.0000 1.9785 0.0000
# 4 0.0000 0.0000 0.0000 -7.5784 0.0000 -0.7056
# 5 -22.4084 1.2257 1.9785 0.0000 42.5273 0.0000
# 6 0.0000 0.0000 0.0000 -0.7056 0.0000 6.8097
#
#
#
# Elastic Compliance Matrix: (Units=1/GPa)
#
#
# Indices 1 2 3 4 5 6 
#
# 1 0.005374 -0.005949 -0.000652 0.000000 0.003034 0.000000
# 2 -0.005949 0.054540 -0.001343 0.000000 -0.004644 0.000000
# 3 -0.000652 -0.001343 0.007199 0.000000 -0.000640 0.000000
# 4 0.000000 0.000000 0.000000 -0.130694 0.000000 -0.013543
# 5 0.003034 -0.004644 -0.000640 0.000000 0.025276 0.000000
# 6 0.000000 0.000000 0.000000 -0.013543 0.000000 0.145446
#
#
# Mechanical properties :
#
#
# Convention : Reuss Voigt Hill
#
# Bulk Modulus (GPa) = 19.52145 55.13766 37.32955
# Shear Modulus (GPa) = 35.68772 30.90642 33.29707
#
# Velocity S-wave (km/s) = 4.10055 3.81599 3.96083
# Velocity P-wave (km/s) = 5.62290 6.73752 6.20529
#
# Compressibility (1/GPa) = 0.05122571
#
# Stress axis : x y z
#
# Youngs Moduli (GPa) = 186.06791 18.33527 138.91086
#
# Poissons Ratio (x) = 0.10908 0.09057
# Poissons Ratio (y) = 1.10693 0.18650
# Poissons Ratio (z) = 0.12131 0.02462
#
# Static dielectric constant tensor:
#      x y z
#    x 1.711780 0.000000 0.003700 
#    y 0.000000 1.808300 0.000000 
#    z 0.003700 0.000000 1.825580 
# 
# From -- ./inp_files/10683.got.cif
#   From: 2010.05.17/outbox.cif.g08.bks.cpg/sg15_6_cif.got.tgz:10683.got - 2010.06.03 18:47:42.
