data_PCOD9254332
_publ_section_title
;
Structure prediction by ZEFSAII (Michael W. Deem and Ramdas Pophale) SiO2 
 PCOD9254332
Probable space group: C 2/C
;
_chemical_formula_sum "Si O2"
_cell_formula_units_Z 56
_cell_length_a 21.052552
_cell_length_b 8.224016
_cell_length_c 23.060397
_cell_angle_alpha 90.000000
_cell_angle_beta 130.859807
_cell_angle_gamma 90.000000
_cell_volume 3019.651346
_symmetry_space_group_name_H-M "C 2/C"
_symmetry_group_IT_number 15
_symmetry_cell_setting 'monoclinic'
loop_
_space_group_symop_operation_xyz
x,y,z
-x,y,1/2-z
-x,-y,-z
x,-y,1/2+z
1/2+x,1/2+y,z
1/2-x,1/2+y,1/2-z
1/2-x,1/2-y,-z
1/2+x,1/2-y,1/2+z
loop_
_atom_site_type_symbol
_atom_site_label
_atom_site_fract_x
_atom_site_fract_y
_atom_site_fract_z
Si Si1 0.679782 0.756427 0.798415
Si Si2 0.841211 0.969839 0.906622
Si Si3 0.778036 0.436266 0.871995
Si Si4 0.739997 0.168540 0.932219
Si Si5 0.333813 0.171790 0.080210
Si Si6 0.918390 0.655152 0.012409
Si Si7 0.400078 0.247246 0.366271
O O1 0.748554 0.902434 0.833127
O O2 0.729032 0.589143 0.818375
O O3 0.651460 0.747900 0.848603
O O4 0.608454 0.763607 0.707764
O O5 0.821568 0.086998 0.950005
O O6 0.892163 0.071580 0.889040
O O7 0.888345 0.811348 0.957828
O O8 0.721143 0.315199 0.876444
O O9 0.818160 0.336918 0.843934
O O10 0.855699 0.509187 0.956701
O O11 0.680498 0.015773 0.910054
O O12 0.750000 0.250000 0.000000
O O13 0.401571 0.186267 0.070411
O O14 0.250000 0.250000 0.000000
O O15 0.017956 0.649582 0.063962
#
# Coordination Sequence:
#
# PCOD9254332 Si02
#       7
#     8   8   8   8   8   8   8
#     4  10  20  36  57  78 107 144 183 226 266 326
#     4   9  20  34  54  77 104 144 181 218 264 326
#     4  10  20  34  56  80 108 143 183 225 265 327
#     4  10  16  29  56  84  96 130 188 229 256 306
#     4  11  18  35  59  81 103 142 185 224 267 324
#     4  11  20  35  55  81 112 142 178 228 270 324
#     4  11  22  34  52  84 111 143 179 221 280 322
#
# _framework density 18.545188
#
# number of rings (size 3 to 8) (size 9 to 14) (size 15 to 20)
#    0.000    1.714    5.714    1.714    0.000    0.571 
#    0.000    0.000    0.000    0.000    0.000    0.000 
#    0.000    0.000    0.000    0.000    0.000    0.000 
#
# Total GULP energy -155877.780271 kJ/mol
# GULP energy per Si atom -5567.063581 kJ/mol
# Density = 1.850298 g / cm^3
# Si number density = 18.545188 Si / 1000 Ang^3
#
#
#
# Elastic Constant Matrix: (Units=GPa)
#
#
# Indices 1 2 3 4 5 6 
#
# 1 37.5362 -1.2192 11.0924 0.0000 -10.6149 0.0000
# 2 -1.2192 77.1946 9.7866 0.0000 -0.3658 0.0000
# 3 11.0924 9.7866 73.7085 0.0000 -13.7607 0.0000
# 4 0.0000 0.0000 0.0000 11.5390 0.0000 -9.9279
# 5 -10.6149 -0.3658 -13.7607 0.0000 26.1781 0.0000
# 6 0.0000 0.0000 0.0000 -9.9279 0.0000 25.6747
#
#
#
# Elastic Compliance Matrix: (Units=1/GPa)
#
#
# Indices 1 2 3 4 5 6 
#
# 1 0.030569 0.000872 -0.002661 0.000000 0.011009 0.000000
# 2 0.000872 0.013217 -0.001980 0.000000 -0.000502 0.000000
# 3 -0.002661 -0.001980 0.015550 0.000000 0.007067 0.000000
# 4 0.000000 0.000000 0.000000 0.129869 0.000000 0.050218
# 5 0.011009 -0.000502 0.007067 0.000000 0.046372 0.000000
# 6 0.000000 0.000000 0.000000 0.050218 0.000000 0.058367
#
#
# Mechanical properties :
#
#
# Convention : Reuss Voigt Hill
#
# Bulk Modulus (GPa) = 19.30567 25.30654 22.30611
# Shear Modulus (GPa) = 15.68646 23.93032 19.80839
#
# Velocity S-wave (km/s) = 2.91151 3.59608 3.27175
# Velocity P-wave (km/s) = 4.66210 5.56039 5.13094
#
# Compressibility (1/GPa) = 0.05179825
#
# Stress axis : x y z
#
# Youngs Moduli (GPa) = 32.71304 75.66200 64.31021
#
# Poissons Ratio (x) = -0.06600 0.17112
# Poissons Ratio (y) = -0.02854 0.12733
# Poissons Ratio (z) = 0.08705 0.14980
#
# Static dielectric constant tensor:
#      x y z
#    x 1.665410 0.000000 -0.017440 
#    y 0.000000 1.725580 0.000000 
#    z -0.017440 0.000000 1.648980 
# 
# From -- ./inp_files/281393.got.cif
#   From: 2010.05.17/outbox.cif.g08.bks.cpg/sg15_141_cif.got.tgz:281393.got - 2010.06.03 18:47:42.
