data_PCOD9254443
_publ_section_title
;
Structure prediction by ZEFSAII (Michael W. Deem and Ramdas Pophale) SiO2 
 PCOD9254443
Probable space group: C 2/C
;
_chemical_formula_sum "Si O2"
_cell_formula_units_Z 48
_cell_length_a 16.166277
_cell_length_b 25.759072
_cell_length_c 9.698840
_cell_angle_alpha 90.000000
_cell_angle_beta 153.453210
_cell_angle_gamma 90.000000
_cell_volume 1805.086743
_symmetry_space_group_name_H-M "C 2/C"
_symmetry_group_IT_number 15
_symmetry_cell_setting 'monoclinic'
loop_
_space_group_symop_operation_xyz
x,y,z
-x,y,1/2-z
-x,-y,-z
x,-y,1/2+z
1/2+x,1/2+y,z
1/2-x,1/2+y,1/2-z
1/2-x,1/2-y,-z
1/2+x,1/2-y,1/2+z
loop_
_atom_site_type_symbol
_atom_site_label
_atom_site_fract_x
_atom_site_fract_y
_atom_site_fract_z
Si Si1 0.752029 0.946358 0.103061
Si Si2 0.063630 0.720083 0.191660
Si Si3 0.311778 0.439111 0.680563
Si Si4 0.282327 0.625647 0.397353
Si Si5 0.237827 0.126447 0.654783
Si Si6 0.078898 0.203441 0.236537
O O1 0.745040 0.923428 0.940037
O O2 0.662243 0.905302 0.075535
O O3 0.970703 0.946161 0.466238
O O4 0.706033 0.006810 0.044559
O O5 0.250000 0.750000 0.500000
O O6 0.135489 0.669863 0.216876
O O7 0.000000 0.704608 0.250000
O O8 0.933425 0.762059 0.917501
O O9 0.295612 0.420305 0.500517
O O10 0.253254 0.394554 0.700132
O O11 0.500000 0.641170 0.750000
O O12 0.075077 0.157120 0.498407
O O13 0.255457 0.173688 0.566782
O O14 0.000000 0.236315 0.250000
#
# Coordination Sequence:
#
# PCOD9254443 Si02
#       6
#     8   8   8   8   8   8
#     4  10  16  30  54  90 125 156 188 237 299 357
#     4  12  26  41  64  85 117 161 211 254 306 358
#     4  10  17  28  55  88 123 156 190 235 299 359
#     4  10  23  37  61  92 127 154 199 251 300 360
#     4   9  16  31  51  74 124 151 186 241 296 340
#     4   8  19  37  55  78 115 156 196 248 301 347
#
# _framework density 26.591522000000001
#
# number of rings (size 3 to 8) (size 9 to 14) (size 15 to 20)
#    1.000    1.000    3.333    2.500    4.667    2.667 
#    0.000    5.000    0.000    1.000    0.000    0.000 
#    0.000    0.000    0.000    0.000    0.000    0.000 
#
# Total GULP energy -133746.984504 kJ/mol
# GULP energy per Si atom -5572.791021 kJ/mol
# Density = 2.653100 g / cm^3
# Si number density = 26.591522 Si / 1000 Ang^3
#
#
#
# Elastic Constant Matrix: (Units=GPa)
#
#
# Indices 1 2 3 4 5 6 
#
# 1 164.1228 77.1790 40.3102 0.0000 -21.3936 0.0000
# 2 77.1790 184.8174 55.7749 0.0000 -6.6881 0.0000
# 3 40.3102 55.7749 76.5783 0.0000 21.1652 0.0000
# 4 0.0000 0.0000 0.0000 -11.8217 0.0000 -3.2684
# 5 -21.3936 -6.6881 21.1652 0.0000 24.5193 0.0000
# 6 0.0000 0.0000 0.0000 -3.2684 0.0000 14.4827
#
#
#
# Elastic Compliance Matrix: (Units=1/GPa)
#
#
# Indices 1 2 3 4 5 6 
#
# 1 0.011699 -0.000922 -0.010820 0.000000 0.019297 0.000000
# 2 -0.000922 0.008545 -0.008091 0.000000 0.008511 0.000000
# 3 -0.010820 -0.008091 0.036598 0.000000 -0.043240 0.000000
# 4 0.000000 0.000000 0.000000 -0.079622 0.000000 -0.017969
# 5 0.019297 0.008511 -0.043240 0.000000 0.097267 0.000000
# 6 0.000000 0.000000 0.000000 -0.017969 0.000000 0.064993
#
#
# Mechanical properties :
#
#
# Convention : Reuss Voigt Hill
#
# Bulk Modulus (GPa) = 58.21904 85.78297 72.00101
# Shear Modulus (GPa) = 27.04559 22.25303 24.64931
#
# Velocity S-wave (km/s) = 3.19262 2.89597 3.04791
# Velocity P-wave (km/s) = 5.96086 6.59634 6.28663
#
# Compressibility (1/GPa) = 0.01717651
#
# Stress axis : x y z
#
# Youngs Moduli (GPa) = 85.47378 117.02166 27.32381
#
# Poissons Ratio (x) = 0.10788 0.29566
# Poissons Ratio (y) = 0.07880 0.22107
# Poissons Ratio (z) = 0.92486 0.94681
#
# Static dielectric constant tensor:
#      x y z
#    x 1.601030 0.000000 0.068650 
#    y 0.000000 2.137620 0.000000 
#    z 0.068650 0.000000 2.208510 
# 
# From -- ./inp_files/108134.got.cif
#   From: 2010.05.17/outbox.cif.g08.bks.cpg/sg15_55_cif.got.tgz:108134.got - 2010.06.03 18:47:42.
