data_PCOD9254262
_publ_section_title
;
Structure prediction by ZEFSAII (Michael W. Deem and Ramdas Pophale) SiO2 
 PCOD9254262
Probable space group: C 2/C
;
_chemical_formula_sum "Si O2"
_cell_formula_units_Z 64
_cell_length_a 10.147169
_cell_length_b 21.450538
_cell_length_c 23.947431
_cell_angle_alpha 90.000000
_cell_angle_beta 133.429621
_cell_angle_gamma 90.000000
_cell_volume 3785.383076
_symmetry_space_group_name_H-M "C 2/C"
_symmetry_group_IT_number 15
_symmetry_cell_setting 'monoclinic'
loop_
_space_group_symop_operation_xyz
x,y,z
-x,y,1/2-z
-x,-y,-z
x,-y,1/2+z
1/2+x,1/2+y,z
1/2-x,1/2+y,1/2-z
1/2-x,1/2-y,-z
1/2+x,1/2-y,1/2+z
loop_
_atom_site_type_symbol
_atom_site_label
_atom_site_fract_x
_atom_site_fract_y
_atom_site_fract_z
Si Si1 0.263824 0.885284 0.026999
Si Si2 0.989221 0.007391 0.064514
Si Si3 0.652940 0.080569 0.338791
Si Si4 0.915722 0.130498 0.588478
Si Si5 0.093290 0.183407 0.034325
Si Si6 0.836031 0.882466 0.240309
Si Si7 0.502481 0.043646 0.683531
Si Si8 0.615192 0.824788 0.079849
O O1 0.360291 0.910935 0.111412
O O2 0.414970 0.850781 0.034345
O O3 0.175248 0.945515 0.971731
O O4 0.094650 0.842410 0.994650
O O5 0.176954 0.040906 0.137047
O O6 0.957200 0.939812 0.080653
O O7 0.000000 0.000000 0.000000
O O8 0.500000 0.100383 0.250000
O O9 0.746010 0.137859 0.397271
O O10 0.554066 0.027260 0.346768
O O11 0.915849 0.174423 0.534758
O O12 0.725889 0.135901 0.565957
O O13 0.071892 0.147205 0.678504
O O14 0.117831 0.253839 0.060757
O O15 0.697151 0.935891 0.217769
O O16 0.726537 0.834142 0.169922
O O17 0.000000 0.907471 0.250000
O O18 0.500000 0.050009 0.750000
#
# Coordination Sequence:
#
# PCOD9254262 Si02
#       8
#     8   8   8   8   8   8   8   8
#     4  10  19  34  53  78 108 140 176 227 270 317
#     4  11  18  34  56  85 110 130 178 232 274 318
#     4  10  19  30  52  83 106 136 176 228 269 309
#     4  11  19  35  57  78 106 142 178 225 271 319
#     4  11  20  36  55  75 106 146 188 223 258 315
#     4   9  20  34  50  76 113 141 172 218 276 326
#     4  10  16  28  52  81 103 131 181 223 267 320
#     4  10  23  35  51  80 111 148 182 215 268 321
#
# _framework density 16.907139999999998
#
# number of rings (size 3 to 8) (size 9 to 14) (size 15 to 20)
#    0.000    1.750    3.750    3.000    0.000    2.000 
#    0.000    1.250    0.000    0.000    0.000    3.500 
#    0.000    1.000    0.000    0.000    0.000    0.000 
#
# Total GULP energy -178410.246268 kJ/mol
# GULP energy per Si atom -5575.320196 kJ/mol
# Density = 1.686866 g / cm^3
# Si number density = 16.907140 Si / 1000 Ang^3
#
#
#
# Elastic Constant Matrix: (Units=GPa)
#
#
# Indices 1 2 3 4 5 6 
#
# 1 92.1781 48.6964 64.8854 0.0000 6.6636 0.0000
# 2 48.6964 92.5188 49.7531 0.0000 -4.4926 0.0000
# 3 64.8854 49.7531 102.6270 0.0000 10.5641 0.0000
# 4 0.0000 0.0000 0.0000 14.8600 0.0000 1.3780
# 5 6.6636 -4.4926 10.5641 0.0000 26.7850 0.0000
# 6 0.0000 0.0000 0.0000 1.3780 0.0000 7.9492
#
#
#
# Elastic Compliance Matrix: (Units=1/GPa)
#
#
# Indices 1 2 3 4 5 6 
#
# 1 0.021473 -0.005711 -0.010589 0.000000 -0.002124 0.000000
# 2 -0.005711 0.016950 -0.005259 0.000000 0.006338 0.000000
# 3 -0.010589 -0.005259 0.019604 0.000000 -0.005980 0.000000
# 4 0.000000 0.000000 0.000000 0.068394 0.000000 -0.011856
# 5 -0.002124 0.006338 -0.005980 0.000000 0.041284 0.000000
# 6 0.000000 0.000000 0.000000 -0.011856 0.000000 0.127855
#
#
# Mechanical properties :
#
#
# Convention : Reuss Voigt Hill
#
# Bulk Modulus (GPa) = 67.07242 68.22150 67.64696
# Shear Modulus (GPa) = 14.54979 18.18476 16.36728
#
# Velocity S-wave (km/s) = 2.93673 3.28314 3.11476
# Velocity P-wave (km/s) = 7.15936 7.40340 7.28240
#
# Compressibility (1/GPa) = 0.01490926
#
# Stress axis : x y z
#
# Youngs Moduli (GPa) = 46.57099 58.99550 51.01007
#
# Poissons Ratio (x) = 0.33691 0.54014
# Poissons Ratio (y) = 0.26596 0.26828
# Poissons Ratio (z) = 0.49313 0.31028
#
# Static dielectric constant tensor:
#      x y z
#    x 1.573320 0.000000 0.011990 
#    y 0.000000 1.558090 0.000000 
#    z 0.011990 0.000000 1.608350 
# 
# From -- ./inp_files/266151.got.cif
#   From: 2010.05.17/outbox.cif.g08.bks.cpg/sg15_134_cif.got.tgz:266151.got - 2010.06.03 18:47:42.
