data_PCOD9254810
_publ_section_title
;
Structure prediction by ZEFSAII (Michael W. Deem and Ramdas Pophale) SiO2 
 PCOD9254810
Probable space group: C 2/C
;
_chemical_formula_sum "Si O2"
_cell_formula_units_Z 48
_cell_length_a 10.304876
_cell_length_b 16.331933
_cell_length_c 13.376607
_cell_angle_alpha 90.000000
_cell_angle_beta 98.765504
_cell_angle_gamma 90.000000
_cell_volume 2224.969428
_symmetry_space_group_name_H-M "C 2/C"
_symmetry_group_IT_number 15
_symmetry_cell_setting 'monoclinic'
loop_
_space_group_symop_operation_xyz
x,y,z
-x,y,1/2-z
-x,-y,-z
x,-y,1/2+z
1/2+x,1/2+y,z
1/2-x,1/2+y,1/2-z
1/2-x,1/2-y,-z
1/2+x,1/2-y,1/2+z
loop_
_atom_site_type_symbol
_atom_site_label
_atom_site_fract_x
_atom_site_fract_y
_atom_site_fract_z
Si Si1 0.913148 0.778311 0.340404
Si Si2 0.748628 0.966515 0.843029
Si Si3 0.489013 0.551951 0.628542
Si Si4 0.313016 0.950679 0.446454
Si Si5 0.901978 0.599714 0.333688
Si Si6 0.148127 0.640711 0.742199
O O1 0.971711 0.856912 0.404928
O O2 0.918245 0.687755 0.385892
O O3 0.764506 0.800876 0.292346
O O4 0.000000 0.770138 0.250000
O O5 0.899097 0.987526 0.886186
O O6 0.684049 0.052813 0.798710
O O7 0.733082 0.906455 0.747331
O O8 0.677562 0.935721 0.934826
O O9 0.500000 0.558729 0.750000
O O10 0.340796 0.529914 0.588875
O O11 0.342714 0.876252 0.375376
O O12 0.393577 0.027935 0.413630
O O13 0.000000 0.586724 0.250000
O O14 0.000000 0.664238 0.750000
#
# Coordination Sequence:
#
# PCOD9254810 Si02
#       6
#     8   8   8   8   8   8
#     4   9  17  37  59  72 110 158 184 219 280 345
#     4  10  20  33  56  85 110 141 190 236 276 330
#     4  10  16  35  60  75 107 156 190 216 283 341
#     4  11  19  34  59  83 110 147 187 238 275 329
#     4  10  21  35  56  84 110 146 188 230 281 328
#     4  10  20  35  55  80 112 149 185 226 290 328
#
# _framework density 21.573329000000001
#
# number of rings (size 3 to 8) (size 9 to 14) (size 15 to 20)
#    0.000    2.000    6.667    2.500    0.000    2.667 
#    3.000    4.167    3.667    0.000    0.000    0.000 
#    0.000    0.000    0.000    0.000    0.000    0.000 
#
# Total GULP energy -133854.608105 kJ/mol
# GULP energy per Si atom -5577.275338 kJ/mol
# Density = 2.152423 g / cm^3
# Si number density = 21.573329 Si / 1000 Ang^3
#
#
#
# Elastic Constant Matrix: (Units=GPa)
#
#
# Indices 1 2 3 4 5 6 
#
# 1 137.3358 14.4529 -4.5442 0.0000 -4.9014 0.0000
# 2 14.4529 52.2254 -7.9382 0.0000 -6.5220 0.0000
# 3 -4.5442 -7.9382 85.4945 0.0000 -7.8267 0.0000
# 4 0.0000 0.0000 0.0000 3.7847 0.0000 -9.0074
# 5 -4.9014 -6.5220 -7.8267 0.0000 18.9552 0.0000
# 6 0.0000 0.0000 0.0000 -9.0074 0.0000 57.6762
#
#
#
# Elastic Compliance Matrix: (Units=1/GPa)
#
#
# Indices 1 2 3 4 5 6 
#
# 1 0.007540 -0.001849 0.000363 0.000000 0.001464 0.000000
# 2 -0.001849 0.021026 0.002570 0.000000 0.007818 0.000000
# 3 0.000363 0.002570 0.012517 0.000000 0.006147 0.000000
# 4 0.000000 0.000000 0.000000 0.420516 0.000000 0.065673
# 5 0.001464 0.007818 0.006147 0.000000 0.058362 0.000000
# 6 0.000000 0.000000 0.000000 0.065673 0.000000 0.027594
#
#
# Mechanical properties :
#
#
# Convention : Reuss Voigt Hill
#
# Bulk Modulus (GPa) = 23.12035 30.99963 27.05999
# Shear Modulus (GPa) = 8.93167 34.28891 21.61029
#
# Velocity S-wave (km/s) = 2.03694 3.99107 3.16842
# Velocity P-wave (km/s) = 4.03392 5.96982 5.09467
#
# Compressibility (1/GPa) = 0.04325194
#
# Stress axis : x y z
#
# Youngs Moduli (GPa) = 132.62202 47.55958 79.88978
#
# Poissons Ratio (x) = 0.08792 -0.02901
# Poissons Ratio (y) = 0.24518 -0.20529
# Poissons Ratio (z) = -0.04816 -0.12221
#
# Static dielectric constant tensor:
#      x y z
#    x 1.870530 0.000000 0.014230 
#    y 0.000000 1.803190 0.000000 
#    z 0.014230 0.000000 1.804200 
# 
# From -- ./inp_files/143616.got.cif
#   From: 2010.05.17/outbox.cif.g08.bks.cpg/sg15_72_cif.got.tgz:143616.got - 2010.06.03 18:47:42.
