data_PCOD9254588
_publ_section_title
;
Structure prediction by ZEFSAII (Michael W. Deem and Ramdas Pophale) SiO2 
 PCOD9254588
Probable space group: C 2/C
;
_chemical_formula_sum "Si O2"
_cell_formula_units_Z 44
_cell_length_a 5.429496
_cell_length_b 13.622799
_cell_length_c 26.456468
_cell_angle_alpha 90.000000
_cell_angle_beta 106.876206
_cell_angle_gamma 90.000000
_cell_volume 1872.577576
_symmetry_space_group_name_H-M "C 2/C"
_symmetry_group_IT_number 15
_symmetry_cell_setting 'monoclinic'
loop_
_space_group_symop_operation_xyz
x,y,z
-x,y,1/2-z
-x,-y,-z
x,-y,1/2+z
1/2+x,1/2+y,z
1/2-x,1/2+y,1/2-z
1/2-x,1/2-y,-z
1/2+x,1/2-y,1/2+z
loop_
_atom_site_type_symbol
_atom_site_label
_atom_site_fract_x
_atom_site_fract_y
_atom_site_fract_z
Si Si1 0.014651 0.879385 0.503124
Si Si2 0.724939 0.981280 0.645668
Si Si3 0.229951 0.217364 0.231089
Si Si4 0.000000 0.903221 0.250000
Si Si5 0.801587 0.861856 0.873841
Si Si6 0.454687 0.095226 0.960667
O O1 0.119295 0.846510 0.563637
O O2 0.213090 0.851402 0.471266
O O3 0.722794 0.848549 0.476355
O O4 0.000000 0.000000 0.500000
O O5 0.839422 0.033975 0.701311
O O6 0.611229 0.057523 0.598533
O O7 0.486857 0.907373 0.642050
O O8 0.974576 0.933590 0.633762
O O9 0.500000 0.159041 0.250000
O O10 0.299659 0.322341 0.260290
O O11 0.182411 0.222832 0.168125
O O12 0.000000 0.174084 0.250000
O O13 0.500000 0.000000 0.000000
#
# Coordination Sequence:
#
# PCOD9254588 Si02
#       6
#     8   8   8   4   8   8
#     4  10  16  32  52  91 125 141 179 248 318 348
#     4  12  23  36  65  96 119 153 207 260 301 351
#     4  10  25  47  58  81 123 170 206 248 304 364
#     4  10  30  42  60  82 132 168 204 250 310 360
#     4  12  22  36  66  94 115 155 205 260 295 362
#     4  10  16  32  52  92 126 144 177 250 319 353
#
# _framework density 23.497025000000001
#
# number of rings (size 3 to 8) (size 9 to 14) (size 15 to 20)
#    0.545    0.727    7.273    1.091    6.364    0.000 
#    0.000    0.000    0.000    2.182    0.000    0.000 
#    0.000    0.000    0.000    0.000    0.000    0.000 
#
# Total GULP energy -122783.479081 kJ/mol
# GULP energy per Si atom -5581.067231 kJ/mol
# Density = 2.344354 g / cm^3
# Si number density = 23.497025 Si / 1000 Ang^3
#
#
#
# Elastic Constant Matrix: (Units=GPa)
#
#
# Indices 1 2 3 4 5 6 
#
# 1 201.4874 18.5057 31.6784 0.0000 5.8111 0.0000
# 2 18.5057 65.3088 28.4424 0.0000 3.3529 0.0000
# 3 31.6784 28.4424 146.6380 0.0000 11.9228 0.0000
# 4 0.0000 0.0000 0.0000 20.6751 0.0000 -0.9683
# 5 5.8111 3.3529 11.9228 0.0000 37.2647 0.0000
# 6 0.0000 0.0000 0.0000 -0.9683 0.0000 5.8890
#
#
#
# Elastic Compliance Matrix: (Units=1/GPa)
#
#
# Indices 1 2 3 4 5 6 
#
# 1 0.005213 -0.001070 -0.000883 0.000000 -0.000434 0.000000
# 2 -0.001070 0.016953 -0.003025 0.000000 -0.000390 0.000000
# 3 -0.000883 -0.003025 0.007766 0.000000 -0.002075 0.000000
# 4 0.000000 0.000000 0.000000 0.048743 0.000000 0.008014
# 5 -0.000434 -0.000390 -0.002075 0.000000 0.027602 0.000000
# 6 0.000000 0.000000 0.000000 0.008014 0.000000 0.171126
#
#
# Mechanical properties :
#
#
# Convention : Reuss Voigt Hill
#
# Bulk Modulus (GPa) = 50.06527 63.40969 56.73748
# Shear Modulus (GPa) = 17.00583 35.08626 26.04605
#
# Velocity S-wave (km/s) = 2.69317 3.86841 3.33300
# Velocity P-wave (km/s) = 5.56994 6.85549 6.24587
#
# Compressibility (1/GPa) = 0.01997393
#
# Stress axis : x y z
#
# Youngs Moduli (GPa) = 191.83690 58.98776 128.76949
#
# Poissons Ratio (x) = 0.06312 0.11374
# Poissons Ratio (y) = 0.20529 0.38956
# Poissons Ratio (z) = 0.16944 0.17845
#
# Static dielectric constant tensor:
#      x y z
#    x 1.691070 0.000000 0.061990 
#    y 0.000000 1.931910 0.000000 
#    z 0.061990 0.000000 1.845850 
# 
# From -- ./inp_files/286198.got.cif
#   From: 2010.05.17/outbox.cif.g08.bks.cpg/sg15_144_cif.got.tgz:286198.got - 2010.06.03 18:47:42.
