data_PCOD9254083
_publ_section_title
;
Structure prediction by ZEFSAII (Michael W. Deem and Ramdas Pophale) SiO2 
 PCOD9254083
Probable space group: C 2/C
;
_chemical_formula_sum "Si O2"
_cell_formula_units_Z 40
_cell_length_a 7.511289
_cell_length_b 27.596103
_cell_length_c 12.747440
_cell_angle_alpha 90.000000
_cell_angle_beta 36.950773
_cell_angle_gamma 90.000000
_cell_volume 1588.373460
_symmetry_space_group_name_H-M "C 2/C"
_symmetry_group_IT_number 15
_symmetry_cell_setting 'monoclinic'
loop_
_space_group_symop_operation_xyz
x,y,z
-x,y,1/2-z
-x,-y,-z
x,-y,1/2+z
1/2+x,1/2+y,z
1/2-x,1/2+y,1/2-z
1/2-x,1/2-y,-z
1/2+x,1/2-y,1/2+z
loop_
_atom_site_type_symbol
_atom_site_label
_atom_site_fract_x
_atom_site_fract_y
_atom_site_fract_z
Si Si1 0.153632 0.684173 0.377626
Si Si2 0.230702 0.018671 0.805650
Si Si3 0.154713 0.117834 0.876583
Si Si4 0.279252 0.585300 0.257103
Si Si5 0.281189 0.216865 0.752872
O O1 0.500000 0.678024 0.250000
O O2 0.065507 0.630576 0.379958
O O3 0.143537 0.729915 0.304450
O O4 0.970572 0.700676 0.564409
O O5 0.500000 0.033631 0.750000
O O6 0.333025 0.970100 0.698274
O O7 0.136305 0.071286 0.806709
O O8 0.000000 0.000000 0.000000
O O9 0.500000 0.125725 0.750000
O O10 0.069689 0.171222 0.876271
O O11 0.959420 0.101953 0.068694
O O12 0.500000 0.580776 0.250000
O O13 0.500000 0.223098 0.750000
#
# Coordination Sequence:
#
# PCOD9254083 Si02
#       5
#     8   8   8   8   8
#     4  10  17  25  40  67  97 128 163 207 256 302
#     4   9  19  35  53  74 103 141 175 207 256 310
#     4   9  16  29  45  65  96 133 166 205 253 301
#     4  10  18  30  48  75 101 129 167 213 254 300
#     4  10  16  25  40  63  96 131 160 204 257 303
#
# _framework density 25.182994999999998
#
# number of rings (size 3 to 8) (size 9 to 14) (size 15 to 20)
#    0.000    2.400    0.000    8.400    0.000    0.000 
#    0.000   16.000    0.000    0.000    0.000   14.000 
#    0.000    0.000    0.000    0.000    0.000    0.000 
#
# Total GULP energy -111520.443283 kJ/mol
# GULP energy per Si atom -5576.022164 kJ/mol
# Density = 2.512568 g / cm^3
# Si number density = 25.182995 Si / 1000 Ang^3
#
#
#
# Elastic Constant Matrix: (Units=GPa)
#
#
# Indices 1 2 3 4 5 6 
#
# 1 36.2132 11.4083 7.6133 0.0000 6.5866 0.0000
# 2 11.4083 269.5830 1.5805 0.0000 23.4325 0.0000
# 3 7.6133 1.5805 59.3596 0.0000 19.4757 0.0000
# 4 0.0000 0.0000 0.0000 14.8188 0.0000 -32.3687
# 5 6.5866 23.4325 19.4757 0.0000 20.4164 0.0000
# 6 0.0000 0.0000 0.0000 -32.3687 0.0000 -1.6899
#
#
#
# Elastic Compliance Matrix: (Units=1/GPa)
#
#
# Indices 1 2 3 4 5 6 
#
# 1 0.029449 -0.000574 -0.001253 0.000000 -0.007646 0.000000
# 2 -0.000574 0.004320 0.002219 0.000000 -0.006889 0.000000
# 3 -0.001253 0.002219 0.025692 0.000000 -0.026651 0.000000
# 4 0.000000 0.000000 0.000000 0.001575 0.000000 -0.030173
# 5 -0.007646 -0.006889 -0.026651 0.000000 0.084777 0.000000
# 6 0.000000 0.000000 0.000000 -0.030173 0.000000 -0.013814
#
#
# Mechanical properties :
#
#
# Convention : Reuss Voigt Hill
#
# Bulk Modulus (GPa) = 16.59909 45.15110 30.87510
# Shear Modulus (GPa) = 33.04744 29.67930 31.36337
#
# Velocity S-wave (km/s) = 3.62649 3.43672 3.53288
# Velocity P-wave (km/s) = 4.91334 5.80656 5.37853
#
# Compressibility (1/GPa) = 0.06024425
#
# Stress axis : x y z
#
# Youngs Moduli (GPa) = 33.95659 231.50649 38.92239
#
# Poissons Ratio (x) = 0.13295 0.04877
# Poissons Ratio (y) = 0.01950 -0.08637
# Poissons Ratio (z) = 0.04255 -0.51370
#
# Static dielectric constant tensor:
#      x y z
#    x 1.982590 0.000000 0.041650 
#    y 0.000000 2.216340 0.000000 
#    z 0.041650 0.000000 1.924300 
# 
# From -- ./inp_files/52583.got.cif
#   From: 2010.05.17/outbox.cif.g08.bks.cpg/sg15_27_cif.got.tgz:52583.got - 2010.06.03 18:47:42.
