data_PCOD9254948
_publ_section_title
;
Structure prediction by ZEFSAII (Michael W. Deem and Ramdas Pophale) SiO2 
 PCOD9254948
Probable space group: C 2/C
;
_chemical_formula_sum "Si O2"
_cell_formula_units_Z 52
_cell_length_a 9.780393
_cell_length_b 17.756133
_cell_length_c 12.107207
_cell_angle_alpha 90.000000
_cell_angle_beta 101.181842
_cell_angle_gamma 90.000000
_cell_volume 2062.647653
_symmetry_space_group_name_H-M "C 2/C"
_symmetry_group_IT_number 15
_symmetry_cell_setting 'monoclinic'
loop_
_space_group_symop_operation_xyz
x,y,z
-x,y,1/2-z
-x,-y,-z
x,-y,1/2+z
1/2+x,1/2+y,z
1/2-x,1/2+y,1/2-z
1/2-x,1/2-y,-z
1/2+x,1/2-y,1/2+z
loop_
_atom_site_type_symbol
_atom_site_label
_atom_site_fract_x
_atom_site_fract_y
_atom_site_fract_z
Si Si1 0.695966 0.568973 0.700197
Si Si2 0.813530 0.411967 0.452754
Si Si3 0.427540 0.293747 0.415709
Si Si4 0.000000 0.679003 0.250000
Si Si5 0.210949 0.894559 0.674721
Si Si6 0.340129 0.302704 0.634025
Si Si7 0.129685 0.415521 0.479562
O O1 0.734203 0.599000 0.826362
O O2 0.576024 0.620311 0.626644
O O3 0.663296 0.479720 0.693133
O O4 0.831535 0.576683 0.642809
O O5 0.724409 0.385435 0.544592
O O6 0.841901 0.501385 0.469338
O O7 0.974315 0.385265 0.474128
O O8 0.515543 0.236934 0.354623
O O9 0.445200 0.285346 0.549909
O O10 0.266985 0.266228 0.366790
O O11 0.130524 0.623565 0.263358
O O12 0.130704 0.836616 0.741077
O O13 0.243221 0.364660 0.557670
#
# Coordination Sequence:
#
# PCOD9254948 Si02
#       7
#     8   8   8   4   8   8   8
#     4  10  19  29  44  77 111 137 169 224 267 312
#     4  10  17  25  42  75 111 131 167 218 264 308
#     4   9  19  32  53  72 106 137 183 219 264 302
#     4  10  20  36  54  78 104 144 184 218 252 330
#     4  10  19  29  52  78 103 141 176 215 261 316
#     4   9  16  33  48  71  97 140 183 213 254 322
#     4   9  17  25  43  68 103 142 167 209 261 308
#
# _framework density 25.210315000000001
#
# number of rings (size 3 to 8) (size 9 to 14) (size 15 to 20)
#    0.000    2.462    1.538    2.308    4.308    0.000 
#    0.000    3.077    0.000    0.923    0.000    2.154 
#    9.231    0.000    0.000    0.000    0.000    0.000 
#
# Total GULP energy -145279.415444 kJ/mol
# GULP energy per Si atom -5587.669825 kJ/mol
# Density = 2.515294 g / cm^3
# Si number density = 25.210315 Si / 1000 Ang^3
#
#
#
# Elastic Constant Matrix: (Units=GPa)
#
#
# Indices 1 2 3 4 5 6 
#
# 1 69.6522 10.7141 19.9914 0.0000 -11.3787 0.0000
# 2 10.7141 120.3218 30.0942 0.0000 -5.3655 0.0000
# 3 19.9914 30.0942 169.8417 0.0000 -24.1362 0.0000
# 4 0.0000 0.0000 0.0000 41.3180 0.0000 -11.9338
# 5 -11.3787 -5.3655 -24.1362 0.0000 25.6972 0.0000
# 6 0.0000 0.0000 0.0000 -11.9338 0.0000 9.6228
#
#
#
# Elastic Compliance Matrix: (Units=1/GPa)
#
#
# Indices 1 2 3 4 5 6 
#
# 1 0.015716 -0.000924 -0.000836 0.000000 0.005981 0.000000
# 2 -0.000924 0.008755 -0.001432 0.000000 0.000074 0.000000
# 3 -0.000836 -0.001432 0.007091 0.000000 0.005991 0.000000
# 4 0.000000 0.000000 0.000000 0.037710 0.000000 0.046767
# 5 0.005981 0.000074 0.005991 0.000000 0.047206 0.000000
# 6 0.000000 0.000000 0.000000 0.046767 0.000000 0.161918
#
#
# Mechanical properties :
#
#
# Convention : Reuss Voigt Hill
#
# Bulk Modulus (GPa) = 39.71636 53.49057 46.60347
# Shear Modulus (GPa) = 17.05476 35.26199 26.15838
#
# Velocity S-wave (km/s) = 2.60378 3.74399 3.22468
# Velocity P-wave (km/s) = 4.98275 6.32090 5.69129
#
# Compressibility (1/GPa) = 0.02517854
#
# Stress axis : x y z
#
# Youngs Moduli (GPa) = 63.62856 114.22361 141.01501
#
# Poissons Ratio (x) = 0.10549 0.11793
# Poissons Ratio (y) = 0.05877 0.20194
# Poissons Ratio (z) = 0.05321 0.16357
#
# Static dielectric constant tensor:
#      x y z
#    x 2.033720 0.000000 -0.035160 
#    y 0.000000 2.004750 0.000000 
#    z -0.035160 0.000000 2.042120 
# 
# From -- ./inp_files/97856.got.cif
#   From: 2010.05.17/outbox.cif.g08.bks.cpg/sg15_49_cif.got.tgz:97856.got - 2010.06.03 18:47:42.
