data_PCOD9254812
_publ_section_title
;
Structure prediction by ZEFSAII (Michael W. Deem and Ramdas Pophale) SiO2 
 PCOD9254812
Probable space group: C 2/C
;
_chemical_formula_sum "Si O2"
_cell_formula_units_Z 44
_cell_length_a 13.226618
_cell_length_b 26.013230
_cell_length_c 5.373381
_cell_angle_alpha 90.000000
_cell_angle_beta 65.208197
_cell_angle_gamma 90.000000
_cell_volume 1678.413000
_symmetry_space_group_name_H-M "C 2/C"
_symmetry_group_IT_number 15
_symmetry_cell_setting 'monoclinic'
loop_
_space_group_symop_operation_xyz
x,y,z
-x,y,1/2-z
-x,-y,-z
x,-y,1/2+z
1/2+x,1/2+y,z
1/2-x,1/2+y,1/2-z
1/2-x,1/2-y,-z
1/2+x,1/2-y,1/2+z
loop_
_atom_site_type_symbol
_atom_site_label
_atom_site_fract_x
_atom_site_fract_y
_atom_site_fract_z
Si Si1 0.194321 0.032963 0.370566
Si Si2 0.045929 0.557433 0.448772
Si Si3 0.629911 0.819112 0.199595
Si Si4 0.000000 0.143264 0.250000
Si Si5 0.671466 0.288832 0.872698
Si Si6 0.316721 0.626830 0.781107
O O1 0.324728 0.046821 0.204948
O O2 0.161169 0.089272 0.508185
O O3 0.168380 0.995335 0.634879
O O4 0.000000 0.584708 0.250000
O O5 0.000000 0.500000 0.500000
O O6 0.000000 0.580339 0.750000
O O7 0.500000 0.820524 0.250000
O O8 0.642985 0.770598 0.372208
O O9 0.697126 0.867282 0.263725
O O10 0.710732 0.804448 0.880579
O O11 0.923149 0.181089 0.174864
O O12 0.912156 0.110534 0.493893
O O13 0.663298 0.314813 0.150290
#
# Coordination Sequence:
#
# PCOD9254812 Si02
#       6
#     8   8   8   4   8   8
#     4  12  25  44  70 103 149 200 260 320 377 441
#     4  10  16  35  60  89 121 178 240 274 355 439
#     4  10  22  44  71 112 151 183 234 300 381 460
#     4  10  22  46  74 102 138 196 248 306 382 460
#     4  10  21  44  74 105 145 191 234 301 381 459
#     4  11  26  44  73 105 146 195 257 311 375 452
#
# _framework density 26.215240999999999
#
# number of rings (size 3 to 8) (size 9 to 14) (size 15 to 20)
#    0.000    1.455    4.545    1.091    5.091    0.727 
#    6.545    1.818    0.000    0.000    2.364    0.000 
#    0.000    0.000    0.000    0.000    0.000    0.000 
#
# Total GULP energy -122814.019542 kJ/mol
# GULP energy per Si atom -5582.455434 kJ/mol
# Density = 2.615557 g / cm^3
# Si number density = 26.215241 Si / 1000 Ang^3
#
#
#
# Elastic Constant Matrix: (Units=GPa)
#
#
# Indices 1 2 3 4 5 6 
#
# 1 142.0527 36.4368 55.5265 0.0000 -13.4447 0.0000
# 2 36.4368 124.5948 44.5080 0.0000 -0.5436 0.0000
# 3 55.5265 44.5080 149.2171 0.0000 12.4841 0.0000
# 4 0.0000 0.0000 0.0000 48.2785 0.0000 16.8041
# 5 -13.4447 -0.5436 12.4841 0.0000 44.4427 0.0000
# 6 0.0000 0.0000 0.0000 16.8041 0.0000 20.8456
#
#
#
# Elastic Compliance Matrix: (Units=1/GPa)
#
#
# Indices 1 2 3 4 5 6 
#
# 1 0.009017 -0.001471 -0.003219 0.000000 0.003614 0.000000
# 2 -0.001471 0.009257 -0.002239 0.000000 0.000297 0.000000
# 3 -0.003219 -0.002239 0.008859 0.000000 -0.003490 0.000000
# 4 0.000000 0.000000 0.000000 0.028792 0.000000 -0.023210
# 5 0.003614 0.000297 -0.003490 0.000000 0.024578 0.000000
# 6 0.000000 0.000000 0.000000 -0.023210 0.000000 0.066682
#
#
# Mechanical properties :
#
#
# Convention : Reuss Voigt Hill
#
# Bulk Modulus (GPa) = 75.32440 76.53415 75.92928
# Shear Modulus (GPa) = 30.21721 41.33957 35.77839
#
# Velocity S-wave (km/s) = 3.39876 3.97536 3.69832
# Velocity P-wave (km/s) = 6.64813 7.09431 6.87484
#
# Compressibility (1/GPa) = 0.01327591
#
# Stress axis : x y z
#
# Youngs Moduli (GPa) = 110.89676 108.02331 112.87727
#
# Poissons Ratio (x) = 0.15894 0.36336
# Poissons Ratio (y) = 0.16317 0.25268
# Poissons Ratio (z) = 0.35698 0.24181
#
# Static dielectric constant tensor:
#      x y z
#    x 2.166640 0.000000 0.191200 
#    y 0.000000 2.056860 0.000000 
#    z 0.191200 0.000000 2.182210 
# 
# From -- ./inp_files/8208.got.cif
#   From: 2010.05.17/outbox.cif.g08.bks.cpg/sg15_5_cif.got.tgz:8208.got - 2010.06.03 18:47:42.
