data_PCOD9254397
_publ_section_title
;
Structure prediction by ZEFSAII (Michael W. Deem and Ramdas Pophale) SiO2 
 PCOD9254397
Probable space group: C 2/C
;
_chemical_formula_sum "Si O2"
_cell_formula_units_Z 44
_cell_length_a 17.412183
_cell_length_b 20.525956
_cell_length_c 5.363370
_cell_angle_alpha 90.000000
_cell_angle_beta 72.726223
_cell_angle_gamma 90.000000
_cell_volume 1830.420257
_symmetry_space_group_name_H-M "C 2/C"
_symmetry_group_IT_number 15
_symmetry_cell_setting 'monoclinic'
loop_
_space_group_symop_operation_xyz
x,y,z
-x,y,1/2-z
-x,-y,-z
x,-y,1/2+z
1/2+x,1/2+y,z
1/2-x,1/2+y,1/2-z
1/2-x,1/2-y,-z
1/2+x,1/2-y,1/2+z
loop_
_atom_site_type_symbol
_atom_site_label
_atom_site_fract_x
_atom_site_fract_y
_atom_site_fract_z
Si Si1 0.407108 0.974886 0.061630
Si Si2 0.341088 0.725334 0.384923
Si Si3 0.500000 0.542069 0.750000
Si Si4 0.182310 0.043790 0.612350
Si Si5 0.195042 0.182982 0.575384
Si Si6 0.953292 0.665720 0.542519
O O1 0.411587 0.899752 0.989415
O O2 0.369301 0.986820 0.367739
O O3 0.500000 0.000000 0.000000
O O4 0.250000 0.750000 0.500000
O O5 0.363161 0.701190 0.637899
O O6 0.395205 0.781026 0.214788
O O7 0.339229 0.672966 0.168787
O O8 0.500000 0.500000 0.500000
O O9 0.589621 0.571181 0.685635
O O10 0.231881 0.111673 0.597290
O O11 0.192857 0.001913 0.347291
O O12 0.250000 0.250000 0.500000
O O13 0.000000 0.644342 0.750000
O O14 0.000000 0.690015 0.250000
#
# Coordination Sequence:
#
# PCOD9254397 Si02
#       6
#     8   8   4   8   8   8
#     4  10  16  30  51  83 122 163 194 254 318 372
#     4  10  23  42  61  82 124 179 215 258 327 380
#     4   8  16  30  50  80 124 150 190 248 322 384
#     4  10  19  35  62  95 120 162 206 263 322 384
#     4  10  21  41  65  87 124 175 214 256 319 387
#     4  12  21  35  61  93 125 163 219 269 310 382
#
# _framework density 24.038193
#
# number of rings (size 3 to 8) (size 9 to 14) (size 15 to 20)
#    0.000    1.818    3.636    2.182    0.000    0.000 
#    4.909    0.000    0.000   26.182    0.000    0.000 
#    0.000    0.000    0.000    0.000    0.000    0.000 
#
# Total GULP energy -122536.249725 kJ/mol
# GULP energy per Si atom -5569.829533 kJ/mol
# Density = 2.398348 g / cm^3
# Si number density = 24.038193 Si / 1000 Ang^3
#
#
#
# Elastic Constant Matrix: (Units=GPa)
#
#
# Indices 1 2 3 4 5 6 
#
# 1 83.8184 11.9559 23.8540 0.0000 -5.3240 0.0000
# 2 11.9559 148.4862 61.7993 0.0000 -19.6544 0.0000
# 3 23.8540 61.7993 240.6610 0.0000 16.4992 0.0000
# 4 0.0000 0.0000 0.0000 47.7436 0.0000 7.0118
# 5 -5.3240 -19.6544 16.4992 0.0000 19.8461 0.0000
# 6 0.0000 0.0000 0.0000 7.0118 0.0000 8.6749
#
#
#
# Elastic Compliance Matrix: (Units=1/GPa)
#
#
# Indices 1 2 3 4 5 6 
#
# 1 0.012694 0.000380 -0.001713 0.000000 0.005205 0.000000
# 2 0.000380 0.009804 -0.003423 0.000000 0.012657 0.000000
# 3 -0.001713 -0.003423 0.005798 0.000000 -0.008670 0.000000
# 4 0.000000 0.000000 0.000000 0.023766 0.000000 -0.019210
# 5 0.005205 0.012657 -0.008670 0.000000 0.071527 0.000000
# 6 0.000000 0.000000 0.000000 -0.019210 0.000000 0.130802
#
#
# Mechanical properties :
#
#
# Convention : Reuss Voigt Hill
#
# Bulk Modulus (GPa) = 53.23409 74.24266 63.73837
# Shear Modulus (GPa) = 18.50717 40.27667 29.39192
#
# Velocity S-wave (km/s) = 2.77773 4.09776 3.50053
# Velocity P-wave (km/s) = 5.69925 7.30351 6.55067
#
# Compressibility (1/GPa) = 0.01878496
#
# Stress axis : x y z
#
# Youngs Moduli (GPa) = 78.77484 101.99914 172.46342
#
# Poissons Ratio (x) = -0.03872 0.29536
# Poissons Ratio (y) = -0.02990 0.59033
# Poissons Ratio (z) = 0.13491 0.34914
#
# Static dielectric constant tensor:
#      x y z
#    x 2.124690 0.000000 0.052470 
#    y 0.000000 1.979120 0.000000 
#    z 0.052470 0.000000 2.049390 
# 
# From -- ./inp_files/12878.got.cif
#   From: 2010.05.17/outbox.cif.g08.bks.cpg/sg15_7_cif.got.tgz:12878.got - 2010.06.03 18:47:42.
