data_PCOD9254696
_publ_section_title
;
Structure prediction by ZEFSAII (Michael W. Deem and Ramdas Pophale) SiO2 
 PCOD9254696
Probable space group: C 2/C
;
_chemical_formula_sum "Si O2"
_cell_formula_units_Z 56
_cell_length_a 23.459170
_cell_length_b 12.285365
_cell_length_c 14.170232
_cell_angle_alpha 90.000000
_cell_angle_beta 33.287929
_cell_angle_gamma 90.000000
_cell_volume 2241.448369
_symmetry_space_group_name_H-M "C 2/C"
_symmetry_group_IT_number 15
_symmetry_cell_setting 'monoclinic'
loop_
_space_group_symop_operation_xyz
x,y,z
-x,y,1/2-z
-x,-y,-z
x,-y,1/2+z
1/2+x,1/2+y,z
1/2-x,1/2+y,1/2-z
1/2-x,1/2-y,-z
1/2+x,1/2-y,1/2+z
loop_
_atom_site_type_symbol
_atom_site_label
_atom_site_fract_x
_atom_site_fract_y
_atom_site_fract_z
Si Si1 0.667925 0.451589 0.256480
Si Si2 0.525691 0.160428 0.323990
Si Si3 0.840601 0.253937 0.602811
Si Si4 0.599419 0.686602 0.387124
Si Si5 0.143686 0.497782 0.877256
Si Si6 0.631219 0.784670 0.146205
Si Si7 0.207883 0.515048 0.085348
O O1 0.639708 0.341711 0.350054
O O2 0.604625 0.556953 0.376254
O O3 0.784952 0.471974 0.133309
O O4 0.687076 0.464972 0.117871
O O5 0.500000 0.153252 0.250000
O O6 0.484645 0.272347 0.422544
O O7 0.644387 0.127200 0.170363
O O8 0.457757 0.071079 0.475235
O O9 0.714709 0.270650 0.760663
O O10 0.879290 0.370545 0.585700
O O11 0.889844 0.242366 0.430121
O O12 0.577905 0.734741 0.312385
O O13 0.212795 0.517746 0.688222
O O14 0.637616 0.916183 0.139715
O O15 0.750000 0.750000 0.000000
#
# Coordination Sequence:
#
# PCOD9254696 Si02
#       7
#     8   8   8   8   8   8   8
#     4  11  21  37  57  88 117 150 202 239 302 353
#     4  12  21  36  57  87 122 150 193 249 311 354
#     4  10  19  35  55  81 118 151 196 247 291 350
#     4  10  20  33  58  85 112 156 197 247 293 364
#     4  11  21  34  54  87 121 146 192 250 299 351
#     4  10  16  33  56  83 114 152 200 243 294 350
#     4  12  21  34  59  90 118 152 192 254 306 354
#
# _framework density 24.983846
#
# number of rings (size 3 to 8) (size 9 to 14) (size 15 to 20)
#    0.000    1.143    8.571    1.286    0.000    0.571 
#    0.000    0.000    0.000    3.429    0.000    0.000 
#    0.000    0.000    0.000    0.000    0.000    0.000 
#
# Total GULP energy -156741.731453 kJ/mol
# GULP energy per Si atom -5597.918980 kJ/mol
# Density = 2.492698 g / cm^3
# Si number density = 24.983846 Si / 1000 Ang^3
#
#
#
# Elastic Constant Matrix: (Units=GPa)
#
#
# Indices 1 2 3 4 5 6 
#
# 1 70.6542 14.6310 25.3038 0.0000 24.9755 0.0000
# 2 14.6310 129.6196 66.7522 0.0000 1.2931 0.0000
# 3 25.3038 66.7522 112.6377 0.0000 24.7328 0.0000
# 4 0.0000 0.0000 0.0000 52.9808 0.0000 -0.4420
# 5 24.9755 1.2931 24.7328 0.0000 46.6047 0.0000
# 6 0.0000 0.0000 0.0000 -0.4420 0.0000 25.4400
#
#
#
# Elastic Compliance Matrix: (Units=1/GPa)
#
#
# Indices 1 2 3 4 5 6 
#
# 1 0.018051 -0.001250 -0.001356 0.000000 -0.008919 0.000000
# 2 -0.001250 0.011752 -0.007651 0.000000 0.004404 0.000000
# 3 -0.001356 -0.007651 0.015293 0.000000 -0.007177 0.000000
# 4 0.000000 0.000000 0.000000 0.018877 0.000000 0.000328
# 5 -0.008919 0.004404 -0.007177 0.000000 0.029923 0.000000
# 6 0.000000 0.000000 0.000000 0.000328 0.000000 0.039314
#
#
# Mechanical properties :
#
#
# Convention : Reuss Voigt Hill
#
# Bulk Modulus (GPa) = 40.68045 58.47617 49.57831
# Shear Modulus (GPa) = 30.87990 38.75342 34.81666
#
# Velocity S-wave (km/s) = 3.51949 3.94272 3.73710
# Velocity P-wave (km/s) = 5.73007 6.64704 6.20552
#
# Compressibility (1/GPa) = 0.02458183
#
# Stress axis : x y z
#
# Youngs Moduli (GPa) = 55.39945 85.09084 65.39148
#
# Poissons Ratio (x) = 0.10640 0.08864
# Poissons Ratio (y) = 0.06927 0.50030
# Poissons Ratio (z) = 0.07509 0.65101
#
# Static dielectric constant tensor:
#      x y z
#    x 2.034260 0.000000 -0.046080 
#    y 0.000000 2.057900 0.000000 
#    z -0.046080 0.000000 2.022220 
# 
# From -- ./inp_files/181881.got.cif
#   From: 2010.05.17/outbox.cif.g08.bks.cpg/sg15_91_cif.got.tgz:181881.got - 2010.06.03 18:47:42.
