data_PCOD9254931
_publ_section_title
;
Structure prediction by ZEFSAII (Michael W. Deem and Ramdas Pophale) SiO2 
 PCOD9254931
Probable space group: C 2/C
;
_chemical_formula_sum "Si O2"
_cell_formula_units_Z 60
_cell_length_a 21.228402
_cell_length_b 8.992415
_cell_length_c 23.858683
_cell_angle_alpha 90.000000
_cell_angle_beta 31.787366
_cell_angle_gamma 90.000000
_cell_volume 2399.163288
_symmetry_space_group_name_H-M "C 2/C"
_symmetry_group_IT_number 15
_symmetry_cell_setting 'monoclinic'
loop_
_space_group_symop_operation_xyz
x,y,z
-x,y,1/2-z
-x,-y,-z
x,-y,1/2+z
1/2+x,1/2+y,z
1/2-x,1/2+y,1/2-z
1/2-x,1/2-y,-z
1/2+x,1/2-y,1/2+z
loop_
_atom_site_type_symbol
_atom_site_label
_atom_site_fract_x
_atom_site_fract_y
_atom_site_fract_z
Si Si1 0.573288 0.117224 0.640590
Si Si2 0.235937 0.451517 0.862250
Si Si3 0.176004 0.932043 0.584557
Si Si4 0.075069 0.950521 0.497176
Si Si5 0.940811 0.826179 0.175201
Si Si6 0.511414 0.886202 0.416839
Si Si7 0.733977 0.678051 0.791288
Si Si8 0.000000 0.194562 0.750000
O O1 0.500000 0.076529 0.750000
O O2 0.706432 0.048702 0.541798
O O3 0.594904 0.296956 0.624535
O O4 0.504419 0.077050 0.636399
O O5 0.268469 0.380213 0.898010
O O6 0.327683 0.583154 0.784778
O O7 0.272173 0.333470 0.788439
O O8 0.093769 0.479184 0.973662
O O9 0.105189 0.080748 0.651460
O O10 0.200795 0.925486 0.370027
O O11 0.031095 0.784570 0.544064
O O12 0.000000 0.000000 0.500000
O O13 0.045696 0.064326 0.570370
O O14 0.876866 0.775516 0.165488
O O15 0.976432 0.736574 0.205221
O O16 0.651111 0.891967 0.325689
#
# Coordination Sequence:
#
# PCOD9254931 Si02
#       8
#     8   8   8   8   8   8   8   4
#     4  10  17  24  38  64  93 125 158 176 225 293
#     4   9  18  31  45  67  98 127 157 197 239 287
#     4   9  17  26  40  62  92 127 154 181 231 283
#     4   9  18  31  46  67  94 128 163 198 231 280
#     4  10  19  32  49  71 101 124 163 202 240 290
#     4  10  18  29  45  66  98 130 158 192 240 292
#     4  10  19  30  48  71  97 128 161 197 244 286
#     4  10  18  30  46  66  94 126 152 200 244 272
#
# _framework density 25.008721000000001
#
# number of rings (size 3 to 8) (size 9 to 14) (size 15 to 20)
#    0.000    2.400    2.000    1.600    0.000    3.733 
#    0.000    0.000    0.000    0.000    0.000    8.400 
#    6.000    0.000    0.000    0.000    0.000    0.000 
#
# Total GULP energy -167266.398727 kJ/mol
# GULP energy per Si atom -5575.546624 kJ/mol
# Density = 2.495180 g / cm^3
# Si number density = 25.008721 Si / 1000 Ang^3
#
#
#
# Elastic Constant Matrix: (Units=GPa)
#
#
# Indices 1 2 3 4 5 6 
#
# 1 107.2895 19.3545 40.4087 -0.0001 18.9597 0.0002
# 2 19.3545 31.0702 13.3558 -0.0002 5.2506 0.0004
# 3 40.4087 13.3558 144.1796 0.0001 24.7635 -0.0001
# 4 -0.0001 -0.0002 0.0001 15.4997 0.0000 6.8363
# 5 18.9597 5.2506 24.7635 0.0000 38.6255 -0.0001
# 6 0.0002 0.0004 -0.0001 6.8363 -0.0001 22.7098
#
#
#
# Elastic Compliance Matrix: (Units=1/GPa)
#
#
# Indices 1 2 3 4 5 6 
#
# 1 0.011824 -0.005827 -0.002150 0.000000 -0.003633 0.000000
# 2 -0.005827 0.036680 -0.001573 0.000001 -0.001118 -0.000001
# 3 -0.002150 -0.001573 0.008390 0.000000 -0.004110 0.000000
# 4 0.000000 0.000001 0.000000 0.074395 0.000000 -0.022395
# 5 -0.003633 -0.001118 -0.004110 0.000000 0.030460 0.000000
# 6 0.000000 -0.000001 0.000000 -0.022395 0.000000 0.050775
#
#
# Mechanical properties :
#
#
# Convention : Reuss Voigt Hill
#
# Bulk Modulus (GPa) = 26.45921 47.64191 37.05056
# Shear Modulus (GPa) = 20.47329 29.32835 24.90082
#
# Velocity S-wave (km/s) = 2.86430 3.42822 3.15887
# Velocity P-wave (km/s) = 4.64133 5.89591 5.30583
#
# Compressibility (1/GPa) = 0.03779403
#
# Stress axis : x y z
#
# Youngs Moduli (GPa) = 84.57701 27.26286 119.19074
#
# Poissons Ratio (x) = 0.15886 0.25625
# Poissons Ratio (y) = 0.49284 0.18745
# Poissons Ratio (z) = 0.18184 0.04288
#
# Static dielectric constant tensor:
#      x y z
#    x 2.131670 0.000000 0.063230 
#    y 0.000000 2.004950 0.000000 
#    z 0.063230 0.000000 2.222560 
# 
# From -- ./inp_files/280083.got.cif
#   From: 2010.05.17/outbox.cif.g08.bks.cpg/sg15_141_cif.got.tgz:280083.got - 2010.06.03 18:47:42.
