data_PCOD9254434
_publ_section_title
;
Structure prediction by ZEFSAII (Michael W. Deem and Ramdas Pophale) SiO2 
 PCOD9254434
Probable space group: C 2/C
;
_chemical_formula_sum "Si O2"
_cell_formula_units_Z 52
_cell_length_a 7.286442
_cell_length_b 14.825455
_cell_length_c 22.505528
_cell_angle_alpha 90.000000
_cell_angle_beta 56.035466
_cell_angle_gamma 90.000000
_cell_volume 2016.360442
_symmetry_space_group_name_H-M "C 2/C"
_symmetry_group_IT_number 15
_symmetry_cell_setting 'monoclinic'
loop_
_space_group_symop_operation_xyz
x,y,z
-x,y,1/2-z
-x,-y,-z
x,-y,1/2+z
1/2+x,1/2+y,z
1/2-x,1/2+y,1/2-z
1/2-x,1/2-y,-z
1/2+x,1/2-y,1/2+z
loop_
_atom_site_type_symbol
_atom_site_label
_atom_site_fract_x
_atom_site_fract_y
_atom_site_fract_z
Si Si1 0.131905 0.719923 0.863260
Si Si2 0.396927 0.921774 0.352645
Si Si3 0.797875 0.748179 0.128350
Si Si4 0.000000 0.111510 0.250000
Si Si5 0.107780 0.355176 0.497870
Si Si6 0.287907 0.413562 0.666548
Si Si7 0.292532 0.461255 0.982759
O O1 0.128123 0.630777 0.822350
O O2 0.272703 0.807787 0.822737
O O3 0.879458 0.752591 0.894445
O O4 0.153028 0.688829 0.926329
O O5 0.241551 0.851172 0.344601
O O6 0.289410 0.933184 0.437363
O O7 0.398538 0.017936 0.321848
O O8 0.697872 0.677559 0.192504
O O9 0.030548 0.717150 0.060488
O O10 0.907745 0.063649 0.207562
O O11 0.887096 0.417828 0.529498
O O12 0.287000 0.430103 0.481525
O O13 0.473297 0.426345 0.581675
#
# Coordination Sequence:
#
# PCOD9254434 Si02
#       7
#     8   8   8   4   8   8   8
#     4   8  17  32  54  75 102 140 171 217 274 315
#     4   9  19  34  55  79 106 136 183 228 263 331
#     4   9  17  34  51  74 102 142 180 215 266 323
#     4  10  20  34  54  72  98 148 188 216 272 332
#     4  10  16  30  54  80 117 135 171 233 277 326
#     4  11  19  36  56  78 108 143 188 221 271 336
#     4  10  18  29  53  88 110 137 175 230 289 320
#
# _framework density 25.789038000000001
#
# number of rings (size 3 to 8) (size 9 to 14) (size 15 to 20)
#    0.923    1.538    3.077    1.846    0.000    0.000 
#    0.000    7.692    0.000    0.000    0.000    0.000 
#    0.000    0.000    0.000    0.000    0.000    0.000 
#
# Total GULP energy -145208.287009 kJ/mol
# GULP energy per Si atom -5584.934116 kJ/mol
# Density = 2.573034 g / cm^3
# Si number density = 25.789038 Si / 1000 Ang^3
#
#
#
# Elastic Constant Matrix: (Units=GPa)
#
#
# Indices 1 2 3 4 5 6 
#
# 1 60.0599 41.3277 24.5639 -0.0004 6.2552 -0.0003
# 2 41.3277 154.8856 25.6898 -0.0002 18.0292 0.0000
# 3 24.5639 25.6898 118.8132 -0.0004 16.4517 0.0001
# 4 -0.0004 -0.0002 -0.0004 6.5733 0.0003 19.2202
# 5 6.2552 18.0292 16.4517 0.0003 28.8863 0.0000
# 6 -0.0003 0.0000 0.0001 19.2202 0.0000 37.7122
#
#
#
# Elastic Compliance Matrix: (Units=1/GPa)
#
#
# Indices 1 2 3 4 5 6 
#
# 1 0.021608 -0.005264 -0.003405 -0.000001 0.000546 0.000000
# 2 -0.005264 0.008352 -0.000167 -0.000001 -0.003978 0.000000
# 3 -0.003405 -0.000167 0.009814 -0.000002 -0.004748 0.000001
# 4 -0.000001 -0.000001 -0.000002 -0.310337 0.000005 0.158164
# 5 0.000546 -0.003978 -0.004748 0.000005 0.039687 -0.000003
# 6 0.000000 0.000000 0.000001 0.158164 -0.000003 -0.054092
#
#
# Mechanical properties :
#
#
# Convention : Reuss Voigt Hill
#
# Bulk Modulus (GPa) = 45.24390 57.43572 51.33981
# Shear Modulus (GPa) = -19.23602 30.77952 5.77175
#
# Velocity S-wave (km/s) = -2.73408 3.45847 1.49764
# Velocity P-wave (km/s) = 2.75953 6.18609 4.78972
#
# Compressibility (1/GPa) = 0.02210243
#
# Stress axis : x y z
#
# Youngs Moduli (GPa) = 46.27881 119.73553 101.89589
#
# Poissons Ratio (x) = 0.63034 0.34692
# Poissons Ratio (y) = 0.24363 0.01698
# Poissons Ratio (z) = 0.15756 0.01995
#
# Static dielectric constant tensor:
#      x y z
#    x 1.849820 0.000000 0.025720 
#    y 0.000000 2.166720 0.000000 
#    z 0.025720 0.000000 1.940900 
# 
# From -- ./inp_files/264170.got.cif
#   From: 2010.05.17/outbox.cif.g08.bks.cpg/sg15_133_cif.got.tgz:264170.got - 2010.06.03 18:47:42.
