data_PCOD9254910
_publ_section_title
;
Structure prediction by ZEFSAII (Michael W. Deem and Ramdas Pophale) SiO2 
 PCOD9254910
Probable space group: C 2/C
;
_chemical_formula_sum "Si O2"
_cell_formula_units_Z 44
_cell_length_a 23.683700
_cell_length_b 7.644066
_cell_length_c 15.606441
_cell_angle_alpha 90.000000
_cell_angle_beta 141.963270
_cell_angle_gamma 90.000000
_cell_volume 1740.908495
_symmetry_space_group_name_H-M "C 2/C"
_symmetry_group_IT_number 15
_symmetry_cell_setting 'monoclinic'
loop_
_space_group_symop_operation_xyz
x,y,z
-x,y,1/2-z
-x,-y,-z
x,-y,1/2+z
1/2+x,1/2+y,z
1/2-x,1/2+y,1/2-z
1/2-x,1/2-y,-z
1/2+x,1/2-y,1/2+z
loop_
_atom_site_type_symbol
_atom_site_label
_atom_site_fract_x
_atom_site_fract_y
_atom_site_fract_z
Si Si1 0.500000 0.334375 0.750000
Si Si2 0.722243 0.741006 0.329808
Si Si3 0.466931 0.687151 0.489873
Si Si4 0.904838 0.645635 0.477444
Si Si5 0.910622 0.698384 0.089932
Si Si6 0.306171 0.482515 0.053123
O O1 0.592250 0.434102 0.834602
O O2 0.469149 0.227425 0.628701
O O3 0.625322 0.737180 0.169322
O O4 0.805555 0.734750 0.362296
O O5 0.726982 0.567331 0.396536
O O6 0.740144 0.915453 0.407383
O O7 0.500000 0.500000 0.500000
O O8 0.546068 0.821851 0.554365
O O9 0.447253 0.660165 0.566240
O O10 0.888905 0.452742 0.495586
O O11 0.831257 0.782967 0.053751
O O12 0.000000 0.643697 0.250000
#
# Coordination Sequence:
#
# PCOD9254910 Si02
#       6
#     4   8   8   8   8   8
#     4  10  16  38  68  92 132 182 232 286 356 430
#     4  10  23  42  72 107 136 192 246 304 365 445
#     4  12  25  47  74 102 142 198 251 312 377 448
#     4  11  24  42  68 105 146 187 242 311 373 448
#     4  12  25  42  69 106 146 195 247 307 381 453
#     4  10  20  40  70 101 137 188 242 292 367 443
#
# _framework density 25.274159000000001
#
# number of rings (size 3 to 8) (size 9 to 14) (size 15 to 20)
#    0.000    1.091    3.636    3.818    0.000    3.636 
#    0.000    3.636    0.000    0.000    0.000    0.000 
#    0.000    0.000    0.000    0.000    0.000    0.000 
#
# Total GULP energy -122980.892515 kJ/mol
# GULP energy per Si atom -5590.040569 kJ/mol
# Density = 2.521663 g / cm^3
# Si number density = 25.274159 Si / 1000 Ang^3
#
#
#
# Elastic Constant Matrix: (Units=GPa)
#
#
# Indices 1 2 3 4 5 6 
#
# 1 157.3754 2.8214 34.9670 0.0000 20.1654 0.0000
# 2 2.8214 71.4682 7.1517 0.0000 3.5001 0.0000
# 3 34.9670 7.1517 100.1182 0.0000 22.7103 0.0000
# 4 0.0000 0.0000 0.0000 21.6267 0.0000 -5.9688
# 5 20.1654 3.5001 22.7103 0.0000 22.0846 0.0000
# 6 0.0000 0.0000 0.0000 -5.9688 0.0000 32.9423
#
#
#
# Elastic Compliance Matrix: (Units=1/GPa)
#
#
# Indices 1 2 3 4 5 6 
#
# 1 0.007336 0.000107 -0.001365 0.000000 -0.005312 0.000000
# 2 0.000107 0.014136 -0.000674 0.000000 -0.001645 0.000000
# 3 -0.001365 -0.000674 0.013311 0.000000 -0.012335 0.000000
# 4 0.000000 0.000000 0.000000 0.048673 0.000000 0.008819
# 5 -0.005312 -0.001645 -0.012335 0.000000 0.063076 0.000000
# 6 0.000000 0.000000 0.000000 0.008819 0.000000 0.031954
#
#
# Mechanical properties :
#
#
# Convention : Reuss Voigt Hill
#
# Bulk Modulus (GPa) = 32.34179 46.53801 39.43990
# Shear Modulus (GPa) = 25.95284 34.26550 30.10917
#
# Velocity S-wave (km/s) = 3.20793 3.68605 3.45527
# Velocity P-wave (km/s) = 5.15221 6.04725 5.61758
#
# Compressibility (1/GPa) = 0.03091975
#
# Stress axis : x y z
#
# Youngs Moduli (GPa) = 136.30931 70.74124 75.12534
#
# Poissons Ratio (x) = -0.00758 0.10254
# Poissons Ratio (y) = -0.01460 0.05064
# Poissons Ratio (z) = 0.18605 0.04768
#
# Static dielectric constant tensor:
#      x y z
#    x 2.063770 0.000000 0.004310 
#    y 0.000000 2.199970 0.000000 
#    z 0.004310 0.000000 1.908520 
# 
# From -- ./inp_files/221742.got.cif
#   From: 2010.05.17/outbox.cif.g08.bks.cpg/sg15_111_cif.got.tgz:221742.got - 2010.06.03 18:47:42.
