data_PCOD9254804
_publ_section_title
;
Structure prediction by ZEFSAII (Michael W. Deem and Ramdas Pophale) SiO2 
 PCOD9254804
Probable space group: C 2/C
;
_chemical_formula_sum "Si O2"
_cell_formula_units_Z 56
_cell_length_a 11.239496
_cell_length_b 14.576049
_cell_length_c 28.244812
_cell_angle_alpha 90.000000
_cell_angle_beta 141.395840
_cell_angle_gamma 90.000000
_cell_volume 2887.125248
_symmetry_space_group_name_H-M "C 2/C"
_symmetry_group_IT_number 15
_symmetry_cell_setting 'monoclinic'
loop_
_space_group_symop_operation_xyz
x,y,z
-x,y,1/2-z
-x,-y,-z
x,-y,1/2+z
1/2+x,1/2+y,z
1/2-x,1/2+y,1/2-z
1/2-x,1/2-y,-z
1/2+x,1/2-y,1/2+z
loop_
_atom_site_type_symbol
_atom_site_label
_atom_site_fract_x
_atom_site_fract_y
_atom_site_fract_z
Si Si1 0.993607 0.888217 0.391227
Si Si2 0.820127 0.062564 0.458452
Si Si3 0.111654 0.121340 0.216525
Si Si4 0.626929 0.176526 0.747154
Si Si5 0.727607 0.070734 0.327478
Si Si6 0.581578 0.974745 0.150733
Si Si7 0.862836 0.048759 0.662930
O O1 0.841221 0.810455 0.332757
O O2 0.118835 0.879038 0.477028
O O3 0.851657 0.976803 0.356832
O O4 0.107870 0.901293 0.377882
O O5 0.762198 0.108198 0.390878
O O6 0.638782 0.000695 0.415835
O O7 0.000000 0.000000 0.500000
O O8 0.056280 0.222053 0.214865
O O9 0.181007 0.133313 0.184251
O O10 0.935786 0.053583 0.172540
O O11 0.288168 0.063088 0.294224
O O12 0.500000 0.137891 0.750000
O O13 0.621774 0.105900 0.701571
O O14 0.500000 0.060523 0.250000
O O15 0.656101 0.947752 0.122077
O O16 0.000000 0.079512 0.750000
#
# Coordination Sequence:
#
# PCOD9254804 Si02
#       7
#     8   8   8   8   8   8   8
#     4  10  19  33  56  86 117 148 193 241 286 340
#     4  10  20  32  58  89 116 156 196 237 295 346
#     4  10  21  35  60  88 112 154 195 248 293 341
#     4  12  21  35  62  89 113 149 207 242 289 349
#     4  10  16  35  57  81 109 153 193 237 284 339
#     4  11  20  37  60  82 119 158 190 245 296 346
#     4   9  17  36  56  78 117 151 191 237 291 342
#
# _framework density 19.396457000000002
#
# number of rings (size 3 to 8) (size 9 to 14) (size 15 to 20)
#    0.000    1.714    5.714    3.429    0.000    0.571 
#    2.571    0.714    0.000   17.143    0.000    0.000 
#    0.000    0.000    0.000    0.000    0.000    0.000 
#
# Total GULP energy -155898.678086 kJ/mol
# GULP energy per Si atom -5567.809932 kJ/mol
# Density = 1.935231 g / cm^3
# Si number density = 19.396457 Si / 1000 Ang^3
#
#
#
# Elastic Constant Matrix: (Units=GPa)
#
#
# Indices 1 2 3 4 5 6 
#
# 1 185.6036 7.5085 41.9135 0.0000 -13.2446 0.0000
# 2 7.5085 13.4463 -9.6018 0.0000 4.5992 0.0000
# 3 41.9135 -9.6018 72.0744 0.0000 -11.8632 0.0000
# 4 0.0000 0.0000 0.0000 0.0764 0.0000 0.2328
# 5 -13.2446 4.5992 -11.8632 0.0000 39.5981 0.0000
# 6 0.0000 0.0000 0.0000 0.2328 0.0000 9.1628
#
#
#
# Elastic Compliance Matrix: (Units=1/GPa)
#
#
# Indices 1 2 3 4 5 6 
#
# 1 0.006913 -0.007885 -0.004775 0.000000 0.001798 0.000000
# 2 -0.007885 0.092850 0.015511 0.000000 -0.008775 0.000000
# 3 -0.004775 0.015511 0.019100 0.000000 0.002324 0.000000
# 4 0.000000 0.000000 0.000000 14.177456 0.000000 -0.360138
# 5 0.001798 -0.008775 0.002324 0.000000 0.027570 0.000000
# 6 0.000000 0.000000 0.000000 -0.360138 0.000000 0.118285
#
#
# Mechanical properties :
#
#
# Convention : Reuss Voigt Hill
#
# Bulk Modulus (GPa) = 8.02795 38.97386 23.50090
# Shear Modulus (GPa) = 0.34535 25.18774 12.76655
#
# Velocity S-wave (km/s) = 0.42242 3.60748 2.56830
# Velocity P-wave (km/s) = 2.09422 6.12281 4.57573
#
# Compressibility (1/GPa) = 0.12456488
#
# Stress axis : x y z
#
# Youngs Moduli (GPa) = 144.64724 10.77007 52.35573
#
# Poissons Ratio (x) = 0.08492 0.24999
# Poissons Ratio (y) = 1.14054 -0.81207
# Poissons Ratio (z) = 0.69068 -0.16705
#
# Static dielectric constant tensor:
#      x y z
#    x 1.717550 0.000000 -0.013970 
#    y 0.000000 1.671180 0.000000 
#    z -0.013970 0.000000 1.730730 
# 
# From -- ./inp_files/311082.got.cif
#   From: 2010.05.17/outbox.cif.g08.bks.cpg/sg15_156_cif.got.tgz:311082.got - 2010.06.03 18:47:42.
