data_PCOD9254465
_publ_section_title
;
Structure prediction by ZEFSAII (Michael W. Deem and Ramdas Pophale) SiO2 
 PCOD9254465
Probable space group: C 2/C
;
_chemical_formula_sum "Si O2"
_cell_formula_units_Z 36
_cell_length_a 15.018180
_cell_length_b 4.866730
_cell_length_c 27.155732
_cell_angle_alpha 90.000000
_cell_angle_beta 141.822194
_cell_angle_gamma 90.000000
_cell_volume 1226.810783
_symmetry_space_group_name_H-M "C 2/C"
_symmetry_group_IT_number 15
_symmetry_cell_setting 'monoclinic'
loop_
_space_group_symop_operation_xyz
x,y,z
-x,y,1/2-z
-x,-y,-z
x,-y,1/2+z
1/2+x,1/2+y,z
1/2-x,1/2+y,1/2-z
1/2-x,1/2-y,-z
1/2+x,1/2-y,1/2+z
loop_
_atom_site_type_symbol
_atom_site_label
_atom_site_fract_x
_atom_site_fract_y
_atom_site_fract_z
Si Si1 0.500000 0.028169 0.250000
Si Si2 0.907250 0.072521 0.621885
Si Si3 0.899075 0.307580 0.509783
Si Si4 0.813743 0.878815 0.392335
Si Si5 0.662530 0.735911 0.194963
O O1 0.524488 0.237759 0.306184
O O2 0.642930 0.840794 0.311638
O O3 0.904574 0.245126 0.570020
O O4 0.740075 0.000157 0.559793
O O5 0.008751 0.816434 0.653328
O O6 0.064199 0.348825 0.565052
O O7 0.851210 0.038188 0.458659
O O8 0.842049 0.106144 0.361142
O O9 0.774350 0.537490 0.272591
#
# Coordination Sequence:
#
# PCOD9254465 Si02
#       5
#     4   8   8   8   8
#     4  10  16  30  58 100 126 174 222 284 322 400
#     4   9  17  32  59  91 131 170 226 267 336 388
#     4   8  16  31  58  91 128 182 210 276 327 407
#     4   9  17  32  59  91 131 170 226 267 336 388
#     4  11  22  39  64  99 132 175 222 283 325 390
#
# _framework density 29.344380000000001
#
# number of rings (size 3 to 8) (size 9 to 14) (size 15 to 20)
#    0.000    2.667    2.222    0.000    0.000    0.000 
#    0.000    1.111    0.000   42.667    0.000    0.000 
#    0.000    0.000    0.000    0.000    0.000    0.000 
#
# Total GULP energy -101068.054446 kJ/mol
# GULP energy per Si atom -5614.891914 kJ/mol
# Density = 2.927759 g / cm^3
# Si number density = 29.344380 Si / 1000 Ang^3
#
#
#
# Elastic Constant Matrix: (Units=GPa)
#
#
# Indices 1 2 3 4 5 6 
#
# 1 179.2537 33.7944 105.3779 -0.0013 44.0593 0.0064
# 2 33.7944 115.9362 66.4079 -0.0062 14.6142 0.0094
# 3 105.3779 66.4079 250.5243 0.0004 13.1711 -0.0004
# 4 -0.0013 -0.0062 0.0004 53.3942 0.0010 3.4825
# 5 44.0593 14.6142 13.1711 0.0010 105.0352 -0.0015
# 6 0.0064 0.0094 -0.0004 3.4825 -0.0015 22.1526
#
#
#
# Elastic Compliance Matrix: (Units=1/GPa)
#
#
# Indices 1 2 3 4 5 6 
#
# 1 0.008287 -0.000150 -0.003286 0.000000 -0.003043 -0.000003
# 2 -0.000150 0.010296 -0.002612 0.000002 -0.001042 -0.000005
# 3 -0.003286 -0.002612 0.006014 -0.000001 0.000988 0.000002
# 4 0.000000 0.000002 -0.000001 0.018923 -0.000001 -0.002975
# 5 -0.003043 -0.001042 0.000988 -0.000001 0.010818 0.000002
# 6 -0.000003 -0.000005 0.000002 -0.002975 0.000002 0.045609
#
#
# Mechanical properties :
#
#
# Convention : Reuss Voigt Hill
#
# Bulk Modulus (GPa) = 79.98261 106.31938 93.15100
# Shear Modulus (GPa) = 43.02596 58.79202 50.90899
#
# Velocity S-wave (km/s) = 3.83331 4.48092 4.16971
# Velocity P-wave (km/s) = 6.84894 7.94241 7.41586
#
# Compressibility (1/GPa) = 0.01250272
#
# Stress axis : x y z
#
# Youngs Moduli (GPa) = 120.67724 97.12192 166.27574
#
# Poissons Ratio (x) = 0.01454 0.54637
# Poissons Ratio (y) = 0.01807 0.43423
# Poissons Ratio (z) = 0.39653 0.25364
#
# Static dielectric constant tensor:
#      x y z
#    x 2.394990 0.000000 0.018400 
#    y 0.000000 2.148850 0.000000 
#    z 0.018400 0.000000 2.258100 
# 
# From -- ./inp_files/312474.got.cif
#   From: 2010.05.17/outbox.cif.g08.bks.cpg/sg15_157_cif.got.tgz:312474.got - 2010.06.03 18:47:42.
