data_PCOD9254731
_publ_section_title
;
Structure prediction by ZEFSAII (Michael W. Deem and Ramdas Pophale) SiO2 
 PCOD9254731
Probable space group: C 2/C
;
_chemical_formula_sum "Si O2"
_cell_formula_units_Z 52
_cell_length_a 32.178531
_cell_length_b 8.095951
_cell_length_c 17.304275
_cell_angle_alpha 90.000000
_cell_angle_beta 30.677453
_cell_angle_gamma 90.000000
_cell_volume 2300.020921
_symmetry_space_group_name_H-M "C 2/C"
_symmetry_group_IT_number 15
_symmetry_cell_setting 'monoclinic'
loop_
_space_group_symop_operation_xyz
x,y,z
-x,y,1/2-z
-x,-y,-z
x,-y,1/2+z
1/2+x,1/2+y,z
1/2-x,1/2+y,1/2-z
1/2-x,1/2-y,-z
1/2+x,1/2-y,1/2+z
loop_
_atom_site_type_symbol
_atom_site_label
_atom_site_fract_x
_atom_site_fract_y
_atom_site_fract_z
Si Si1 0.858807 0.156739 0.555615
Si Si2 0.142185 0.257492 0.186190
Si Si3 0.865715 0.239544 0.866440
Si Si4 0.000000 0.944529 0.250000
Si Si5 0.749345 0.546635 0.897683
Si Si6 0.587102 0.069327 0.640288
Si Si7 0.906426 0.933030 0.150195
O O1 0.776772 0.079626 0.648573
O O2 0.870508 0.337042 0.499040
O O3 0.870056 0.130188 0.627923
O O4 0.934186 0.054700 0.399084
O O5 0.162387 0.408971 0.211292
O O6 0.070683 0.312891 0.241859
O O7 0.135686 0.098294 0.250112
O O8 0.202415 0.191165 0.021685
O O9 0.944864 0.161410 0.781284
O O10 0.858550 0.422861 0.911178
O O11 0.887490 0.208915 0.742792
O O12 0.788922 0.125488 0.013102
O O13 0.500000 0.009510 0.750000
O O14 0.000000 0.000000 0.000000
#
# Coordination Sequence:
#
# PCOD9254731 Si02
#       7
#     8   8   8   4   8   8   8
#     4  10  19  34  61  82 115 160 210 252 314 366
#     4   9  19  37  60  83 118 154 211 254 299 374
#     4  10  20  33  56  87 124 153 206 250 312 371
#     4  10  16  34  56  80 110 158 206 248 294 382
#     4   8  18  37  60  83 106 167 205 242 298 376
#     4  11  20  34  56  87 121 160 202 260 302 381
#     4  11  20  35  59  90 119 159 200 269 323 356
#
# _framework density 22.608488999999999
#
# number of rings (size 3 to 8) (size 9 to 14) (size 15 to 20)
#    0.000    2.154    3.077    1.846    0.000    0.615 
#    0.000    7.692    0.000    9.231    0.000    0.000 
#    0.000    0.000    0.000    0.000    0.000    0.000 
#
# Total GULP energy -144926.188735 kJ/mol
# GULP energy per Si atom -5574.084182 kJ/mol
# Density = 2.255703 g / cm^3
# Si number density = 22.608489 Si / 1000 Ang^3
#
#
#
# Elastic Constant Matrix: (Units=GPa)
#
#
# Indices 1 2 3 4 5 6 
#
# 1 173.1028 55.4774 46.0707 -0.0002 51.4873 0.0000
# 2 55.4774 110.3190 16.9185 -0.0020 24.4946 0.0007
# 3 46.0707 16.9185 24.8083 -0.0012 22.9643 0.0005
# 4 -0.0002 -0.0020 -0.0012 12.5649 0.0003 -1.8053
# 5 51.4873 24.4946 22.9643 0.0003 37.6817 0.0000
# 6 0.0000 0.0007 0.0005 -1.8053 0.0000 39.5888
#
#
#
# Elastic Compliance Matrix: (Units=1/GPa)
#
#
# Indices 1 2 3 4 5 6 
#
# 1 0.012686 -0.002604 -0.016759 -0.000002 -0.005428 0.000000
# 2 -0.002604 0.011170 0.001482 0.000002 -0.004606 0.000000
# 3 -0.016759 0.001482 0.114979 0.000012 -0.048136 -0.000001
# 4 -0.000002 0.000002 0.000012 0.080112 -0.000007 0.003653
# 5 -0.005428 -0.004606 -0.048136 -0.000007 0.066284 0.000000
# 6 0.000000 0.000000 -0.000001 0.003653 0.000000 0.025426
#
#
# Mechanical properties :
#
#
# Convention : Reuss Voigt Hill
#
# Bulk Modulus (GPa) = 9.70183 60.57370 35.13776
# Shear Modulus (GPa) = 13.13107 30.61798 21.87453
#
# Velocity S-wave (km/s) = 2.41260 3.68403 3.11390
# Velocity P-wave (km/s) = 3.47295 6.70423 5.33892
#
# Compressibility (1/GPa) = 0.10307337
#
# Stress axis : x y z
#
# Youngs Moduli (GPa) = 78.82447 89.52905 8.69726
#
# Poissons Ratio (x) = 0.23317 0.14576
# Poissons Ratio (y) = 0.20529 -0.01289
# Poissons Ratio (z) = 1.32100 -0.13273
#
# Static dielectric constant tensor:
#      x y z
#    x 1.984170 0.000000 -0.085030 
#    y 0.000000 1.892470 0.000000 
#    z -0.085030 0.000000 1.884750 
# 
# From -- ./inp_files/181075.got.cif
#   From: 2010.05.17/outbox.cif.g08.bks.cpg/sg15_91_cif.got.tgz:181075.got - 2010.06.03 18:47:42.
