data_PCOD9254415
_publ_section_title
;
Structure prediction by ZEFSAII (Michael W. Deem and Ramdas Pophale) SiO2 
 PCOD9254415
Probable space group: C 2/C
;
_chemical_formula_sum "Si O2"
_cell_formula_units_Z 52
_cell_length_a 10.572145
_cell_length_b 17.994274
_cell_length_c 24.079171
_cell_angle_alpha 90.000000
_cell_angle_beta 38.534243
_cell_angle_gamma 90.000000
_cell_volume 2853.741603
_symmetry_space_group_name_H-M "C 2/C"
_symmetry_group_IT_number 15
_symmetry_cell_setting 'monoclinic'
loop_
_space_group_symop_operation_xyz
x,y,z
-x,y,1/2-z
-x,-y,-z
x,-y,1/2+z
1/2+x,1/2+y,z
1/2-x,1/2+y,1/2-z
1/2-x,1/2-y,-z
1/2+x,1/2-y,1/2+z
loop_
_atom_site_type_symbol
_atom_site_label
_atom_site_fract_x
_atom_site_fract_y
_atom_site_fract_z
Si Si1 0.596781 0.651834 0.593313
Si Si2 0.000000 0.993857 0.250000
Si Si3 0.202871 0.622977 0.789733
Si Si4 0.869157 0.115346 0.039881
Si Si5 0.770699 0.751525 0.350539
Si Si6 0.231529 0.511098 0.439391
Si Si7 0.290087 0.044319 0.926565
O O1 0.356951 0.651239 0.689530
O O2 0.644052 0.660944 0.512832
O O3 0.704769 0.705524 0.599652
O O4 0.676169 0.569703 0.580153
O O5 0.167451 0.938815 0.220155
O O6 0.123043 0.039264 0.160561
O O7 0.162741 0.692377 0.844694
O O8 0.999647 0.583736 0.839011
O O9 0.095224 0.082820 0.966624
O O10 0.824146 0.171428 0.105313
O O11 0.723254 0.043018 0.085406
O O12 0.000000 0.742163 0.250000
O O13 0.232186 0.551059 0.498673
O O14 0.000000 0.500000 0.500000
#
# Coordination Sequence:
#
# PCOD9254415 Si02
#       7
#     8   4   8   8   8   8   8
#     4   9  18  33  56  77 101 141 189 222 265 336
#     4  10  16  30  54  82  98 136 186 234 268 310
#     4  10  17  34  60  80  99 140 195 232 265 325
#     4  10  22  36  49  80 117 147 174 221 281 342
#     4  10  18  36  57  80 102 138 191 235 272 320
#     4  10  16  30  53  77 105 135 182 236 266 318
#     4  10  21  36  50  80 116 143 181 221 281 337
#
# _framework density 18.221692000000001
#
# number of rings (size 3 to 8) (size 9 to 14) (size 15 to 20)
#    0.000    2.154    5.385    0.462    0.000    1.231 
#   11.077    0.000    0.000    0.000    0.000    0.000 
#    0.000    0.000    0.000    0.000    0.000    0.000 
#
# Total GULP energy -144849.050948 kJ/mol
# GULP energy per Si atom -5571.117344 kJ/mol
# Density = 1.818022 g / cm^3
# Si number density = 18.221692 Si / 1000 Ang^3
#
#
#
# Elastic Constant Matrix: (Units=GPa)
#
#
# Indices 1 2 3 4 5 6 
#
# 1 26.1721 2.4824 -2.6074 -0.0003 -8.3720 0.0001
# 2 2.4824 56.6274 22.3363 -0.0020 -4.5792 0.0003
# 3 -2.6074 22.3363 35.0043 -0.0035 -7.2372 0.0018
# 4 -0.0003 -0.0020 -0.0035 24.3745 -0.0001 9.0280
# 5 -8.3720 -4.5792 -7.2372 -0.0001 26.6637 -0.0006
# 6 0.0001 0.0003 0.0018 9.0280 -0.0006 15.0086
#
#
#
# Elastic Compliance Matrix: (Units=1/GPa)
#
#
# Indices 1 2 3 4 5 6 
#
# 1 0.044614 -0.004380 0.009385 0.000002 0.015803 -0.000002
# 2 -0.004380 0.024029 -0.015988 -0.000001 -0.001588 0.000002
# 3 0.009385 -0.015988 0.041859 0.000008 0.011563 -0.000009
# 4 0.000002 -0.000001 0.000008 0.052787 0.000002 -0.031753
# 5 0.015803 -0.001588 0.011563 0.000002 0.045332 -0.000001
# 6 -0.000002 0.000002 -0.000009 -0.031753 -0.000001 0.085729
#
#
# Mechanical properties :
#
#
# Convention : Reuss Voigt Hill
#
# Bulk Modulus (GPa) = 11.29450 18.02516 14.65983
# Shear Modulus (GPa) = 14.45808 19.58220 17.02014
#
# Velocity S-wave (km/s) = 2.81989 3.28176 3.05955
# Velocity P-wave (km/s) = 4.10051 4.92682 4.53254
#
# Compressibility (1/GPa) = 0.08853868
#
# Stress axis : x y z
#
# Youngs Moduli (GPa) = 22.41432 41.61623 23.88954
#
# Poissons Ratio (x) = 0.18227 -0.22421
# Poissons Ratio (y) = 0.09817 0.38194
# Poissons Ratio (z) = -0.21037 0.66534
#
# Static dielectric constant tensor:
#      x y z
#    x 1.650970 0.000000 0.046410 
#    y 0.000000 1.607540 0.000000 
#    z 0.046410 0.000000 1.665250 
# 
# From -- ./inp_files/183032.got.cif
#   From: 2010.05.17/outbox.cif.g08.bks.cpg/sg15_92_cif.got.tgz:183032.got - 2010.06.03 18:47:42.
