data_PCOD9254970
_publ_section_title
;
Structure prediction by ZEFSAII (Michael W. Deem and Ramdas Pophale) SiO2 
 PCOD9254970
Probable space group: C 2/C
;
_chemical_formula_sum "Si O2"
_cell_formula_units_Z 48
_cell_length_a 22.872946
_cell_length_b 16.416079
_cell_length_c 23.834156
_cell_angle_alpha 90.000000
_cell_angle_beta 159.717313
_cell_angle_gamma 90.000000
_cell_volume 3102.310910
_symmetry_space_group_name_H-M "C 2/C"
_symmetry_group_IT_number 15
_symmetry_cell_setting 'monoclinic'
loop_
_space_group_symop_operation_xyz
x,y,z
-x,y,1/2-z
-x,-y,-z
x,-y,1/2+z
1/2+x,1/2+y,z
1/2-x,1/2+y,1/2-z
1/2-x,1/2-y,-z
1/2+x,1/2-y,1/2+z
loop_
_atom_site_type_symbol
_atom_site_label
_atom_site_fract_x
_atom_site_fract_y
_atom_site_fract_z
Si Si1 0.094747 0.175329 0.914882
Si Si2 0.364633 0.275799 0.367930
Si Si3 0.728988 0.856098 0.037121
Si Si4 0.457107 0.874234 0.424079
Si Si5 0.517508 0.953526 0.934666
Si Si6 0.210984 0.842957 0.645478
O O1 0.201656 0.128532 0.963097
O O2 0.899032 0.157758 0.726603
O O3 0.125141 0.272265 0.936844
O O4 0.165905 0.155772 0.039824
O O5 0.406261 0.196531 0.442513
O O6 0.208701 0.329206 0.247164
O O7 0.318255 0.234818 0.265466
O O8 0.532148 0.329979 0.514798
O O9 0.614190 0.919634 0.967446
O O10 0.410894 0.911512 0.444056
O O11 0.520249 0.949942 0.444858
O O12 0.324937 0.920951 0.760788
#
# Coordination Sequence:
#
# PCOD9254970 Si02
#       6
#     8   8   8   8   8   8
#     4  10  18  28  42  61  87 125 151 171 208 261
#     4   9  17  30  46  63  86 120 153 181 214 264
#     4  10  19  28  41  61  90 120 153 180 206 251
#     4   9  18  31  46  62  87 118 150 183 224 260
#     4  10  19  29  42  65  92 118 145 187 223 251
#     4  10  17  26  43  63  88 115 146 178 215 258
#
# _framework density 15.472337
#
# number of rings (size 3 to 8) (size 9 to 14) (size 15 to 20)
#    0.000    2.333    0.000    6.000    0.000    2.667 
#    0.000    3.333    0.000    0.000    0.000    0.000 
#    0.000   16.000    0.000    0.000    0.000    0.000 
#
# Total GULP energy -133684.151612 kJ/mol
# GULP energy per Si atom -5570.172984 kJ/mol
# Density = 1.543712 g / cm^3
# Si number density = 15.472337 Si / 1000 Ang^3
#
#
#
# Elastic Constant Matrix: (Units=GPa)
#
#
# Indices 1 2 3 4 5 6 
#
# 1 49.2817 39.6881 13.7072 -0.0019 4.6608 -0.0019
# 2 39.6881 93.9284 36.2762 -0.0068 11.7296 -0.0044
# 3 13.7072 36.2762 77.4588 -0.0031 8.2161 -0.0037
# 4 -0.0019 -0.0068 -0.0031 11.4042 -0.0015 1.2549
# 5 4.6608 11.7296 8.2161 -0.0015 12.6920 -0.0020
# 6 -0.0019 -0.0044 -0.0037 1.2549 -0.0020 23.5486
#
#
#
# Elastic Compliance Matrix: (Units=1/GPa)
#
#
# Indices 1 2 3 4 5 6 
#
# 1 0.030801 -0.013376 0.000754 -0.000003 0.000563 0.000000
# 2 -0.013376 0.019759 -0.005874 0.000007 -0.009546 0.000001
# 3 0.000754 -0.005874 0.016086 0.000000 -0.005261 0.000001
# 4 -0.000003 0.000007 0.000000 0.088204 0.000004 -0.004700
# 5 0.000563 -0.009546 -0.005261 0.000004 0.090811 0.000005
# 6 0.000000 0.000001 0.000001 -0.004700 0.000005 0.042716
#
#
# Mechanical properties :
#
#
# Convention : Reuss Voigt Hill
#
# Bulk Modulus (GPa) = 33.72286 44.44576 39.08431
# Shear Modulus (GPa) = 14.91414 18.26212 16.58813
#
# Velocity S-wave (km/s) = 3.10808 3.43929 3.27787
# Velocity P-wave (km/s) = 5.89263 6.67532 6.29615
#
# Compressibility (1/GPa) = 0.02965348
#
# Stress axis : x y z
#
# Youngs Moduli (GPa) = 32.46701 50.61012 62.16702
#
# Poissons Ratio (x) = 0.67695 -0.04688
# Poissons Ratio (y) = 0.43427 0.36517
# Poissons Ratio (z) = -0.02448 0.29729
#
# Static dielectric constant tensor:
#      x y z
#    x 1.532130 0.000000 -0.002870 
#    y 0.000000 1.496550 0.000000 
#    z -0.002870 0.000000 1.552840 
# 
# From -- ./inp_files/47951.got.cif
#   From: 2010.05.17/outbox.cif.g08.bks.cpg/sg15_24_cif.got.tgz:47951.got - 2010.06.03 18:47:42.
