data_PCOD9254209
_publ_section_title
;
Structure prediction by ZEFSAII (Michael W. Deem and Ramdas Pophale) SiO2 
 PCOD9254209
Probable space group: C 2/C
;
_chemical_formula_sum "Si O2"
_cell_formula_units_Z 52
_cell_length_a 11.805133
_cell_length_b 24.185639
_cell_length_c 11.273644
_cell_angle_alpha 90.000000
_cell_angle_beta 49.663548
_cell_angle_gamma 90.000000
_cell_volume 2453.544887
_symmetry_space_group_name_H-M "C 2/C"
_symmetry_group_IT_number 15
_symmetry_cell_setting 'monoclinic'
loop_
_space_group_symop_operation_xyz
x,y,z
-x,y,1/2-z
-x,-y,-z
x,-y,1/2+z
1/2+x,1/2+y,z
1/2-x,1/2+y,1/2-z
1/2-x,1/2-y,-z
1/2+x,1/2-y,1/2+z
loop_
_atom_site_type_symbol
_atom_site_label
_atom_site_fract_x
_atom_site_fract_y
_atom_site_fract_z
Si Si1 0.818193 0.970207 0.806743
Si Si2 0.771111 0.008456 0.590830
Si Si3 0.368532 0.063673 0.487266
Si Si4 0.674684 0.334840 0.124575
Si Si5 0.369586 0.129816 0.081834
Si Si6 0.000000 0.405878 0.250000
Si Si7 0.338220 0.216005 0.294819
O O1 0.781394 0.905796 0.820659
O O2 0.854983 0.996582 0.655349
O O3 0.659903 0.004259 0.933533
O O4 0.874773 0.978949 0.904395
O O5 0.642518 0.055352 0.686710
O O6 0.682189 0.953170 0.610481
O O7 0.249287 0.108523 0.613291
O O8 0.518757 0.094664 0.411054
O O9 0.500000 0.342149 0.250000
O O10 0.714133 0.279571 0.171515
O O11 0.731652 0.319064 0.954012
O O12 0.349757 0.187839 0.159807
O O13 0.445022 0.128481 0.901112
O O14 0.500000 0.215603 0.250000
#
# Coordination Sequence:
#
# PCOD9254209 Si02
#       7
#     8   8   8   8   8   4   8
#     4   9  18  25  44  78 113 136 168 212 285 328
#     4   9  16  25  40  73 111 140 161 211 270 337
#     4  10  18  29  51  75 112 142 171 217 282 326
#     4  10  21  36  52  79 110 145 188 224 277 330
#     4  11  18  29  51  83 113 137 174 234 282 324
#     4  10  16  28  44  84 116 134 170 228 282 328
#     4  10  20  34  56  83 105 139 185 238 280 315
#
# _framework density 21.193823999999999
#
# number of rings (size 3 to 8) (size 9 to 14) (size 15 to 20)
#    0.923    1.231    3.077    2.308    0.000    0.000 
#    0.000    0.000    0.000    4.615    0.000    0.000 
#    0.000    0.000    0.000    0.000    0.000    0.000 
#
# Total GULP energy -144746.801286 kJ/mol
# GULP energy per Si atom -5567.184665 kJ/mol
# Density = 2.114559 g / cm^3
# Si number density = 21.193824 Si / 1000 Ang^3
#
#
#
# Elastic Constant Matrix: (Units=GPa)
#
#
# Indices 1 2 3 4 5 6 
#
# 1 69.9964 3.9154 24.3788 0.0000 23.1098 0.0000
# 2 3.9154 83.1464 25.4395 0.0000 17.5912 0.0000
# 3 24.3788 25.4395 142.8779 0.0000 25.7298 0.0000
# 4 0.0000 0.0000 0.0000 32.0464 0.0000 3.0629
# 5 23.1098 17.5912 25.7298 0.0000 31.9966 0.0000
# 6 0.0000 0.0000 0.0000 3.0629 0.0000 47.8451
#
#
#
# Elastic Compliance Matrix: (Units=1/GPa)
#
#
# Indices 1 2 3 4 5 6 
#
# 1 0.019294 0.002484 -0.001145 0.000000 -0.014380 0.000000
# 2 0.002484 0.014126 -0.001423 0.000000 -0.008416 0.000000
# 3 -0.001145 -0.001423 0.008370 0.000000 -0.005121 0.000000
# 4 0.000000 0.000000 0.000000 0.031397 0.000000 -0.002010
# 5 -0.014380 -0.008416 -0.005121 0.000000 0.050385 0.000000
# 6 0.000000 0.000000 0.000000 -0.002010 0.000000 0.021029
#
#
# Mechanical properties :
#
#
# Convention : Reuss Voigt Hill
#
# Bulk Modulus (GPa) = 24.02581 44.83201 34.42891
# Shear Modulus (GPa) = 31.51727 38.53008 35.02367
#
# Velocity S-wave (km/s) = 3.86047 4.26841 4.06956
# Velocity P-wave (km/s) = 5.58855 6.74475 6.19369
#
# Compressibility (1/GPa) = 0.04162190
#
# Stress axis : x y z
#
# Youngs Moduli (GPa) = 51.82965 70.79120 119.47419
#
# Poissons Ratio (x) = -0.17585 0.13676
# Poissons Ratio (y) = -0.12875 0.17007
# Poissons Ratio (z) = 0.05933 0.10077
#
# Static dielectric constant tensor:
#      x y z
#    x 1.847260 0.000000 -0.003140 
#    y 0.000000 1.741460 0.000000 
#    z -0.003140 0.000000 1.873440 
# 
# From -- ./inp_files/100443.got.cif
#   From: 2010.05.17/outbox.cif.g08.bks.cpg/sg15_51_cif.got.tgz:100443.got - 2010.06.03 18:47:42.
