data_PCOD9254027
_publ_section_title
;
Structure prediction by ZEFSAII (Michael W. Deem and Ramdas Pophale) SiO2 
 PCOD9254027
Probable space group: C 2/C
;
_chemical_formula_sum "Si O2"
_cell_formula_units_Z 64
_cell_length_a 11.708933
_cell_length_b 16.440523
_cell_length_c 19.015532
_cell_angle_alpha 90.000000
_cell_angle_beta 106.403648
_cell_angle_gamma 90.000000
_cell_volume 3511.511233
_symmetry_space_group_name_H-M "C 2/C"
_symmetry_group_IT_number 15
_symmetry_cell_setting 'monoclinic'
loop_
_space_group_symop_operation_xyz
x,y,z
-x,y,1/2-z
-x,-y,-z
x,-y,1/2+z
1/2+x,1/2+y,z
1/2-x,1/2+y,1/2-z
1/2-x,1/2-y,-z
1/2+x,1/2-y,1/2+z
loop_
_atom_site_type_symbol
_atom_site_label
_atom_site_fract_x
_atom_site_fract_y
_atom_site_fract_z
Si Si1 0.187773 0.626027 0.645730
Si Si2 0.176329 0.670999 0.897781
Si Si3 0.357225 0.962967 0.227997
Si Si4 0.422522 0.290559 0.169599
Si Si5 0.968664 0.407018 0.009317
Si Si6 0.277934 0.854752 0.712691
Si Si7 0.875332 0.286732 0.879286
Si Si8 0.549272 0.271574 0.681158
O O1 0.184413 0.551387 0.698787
O O2 0.316721 0.646480 0.638386
O O3 0.143929 0.697901 0.690670
O O4 0.088958 0.623545 0.568467
O O5 0.182226 0.608635 0.832396
O O6 0.140766 0.612522 0.956393
O O7 0.289065 0.730226 0.911261
O O8 0.066143 0.735574 0.877326
O O9 0.500000 0.959196 0.250000
O O10 0.316249 0.053684 0.203227
O O11 0.500000 0.317843 0.250000
O O12 0.356585 0.206210 0.178931
O O13 0.517303 0.270929 0.126934
O O14 0.933108 0.359385 0.933314
O O15 0.000000 0.500000 0.000000
O O16 0.309128 0.824417 0.798430
O O17 0.136338 0.844273 0.674151
O O18 0.500000 0.286248 0.750000
#
# Coordination Sequence:
#
# PCOD9254027 Si02
#       8
#     8   8   8   8   8   8   8   8
#     4  10  19  35  58  84 107 151 189 230 283 343
#     4  11  21  37  63  81 113 153 198 230 287 350
#     4  12  18  32  60  87 115 143 187 247 295 339
#     4   9  19  35  57  85 116 140 185 236 287 345
#     4  11  24  37  57  85 111 147 200 246 275 326
#     4  10  21  30  56  92 116 136 183 247 295 326
#     4  11  21  37  56  83 114 154 191 232 278 352
#     4  10  15  35  55  82 108 145 184 232 276 343
#
# _framework density 18.225770000000001
#
# number of rings (size 3 to 8) (size 9 to 14) (size 15 to 20)
#    0.000    1.500    5.000    3.750    1.750    0.500 
#    0.000    1.875    0.000    0.750    0.000    0.000 
#    0.000    0.000    0.000    0.000    0.000    0.000 
#
# Total GULP energy -178166.639338 kJ/mol
# GULP energy per Si atom -5567.707479 kJ/mol
# Density = 1.818429 g / cm^3
# Si number density = 18.225770 Si / 1000 Ang^3
#
#
#
# Elastic Constant Matrix: (Units=GPa)
#
#
# Indices 1 2 3 4 5 6 
#
# 1 116.7355 32.3947 25.3729 0.0000 -4.1884 0.0000
# 2 32.3947 71.9079 18.8946 0.0000 9.5336 0.0000
# 3 25.3729 18.8946 43.2335 0.0000 -2.3924 0.0000
# 4 0.0000 0.0000 0.0000 9.1353 0.0000 4.3049
# 5 -4.1884 9.5336 -2.3924 0.0000 16.1199 0.0000
# 6 0.0000 0.0000 0.0000 4.3049 0.0000 21.6266
#
#
#
# Elastic Compliance Matrix: (Units=1/GPa)
#
#
# Indices 1 2 3 4 5 6 
#
# 1 0.010881 -0.004446 -0.004175 0.000000 0.004837 0.000000
# 2 -0.004446 0.019469 -0.006655 0.000000 -0.013657 0.000000
# 3 -0.004175 -0.006655 0.028884 0.000000 0.007138 0.000000
# 4 0.000000 0.000000 0.000000 0.120797 0.000000 -0.024045
# 5 0.004837 -0.013657 0.007138 0.000000 0.072428 0.000000
# 6 0.000000 0.000000 0.000000 -0.024045 0.000000 0.051026
#
#
# Mechanical properties :
#
#
# Convention : Reuss Voigt Hill
#
# Bulk Modulus (GPa) = 34.86570 42.80015 38.83293
# Shear Modulus (GPa) = 14.55186 19.72400 17.13793
#
# Velocity S-wave (km/s) = 2.82870 3.29326 3.06978
# Velocity P-wave (km/s) = 5.46262 6.16401 5.82388
#
# Compressibility (1/GPa) = 0.02868148
#
# Stress axis : x y z
#
# Youngs Moduli (GPa) = 91.90083 51.36336 34.62122
#
# Poissons Ratio (x) = 0.22838 0.14455
# Poissons Ratio (y) = 0.40862 0.23040
# Poissons Ratio (z) = 0.38370 0.34182
#
# Static dielectric constant tensor:
#      x y z
#    x 1.644380 0.000000 0.001780 
#    y 0.000000 1.652870 0.000000 
#    z 0.001780 0.000000 1.684190 
# 
# From -- ./inp_files/199211.got.cif
#   From: 2010.05.17/outbox.cif.g08.bks.cpg/sg15_100_cif.got.tgz:199211.got - 2010.06.03 18:47:42.
