data_PCOD9254861
_publ_section_title
;
Structure prediction by ZEFSAII (Michael W. Deem and Ramdas Pophale) SiO2 
 PCOD9254861
Probable space group: C 2/C
;
_chemical_formula_sum "Si O2"
_cell_formula_units_Z 56
_cell_length_a 16.480021
_cell_length_b 14.584868
_cell_length_c 19.227851
_cell_angle_alpha 90.000000
_cell_angle_beta 29.884989
_cell_angle_gamma 90.000000
_cell_volume 2302.754084
_symmetry_space_group_name_H-M "C 2/C"
_symmetry_group_IT_number 15
_symmetry_cell_setting 'monoclinic'
loop_
_space_group_symop_operation_xyz
x,y,z
-x,y,1/2-z
-x,-y,-z
x,-y,1/2+z
1/2+x,1/2+y,z
1/2-x,1/2+y,1/2-z
1/2-x,1/2-y,-z
1/2+x,1/2-y,1/2+z
loop_
_atom_site_type_symbol
_atom_site_label
_atom_site_fract_x
_atom_site_fract_y
_atom_site_fract_z
Si Si1 0.500000 0.438497 0.750000
Si Si2 0.705289 0.549159 0.491430
Si Si3 0.540777 0.780942 0.448691
Si Si4 0.885400 0.380631 0.977167
Si Si5 0.752371 0.051118 0.192161
Si Si6 0.775551 0.569260 0.130899
Si Si7 0.500000 0.903322 0.250000
Si Si8 0.761920 0.336503 0.316931
O O1 0.559697 0.501535 0.641608
O O2 0.346788 0.385505 0.833398
O O3 0.778452 0.626778 0.487329
O O4 0.664129 0.577042 0.443139
O O5 0.850566 0.471517 0.381601
O O6 0.600661 0.793585 0.482992
O O7 0.444540 0.876394 0.505693
O O8 0.407596 0.704347 0.531435
O O9 0.691234 0.778235 0.285380
O O10 0.067350 0.412662 0.822088
O O11 0.809575 0.466326 0.077927
O O12 0.761375 0.941704 0.185280
O O13 0.796341 0.075488 0.238280
O O14 0.416307 0.840616 0.253762
#
# Coordination Sequence:
#
# PCOD9254861 Si02
#       8
#     4   8   8   8   8   8   4   8
#     4  10  22  31  50  90 119 140 178 250 300 333
#     4  10  18  33  59  88 114 144 198 243 295 339
#     4  11  22  34  59  83 119 161 191 234 291 354
#     4  10  16  36  63  84 106 155 207 237 280 348
#     4  10  17  34  62  84 109 150 200 246 282 351
#     4  10  19  36  60  83 112 151 203 240 287 345
#     4  10  20  37  60  78 121 164 186 236 292 361
#     4  11  21  36  52  87 118 157 192 232 298 358
#
# _framework density 24.318705999999999
#
# number of rings (size 3 to 8) (size 9 to 14) (size 15 to 20)
#    0.000    1.714    5.714    1.714    0.000    4.000 
#    0.000    1.429    0.000    0.000    7.429   18.000 
#    0.000    0.000    0.000    0.000    0.000    0.000 
#
# Total GULP energy -156469.030311 kJ/mol
# GULP energy per Si atom -5588.179654 kJ/mol
# Density = 2.426336 g / cm^3
# Si number density = 24.318706 Si / 1000 Ang^3
#
#
#
# Elastic Constant Matrix: (Units=GPa)
#
#
# Indices 1 2 3 4 5 6 
#
# 1 120.4448 1.4301 13.3985 -0.0030 21.3552 0.0022
# 2 1.4301 74.2886 6.8817 0.0144 5.6818 -0.0034
# 3 13.3985 6.8817 93.3421 0.0321 18.2615 -0.0080
# 4 -0.0030 0.0144 0.0321 10.1655 -0.0022 -9.7023
# 5 21.3552 5.6818 18.2615 -0.0022 36.3014 -0.0011
# 6 0.0022 -0.0034 -0.0080 -9.7023 -0.0011 3.1310
#
#
#
# Elastic Compliance Matrix: (Units=1/GPa)
#
#
# Indices 1 2 3 4 5 6 
#
# 1 0.009281 0.000259 -0.000305 0.000003 -0.005347 0.000001
# 2 0.000259 0.013667 -0.000662 0.000003 -0.001958 0.000022
# 3 -0.000305 -0.000662 0.011924 0.000006 -0.005715 0.000046
# 4 0.000003 0.000003 0.000006 -0.050251 -0.000013 -0.155718
# 5 -0.005347 -0.001958 -0.005715 -0.000013 0.033874 -0.000041
# 6 0.000001 0.000022 0.000046 -0.155718 -0.000041 -0.163152
#
#
# Mechanical properties :
#
#
# Convention : Reuss Voigt Hill
#
# Bulk Modulus (GPa) = 29.88996 36.83291 33.36144
# Shear Modulus (GPa) = -37.85387 27.67724 -5.08832
#
# Velocity S-wave (km/s) = -3.94962 3.37724 -1.44806
# Velocity P-wave (km/s) = 2.91235 5.51239 3.30943
#
# Compressibility (1/GPa) = 0.03345605
#
# Stress axis : x y z
#
# Youngs Moduli (GPa) = 107.74147 73.16834 83.86428
#
# Poissons Ratio (x) = -0.01892 0.02560
# Poissons Ratio (y) = -0.02786 0.05548
# Poissons Ratio (z) = 0.03289 0.04841
#
# Static dielectric constant tensor:
#      x y z
#    x 1.980510 0.000000 0.027510 
#    y 0.000000 1.933470 0.000000 
#    z 0.027510 0.000000 1.925300 
# 
# From -- ./inp_files/249250.got.cif
#   From: 2010.05.17/outbox.cif.g08.bks.cpg/sg15_125_cif.got.tgz:249250.got - 2010.06.03 18:47:42.
