data_PCOD9254017
_publ_section_title
;
Structure prediction by ZEFSAII (Michael W. Deem and Ramdas Pophale) SiO2 
 PCOD9254017
Probable space group: C 2/C
;
_chemical_formula_sum "Si O2"
_cell_formula_units_Z 48
_cell_length_a 17.322935
_cell_length_b 16.119352
_cell_length_c 12.766928
_cell_angle_alpha 90.000000
_cell_angle_beta 149.878114
_cell_angle_gamma 90.000000
_cell_volume 1789.047017
_symmetry_space_group_name_H-M "C 2/C"
_symmetry_group_IT_number 15
_symmetry_cell_setting 'monoclinic'
loop_
_space_group_symop_operation_xyz
x,y,z
-x,y,1/2-z
-x,-y,-z
x,-y,1/2+z
1/2+x,1/2+y,z
1/2-x,1/2+y,1/2-z
1/2-x,1/2-y,-z
1/2+x,1/2-y,1/2+z
loop_
_atom_site_type_symbol
_atom_site_label
_atom_site_fract_x
_atom_site_fract_y
_atom_site_fract_z
Si Si1 0.707906 0.527686 0.853294
Si Si2 0.809644 0.293474 0.204135
Si Si3 0.891179 0.319741 0.541982
Si Si4 0.121523 0.952123 0.003963
Si Si5 0.366435 0.864085 0.991017
Si Si6 0.883512 0.560834 0.302439
O O1 0.550152 0.484031 0.705934
O O2 0.837316 0.454185 0.006368
O O3 0.750913 0.625156 0.924970
O O4 0.743435 0.511935 0.088631
O O5 0.850438 0.286749 0.377563
O O6 0.669163 0.358842 0.032430
O O7 0.749018 0.204077 0.099514
O O8 0.958733 0.329988 0.317759
O O9 0.000000 0.267340 0.750000
O O10 0.012682 0.390923 0.654686
O O11 0.172284 0.962724 0.184861
O O12 0.320270 0.876772 0.814910
O O13 0.000000 0.500000 0.500000
#
# Coordination Sequence:
#
# PCOD9254017 Si02
#       6
#     8   8   8   8   8   8
#     4   9  16  28  48  74  91 124 175 214 254 284
#     4  10  18  29  45  75 102 133 168 209 268 292
#     4  10  19  33  50  71 106 141 169 205 259 316
#     4   9  15  27  49  70  97 118 166 230 243 291
#     4  10  17  28  48  71 101 126 172 216 245 298
#     4  10  15  33  50  69  97 132 177 211 250 292
#
# _framework density 26.829927000000001
#
# number of rings (size 3 to 8) (size 9 to 14) (size 15 to 20)
#    0.000    2.333    6.667    1.000    0.000    1.333 
#    0.000    4.167    0.000    0.000    0.000   10.500 
#    0.000    0.000    0.000    0.000    0.000    0.000 
#
# Total GULP energy -134090.879139 kJ/mol
# GULP energy per Si atom -5587.119964 kJ/mol
# Density = 2.676886 g / cm^3
# Si number density = 26.829927 Si / 1000 Ang^3
#
#
#
# Elastic Constant Matrix: (Units=GPa)
#
#
# Indices 1 2 3 4 5 6 
#
# 1 101.8990 32.5924 10.4203 0.0000 18.6960 0.0000
# 2 32.5924 77.5719 38.7483 0.0000 10.3781 0.0000
# 3 10.4203 38.7483 164.3191 0.0000 -3.2390 0.0000
# 4 0.0000 0.0000 0.0000 26.8443 0.0000 10.8641
# 5 18.6960 10.3781 -3.2390 0.0000 41.6211 0.0000
# 6 0.0000 0.0000 0.0000 10.8641 0.0000 41.8086
#
#
#
# Elastic Compliance Matrix: (Units=1/GPa)
#
#
# Indices 1 2 3 4 5 6 
#
# 1 0.012042 -0.004612 0.000240 0.000000 -0.004241 0.000000
# 2 -0.004612 0.017046 -0.003776 0.000000 -0.002472 0.000000
# 3 0.000240 -0.003776 0.006988 0.000000 0.001377 0.000000
# 4 0.000000 0.000000 0.000000 0.041630 0.000000 -0.010818
# 5 -0.004241 -0.002472 0.001377 0.000000 0.026655 0.000000
# 6 0.000000 0.000000 0.000000 -0.010818 0.000000 0.026730
#
#
# Mechanical properties :
#
#
# Convention : Reuss Voigt Hill
#
# Bulk Modulus (GPa) = 50.55453 56.36802 53.46128
# Shear Modulus (GPa) = 32.47170 39.52338 35.99754
#
# Velocity S-wave (km/s) = 3.48268 3.84227 3.66689
# Velocity P-wave (km/s) = 5.92078 6.38272 6.15608
#
# Compressibility (1/GPa) = 0.01978062
#
# Stress axis : x y z
#
# Youngs Moduli (GPa) = 83.03997 58.66437 143.10192
#
# Poissons Ratio (x) = 0.27059 -0.03440
# Poissons Ratio (y) = 0.38302 0.54034
# Poissons Ratio (z) = -0.01996 0.22151
#
# Static dielectric constant tensor:
#      x y z
#    x 2.298960 0.000000 -0.165710 
#    y 0.000000 2.018590 0.000000 
#    z -0.165710 0.000000 2.199200 
# 
# From -- ./inp_files/163333.got.cif
#   From: 2010.05.17/outbox.cif.g08.bks.cpg/sg15_82_cif.got.tgz:163333.got - 2010.06.03 18:47:42.
