data_PCOD9254527
_publ_section_title
;
Structure prediction by ZEFSAII (Michael W. Deem and Ramdas Pophale) SiO2 
 PCOD9254527
Probable space group: C 2/C
;
_chemical_formula_sum "Si O2"
_cell_formula_units_Z 40
_cell_length_a 24.590851
_cell_length_b 5.291931
_cell_length_c 26.457258
_cell_angle_alpha 90.000000
_cell_angle_beta 149.872000
_cell_angle_gamma 90.000000
_cell_volume 1728.139194
_symmetry_space_group_name_H-M "C 2/C"
_symmetry_group_IT_number 15
_symmetry_cell_setting 'monoclinic'
loop_
_space_group_symop_operation_xyz
x,y,z
-x,y,1/2-z
-x,-y,-z
x,-y,1/2+z
1/2+x,1/2+y,z
1/2-x,1/2+y,1/2-z
1/2-x,1/2-y,-z
1/2+x,1/2-y,1/2+z
loop_
_atom_site_type_symbol
_atom_site_label
_atom_site_fract_x
_atom_site_fract_y
_atom_site_fract_z
Si Si1 0.992847 0.853279 0.893665
Si Si2 0.032126 0.355787 0.887230
Si Si3 0.190332 0.501222 0.932570
Si Si4 0.309778 0.543009 0.318365
Si Si5 0.319898 0.048326 0.694939
O O1 0.065876 0.076635 0.929938
O O2 0.931050 0.934734 0.894603
O O3 0.053813 0.582294 0.944400
O O4 0.893222 0.781670 0.774623
O O5 0.902689 0.330766 0.779756
O O6 0.076492 0.463913 0.870214
O O7 0.185445 0.528886 0.868859
O O8 0.250000 0.250000 0.000000
O O9 0.250000 0.750000 0.000000
O O10 0.253089 0.810660 0.259271
O O11 0.289138 0.482006 0.360677
#
# Coordination Sequence:
#
# PCOD9254527 Si02
#       5
#     8   8   8   8   8
#     4   9  18  33  62  90 110 134 189 247 286 324
#     4  10  20  38  60  84 112 146 196 239 278 331
#     4  12  27  41  56  82 123 161 192 233 288 344
#     4  10  16  31  55  95 112 133 179 251 290 326
#     4   9  22  36  63  85 114 147 196 233 284 335
#
# _framework density 23.146283
#
# number of rings (size 3 to 8) (size 9 to 14) (size 15 to 20)
#    1.200    0.800    2.000    1.800    2.800    0.000 
#    3.600    0.000    0.000    7.200    0.000    0.000 
#    0.000    0.000    0.000    0.000    0.000    0.000 
#
# Total GULP energy -111438.637419 kJ/mol
# GULP energy per Si atom -5571.931871 kJ/mol
# Density = 2.309360 g / cm^3
# Si number density = 23.146283 Si / 1000 Ang^3
#
#
#
# Elastic Constant Matrix: (Units=GPa)
#
#
# Indices 1 2 3 4 5 6 
#
# 1 178.0266 25.7599 26.4839 -0.0001 8.0109 -0.0050
# 2 25.7599 171.8148 18.1145 -0.0131 -6.6833 -0.0413
# 3 26.4839 18.1145 35.5299 0.0014 -10.1589 -0.0001
# 4 -0.0001 -0.0131 0.0014 18.1006 -0.0009 9.3807
# 5 8.0109 -6.6833 -10.1589 -0.0009 28.8564 -0.0025
# 6 -0.0050 -0.0413 -0.0001 9.3807 -0.0025 30.7190
#
#
#
# Elastic Compliance Matrix: (Units=1/GPa)
#
#
# Indices 1 2 3 4 5 6 
#
# 1 0.006763 -0.000548 -0.005932 0.000000 -0.004093 0.000000
# 2 -0.000548 0.006199 -0.002555 0.000000 0.000688 0.000008
# 3 -0.005932 -0.002555 0.037996 -0.000003 0.014432 -0.000002
# 4 0.000000 0.000000 -0.000003 0.065634 -0.000001 -0.020043
# 5 -0.004093 0.000688 0.014432 -0.000001 0.041031 0.000004
# 6 0.000000 0.000008 -0.000002 -0.020043 0.000004 0.038674
#
#
# Mechanical properties :
#
#
# Convention : Reuss Voigt Hill
#
# Bulk Modulus (GPa) = 30.40659 58.45420 44.43040
# Shear Modulus (GPa) = 22.18982 36.53608 29.36295
#
# Velocity S-wave (km/s) = 3.09961 3.97733 3.56558
# Velocity P-wave (km/s) = 5.09660 6.81185 6.01567
#
# Compressibility (1/GPa) = 0.03288761
#
# Stress axis : x y z
#
# Youngs Moduli (GPa) = 147.86239 161.32922 26.31845
#
# Poissons Ratio (x) = 0.08837 0.15612
# Poissons Ratio (y) = 0.08099 0.06725
# Poissons Ratio (z) = 0.87714 0.41223
#
# Static dielectric constant tensor:
#      x y z
#    x 1.933730 -0.000020 0.043500 
#    y -0.000020 1.893830 0.000000 
#    z 0.043500 0.000000 1.892620 
# 
# From -- ./inp_files/300010.got.cif
#   From: 2010.05.17/outbox.cif.g08.bks.cpg/sg15_151_cif.got.tgz:300010.got - 2010.06.03 18:47:42.
