data_PCOD9254219
_publ_section_title
;
Structure prediction by ZEFSAII (Michael W. Deem and Ramdas Pophale) SiO2 
 PCOD9254219
Probable space group: C 2/C
;
_chemical_formula_sum "Si O2"
_cell_formula_units_Z 52
_cell_length_a 21.720886
_cell_length_b 13.591959
_cell_length_c 8.011912
_cell_angle_alpha 90.000000
_cell_angle_beta 82.824333
_cell_angle_gamma 90.000000
_cell_volume 2346.826093
_symmetry_space_group_name_H-M "C 2/C"
_symmetry_group_IT_number 15
_symmetry_cell_setting 'monoclinic'
loop_
_space_group_symop_operation_xyz
x,y,z
-x,y,1/2-z
-x,-y,-z
x,-y,1/2+z
1/2+x,1/2+y,z
1/2-x,1/2+y,1/2-z
1/2-x,1/2-y,-z
1/2+x,1/2-y,1/2+z
loop_
_atom_site_type_symbol
_atom_site_label
_atom_site_fract_x
_atom_site_fract_y
_atom_site_fract_z
Si Si1 0.393815 0.854892 0.068803
Si Si2 0.801072 0.216488 0.243509
Si Si3 0.890400 0.272662 0.506237
Si Si4 0.359577 0.025915 0.899739
Si Si5 0.179106 0.155646 0.742206
Si Si6 0.500000 0.773792 0.250000
Si Si7 0.284044 0.528525 0.453619
O O1 0.352262 0.756132 0.093836
O O2 0.362294 0.929571 0.213632
O O3 0.460280 0.832641 0.125659
O O4 0.391159 0.919794 0.905660
O O5 0.828714 0.258043 0.410719
O O6 0.737707 0.270815 0.217991
O O7 0.790112 0.102971 0.292778
O O8 0.895488 0.390497 0.495845
O O9 0.879447 0.222556 0.687169
O O10 0.946121 0.224361 0.379841
O O11 0.288279 0.016686 0.978812
O O12 0.184784 0.076201 0.594508
O O13 0.185954 0.085248 0.902200
#
# Coordination Sequence:
#
# PCOD9254219 Si02
#       7
#     8   8   8   8   8   4   8
#     4  10  19  29  48  69  97 124 160 189 233 273
#     4   9  16  29  47  66  91 129 153 185 228 282
#     4   9  17  30  49  66  91 126 165 188 225 276
#     4  10  16  28  46  71  94 126 151 191 231 286
#     4  11  18  30  49  70  94 126 155 192 236 279
#     4   8  18  32  48  70  90 126 166 198 214 274
#     4  11  17  29  47  71  98 123 154 191 236 280
#
# _framework density 22.157585999999998
#
# number of rings (size 3 to 8) (size 9 to 14) (size 15 to 20)
#    0.000    2.462    6.154    0.923    0.000    2.462 
#    0.000    2.308    0.000    8.308    0.000    0.000 
#    0.000    0.000    0.000    0.000    0.000    0.000 
#
# Total GULP energy -144945.667600 kJ/mol
# GULP energy per Si atom -5574.833369 kJ/mol
# Density = 2.210715 g / cm^3
# Si number density = 22.157586 Si / 1000 Ang^3
#
#
#
# Elastic Constant Matrix: (Units=GPa)
#
#
# Indices 1 2 3 4 5 6 
#
# 1 51.1067 13.0670 9.5350 0.0000 -17.9826 0.0000
# 2 13.0670 88.5200 5.6846 0.0000 4.8615 0.0000
# 3 9.5350 5.6846 58.3738 0.0000 -5.0865 0.0000
# 4 0.0000 0.0000 0.0000 41.0252 0.0000 9.4869
# 5 -17.9826 4.8615 -5.0865 0.0000 20.0097 0.0000
# 6 0.0000 0.0000 0.0000 9.4869 0.0000 8.5225
#
#
#
# Elastic Compliance Matrix: (Units=1/GPa)
#
#
# Indices 1 2 3 4 5 6 
#
# 1 0.032012 -0.006230 -0.002028 0.000000 0.029767 0.000000
# 2 -0.006230 0.012773 -0.001007 0.000000 -0.008958 0.000000
# 3 -0.002028 -0.001007 0.017818 0.000000 0.002951 0.000000
# 4 0.000000 0.000000 0.000000 0.032825 0.000000 -0.036539
# 5 0.029767 -0.008958 0.002951 0.000000 0.079654 0.000000
# 6 0.000000 0.000000 0.000000 -0.036539 0.000000 0.158009
#
#
# Mechanical properties :
#
#
# Convention : Reuss Voigt Hill
#
# Bulk Modulus (GPa) = 22.69010 28.28598 25.48804
# Shear Modulus (GPa) = 13.64956 25.22574 19.43765
#
# Velocity S-wave (km/s) = 2.48467 3.37778 2.96505
# Velocity P-wave (km/s) = 4.30047 5.29208 4.82183
#
# Compressibility (1/GPa) = 0.04407209
#
# Stress axis : x y z
#
# Youngs Moduli (GPa) = 31.23805 78.28899 56.12458
#
# Poissons Ratio (x) = 0.48775 0.11385
# Poissons Ratio (y) = 0.19462 0.05651
# Poissons Ratio (z) = 0.06337 0.07882
#
# Static dielectric constant tensor:
#      x y z
#    x 1.819580 0.000000 0.023830 
#    y 0.000000 1.892290 0.000000 
#    z 0.023830 0.000000 1.968460 
# 
# From -- ./inp_files/117141.got.cif
#   From: 2010.05.17/outbox.cif.g08.bks.cpg/sg15_59_cif.got.tgz:117141.got - 2010.06.03 18:47:42.
