data_PCOD9254198
_publ_section_title
;
Structure prediction by ZEFSAII (Michael W. Deem and Ramdas Pophale) SiO2 
 PCOD9254198
Probable space group: C 2/C
;
_chemical_formula_sum "Si O2"
_cell_formula_units_Z 48
_cell_length_a 14.009923
_cell_length_b 18.051419
_cell_length_c 11.022673
_cell_angle_alpha 90.000000
_cell_angle_beta 101.842024
_cell_angle_gamma 90.000000
_cell_volume 2728.294274
_symmetry_space_group_name_H-M "C 2/C"
_symmetry_group_IT_number 15
_symmetry_cell_setting 'monoclinic'
loop_
_space_group_symop_operation_xyz
x,y,z
-x,y,1/2-z
-x,-y,-z
x,-y,1/2+z
1/2+x,1/2+y,z
1/2-x,1/2+y,1/2-z
1/2-x,1/2-y,-z
1/2+x,1/2-y,1/2+z
loop_
_atom_site_type_symbol
_atom_site_label
_atom_site_fract_x
_atom_site_fract_y
_atom_site_fract_z
Si Si1 0.310138 0.355797 0.581669
Si Si2 0.373699 0.836284 0.292429
Si Si3 0.000000 0.800077 0.750000
Si Si4 0.500000 0.213043 0.250000
Si Si5 0.315756 0.732935 0.832926
Si Si6 0.634159 0.936956 0.450149
Si Si7 0.552428 0.091724 0.448520
O O1 0.417169 0.351842 0.668528
O O2 0.323471 0.307198 0.464020
O O3 0.236603 0.310804 0.650377
O O4 0.245826 0.426143 0.522720
O O5 0.438836 0.760995 0.313163
O O6 0.261505 0.812161 0.266503
O O7 0.385972 0.879038 0.165699
O O8 0.398938 0.888483 0.410408
O O9 0.580378 0.258993 0.199973
O O10 0.555369 0.159885 0.358743
O O11 0.560259 0.921341 0.542446
O O12 0.602931 0.019525 0.405077
#
# Coordination Sequence:
#
# PCOD9254198 Si02
#       7
#     8   8   4   4   8   8   8
#     4   9  17  34  51  78 101 147 181 220 246 324
#     4  10  19  35  53  79 103 147 179 216 260 324
#     4  10  16  27  58  77 100 130 186 224 252 298
#     4  12  22  33  50  87 110 140 162 236 276 314
#     4   9  19  32  53  73 112 138 179 218 273 305
#     4  10  20  33  52  75 111 142 178 210 259 322
#     4  11  22  31  51  78 114 140 168 214 271 322
#
# _framework density 17.593409999999999
#
# number of rings (size 3 to 8) (size 9 to 14) (size 15 to 20)
#    0.000    2.000    3.333    2.000    4.667    0.667 
#    0.000    0.000    0.000    1.000    0.000    9.333 
#    0.000    0.000    0.000    0.000    0.000    0.000 
#
# Total GULP energy -133652.479369 kJ/mol
# GULP energy per Si atom -5568.853307 kJ/mol
# Density = 1.755337 g / cm^3
# Si number density = 17.593410 Si / 1000 Ang^3
#
#
#
# Elastic Constant Matrix: (Units=GPa)
#
#
# Indices 1 2 3 4 5 6 
#
# 1 128.1594 43.0930 36.9874 0.0000 13.2593 0.0000
# 2 43.0930 49.1861 13.3448 0.0000 3.6564 0.0000
# 3 36.9874 13.3448 44.5712 0.0000 11.4647 0.0000
# 4 0.0000 0.0000 0.0000 9.4915 0.0000 0.2950
# 5 13.2593 3.6564 11.4647 0.0000 34.4113 0.0000
# 6 0.0000 0.0000 0.0000 0.2950 0.0000 23.9415
#
#
#
# Elastic Compliance Matrix: (Units=1/GPa)
#
#
# Indices 1 2 3 4 5 6 
#
# 1 0.013446 -0.009519 -0.007914 0.000000 -0.001533 0.000000
# 2 -0.009519 0.028869 -0.000982 0.000000 0.000928 0.000000
# 3 -0.007914 -0.000982 0.031156 0.000000 -0.007227 0.000000
# 4 0.000000 0.000000 0.000000 0.105398 0.000000 -0.001299
# 5 -0.001533 0.000928 -0.007227 0.000000 0.031960 0.000000
# 6 0.000000 0.000000 0.000000 -0.001299 0.000000 0.041785
#
#
# Mechanical properties :
#
#
# Convention : Reuss Voigt Hill
#
# Bulk Modulus (GPa) = 27.29271 45.41857 36.35564
# Shear Modulus (GPa) = 16.57507 22.13496 19.35501
#
# Velocity S-wave (km/s) = 3.07272 3.55087 3.32042
# Velocity P-wave (km/s) = 5.30430 6.53325 5.95058
#
# Compressibility (1/GPa) = 0.03663982
#
# Stress axis : x y z
#
# Youngs Moduli (GPa) = 74.37032 34.63967 32.09628
#
# Poissons Ratio (x) = 0.32975 0.25401
# Poissons Ratio (y) = 0.70796 0.03153
# Poissons Ratio (z) = 0.58856 0.03403
#
# Static dielectric constant tensor:
#      x y z
#    x 1.608000 0.000000 0.024990 
#    y 0.000000 1.616960 0.000000 
#    z 0.024990 0.000000 1.612730 
# 
# From -- ./inp_files/87433.got.cif
#   From: 2010.05.17/outbox.cif.g08.bks.cpg/sg15_44_cif.got.tgz:87433.got - 2010.06.03 18:47:42.
