data_PCOD9254814
_publ_section_title
;
Structure prediction by ZEFSAII (Michael W. Deem and Ramdas Pophale) SiO2 
 PCOD9254814
Probable space group: C 2/C
;
_chemical_formula_sum "Si O2"
_cell_formula_units_Z 48
_cell_length_a 8.056509
_cell_length_b 17.026013
_cell_length_c 20.595136
_cell_angle_alpha 90.000000
_cell_angle_beta 132.370928
_cell_angle_gamma 90.000000
_cell_volume 2087.131789
_symmetry_space_group_name_H-M "C 2/C"
_symmetry_group_IT_number 15
_symmetry_cell_setting 'monoclinic'
loop_
_space_group_symop_operation_xyz
x,y,z
-x,y,1/2-z
-x,-y,-z
x,-y,1/2+z
1/2+x,1/2+y,z
1/2-x,1/2+y,1/2-z
1/2-x,1/2-y,-z
1/2+x,1/2-y,1/2+z
loop_
_atom_site_type_symbol
_atom_site_label
_atom_site_fract_x
_atom_site_fract_y
_atom_site_fract_z
Si Si1 0.467912 0.904449 0.142529
Si Si2 0.511789 0.318842 0.456167
Si Si3 0.801143 0.050811 0.410834
Si Si4 0.476193 0.562091 0.167411
Si Si5 0.538447 0.618942 0.690565
Si Si6 0.374039 0.821140 0.992388
O O1 0.690501 0.889179 0.242011
O O2 0.238653 0.858867 0.101324
O O3 0.413559 0.997003 0.131585
O O4 0.506587 0.872074 0.080065
O O5 0.675293 0.366575 0.547034
O O6 0.556537 0.333472 0.393479
O O7 0.499787 0.228859 0.471732
O O8 0.840467 0.062184 0.343993
O O9 0.000000 0.000000 0.500000
O O10 0.500000 0.586701 0.250000
O O11 0.434012 0.468615 0.161302
O O12 0.290858 0.618168 0.086446
O O13 0.500000 0.656634 0.750000
O O14 0.250000 0.750000 0.000000
#
# Coordination Sequence:
#
# PCOD9254814 Si02
#       6
#     8   8   8   8   8   8
#     4  10  19  35  64  89 122 162 217 255 321 374
#     4  10  19  36  65  91 121 169 211 255 319 393
#     4  10  16  35  61  86 128 160 208 264 314 373
#     4  11  21  35  56  94 132 157 208 271 310 368
#     4  11  23  38  58  94 131 163 212 276 318 368
#     4  10  19  36  62  93 121 170 214 251 316 399
#
# _framework density 22.998068
#
# number of rings (size 3 to 8) (size 9 to 14) (size 15 to 20)
#    0.000    1.667    8.333    0.500    0.000    2.667 
#    0.000    8.333    0.000    4.000    0.000    0.000 
#    0.000    0.000    0.000    0.000    0.000    0.000 
#
# Total GULP energy -133888.895200 kJ/mol
# GULP energy per Si atom -5578.703967 kJ/mol
# Density = 2.294572 g / cm^3
# Si number density = 22.998068 Si / 1000 Ang^3
#
#
#
# Elastic Constant Matrix: (Units=GPa)
#
#
# Indices 1 2 3 4 5 6 
#
# 1 79.8515 48.1023 57.7169 0.0000 -26.0562 0.0000
# 2 48.1023 109.3327 68.3009 0.0000 -8.7379 0.0000
# 3 57.7169 68.3009 149.4340 0.0000 -32.6861 0.0000
# 4 0.0000 0.0000 0.0000 24.8031 0.0000 -4.8984
# 5 -26.0562 -8.7379 -32.6861 0.0000 58.7211 0.0000
# 6 0.0000 0.0000 0.0000 -4.8984 0.0000 41.2042
#
#
#
# Elastic Compliance Matrix: (Units=1/GPa)
#
#
# Indices 1 2 3 4 5 6 
#
# 1 0.021267 -0.006415 -0.003902 0.000000 0.006310 0.000000
# 2 -0.006415 0.014860 -0.005071 0.000000 -0.003458 0.000000
# 3 -0.003902 -0.005071 0.011355 0.000000 0.003835 0.000000
# 4 0.000000 0.000000 0.000000 0.041287 0.000000 0.004908
# 5 0.006310 -0.003458 0.003835 0.000000 0.021450 0.000000
# 6 0.000000 0.000000 0.000000 0.004908 0.000000 0.024853
#
#
# Mechanical properties :
#
#
# Convention : Reuss Voigt Hill
#
# Bulk Modulus (GPa) = 59.85266 76.31760 68.08513
# Shear Modulus (GPa) = 29.16890 35.91223 32.54057
#
# Velocity S-wave (km/s) = 3.56521 3.95591 3.76563
# Velocity P-wave (km/s) = 6.55967 7.35677 6.96962
#
# Compressibility (1/GPa) = 0.01670769
#
# Stress axis : x y z
#
# Youngs Moduli (GPa) = 47.02160 67.29473 88.06415
#
# Poissons Ratio (x) = 0.43168 0.34361
# Poissons Ratio (y) = 0.30164 0.44654
# Poissons Ratio (z) = 0.18347 0.34123
#
# Static dielectric constant tensor:
#      x y z
#    x 2.036560 0.000000 -0.021100 
#    y 0.000000 1.807350 0.000000 
#    z -0.021100 0.000000 1.859370 
# 
# From -- ./inp_files/233620.got.cif
#   From: 2010.05.17/outbox.cif.g08.bks.cpg/sg15_117_cif.got.tgz:233620.got - 2010.06.03 18:47:42.
