data_PCOD9254765
_publ_section_title
;
Structure prediction by ZEFSAII (Michael W. Deem and Ramdas Pophale) SiO2 
 PCOD9254765
Probable space group: C 2/C
;
_chemical_formula_sum "Si O2"
_cell_formula_units_Z 60
_cell_length_a 13.618181
_cell_length_b 15.753883
_cell_length_c 12.514362
_cell_angle_alpha 90.000000
_cell_angle_beta 87.249489
_cell_angle_gamma 90.000000
_cell_volume 2681.728563
_symmetry_space_group_name_H-M "C 2/C"
_symmetry_group_IT_number 15
_symmetry_cell_setting 'monoclinic'
loop_
_space_group_symop_operation_xyz
x,y,z
-x,y,1/2-z
-x,-y,-z
x,-y,1/2+z
1/2+x,1/2+y,z
1/2-x,1/2+y,1/2-z
1/2-x,1/2-y,-z
1/2+x,1/2-y,1/2+z
loop_
_atom_site_type_symbol
_atom_site_label
_atom_site_fract_x
_atom_site_fract_y
_atom_site_fract_z
Si Si1 0.000000 0.729208 0.250000
Si Si2 0.691753 0.360744 0.797829
Si Si3 0.329625 0.822032 0.613439
Si Si4 0.406345 0.522701 0.629110
Si Si5 0.605686 0.830166 0.300288
Si Si6 0.903259 0.888918 0.360100
Si Si7 0.286100 0.847590 0.003442
Si Si8 0.736508 0.866339 0.102167
O O1 0.072949 0.676979 0.320851
O O2 0.061658 0.793022 0.168983
O O3 0.742336 0.370853 0.680340
O O4 0.607973 0.425197 0.840663
O O5 0.645548 0.266907 0.799556
O O6 0.779712 0.372646 0.880140
O O7 0.337022 0.854142 0.492773
O O8 0.296532 0.722581 0.609876
O O9 0.489914 0.440242 0.414150
O O10 0.392996 0.568522 0.745429
O O11 0.314483 0.560929 0.570970
O O12 0.500000 0.833485 0.250000
O O13 0.620849 0.857841 0.423151
O O14 0.678798 0.879168 0.215581
O O15 0.804098 0.891212 0.430120
O O16 0.250000 0.750000 0.000000
#
# Coordination Sequence:
#
# PCOD9254765 Si02
#       8
#     4   8   8   8   8   8   8   8
#     4  10  16  34  60  84 108 144 208 246 286 340
#     4  10  23  37  55  89 125 154 191 245 305 361
#     4  10  20  35  59  85 117 151 203 249 285 350
#     4  10  20  37  60  87 122 156 189 240 304 369
#     4  10  21  38  60  89 117 156 202 247 299 357
#     4  10  19  34  62  88 117 159 189 238 306 373
#     4  10  20  38  58  83 122 159 197 244 296 350
#     4  10  19  38  58  85 116 157 195 247 300 346
#
# _framework density 22.373628
#
# number of rings (size 3 to 8) (size 9 to 14) (size 15 to 20)
#    0.000    2.133    4.000    1.600    1.867    4.800 
#    4.800    0.000    1.467    1.600    0.000    0.000 
#    0.000    0.000    0.000    0.000    0.000    0.000 
#
# Total GULP energy -167417.238871 kJ/mol
# GULP energy per Si atom -5580.574629 kJ/mol
# Density = 2.232270 g / cm^3
# Si number density = 22.373628 Si / 1000 Ang^3
#
#
#
# Elastic Constant Matrix: (Units=GPa)
#
#
# Indices 1 2 3 4 5 6 
#
# 1 93.2087 14.2074 25.0082 0.0000 37.0937 0.0000
# 2 14.2074 29.4473 3.7060 0.0000 3.2431 0.0000
# 3 25.0082 3.7060 74.8933 0.0000 15.2995 0.0000
# 4 0.0000 0.0000 0.0000 18.8499 0.0000 -0.4520
# 5 37.0937 3.2431 15.2995 0.0000 29.0145 0.0000
# 6 0.0000 0.0000 0.0000 -0.4520 0.0000 1.0421
#
#
#
# Elastic Compliance Matrix: (Units=1/GPa)
#
#
# Indices 1 2 3 4 5 6 
#
# 1 0.023829 -0.008126 -0.001700 0.000000 -0.028659 0.000000
# 2 -0.008126 0.037224 -0.000449 0.000000 0.006465 0.000000
# 3 -0.001700 -0.000449 0.015116 0.000000 -0.005747 0.000000
# 4 0.000000 0.000000 0.000000 0.053608 0.000000 0.023251
# 5 -0.028659 0.006465 -0.005747 0.000000 0.073413 0.000000
# 6 0.000000 0.000000 0.000000 0.023251 0.000000 0.969682
#
#
# Mechanical properties :
#
#
# Convention : Reuss Voigt Hill
#
# Bulk Modulus (GPa) = 17.97987 31.48807 24.73397
# Shear Modulus (GPa) = 4.12554 20.08981 12.10768
#
# Velocity S-wave (km/s) = 1.35939 2.99979 2.32880
# Velocity P-wave (km/s) = 3.24308 5.10907 4.27903
#
# Compressibility (1/GPa) = 0.05561774
#
# Stress axis : x y z
#
# Youngs Moduli (GPa) = 41.96607 26.86427 66.15371
#
# Poissons Ratio (x) = 0.21831 0.11247
# Poissons Ratio (y) = 0.34103 0.02972
# Poissons Ratio (z) = 0.07135 0.01207
#
# Static dielectric constant tensor:
#      x y z
#    x 1.907850 0.000000 0.058030 
#    y 0.000000 1.853630 0.000000 
#    z 0.058030 0.000000 1.888650 
# 
# From -- ./inp_files/98334.got.cif
#   From: 2010.05.17/outbox.cif.g08.bks.cpg/sg15_50_cif.got.tgz:98334.got - 2010.06.03 18:47:42.
