data_PCOD9254968
_publ_section_title
;
Structure prediction by ZEFSAII (Michael W. Deem and Ramdas Pophale) SiO2 
 PCOD9254968
Probable space group: C 2/C
;
_chemical_formula_sum "Si O2"
_cell_formula_units_Z 56
_cell_length_a 25.580181
_cell_length_b 6.779612
_cell_length_c 13.018707
_cell_angle_alpha 90.000000
_cell_angle_beta 94.683813
_cell_angle_gamma 90.000000
_cell_volume 2250.212591
_symmetry_space_group_name_H-M "C 2/C"
_symmetry_group_IT_number 15
_symmetry_cell_setting 'monoclinic'
loop_
_space_group_symop_operation_xyz
x,y,z
-x,y,1/2-z
-x,-y,-z
x,-y,1/2+z
1/2+x,1/2+y,z
1/2-x,1/2+y,1/2-z
1/2-x,1/2-y,-z
1/2+x,1/2-y,1/2+z
loop_
_atom_site_type_symbol
_atom_site_label
_atom_site_fract_x
_atom_site_fract_y
_atom_site_fract_z
Si Si1 0.413377 0.172584 0.733565
Si Si2 0.268322 0.446035 0.061320
Si Si3 0.300229 0.580975 0.862102
Si Si4 0.998387 0.273751 0.089602
Si Si5 0.476797 0.691861 0.634126
Si Si6 0.696488 0.126423 0.714168
Si Si7 0.371532 0.618193 0.708644
O O1 0.450487 0.154709 0.839302
O O2 0.448318 0.131676 0.638842
O O3 0.357812 0.067355 0.742003
O O4 0.396692 0.401149 0.721734
O O5 0.218810 0.504004 0.123754
O O6 0.315948 0.389954 0.143045
O O7 0.250000 0.250000 0.000000
O O8 0.292716 0.591711 0.982231
O O9 0.308337 0.347143 0.832765
O O10 0.243489 0.626913 0.803513
O O11 0.352552 0.674127 0.820515
O O12 0.003502 0.292257 0.967870
O O13 0.992253 0.038782 0.115784
O O14 0.500000 0.744784 0.750000
O O15 0.414820 0.719477 0.644559
#
# Coordination Sequence:
#
# PCOD9254968 Si02
#       7
#     8   8   8   8   8   8   8
#     4   9  16  31  45  71 101 136 173 211 271 310
#     4   9  18  30  47  72 100 140 184 207 255 315
#     4   9  18  32  48  72 107 134 179 217 254 315
#     4   9  17  27  44  70 102 128 173 219 261 325
#     4  10  17  26  42  70 103 131 169 205 274 329
#     4   9  18  32  52  74 104 136 183 213 260 317
#     4   9  17  26  43  68 100 137 160 208 259 308
#
# _framework density 24.886536
#
# number of rings (size 3 to 8) (size 9 to 14) (size 15 to 20)
#    0.000    2.857    2.857    0.000    6.000    1.143 
#    0.000    6.429    0.000    3.429    0.000    4.000 
#   38.571    0.000    0.000    0.000    0.000    0.000 
#
# Total GULP energy -156388.682775 kJ/mol
# GULP energy per Si atom -5585.310099 kJ/mol
# Density = 2.482989 g / cm^3
# Si number density = 24.886536 Si / 1000 Ang^3
#
#
#
# Elastic Constant Matrix: (Units=GPa)
#
#
# Indices 1 2 3 4 5 6 
#
# 1 144.1381 9.8571 82.2139 0.0000 -47.1906 0.0000
# 2 9.8571 80.8437 19.9799 0.0000 -11.3437 0.0000
# 3 82.2139 19.9799 216.6177 0.0000 -46.4225 0.0000
# 4 0.0000 0.0000 0.0000 34.2370 0.0000 -8.1696
# 5 -47.1906 -11.3437 -46.4225 0.0000 42.5959 0.0000
# 6 0.0000 0.0000 0.0000 -8.1696 0.0000 31.4736
#
#
#
# Elastic Compliance Matrix: (Units=1/GPa)
#
#
# Indices 1 2 3 4 5 6 
#
# 1 0.011637 0.000619 -0.002186 0.000000 0.010675 0.000000
# 2 0.000619 0.012941 -0.000709 0.000000 0.003360 0.000000
# 3 -0.002186 -0.000709 0.006461 0.000000 0.004431 0.000000
# 4 0.000000 0.000000 0.000000 0.031137 0.000000 0.008082
# 5 0.010675 0.003360 0.004431 0.000000 0.041027 0.000000
# 6 0.000000 0.000000 0.000000 0.008082 0.000000 0.033871
#
#
# Mechanical properties :
#
#
# Convention : Reuss Voigt Hill
#
# Bulk Modulus (GPa) = 37.75275 73.96682 55.85978
# Shear Modulus (GPa) = 33.23291 43.63119 38.43205
#
# Velocity S-wave (km/s) = 3.65825 4.19167 3.93401
# Velocity P-wave (km/s) = 5.74861 7.29472 6.56732
#
# Compressibility (1/GPa) = 0.02648814
#
# Stress axis : x y z
#
# Youngs Moduli (GPa) = 85.92981 77.27605 154.77338
#
# Poissons Ratio (x) = -0.04785 0.33836
# Poissons Ratio (y) = -0.05321 0.10966
# Poissons Ratio (z) = 0.18786 0.05475
#
# Static dielectric constant tensor:
#      x y z
#    x 2.058060 0.000000 -0.064270 
#    y 0.000000 2.007900 0.000000 
#    z -0.064270 0.000000 2.005660 
# 
# From -- ./inp_files/176160.got.cif
#   From: 2010.05.17/outbox.cif.g08.bks.cpg/sg15_89_cif.got.tgz:176160.got - 2010.06.03 18:47:42.
