data_PCOD9254934
_publ_section_title
;
Structure prediction by ZEFSAII (Michael W. Deem and Ramdas Pophale) SiO2 
 PCOD9254934
Probable space group: C 2/C
;
_chemical_formula_sum "Si O2"
_cell_formula_units_Z 64
_cell_length_a 36.184613
_cell_length_b 16.134686
_cell_length_c 8.123274
_cell_angle_alpha 90.000000
_cell_angle_beta 80.168234
_cell_angle_gamma 90.000000
_cell_volume 4672.937069
_symmetry_space_group_name_H-M "C 2/C"
_symmetry_group_IT_number 15
_symmetry_cell_setting 'monoclinic'
loop_
_space_group_symop_operation_xyz
x,y,z
-x,y,1/2-z
-x,-y,-z
x,-y,1/2+z
1/2+x,1/2+y,z
1/2-x,1/2+y,1/2-z
1/2-x,1/2-y,-z
1/2+x,1/2-y,1/2+z
loop_
_atom_site_type_symbol
_atom_site_label
_atom_site_fract_x
_atom_site_fract_y
_atom_site_fract_z
Si Si1 0.121632 0.874755 0.204466
Si Si2 0.193942 0.908770 0.725735
Si Si3 0.806473 0.784711 0.477586
Si Si4 0.462441 0.443286 0.871662
Si Si5 0.233274 0.375842 0.421277
Si Si6 0.259281 0.531511 0.602650
Si Si7 0.379088 0.556844 0.421424
Si Si8 0.038726 0.875747 0.256121
O O1 0.124659 0.908374 0.390225
O O2 0.079994 0.837666 0.209106
O O3 0.154928 0.813043 0.134273
O O4 0.124511 0.956878 0.087541
O O5 0.196671 0.831440 0.844736
O O6 0.223855 0.912771 0.555039
O O7 0.153380 0.911517 0.673287
O O8 0.205696 0.990985 0.822015
O O9 0.799296 0.687674 0.507640
O O10 0.771858 0.822683 0.400339
O O11 0.500000 0.414670 0.750000
O O12 0.462687 0.543364 0.861089
O O13 0.421443 0.420952 0.830698
O O14 0.462707 0.411772 0.057526
O O15 0.238370 0.452026 0.542831
O O16 0.232979 0.417057 0.242931
O O17 0.000000 0.827982 0.250000
#
# Coordination Sequence:
#
# PCOD9254934 Si02
#       8
#     8   8   8   8   8   8   8   8
#     4  10  18  26  37  53  76 103 132 165 196 224
#     4  10  17  25  40  58  75  98 129 161 190 224
#     4  10  19  28  40  60  81  99 123 161 197 221
#     4   9  16  23  32  47  67  93 130 170 192 209
#     4   9  18  31  44  58  77 100 127 157 191 227
#     4   9  17  30  44  56  73  99 129 155 186 231
#     4  10  17  25  37  52  73 104 136 163 193 223
#     4   9  16  24  34  48  67  96 130 161 192 222
#
# _framework density 13.695883
#
# number of rings (size 3 to 8) (size 9 to 14) (size 15 to 20)
#    0.000    2.500    0.000    6.000    0.000    3.500 
#    0.000    2.500    0.000    0.000    0.000    0.000 
#    0.000    0.000    0.000    1.125    0.000    0.500 
#
# Total GULP energy -178194.685506 kJ/mol
# GULP energy per Si atom -5568.583922 kJ/mol
# Density = 1.366471 g / cm^3
# Si number density = 13.695883 Si / 1000 Ang^3
#
#
#
# Elastic Constant Matrix: (Units=GPa)
#
#
# Indices 1 2 3 4 5 6 
#
# 1 76.1981 23.8900 28.2537 0.0000 -16.7772 0.0000
# 2 23.8900 38.8213 25.5019 0.0000 -12.5088 0.0000
# 3 28.2537 25.5019 65.7471 0.0000 -11.7684 0.0000
# 4 0.0000 0.0000 0.0000 9.8851 0.0000 -5.0648
# 5 -16.7772 -12.5088 -11.7684 0.0000 20.7911 0.0000
# 6 0.0000 0.0000 0.0000 -5.0648 0.0000 10.6659
#
#
#
# Elastic Compliance Matrix: (Units=1/GPa)
#
#
# Indices 1 2 3 4 5 6 
#
# 1 0.018439 -0.005736 -0.004065 0.000000 0.009127 0.000000
# 2 -0.005736 0.040920 -0.010937 0.000000 0.013800 0.000000
# 3 -0.004065 -0.010937 0.021625 0.000000 0.002380 0.000000
# 4 0.000000 0.000000 0.000000 0.133689 0.000000 0.063483
# 5 0.009127 0.013800 0.002380 0.000000 0.065112 0.000000
# 6 0.000000 0.000000 0.000000 0.063483 0.000000 0.123902
#
#
# Mechanical properties :
#
#
# Convention : Reuss Voigt Hill
#
# Bulk Modulus (GPa) = 25.31142 37.33974 31.32558
# Shear Modulus (GPa) = 10.90913 15.14316 13.02615
#
# Velocity S-wave (km/s) = 2.82534 3.32877 3.08734
# Velocity P-wave (km/s) = 5.40042 6.48822 5.96915
#
# Compressibility (1/GPa) = 0.03950786
#
# Stress axis : x y z
#
# Youngs Moduli (GPa) = 54.23291 24.43810 46.24272
#
# Poissons Ratio (x) = 0.14017 0.18800
# Poissons Ratio (y) = 0.31106 0.50575
# Poissons Ratio (z) = 0.22048 0.26728
#
# Static dielectric constant tensor:
#      x y z
#    x 1.500240 0.000000 -0.001750 
#    y 0.000000 1.414630 0.000000 
#    z -0.001750 0.000000 1.490760 
# 
# From -- ./inp_files/70305.got.cif
#   From: 2010.05.17/outbox.cif.g08.bks.cpg/sg15_36_cif.got.tgz:70305.got - 2010.06.03 18:47:42.
