data_PCOD9254837
_publ_section_title
;
Structure prediction by ZEFSAII (Michael W. Deem and Ramdas Pophale) SiO2 
 PCOD9254837
Probable space group: C 2/C
;
_chemical_formula_sum "Si O2"
_cell_formula_units_Z 52
_cell_length_a 31.241684
_cell_length_b 15.120925
_cell_length_c 18.756359
_cell_angle_alpha 90.000000
_cell_angle_beta 161.201256
_cell_angle_gamma 90.000000
_cell_volume 2855.271710
_symmetry_space_group_name_H-M "C 2/C"
_symmetry_group_IT_number 15
_symmetry_cell_setting 'monoclinic'
loop_
_space_group_symop_operation_xyz
x,y,z
-x,y,1/2-z
-x,-y,-z
x,-y,1/2+z
1/2+x,1/2+y,z
1/2-x,1/2+y,1/2-z
1/2-x,1/2-y,-z
1/2+x,1/2-y,1/2+z
loop_
_atom_site_type_symbol
_atom_site_label
_atom_site_fract_x
_atom_site_fract_y
_atom_site_fract_z
Si Si1 0.855094 0.045604 0.654755
Si Si2 0.221095 0.097463 0.351497
Si Si3 0.500000 0.066080 0.750000
Si Si4 0.108893 0.377844 0.683773
Si Si5 0.448911 0.676673 0.929051
Si Si6 0.092980 0.522667 0.540135
Si Si7 0.627279 0.535189 0.577230
O O1 0.749608 0.089026 0.436108
O O2 0.897356 0.117849 0.781091
O O3 0.788525 0.964550 0.593720
O O4 0.989338 0.006038 0.831913
O O5 0.371886 0.121734 0.572071
O O6 0.173989 0.034205 0.212182
O O7 0.109590 0.172390 0.181307
O O8 0.459665 0.003187 0.620769
O O9 0.105474 0.274749 0.661948
O O10 0.078443 0.436012 0.566254
O O11 0.996938 0.402438 0.565705
O O12 0.403757 0.624883 0.928802
O O13 0.248764 0.545646 0.779589
#
# Coordination Sequence:
#
# PCOD9254837 Si02
#       7
#     8   8   4   8   8   8   8
#     4   9  16  33  59  81 111 150 179 230 292 346
#     4   8  15  30  58  79 102 149 194 219 270 342
#     4  10  16  36  60  74  98 156 212 218 260 362
#     4  11  21  35  56  87 119 140 188 243 298 319
#     4   9  18  34  56  86 117 144 181 241 288 344
#     4  10  22  36  56  77 113 155 187 237 283 344
#     4   8  17  35  56  78 109 155 192 212 278 355
#
# _framework density 18.211925999999998
#
# number of rings (size 3 to 8) (size 9 to 14) (size 15 to 20)
#    0.000    2.769    1.538    2.308    0.000    0.615 
#    8.308    0.769    3.385    0.000    0.000    0.000 
#    0.000    0.000    0.000    0.000    0.000    0.000 
#
# Total GULP energy -144914.762925 kJ/mol
# GULP energy per Si atom -5573.644728 kJ/mol
# Density = 1.817047 g / cm^3
# Si number density = 18.211926 Si / 1000 Ang^3
#
#
#
# Elastic Constant Matrix: (Units=GPa)
#
#
# Indices 1 2 3 4 5 6 
#
# 1 66.8184 22.3634 39.6976 0.0000 20.3219 0.0000
# 2 22.3634 61.6223 43.1828 0.0000 -14.8701 0.0000
# 3 39.6976 43.1828 116.5213 0.0000 28.6529 0.0000
# 4 0.0000 0.0000 0.0000 108.1195 0.0000 19.4573
# 5 20.3219 -14.8701 28.6529 0.0000 21.9451 0.0000
# 6 0.0000 0.0000 0.0000 19.4573 0.0000 13.7520
#
#
#
# Elastic Compliance Matrix: (Units=1/GPa)
#
#
# Indices 1 2 3 4 5 6 
#
# 1 -0.003538 0.045187 -0.035167 0.000000 0.079812 0.000000
# 2 0.045187 -0.080490 0.056171 0.000000 -0.169726 0.000000
# 3 -0.035167 0.056171 -0.025954 0.000000 0.104515 0.000000
# 4 0.000000 0.000000 0.000000 0.012408 0.000000 -0.017556
# 5 0.079812 -0.169726 0.104515 0.000000 -0.279809 0.000000
# 6 0.000000 0.000000 0.000000 -0.017556 0.000000 0.097557
#
#
# Mechanical properties :
#
#
# Convention : Reuss Voigt Hill
#
# Bulk Modulus (GPa) = 44.64364 50.60551 47.62457
# Shear Modulus (GPa) = -12.35351 38.07788 12.86218
#
# Velocity S-wave (km/s) = -2.60728 4.57751 2.66042
# Velocity P-wave (km/s) = 3.93735 7.46897 5.97027
#
# Compressibility (1/GPa) = 0.02239961
#
# Stress axis : x y z
#
# Youngs Moduli (GPa) = -282.62185 -12.42384 -38.52907
#
# Poissons Ratio (x) = 0.56140 -1.35494
# Poissons Ratio (y) = 12.77088 2.16422
# Poissons Ratio (z) = -9.93891 0.69786
#
# Static dielectric constant tensor:
#      x y z
#    x 1.629090 0.000000 0.019890 
#    y 0.000000 1.570020 0.000000 
#    z 0.019890 0.000000 1.668020 
# 
# From -- ./inp_files/145130.got.cif
#   From: 2010.05.17/outbox.cif.g08.bks.cpg/sg15_73_cif.got.tgz:145130.got - 2010.06.03 18:47:42.
