data_PCOD9254448
_publ_section_title
;
Structure prediction by ZEFSAII (Michael W. Deem and Ramdas Pophale) SiO2 
 PCOD9254448
Probable space group: C 2/C
;
_chemical_formula_sum "Si O2"
_cell_formula_units_Z 48
_cell_length_a 19.390029
_cell_length_b 6.959366
_cell_length_c 17.158430
_cell_angle_alpha 90.000000
_cell_angle_beta 132.710586
_cell_angle_gamma 90.000000
_cell_volume 1701.329756
_symmetry_space_group_name_H-M "C 2/C"
_symmetry_group_IT_number 15
_symmetry_cell_setting 'monoclinic'
loop_
_space_group_symop_operation_xyz
x,y,z
-x,y,1/2-z
-x,-y,-z
x,-y,1/2+z
1/2+x,1/2+y,z
1/2-x,1/2+y,1/2-z
1/2-x,1/2-y,-z
1/2+x,1/2-y,1/2+z
loop_
_atom_site_type_symbol
_atom_site_label
_atom_site_fract_x
_atom_site_fract_y
_atom_site_fract_z
Si Si1 0.164706 0.165679 0.287448
Si Si2 0.204861 0.542972 0.235734
Si Si3 0.238279 0.994412 0.053055
Si Si4 0.539570 0.650958 0.388642
Si Si5 0.978722 0.284706 0.955059
Si Si6 0.928166 0.603172 0.125091
O O1 0.153701 0.342469 0.216679
O O2 0.234677 0.028258 0.295834
O O3 0.220256 0.279490 0.396571
O O4 0.060966 0.092176 0.223845
O O5 0.262386 0.579182 0.359081
O O6 0.126704 0.701673 0.159266
O O7 0.319741 0.104028 0.068388
O O8 0.134480 0.962484 0.941636
O O9 0.525300 0.652568 0.471708
O O10 0.553122 0.876052 0.377353
O O11 0.045492 0.274859 0.931085
O O12 0.000000 0.500000 0.000000
O O13 0.000000 0.652583 0.250000
#
# Coordination Sequence:
#
# PCOD9254448 Si02
#       6
#     8   8   8   8   8   8
#     4  10  20  33  55  79 112 140 191 225 278 332
#     4  10  18  34  53  78 111 142 184 231 273 330
#     4  10  20  32  51  83 111 139 182 237 283 313
#     4  11  20  33  54  82 112 146 184 233 286 338
#     4  10  16  30  55  76 105 140 192 216 269 338
#     4  11  17  31  52  83 110 141 183 240 273 327
#
# _framework density 28.213228000000001
#
# number of rings (size 3 to 8) (size 9 to 14) (size 15 to 20)
#    1.000    0.667    8.333    0.500    0.000    0.667 
#    0.000    0.000    0.000    1.000    0.000    9.333 
#    0.000    0.000    0.000    0.000    0.000    0.000 
#
# Total GULP energy -134403.643309 kJ/mol
# GULP energy per Si atom -5600.151805 kJ/mol
# Density = 2.814901 g / cm^3
# Si number density = 28.213228 Si / 1000 Ang^3
#
#
#
# Elastic Constant Matrix: (Units=GPa)
#
#
# Indices 1 2 3 4 5 6 
#
# 1 207.8793 48.5718 87.6090 0.0000 21.6762 0.0000
# 2 48.5718 64.2435 29.7982 0.0000 6.4049 0.0000
# 3 87.6090 29.7982 185.7962 0.0000 22.2461 0.0000
# 4 0.0000 0.0000 0.0000 29.7360 0.0000 3.3627
# 5 21.6762 6.4049 22.2461 0.0000 61.7738 0.0000
# 6 0.0000 0.0000 0.0000 3.3627 0.0000 64.2681
#
#
#
# Elastic Compliance Matrix: (Units=1/GPa)
#
#
# Indices 1 2 3 4 5 6 
#
# 1 0.006897 -0.003951 -0.002485 0.000000 -0.001116 0.000000
# 2 -0.003951 0.019118 -0.001183 0.000000 -0.000170 0.000000
# 3 -0.002485 -0.001183 0.006923 0.000000 -0.001499 0.000000
# 4 0.000000 0.000000 0.000000 0.033829 0.000000 -0.001770
# 5 -0.001116 -0.000170 -0.001499 0.000000 0.017137 0.000000
# 6 0.000000 0.000000 0.000000 -0.001770 0.000000 0.015652
#
#
# Mechanical properties :
#
#
# Convention : Reuss Voigt Hill
#
# Bulk Modulus (GPa) = 56.49329 87.76411 72.12870
# Shear Modulus (GPa) = 41.42648 50.61824 46.02236
#
# Velocity S-wave (km/s) = 3.83604 4.24031 4.04323
# Velocity P-wave (km/s) = 6.29980 7.42621 6.88608
#
# Compressibility (1/GPa) = 0.01770122
#
# Stress axis : x y z
#
# Youngs Moduli (GPa) = 144.98524 52.30540 144.44245
#
# Poissons Ratio (x) = 0.20665 0.35895
# Poissons Ratio (y) = 0.57281 0.17087
# Poissons Ratio (z) = 0.36030 0.06187
#
# Static dielectric constant tensor:
#      x y z
#    x 2.225200 0.000000 -0.029980 
#    y 0.000000 2.243950 0.000000 
#    z -0.029980 0.000000 2.152670 
# 
# From -- ./inp_files/210454.got.cif
#   From: 2010.05.17/outbox.cif.g08.bks.cpg/sg15_106_cif.got.tgz:210454.got - 2010.06.03 18:47:42.
