data_PCOD9254174
_publ_section_title
;
Structure prediction by ZEFSAII (Michael W. Deem and Ramdas Pophale) SiO2 
 PCOD9254174
Probable space group: C 2/C
;
_chemical_formula_sum "Si O2"
_cell_formula_units_Z 40
_cell_length_a 13.637364
_cell_length_b 4.953609
_cell_length_c 22.504971
_cell_angle_alpha 90.000000
_cell_angle_beta 73.781185
_cell_angle_gamma 90.000000
_cell_volume 1459.799559
_symmetry_space_group_name_H-M "C 2/C"
_symmetry_group_IT_number 15
_symmetry_cell_setting 'monoclinic'
loop_
_space_group_symop_operation_xyz
x,y,z
-x,y,1/2-z
-x,-y,-z
x,-y,1/2+z
1/2+x,1/2+y,z
1/2-x,1/2+y,1/2-z
1/2-x,1/2-y,-z
1/2+x,1/2-y,1/2+z
loop_
_atom_site_type_symbol
_atom_site_label
_atom_site_fract_x
_atom_site_fract_y
_atom_site_fract_z
Si Si1 0.160523 0.745839 0.669914
Si Si2 0.514407 0.614605 0.931970
Si Si3 0.284308 0.499318 0.953789
Si Si4 0.120743 0.740414 0.245252
Si Si5 0.443055 0.877815 0.140089
O O1 0.184683 0.448753 0.689738
O O2 0.048327 0.686631 0.658836
O O3 0.235386 0.883604 0.609282
O O4 0.148960 0.950672 0.727408
O O5 0.401979 0.576228 0.924772
O O6 0.586207 0.410827 0.882563
O O7 0.535967 0.928321 0.920067
O O8 0.500000 0.500000 0.000000
O O9 0.250000 0.750000 0.000000
O O10 0.250000 0.250000 0.000000
O O11 0.122179 0.572216 0.306138
O O12 0.000000 0.740101 0.250000
#
# Coordination Sequence:
#
# PCOD9254174 Si02
#       5
#     8   8   8   8   8
#     4  10  18  29  47  75 106 134 169 217 269 315
#     4  11  22  37  55  80 111 146 182 220 264 320
#     4  11  21  35  53  78 108 141 178 221 264 316
#     4  10  16  27  47  74 105 134 163 216 278 315
#     4  10  19  32  51  79 110 139 175 224 272 320
#
# _framework density 27.401019999999999
#
# number of rings (size 3 to 8) (size 9 to 14) (size 15 to 20)
#    0.000    1.600    0.000   12.000    0.000    0.000 
#    0.000    0.000    0.000    0.000    0.000   28.000 
#    0.000    0.000    0.000    0.000    0.000    0.000 
#
# Total GULP energy -111661.927067 kJ/mol
# GULP energy per Si atom -5583.096353 kJ/mol
# Density = 2.733865 g / cm^3
# Si number density = 27.401020 Si / 1000 Ang^3
#
#
#
# Elastic Constant Matrix: (Units=GPa)
#
#
# Indices 1 2 3 4 5 6 
#
# 1 83.6751 4.5366 13.8733 -0.0003 -12.1092 -0.0014
# 2 4.5366 228.5290 40.6631 -0.0009 -6.8123 -0.0030
# 3 13.8733 40.6631 118.3474 0.0004 2.2790 0.0001
# 4 -0.0003 -0.0009 0.0004 76.5435 0.0002 7.4675
# 5 -12.1092 -6.8123 2.2790 0.0002 40.3105 -0.0002
# 6 -0.0014 -0.0030 0.0001 7.4675 -0.0002 -6.5766
#
#
#
# Elastic Compliance Matrix: (Units=1/GPa)
#
#
# Indices 1 2 3 4 5 6 
#
# 1 0.012785 0.000154 -0.001628 0.000000 0.003959 -0.000003
# 2 0.000154 0.004694 -0.001649 0.000000 0.000933 -0.000002
# 3 -0.001628 -0.001649 0.009232 0.000000 -0.001290 0.000001
# 4 0.000000 0.000000 0.000000 0.011762 0.000000 0.013355
# 5 0.003959 0.000933 -0.001290 0.000000 0.026227 -0.000002
# 6 -0.000003 -0.000002 0.000001 0.013355 -0.000002 -0.136890
#
#
# Mechanical properties :
#
#
# Convention : Reuss Voigt Hill
#
# Bulk Modulus (GPa) = 48.86239 60.96639 54.91439
# Shear Modulus (GPa) = -84.57074 46.82071 -18.87502
#
# Velocity S-wave (km/s) = -5.56157 4.13815 -2.62743
# Velocity P-wave (km/s) = 4.83430 6.71792 3.29848
#
# Compressibility (1/GPa) = 0.02046564
#
# Stress axis : x y z
#
# Youngs Moduli (GPa) = 78.21395 213.04078 108.32037
#
# Poissons Ratio (x) = -0.03278 0.17633
# Poissons Ratio (y) = -0.01203 0.17860
# Poissons Ratio (z) = 0.12732 0.35126
#
# Static dielectric constant tensor:
#      x y z
#    x 2.236510 0.000000 0.080390 
#    y 0.000000 2.086000 0.000000 
#    z 0.080390 0.000000 2.245660 
# 
# From -- ./inp_files/275581.got.cif
#   From: 2010.05.17/outbox.cif.g08.bks.cpg/sg15_138_cif.got.tgz:275581.got - 2010.06.03 18:47:42.
