data_PCOD9254132
_publ_section_title
;
Structure prediction by ZEFSAII (Michael W. Deem and Ramdas Pophale) SiO2 
 PCOD9254132
Probable space group: C 2/C
;
_chemical_formula_sum "Si O2"
_cell_formula_units_Z 40
_cell_length_a 22.931656
_cell_length_b 7.980868
_cell_length_c 20.300109
_cell_angle_alpha 90.000000
_cell_angle_beta 157.033042
_cell_angle_gamma 90.000000
_cell_volume 1449.677577
_symmetry_space_group_name_H-M "C 2/C"
_symmetry_group_IT_number 15
_symmetry_cell_setting 'monoclinic'
loop_
_space_group_symop_operation_xyz
x,y,z
-x,y,1/2-z
-x,-y,-z
x,-y,1/2+z
1/2+x,1/2+y,z
1/2-x,1/2+y,1/2-z
1/2-x,1/2-y,-z
1/2+x,1/2-y,1/2+z
loop_
_atom_site_type_symbol
_atom_site_label
_atom_site_fract_x
_atom_site_fract_y
_atom_site_fract_z
Si Si1 0.509225 0.204793 0.548233
Si Si2 0.257318 0.927683 0.100619
Si Si3 0.305961 0.942465 0.006148
Si Si4 0.174026 0.594609 0.601000
Si Si5 0.520804 0.457088 0.134818
O O1 0.631225 0.118424 0.724329
O O2 0.365610 0.083099 0.403968
O O3 0.479197 0.384660 0.546167
O O4 0.587717 0.217169 0.558851
O O5 0.173675 0.751696 0.993981
O O6 0.336329 0.970578 0.113699
O O7 0.140302 0.072044 0.999619
O O8 0.383513 0.059752 0.032557
O O9 0.129925 0.979550 0.808140
O O10 0.347049 0.632166 0.769885
#
# Coordination Sequence:
#
# PCOD9254132 Si02
#       5
#     8   8   8   8   8
#     4  10  17  29  42  62  89 123 146 177 216 268
#     4  10  16  26  47  63  87 116 148 175 221 267
#     4   8  17  27  41  65  91 114 139 179 225 261
#     4   9  19  29  40  61  95 118 146 178 221 258
#     4   9  16  30  43  64  86 118 144 180 217 261
#
# _framework density 27.592343
#
# number of rings (size 3 to 8) (size 9 to 14) (size 15 to 20)
#    1.200    1.600    2.000    0.600    0.000    1.600 
#    0.000    0.000    0.000    0.000    0.000    1.400 
#    0.000    0.800    0.000    0.400    0.000    0.000 
#
# Total GULP energy -111694.345894 kJ/mol
# GULP energy per Si atom -5584.717295 kJ/mol
# Density = 2.752954 g / cm^3
# Si number density = 27.592343 Si / 1000 Ang^3
#
#
#
# Elastic Constant Matrix: (Units=GPa)
#
#
# Indices 1 2 3 4 5 6 
#
# 1 251.2775 37.1253 58.7041 0.0001 -11.2337 0.0000
# 2 37.1253 65.5559 25.4630 0.0004 17.0106 0.0002
# 3 58.7041 25.4630 120.0169 0.0003 11.3851 0.0002
# 4 0.0001 0.0004 0.0003 31.6536 0.0002 11.0371
# 5 -11.2337 17.0106 11.3851 0.0002 35.7018 0.0001
# 6 0.0000 0.0002 0.0002 11.0371 0.0001 36.3179
#
#
#
# Elastic Compliance Matrix: (Units=1/GPa)
#
#
# Indices 1 2 3 4 5 6 
#
# 1 0.005109 -0.003004 -0.002217 0.000000 0.003746 0.000000
# 2 -0.003004 0.020285 -0.001885 0.000000 -0.010009 0.000000
# 3 -0.002217 -0.001885 0.010103 0.000000 -0.003021 0.000000
# 4 0.000000 0.000000 0.000000 0.035336 0.000000 -0.010739
# 5 0.003746 -0.010009 -0.003021 0.000000 0.034921 0.000000
# 6 0.000000 0.000000 0.000000 -0.010739 0.000000 0.030798
#
#
# Mechanical properties :
#
#
# Convention : Reuss Voigt Hill
#
# Bulk Modulus (GPa) = 46.98135 75.49279 61.23707
# Shear Modulus (GPa) = 31.67392 41.77186 36.72289
#
# Velocity S-wave (km/s) = 3.39178 3.89510 3.65212
# Velocity P-wave (km/s) = 5.69235 6.90279 6.32658
#
# Compressibility (1/GPa) = 0.02128504
#
# Stress axis : x y z
#
# Youngs Moduli (GPa) = 195.73712 49.29824 98.98061
#
# Poissons Ratio (x) = 0.14810 0.21943
# Poissons Ratio (y) = 0.58802 0.18655
# Poissons Ratio (z) = 0.43393 0.09291
#
# Static dielectric constant tensor:
#      x y z
#    x 2.142950 0.000000 -0.012290 
#    y 0.000000 2.230540 0.000000 
#    z -0.012290 0.000000 2.129310 
# 
# From -- ./inp_files/104742.got.cif
#   From: 2010.05.17/outbox.cif.g08.bks.cpg/sg15_53_cif.got.tgz:104742.got - 2010.06.03 18:47:42.
