data_PCOD9254372
_publ_section_title
;
Structure prediction by ZEFSAII (Michael W. Deem and Ramdas Pophale) SiO2 
 PCOD9254372
Probable space group: C 2/C
;
_chemical_formula_sum "Si O2"
_cell_formula_units_Z 56
_cell_length_a 7.567231
_cell_length_b 26.571571
_cell_length_c 12.120092
_cell_angle_alpha 90.000000
_cell_angle_beta 63.811090
_cell_angle_gamma 90.000000
_cell_volume 2186.850082
_symmetry_space_group_name_H-M "C 2/C"
_symmetry_group_IT_number 15
_symmetry_cell_setting 'monoclinic'
loop_
_space_group_symop_operation_xyz
x,y,z
-x,y,1/2-z
-x,-y,-z
x,-y,1/2+z
1/2+x,1/2+y,z
1/2-x,1/2+y,1/2-z
1/2-x,1/2-y,-z
1/2+x,1/2-y,1/2+z
loop_
_atom_site_type_symbol
_atom_site_label
_atom_site_fract_x
_atom_site_fract_y
_atom_site_fract_z
Si Si1 0.665446 0.798211 0.301554
Si Si2 0.569321 0.308423 0.855908
Si Si3 0.686453 0.593341 0.447947
Si Si4 0.355294 0.158735 0.014247
Si Si5 0.737159 0.429450 0.697492
Si Si6 0.734959 0.537613 0.652145
Si Si7 0.735846 0.604438 0.842449
O O1 0.500000 0.794389 0.250000
O O2 0.713042 0.739535 0.304486
O O3 0.555092 0.810599 0.447273
O O4 0.800674 0.844638 0.223392
O O5 0.500000 0.320771 0.750000
O O6 0.676149 0.350013 0.901660
O O7 0.339679 0.307505 0.961959
O O8 0.766349 0.563757 0.320180
O O9 0.777251 0.573315 0.536273
O O10 0.456492 0.585014 0.540018
O O11 0.331839 0.121613 0.123980
O O12 0.370041 0.122498 0.904500
O O13 0.500000 0.424608 0.750000
O O14 0.794898 0.480107 0.618587
O O15 0.500000 0.537539 0.750000
O O16 0.813588 0.562022 0.741323
#
# Coordination Sequence:
#
# PCOD9254372 Si02
#       7
#     8   8   8   8   8   8   8
#     4   9  19  30  50  73 100 136 165 198 252 293
#     4  10  16  30  49  78 103 124 160 212 252 284
#     4  10  18  33  49  76 104 125 163 211 251 297
#     4  10  17  30  50  76 102 125 164 208 246 294
#     4  11  18  30  50  79  98 126 158 213 262 290
#     4   9  21  30  51  72  99 133 162 204 251 296
#     4   9  18  34  47  71 103 131 164 203 239 303
#
# _framework density 25.607607999999999
#
# number of rings (size 3 to 8) (size 9 to 14) (size 15 to 20)
#    0.000    2.286    4.286    0.429    2.000    2.857 
#    0.000    1.429    0.000    0.857    0.000    0.000 
#    0.000    0.000    0.000    0.000    0.000    0.000 
#
# Total GULP energy -155939.613406 kJ/mol
# GULP energy per Si atom -5569.271907 kJ/mol
# Density = 2.554932 g / cm^3
# Si number density = 25.607608 Si / 1000 Ang^3
#
#
#
# Elastic Constant Matrix: (Units=GPa)
#
#
# Indices 1 2 3 4 5 6 
#
# 1 44.3726 4.5635 13.9892 0.0000 -6.7025 0.0000
# 2 4.5635 98.5498 49.1552 0.0000 11.4092 0.0000
# 3 13.9892 49.1552 118.5148 0.0000 18.6330 0.0000
# 4 0.0000 0.0000 0.0000 -11.7061 0.0000 27.4997
# 5 -6.7025 11.4092 18.6330 0.0000 34.6258 0.0000
# 6 0.0000 0.0000 0.0000 27.4997 0.0000 -5.8787
#
#
#
# Elastic Compliance Matrix: (Units=1/GPa)
#
#
# Indices 1 2 3 4 5 6 
#
# 1 0.024863 0.000066 -0.004059 0.000000 0.006975 0.000000
# 2 0.000066 0.012864 -0.005111 0.000000 -0.001476 0.000000
# 3 -0.004059 -0.005111 0.011903 0.000000 -0.005506 0.000000
# 4 0.000000 0.000000 0.000000 0.008552 0.000000 0.040004
# 5 0.006975 -0.001476 -0.005506 0.000000 0.033680 0.000000
# 6 0.000000 0.000000 0.000000 0.040004 0.000000 0.017029
#
#
# Mechanical properties :
#
#
# Convention : Reuss Voigt Hill
#
# Bulk Modulus (GPa) = 31.82589 44.09479 37.96034
# Shear Modulus (GPa) = 36.34436 16.32348 26.33392
#
# Velocity S-wave (km/s) = 3.77142 2.52751 3.21029
# Velocity P-wave (km/s) = 5.60536 5.07686 5.34765
#
# Compressibility (1/GPa) = 0.03142096
#
# Stress axis : x y z
#
# Youngs Moduli (GPa) = 40.22070 77.73365 84.01562
#
# Poissons Ratio (x) = -0.00509 0.34098
# Poissons Ratio (y) = -0.00263 0.42944
# Poissons Ratio (z) = 0.16324 0.39733
#
# Static dielectric constant tensor:
#      x y z
#    x 2.178830 0.000000 -0.123690 
#    y 0.000000 2.149060 0.000000 
#    z -0.123690 0.000000 2.127100 
# 
# From -- ./inp_files/90697.got.cif
#   From: 2010.05.17/outbox.cif.g08.bks.cpg/sg15_46_cif.got.tgz:90697.got - 2010.06.03 18:47:42.
