data_PCOD9254177
_publ_section_title
;
Structure prediction by ZEFSAII (Michael W. Deem and Ramdas Pophale) SiO2 
 PCOD9254177
Probable space group: C 2/C
;
_chemical_formula_sum "Si O2"
_cell_formula_units_Z 64
_cell_length_a 10.758169
_cell_length_b 14.199458
_cell_length_c 23.068975
_cell_angle_alpha 90.000000
_cell_angle_beta 47.568696
_cell_angle_gamma 90.000000
_cell_volume 2601.033097
_symmetry_space_group_name_H-M "C 2/C"
_symmetry_group_IT_number 15
_symmetry_cell_setting 'monoclinic'
loop_
_space_group_symop_operation_xyz
x,y,z
-x,y,1/2-z
-x,-y,-z
x,-y,1/2+z
1/2+x,1/2+y,z
1/2-x,1/2+y,1/2-z
1/2-x,1/2-y,-z
1/2+x,1/2-y,1/2+z
loop_
_atom_site_type_symbol
_atom_site_label
_atom_site_fract_x
_atom_site_fract_y
_atom_site_fract_z
Si Si1 0.199475 0.225762 0.190338
Si Si2 0.666429 0.603696 0.571451
Si Si3 0.382366 0.407477 0.077713
Si Si4 0.994667 0.214327 0.059649
Si Si5 0.129547 0.503727 0.069855
Si Si6 0.563735 0.270752 0.290827
Si Si7 0.767818 0.860773 0.931403
Si Si8 0.206784 0.402506 0.344583
O O1 0.277850 0.323171 0.140732
O O2 0.294716 0.212513 0.220702
O O3 0.239243 0.139826 0.134905
O O4 0.000000 0.237415 0.250000
O O5 0.510190 0.555030 0.586537
O O6 0.820346 0.602658 0.476536
O O7 0.586494 0.703155 0.617718
O O8 0.723053 0.562339 0.615847
O O9 0.511794 0.364454 0.988355
O O10 0.245483 0.472490 0.087663
O O11 0.868897 0.298849 0.113816
O O12 0.048689 0.164880 0.102184
O O13 0.152976 0.271826 0.984496
O O14 0.192301 0.439750 0.995944
O O15 0.937787 0.468861 0.136583
O O16 0.500000 0.228661 0.250000
O O17 0.649071 0.370968 0.245293
#
# Coordination Sequence:
#
# PCOD9254177 Si02
#       8
#     8   8   8   8   8   8   8   8
#     4  10  16  27  48  72  93 117 157 196 234 280
#     4  10  20  31  46  71  99 127 157 187 231 282
#     4   9  18  30  47  72  97 121 153 196 236 275
#     4   8  14  27  46  68  92 114 145 192 235 264
#     4  10  18  32  50  68  95 127 160 191 226 275
#     4   9  19  32  45  66  97 125 151 192 240 281
#     4   8  15  26  44  70  93 114 147 192 230 263
#     4  10  18  31  50  67  89 124 160 196 233 275
#
# _framework density 24.605608
#
# number of rings (size 3 to 8) (size 9 to 14) (size 15 to 20)
#    0.000    2.750    0.000    4.500    0.000    0.500 
#    0.000    3.125    0.000    0.000    0.000    3.500 
#    0.000    9.000    0.000    0.000    0.000    0.000 
#
# Total GULP energy -178226.267046 kJ/mol
# GULP energy per Si atom -5569.570845 kJ/mol
# Density = 2.454960 g / cm^3
# Si number density = 24.605608 Si / 1000 Ang^3
#
#
#
# Elastic Constant Matrix: (Units=GPa)
#
#
# Indices 1 2 3 4 5 6 
#
# 1 169.1225 34.9540 29.1286 0.0001 18.9515 -0.0001
# 2 34.9540 46.9687 16.4698 0.0001 -0.4231 0.0000
# 3 29.1286 16.4698 44.5510 0.0001 -0.4710 -0.0001
# 4 0.0001 0.0001 0.0001 25.2728 -0.0001 5.8779
# 5 18.9515 -0.4231 -0.4710 -0.0001 35.8589 0.0001
# 6 -0.0001 0.0000 -0.0001 5.8779 0.0001 7.1963
#
#
#
# Elastic Compliance Matrix: (Units=1/GPa)
#
#
# Indices 1 2 3 4 5 6 
#
# 1 0.007983 -0.004749 -0.003510 0.000000 -0.004321 0.000000
# 2 -0.004749 0.027288 -0.006954 0.000000 0.002741 0.000000
# 3 -0.003510 -0.006954 0.027334 0.000000 0.002132 0.000000
# 4 0.000000 0.000000 0.000000 0.048848 0.000000 -0.039898
# 5 -0.004321 0.002741 0.002132 0.000000 0.030231 0.000000
# 6 0.000000 0.000000 0.000000 -0.039898 0.000000 0.171549
#
#
# Mechanical properties :
#
#
# Convention : Reuss Voigt Hill
#
# Bulk Modulus (GPa) = 31.07512 46.86078 38.96795
# Shear Modulus (GPa) = 14.10892 25.67161 19.89027
#
# Velocity S-wave (km/s) = 2.39718 3.23356 2.84626
# Velocity P-wave (km/s) = 4.50762 5.74694 5.16459
#
# Compressibility (1/GPa) = 0.03218009
#
# Stress axis : x y z
#
# Youngs Moduli (GPa) = 125.26408 36.64572 36.58442
#
# Poissons Ratio (x) = 0.17404 0.12839
# Poissons Ratio (y) = 0.59492 0.25440
# Poissons Ratio (z) = 0.43961 0.25483
#
# Static dielectric constant tensor:
#      x y z
#    x 2.012830 0.000000 -0.009040 
#    y 0.000000 2.096880 0.000000 
#    z -0.009040 0.000000 1.992750 
# 
# From -- ./inp_files/266094.got.cif
#   From: 2010.05.17/outbox.cif.g08.bks.cpg/sg15_134_cif.got.tgz:266094.got - 2010.06.03 18:47:42.
