data_PCOD9254644
_publ_section_title
;
Structure prediction by ZEFSAII (Michael W. Deem and Ramdas Pophale) SiO2 
 PCOD9254644
Probable space group: C 2/C
;
_chemical_formula_sum "Si O2"
_cell_formula_units_Z 60
_cell_length_a 13.479120
_cell_length_b 15.899034
_cell_length_c 31.630755
_cell_angle_alpha 90.000000
_cell_angle_beta 153.880981
_cell_angle_gamma 90.000000
_cell_volume 2984.204726
_symmetry_space_group_name_H-M "C 2/C"
_symmetry_group_IT_number 15
_symmetry_cell_setting 'monoclinic'
loop_
_space_group_symop_operation_xyz
x,y,z
-x,y,1/2-z
-x,-y,-z
x,-y,1/2+z
1/2+x,1/2+y,z
1/2-x,1/2+y,1/2-z
1/2-x,1/2-y,-z
1/2+x,1/2-y,1/2+z
loop_
_atom_site_type_symbol
_atom_site_label
_atom_site_fract_x
_atom_site_fract_y
_atom_site_fract_z
Si Si1 0.823152 0.882097 0.909944
Si Si2 0.085181 0.859283 0.434344
Si Si3 0.326617 0.597229 0.265777
Si Si4 0.060891 0.467030 0.356343
Si Si5 0.107186 0.057088 0.444696
Si Si6 0.449770 0.219718 0.138927
Si Si7 0.259696 0.822625 0.126304
Si Si8 0.000000 0.837303 0.750000
O O1 0.640967 0.810912 0.850708
O O2 0.890796 0.912839 0.889688
O O3 0.734828 0.963760 0.902427
O O4 0.050452 0.841484 0.015409
O O5 0.294234 0.826546 0.543227
O O6 0.075375 0.814858 0.385230
O O7 0.862191 0.836585 0.375365
O O8 0.101705 0.957677 0.437432
O O9 0.560518 0.593998 0.380859
O O10 0.361766 0.604816 0.229262
O O11 0.164007 0.519564 0.218264
O O12 0.195800 0.682355 0.227916
O O13 0.172685 0.429644 0.441997
O O14 0.061698 0.392031 0.322204
O O15 0.356857 0.729009 0.166760
#
# Coordination Sequence:
#
# PCOD9254644 Si02
#       8
#     8   8   8   8   8   8   8   4
#     4   9  17  32  54  92 121 142 185 241 300 351
#     4  10  16  32  58  86 113 146 197 231 279 349
#     4  11  24  36  55  80 124 156 194 253 298 350
#     4  10  19  34  57  91 119 149 192 243 302 348
#     4  11  19  34  58  88 120 147 194 246 295 338
#     4   9  18  31  54  86 118 152 183 237 287 344
#     4  10  18  31  58  81 111 146 188 247 275 348
#     4  12  26  40  52  84 118 156 208 242 298 356
#
# _framework density 20.105858999999999
#
# number of rings (size 3 to 8) (size 9 to 14) (size 15 to 20)
#    0.000    1.867    6.667    0.800    1.867    2.133 
#    0.000    3.333    0.000    3.200    0.000    0.000 
#    0.000    0.000    0.000    0.000    0.000    0.000 
#
# Total GULP energy -167069.095393 kJ/mol
# GULP energy per Si atom -5568.969846 kJ/mol
# Density = 2.006010 g / cm^3
# Si number density = 20.105859 Si / 1000 Ang^3
#
#
#
# Elastic Constant Matrix: (Units=GPa)
#
#
# Indices 1 2 3 4 5 6 
#
# 1 41.1507 24.9193 16.5092 0.0002 -8.0452 0.0003
# 2 24.9193 39.0239 9.9791 -0.0001 -13.8816 0.0000
# 3 16.5092 9.9791 64.6796 -0.0021 -8.6059 -0.0006
# 4 0.0002 -0.0001 -0.0021 14.9583 0.0000 -5.6201
# 5 -8.0452 -13.8816 -8.6059 0.0000 16.5231 -0.0002
# 6 0.0003 0.0000 -0.0006 -5.6201 -0.0002 26.8739
#
#
#
# Elastic Compliance Matrix: (Units=1/GPa)
#
#
# Indices 1 2 3 4 5 6 
#
# 1 0.042841 -0.027680 -0.007503 -0.000002 -0.006303 -0.000001
# 2 -0.027680 0.054601 0.003171 0.000002 0.034046 0.000001
# 3 -0.007503 0.003171 0.018003 0.000003 0.008387 0.000001
# 4 -0.000002 0.000002 0.000003 0.072553 0.000002 0.015173
# 5 -0.006303 0.034046 0.008387 0.000002 0.090424 0.000001
# 6 -0.000001 0.000001 0.000001 0.015173 0.000001 0.040384
#
#
# Mechanical properties :
#
#
# Convention : Reuss Voigt Hill
#
# Bulk Modulus (GPa) = 19.44762 27.51881 23.48322
# Shear Modulus (GPa) = 12.50096 17.90083 15.20090
#
# Velocity S-wave (km/s) = 2.49621 2.98708 2.75261
# Velocity P-wave (km/s) = 4.24284 5.06098 4.66986
#
# Compressibility (1/GPa) = 0.05142017
#
# Stress axis : x y z
#
# Youngs Moduli (GPa) = 23.34228 18.31474 55.54731
#
# Poissons Ratio (x) = 0.50696 0.41677
# Poissons Ratio (y) = 0.64612 -0.17615
# Poissons Ratio (z) = 0.17514 -0.05808
#
# Static dielectric constant tensor:
#      x y z
#    x 1.748280 0.000000 -0.006040 
#    y 0.000000 1.719400 0.000000 
#    z -0.006040 0.000000 1.801560 
# 
# From -- ./inp_files/311581.got.cif
#   From: 2010.05.17/outbox.cif.g08.bks.cpg/sg15_156_cif.got.tgz:311581.got - 2010.06.03 18:47:42.
