data_PCOD9254414
_publ_section_title
;
Structure prediction by ZEFSAII (Michael W. Deem and Ramdas Pophale) SiO2 
 PCOD9254414
Probable space group: C 2/C
;
_chemical_formula_sum "Si O2"
_cell_formula_units_Z 56
_cell_length_a 16.311097
_cell_length_b 32.986671
_cell_length_c 5.433904
_cell_angle_alpha 90.000000
_cell_angle_beta 124.914730
_cell_angle_gamma 90.000000
_cell_volume 2397.452398
_symmetry_space_group_name_H-M "C 2/C"
_symmetry_group_IT_number 15
_symmetry_cell_setting 'monoclinic'
loop_
_space_group_symop_operation_xyz
x,y,z
-x,y,1/2-z
-x,-y,-z
x,-y,1/2+z
1/2+x,1/2+y,z
1/2-x,1/2+y,1/2-z
1/2-x,1/2-y,-z
1/2+x,1/2-y,1/2+z
loop_
_atom_site_type_symbol
_atom_site_label
_atom_site_fract_x
_atom_site_fract_y
_atom_site_fract_z
Si Si1 0.136754 0.015889 0.308086
Si Si2 0.801722 0.392535 0.658802
Si Si3 0.673706 0.606274 0.440458
Si Si4 0.134463 0.483179 0.828195
Si Si5 0.064743 0.312812 0.612420
Si Si6 0.394052 0.309124 0.799886
Si Si7 0.622832 0.723392 0.723549
O O1 0.126639 0.062075 0.372579
O O2 0.097676 0.989744 0.467288
O O3 0.252145 0.001551 0.469402
O O4 0.747492 0.395803 0.830369
O O5 0.857700 0.435288 0.707397
O O6 0.873157 0.353928 0.795503
O O7 0.728729 0.386865 0.296650
O O8 0.601112 0.643291 0.247797
O O9 0.091499 0.506774 0.521020
O O10 0.128004 0.271517 0.750970
O O11 0.000000 0.314811 0.750000
O O12 0.000000 0.308373 0.250000
O O13 0.335492 0.290776 0.466571
O O14 0.342748 0.299236 0.971266
O O15 0.504170 0.289196 0.003784
#
# Coordination Sequence:
#
# PCOD9254414 Si02
#       7
#     8   8   8   8   8   8   8
#     4  10  16  30  53  76 116 157 179 206 276 358
#     4  12  23  35  58  92 119 143 187 247 288 332
#     4  12  21  35  54  99 121 137 186 242 302 319
#     4  10  16  32  54  76 112 156 179 211 285 342
#     4  12  23  43  66  78 107 157 208 230 273 351
#     4  10  20  35  64  83 114 145 197 235 268 352
#     4  10  19  42  62  77 102 167 200 216 278 340
#
# _framework density 23.358127
#
# number of rings (size 3 to 8) (size 9 to 14) (size 15 to 20)
#    0.000    1.143    8.571    1.714    0.000    0.000 
#    0.000    4.286    0.000    2.571    0.000   12.000 
#    0.000    0.000    0.000    0.000    0.000    0.000 
#
# Total GULP energy -156514.104961 kJ/mol
# GULP energy per Si atom -5589.789463 kJ/mol
# Density = 2.330496 g / cm^3
# Si number density = 23.358127 Si / 1000 Ang^3
#
#
#
# Elastic Constant Matrix: (Units=GPa)
#
#
# Indices 1 2 3 4 5 6 
#
# 1 82.9208 -50.0098 -68.0709 0.0000 -42.6517 0.0000
# 2 -50.0098 -145.6373 -619.7413 0.0000 -134.9708 0.0000
# 3 -68.0709 -619.7413-1162.7253 0.0000 -350.3941 0.0000
# 4 0.0000 0.0000 0.0000 38.5674 0.0000 -4.0140
# 5 -42.6517 -134.9708 -350.3941 0.0000 -27.7125 0.0000
# 6 0.0000 0.0000 0.0000 -4.0140 0.0000 35.4146
#
#
#
# Elastic Compliance Matrix: (Units=1/GPa)
#
#
# Indices 1 2 3 4 5 6 
#
# 1 0.012406 -0.000082 -0.001762 0.000000 0.003581 0.000000
# 2 -0.000082 0.006656 -0.002202 0.000000 -0.004450 0.000000
# 3 -0.001762 -0.002202 0.001292 0.000000 -0.002906 0.000000
# 4 0.000000 0.000000 0.000000 0.026238 0.000000 0.002974
# 5 0.003581 -0.004450 -0.002906 0.000000 0.016817 0.000000
# 6 0.000000 0.000000 0.000000 0.002974 0.000000 0.028574
#
#
# Mechanical properties :
#
#
# Convention : Reuss Voigt Hill
#
# Bulk Modulus (GPa) = 81.54650 -300.12062 -109.28706
# Shear Modulus (GPa) = 48.00147 -23.25408 12.37370
#
# Velocity S-wave (km/s) = 4.53815 -3.15865 2.30410
# Velocity P-wave (km/s) = 7.90234 11.91924 6.30957
#
# Compressibility (1/GPa) = 0.01226294
#
# Stress axis : x y z
#
# Youngs Moduli (GPa) = 80.60648 150.23485 773.70562
#
# Poissons Ratio (x) = 0.01234 1.36304
# Poissons Ratio (y) = 0.00662 1.70372
# Poissons Ratio (z) = 0.14200 0.33082
#
# Static dielectric constant tensor:
#      x y z
#    x 1.930530 0.000000 -0.060390 
#    y 0.000000 1.829660 0.000000 
#    z -0.060390 0.000000 2.250470 
# 
# From -- ./inp_files/12221.got.cif
#   From: 2010.05.17/outbox.cif.g08.bks.cpg/sg15_7_cif.got.tgz:12221.got - 2010.06.03 18:47:42.
