data_PCOD9254732
_publ_section_title
;
Structure prediction by ZEFSAII (Michael W. Deem and Ramdas Pophale) SiO2 
 PCOD9254732
Probable space group: C 2/C
;
_chemical_formula_sum "Si O2"
_cell_formula_units_Z 36
_cell_length_a 18.148115
_cell_length_b 7.203847
_cell_length_c 29.013677
_cell_angle_alpha 90.000000
_cell_angle_beta 158.987228
_cell_angle_gamma 90.000000
_cell_volume 1360.128847
_symmetry_space_group_name_H-M "C 2/C"
_symmetry_group_IT_number 15
_symmetry_cell_setting 'monoclinic'
loop_
_space_group_symop_operation_xyz
x,y,z
-x,y,1/2-z
-x,-y,-z
x,-y,1/2+z
1/2+x,1/2+y,z
1/2-x,1/2+y,1/2-z
1/2-x,1/2-y,-z
1/2+x,1/2-y,1/2+z
loop_
_atom_site_type_symbol
_atom_site_label
_atom_site_fract_x
_atom_site_fract_y
_atom_site_fract_z
Si Si1 0.715337 0.532213 0.515582
Si Si2 0.126865 0.295557 0.588833
Si Si3 0.000000 0.765902 0.750000
Si Si4 0.581957 0.126372 0.445951
Si Si5 0.827921 0.893262 0.842218
O O1 0.870515 0.636222 0.639757
O O2 0.709907 0.314406 0.526964
O O3 0.786251 0.526940 0.503951
O O4 0.486747 0.604393 0.392201
O O5 0.324431 0.370003 0.676713
O O6 0.026403 0.422686 0.569420
O O7 0.945651 0.216239 0.450733
O O8 0.198299 0.105898 0.656423
O O9 0.393014 0.176293 0.301693
#
# Coordination Sequence:
#
# PCOD9254732 Si02
#       5
#     8   8   4   8   8
#     4   9  19  30  53  83 105 135 175 218 267 302
#     4   9  18  30  53  81 105 136 175 221 263 300
#     4  10  16  34  56  82 108 134 174 230 252 308
#     4  10  18  31  52  85 103 136 177 221 260 313
#     4   9  17  33  52  79 109 132 176 226 254 306
#
# _framework density 26.468081999999999
#
# number of rings (size 3 to 8) (size 9 to 14) (size 15 to 20)
#    0.000    2.667    2.222    1.333    0.000    0.000 
#    0.000    4.444    0.000    5.333    5.778    0.000 
#    0.000    0.000    0.000    0.000    0.000    0.000 
#
# Total GULP energy -100872.629635 kJ/mol
# GULP energy per Si atom -5604.034980 kJ/mol
# Density = 2.640784 g / cm^3
# Si number density = 26.468082 Si / 1000 Ang^3
#
#
#
# Elastic Constant Matrix: (Units=GPa)
#
#
# Indices 1 2 3 4 5 6 
#
# 1 223.8925 10.7274 41.9249 -0.0011 32.6036 -0.0004
# 2 10.7274 50.1662 22.6636 -0.0012 -15.1477 0.0001
# 3 41.9249 22.6636 127.9812 0.0071 20.4097 -0.0064
# 4 -0.0011 -0.0012 0.0071 32.2431 0.0010 2.6544
# 5 32.6036 -15.1477 20.4097 0.0010 35.6774 -0.0005
# 6 -0.0004 0.0001 -0.0064 2.6544 -0.0005 37.6028
#
#
#
# Elastic Compliance Matrix: (Units=1/GPa)
#
#
# Indices 1 2 3 4 5 6 
#
# 1 0.005557 -0.002881 -0.000336 0.000000 -0.006109 0.000000
# 2 -0.002881 0.029826 -0.007458 0.000002 0.019563 -0.000001
# 3 -0.000336 -0.007458 0.010674 -0.000003 -0.008966 0.000002
# 4 0.000000 0.000002 -0.000003 0.031196 0.000001 -0.002202
# 5 -0.006109 0.019563 -0.008966 0.000001 0.047047 -0.000001
# 6 0.000000 -0.000001 0.000002 -0.002202 -0.000001 0.026749
#
#
# Mechanical properties :
#
#
# Convention : Reuss Voigt Hill
#
# Bulk Modulus (GPa) = 40.47350 61.40794 50.94072
# Shear Modulus (GPa) = 27.68024 42.88625 35.28325
#
# Velocity S-wave (km/s) = 3.23739 4.02966 3.65506
# Velocity P-wave (km/s) = 5.41284 6.70090 6.09101
#
# Compressibility (1/GPa) = 0.02470753
#
# Stress axis : x y z
#
# Youngs Moduli (GPa) = 179.95162 33.52783 93.68483
#
# Poissons Ratio (x) = 0.09660 0.03147
# Poissons Ratio (y) = 0.51850 0.69866
# Poissons Ratio (z) = 0.06044 0.25004
#
# Static dielectric constant tensor:
#      x y z
#    x 2.171830 0.000000 -0.011660 
#    y 0.000000 2.020290 0.000000 
#    z -0.011660 0.000000 1.975030 
# 
# From -- ./inp_files/94339.got.cif
#   From: 2010.05.17/outbox.cif.g08.bks.cpg/sg15_48_cif.got.tgz:94339.got - 2010.06.03 18:47:42.
