data_PCOD9254016
_publ_section_title
;
Structure prediction by ZEFSAII (Michael W. Deem and Ramdas Pophale) SiO2 
 PCOD9254016
Probable space group: C 2/C
;
_chemical_formula_sum "Si O2"
_cell_formula_units_Z 36
_cell_length_a 18.116213
_cell_length_b 14.057245
_cell_length_c 7.709398
_cell_angle_alpha 90.000000
_cell_angle_beta 133.174593
_cell_angle_gamma 90.000000
_cell_volume 1431.784653
_symmetry_space_group_name_H-M "C 2/C"
_symmetry_group_IT_number 15
_symmetry_cell_setting 'monoclinic'
loop_
_space_group_symop_operation_xyz
x,y,z
-x,y,1/2-z
-x,-y,-z
x,-y,1/2+z
1/2+x,1/2+y,z
1/2-x,1/2+y,1/2-z
1/2-x,1/2-y,-z
1/2+x,1/2-y,1/2+z
loop_
_atom_site_type_symbol
_atom_site_label
_atom_site_fract_x
_atom_site_fract_y
_atom_site_fract_z
Si Si1 0.312956 0.461102 0.628055
Si Si2 0.500000 0.367618 0.750000
Si Si3 0.469994 0.818150 0.018409
Si Si4 0.693748 0.190660 0.752518
Si Si5 0.752446 0.857860 0.889626
O O1 0.422118 0.428879 0.733827
O O2 0.233371 0.413504 0.365260
O O3 0.290299 0.413190 0.775396
O O4 0.303026 0.574258 0.612431
O O5 0.555088 0.290552 0.963293
O O6 0.500000 0.866533 0.250000
O O7 0.572432 0.811272 0.074818
O O8 0.368768 0.864612 0.787654
O O9 0.718631 0.249660 0.618284
O O10 0.750000 0.250000 0.000000
#
# Coordination Sequence:
#
# PCOD9254016 Si02
#       5
#     8   4   8   8   8
#     4  11  21  35  59  88 116 145 194 240 280 339
#     4  10  16  34  60  82 102 156 192 226 266 342
#     4  10  15  32  62  78 104 151 203 220 262 337
#     4  10  16  34  56  80 110 154 196 223 269 349
#     4  11  21  36  58  91 112 148 194 239 282 335
#
# _framework density 25.143446999999998
#
# number of rings (size 3 to 8) (size 9 to 14) (size 15 to 20)
#    0.667    0.889   11.111    0.000    0.000    1.778 
#    0.000    1.111    0.000    0.000    0.000    0.000 
#    0.000    0.000    0.000    0.000    0.000    0.000 
#
# Total GULP energy -100553.542911 kJ/mol
# GULP energy per Si atom -5586.307939 kJ/mol
# Density = 2.508622 g / cm^3
# Si number density = 25.143447 Si / 1000 Ang^3
#
#
#
# Elastic Constant Matrix: (Units=GPa)
#
#
# Indices 1 2 3 4 5 6 
#
# 1 85.3979 -21.5077 33.8065 0.0000 37.4882 0.0000
# 2 -21.5077 98.4864 -0.2705 0.0000 6.3221 0.0000
# 3 33.8065 -0.2705 47.7246 0.0000 18.7813 0.0000
# 4 0.0000 0.0000 0.0000 47.4245 0.0000 0.1920
# 5 37.4882 6.3221 18.7813 0.0000 46.0874 0.0000
# 6 0.0000 0.0000 0.0000 0.1920 0.0000 23.6118
#
#
#
# Elastic Compliance Matrix: (Units=1/GPa)
#
#
# Indices 1 2 3 4 5 6 
#
# 1 0.025159 0.006543 -0.011169 0.000000 -0.016810 0.000000
# 2 0.006543 0.011967 -0.002175 0.000000 -0.006077 0.000000
# 3 -0.011169 -0.002175 0.029966 0.000000 -0.002828 0.000000
# 4 0.000000 0.000000 0.000000 0.021087 0.000000 -0.000171
# 5 -0.016810 -0.006077 -0.002828 0.000000 0.037358 0.000000
# 6 0.000000 0.000000 0.000000 -0.000171 0.000000 0.042353
#
#
# Mechanical properties :
#
#
# Convention : Reuss Voigt Hill
#
# Bulk Modulus (GPa) = 18.69581 28.40730 23.55155
# Shear Modulus (GPa) = 25.08511 38.06345 31.57428
#
# Velocity S-wave (km/s) = 3.16203 3.89505 3.54752
# Velocity P-wave (km/s) = 4.55885 5.61704 5.11538
#
# Compressibility (1/GPa) = 0.05348791
#
# Stress axis : x y z
#
# Youngs Moduli (GPa) = 39.74784 83.56595 33.37124
#
# Poissons Ratio (x) = -0.54674 0.37272
# Poissons Ratio (y) = -0.26006 0.07259
# Poissons Ratio (z) = 0.44394 0.18178
#
# Static dielectric constant tensor:
#      x y z
#    x 2.077120 0.000000 -0.069770 
#    y 0.000000 2.033600 0.000000 
#    z -0.069770 0.000000 1.973970 
# 
# From -- ./inp_files/112192.got.cif
#   From: 2010.05.17/outbox.cif.g08.bks.cpg/sg15_57_cif.got.tgz:112192.got - 2010.06.03 18:47:42.
