data_PCOD9254348
_publ_section_title
;
Structure prediction by ZEFSAII (Michael W. Deem and Ramdas Pophale) SiO2 
 PCOD9254348
Probable space group: C 2/C
;
_chemical_formula_sum "Si O2"
_cell_formula_units_Z 56
_cell_length_a 11.206595
_cell_length_b 23.991236
_cell_length_c 20.791352
_cell_angle_alpha 90.000000
_cell_angle_beta 36.086740
_cell_angle_gamma 90.000000
_cell_volume 3292.541203
_symmetry_space_group_name_H-M "C 2/C"
_symmetry_group_IT_number 15
_symmetry_cell_setting 'monoclinic'
loop_
_space_group_symop_operation_xyz
x,y,z
-x,y,1/2-z
-x,-y,-z
x,-y,1/2+z
1/2+x,1/2+y,z
1/2-x,1/2+y,1/2-z
1/2-x,1/2-y,-z
1/2+x,1/2-y,1/2+z
loop_
_atom_site_type_symbol
_atom_site_label
_atom_site_fract_x
_atom_site_fract_y
_atom_site_fract_z
Si Si1 0.118083 0.480500 0.012192
Si Si2 0.529865 0.539397 0.847416
Si Si3 0.617830 0.964757 0.765963
Si Si4 0.874545 0.780207 0.237431
Si Si5 0.799071 0.143997 0.958758
Si Si6 0.330066 0.886755 0.130774
Si Si7 0.584282 0.159028 0.285700
O O1 0.026469 0.513207 0.113586
O O2 0.045311 0.416283 0.048744
O O3 0.352168 0.497341 0.903013
O O4 0.000000 0.500000 0.000000
O O5 0.690415 0.505214 0.818608
O O6 0.418543 0.589977 0.932405
O O7 0.662006 0.570879 0.734433
O O8 0.500000 0.966003 0.750000
O O9 0.684914 0.901190 0.751558
O O10 0.704522 0.827421 0.319929
O O11 0.803467 0.717835 0.253473
O O12 0.000000 0.778551 0.250000
O O13 0.041710 0.805736 0.116552
O O14 0.721835 0.124403 0.921446
O O15 0.609422 0.159785 0.083587
O O16 0.500000 0.158766 0.250000
#
# Coordination Sequence:
#
# PCOD9254348 Si02
#       7
#     8   8   8   8   8   8   8
#     4  11  19  31  53  78 104 135 168 213 263 312
#     4  10  19  31  51  73 106 132 164 208 261 302
#     4  10  22  34  46  71 108 138 172 209 253 312
#     4   8  16  27  48  68  97 130 160 210 257 293
#     4  10  16  30  47  75  99 127 159 217 259 303
#     4   9  18  30  49  78 106 122 165 213 262 306
#     4  10  18  31  43  67  98 134 172 208 241 301
#
# _framework density 17.008139
#
# number of rings (size 3 to 8) (size 9 to 14) (size 15 to 20)
#    0.000    2.286    2.857    1.714    2.000    0.571 
#    0.000    0.000    0.000    0.857    0.000    0.000 
#   38.571    0.000    0.000    0.000    0.000    0.000 
#
# Total GULP energy -155879.803921 kJ/mol
# GULP energy per Si atom -5567.135854 kJ/mol
# Density = 1.696943 g / cm^3
# Si number density = 17.008139 Si / 1000 Ang^3
#
#
#
# Elastic Constant Matrix: (Units=GPa)
#
#
# Indices 1 2 3 4 5 6 
#
# 1 51.6752 29.6357 22.6303 -0.0012 -0.8014 -0.0004
# 2 29.6357 133.4264 30.5515 -0.0009 3.9628 -0.0002
# 3 22.6303 30.5515 56.9981 -0.0021 5.2742 -0.0055
# 4 -0.0012 -0.0009 -0.0021 23.7600 0.0000 -2.0341
# 5 -0.8014 3.9628 5.2742 0.0000 15.9517 0.0009
# 6 -0.0004 -0.0002 -0.0055 -2.0341 0.0009 24.6321
#
#
#
# Elastic Compliance Matrix: (Units=1/GPa)
#
#
# Indices 1 2 3 4 5 6 
#
# 1 0.025339 -0.003838 -0.008468 0.000000 0.005026 -0.000002
# 2 -0.003838 0.009131 -0.003242 0.000000 -0.001389 -0.000001
# 3 -0.008468 -0.003242 0.023323 0.000002 -0.007331 0.000006
# 4 0.000000 0.000000 0.000002 0.042387 -0.000001 0.003500
# 5 0.005026 -0.001389 -0.007331 -0.000001 0.065711 -0.000004
# 6 -0.000002 -0.000001 0.000006 0.003500 -0.000004 0.040886
#
#
# Mechanical properties :
#
#
# Convention : Reuss Voigt Hill
#
# Bulk Modulus (GPa) = 37.45872 45.30386 41.38129
# Shear Modulus (GPa) = 20.26151 23.48757 21.87454
#
# Velocity S-wave (km/s) = 3.45524 3.72016 3.59014
# Velocity P-wave (km/s) = 6.16361 6.71917 6.44737
#
# Compressibility (1/GPa) = 0.02669605
#
# Stress axis : x y z
#
# Youngs Moduli (GPa) = 39.46409 109.51868 42.87681
#
# Poissons Ratio (x) = 0.42038 0.36310
# Poissons Ratio (y) = 0.15148 0.13899
# Poissons Ratio (z) = 0.33420 0.35502
#
# Static dielectric constant tensor:
#      x y z
#    x 1.541870 0.000000 0.015000 
#    y 0.000000 1.642200 0.000000 
#    z 0.015000 0.000000 1.604800 
# 
# From -- ./inp_files/193180.got.cif
#   From: 2010.05.17/outbox.cif.g08.bks.cpg/sg15_97_cif.got.tgz:193180.got - 2010.06.03 18:47:42.
