data_PCOD9254758
_publ_section_title
;
Structure prediction by ZEFSAII (Michael W. Deem and Ramdas Pophale) SiO2 
 PCOD9254758
Probable space group: C 2/C
;
_chemical_formula_sum "Si O2"
_cell_formula_units_Z 60
_cell_length_a 11.359575
_cell_length_b 12.109537
_cell_length_c 26.776679
_cell_angle_alpha 90.000000
_cell_angle_beta 122.767669
_cell_angle_gamma 90.000000
_cell_volume 3097.250279
_symmetry_space_group_name_H-M "C 2/C"
_symmetry_group_IT_number 15
_symmetry_cell_setting 'monoclinic'
loop_
_space_group_symop_operation_xyz
x,y,z
-x,y,1/2-z
-x,-y,-z
x,-y,1/2+z
1/2+x,1/2+y,z
1/2-x,1/2+y,1/2-z
1/2-x,1/2-y,-z
1/2+x,1/2-y,1/2+z
loop_
_atom_site_type_symbol
_atom_site_label
_atom_site_fract_x
_atom_site_fract_y
_atom_site_fract_z
Si Si1 0.000000 0.132200 0.250000
Si Si2 0.612395 0.466194 0.962256
Si Si3 0.359729 0.992928 0.750427
Si Si4 0.404933 0.374691 0.832496
Si Si5 0.530552 0.674277 0.538704
Si Si6 0.080021 0.600314 0.993704
Si Si7 0.225179 0.312275 0.332099
Si Si8 0.501225 0.877754 0.139238
O O1 0.971926 0.076111 0.296621
O O2 0.863922 0.208653 0.207772
O O3 0.479543 0.430216 0.897433
O O4 0.597076 0.597344 0.970587
O O5 0.602864 0.404913 0.013559
O O6 0.751966 0.422034 0.966436
O O7 0.500000 0.985643 0.750000
O O8 0.274412 0.100126 0.712009
O O9 0.404589 0.023458 0.816805
O O10 0.258857 0.894365 0.712770
O O11 0.431684 0.243947 0.841259
O O12 0.522712 0.788907 0.506894
O O13 0.626470 0.703958 0.608333
O O14 0.043593 0.604344 0.927141
O O15 0.000000 0.500000 0.000000
O O16 0.131343 0.366544 0.354500
#
# Coordination Sequence:
#
# PCOD9254758 Si02
#       8
#     4   8   8   8   8   8   8   8
#     4  10  20  32  60  86 110 156 200 254 304 358
#     4  11  23  38  67  95 116 163 213 267 305 364
#     4  10  20  35  61  89 114 157 198 244 307 363
#     4  11  20  37  64  89 120 151 208 255 302 361
#     4  11  22  37  65  92 118 155 220 258 302 369
#     4  12  25  41  61  91 131 170 199 253 333 384
#     4  10  16  34  59  85 110 147 205 258 294 346
#     4  10  20  38  59  85 126 153 199 257 300 368
#
# _framework density 19.372022999999999
#
# number of rings (size 3 to 8) (size 9 to 14) (size 15 to 20)
#    0.000    1.333    7.333    2.000    0.000    2.667 
#    0.000    0.000    7.333    0.000    0.000    0.000 
#    0.000    0.000    0.000    0.000    0.000    0.000 
#
# Total GULP energy -167128.534324 kJ/mol
# GULP energy per Si atom -5570.951144 kJ/mol
# Density = 1.932793 g / cm^3
# Si number density = 19.372023 Si / 1000 Ang^3
#
#
#
# Elastic Constant Matrix: (Units=GPa)
#
#
# Indices 1 2 3 4 5 6 
#
# 1 25.2908 21.1390 15.0157 0.0000 -1.0675 0.0000
# 2 21.1390 77.1280 18.7750 0.0000 6.5897 0.0000
# 3 15.0157 18.7750 108.1644 0.0000 8.7809 0.0000
# 4 0.0000 0.0000 0.0000 18.2329 0.0000 -3.7028
# 5 -1.0675 6.5897 8.7809 0.0000 19.5466 0.0000
# 6 0.0000 0.0000 0.0000 -3.7028 0.0000 20.3588
#
#
#
# Elastic Compliance Matrix: (Units=1/GPa)
#
#
# Indices 1 2 3 4 5 6 
#
# 1 0.055953 -0.014776 -0.006077 0.000000 0.010767 0.000000
# 2 -0.014776 0.017694 -0.000488 0.000000 -0.006553 0.000000
# 3 -0.006077 -0.000488 0.010573 0.000000 -0.004917 0.000000
# 4 0.000000 0.000000 0.000000 0.056949 0.000000 0.010358
# 5 0.010767 -0.006553 -0.004917 0.000000 0.056166 0.000000
# 6 0.000000 0.000000 0.000000 0.010358 0.000000 0.051003
#
#
# Mechanical properties :
#
#
# Convention : Reuss Voigt Hill
#
# Bulk Modulus (GPa) = 24.07462 35.60471 29.83967
# Shear Modulus (GPa) = 16.40072 22.00457 19.20265
#
# Velocity S-wave (km/s) = 2.91283 3.37396 3.15184
# Velocity P-wave (km/s) = 4.87517 5.79633 5.35559
#
# Compressibility (1/GPa) = 0.04153752
#
# Stress axis : x y z
#
# Youngs Moduli (GPa) = 17.87224 56.51669 94.58354
#
# Poissons Ratio (x) = 0.83509 0.57477
# Poissons Ratio (y) = 0.26408 0.04616
# Poissons Ratio (z) = 0.10861 0.02758
#
# Static dielectric constant tensor:
#      x y z
#    x 1.719590 0.000000 0.020670 
#    y 0.000000 1.630030 0.000000 
#    z 0.020670 0.000000 1.696350 
# 
# From -- ./inp_files/292269.got.cif
#   From: 2010.05.17/outbox.cif.g08.bks.cpg/sg15_147_cif.got.tgz:292269.got - 2010.06.03 18:47:42.
