data_PCOD9254559
_publ_section_title
;
Structure prediction by ZEFSAII (Michael W. Deem and Ramdas Pophale) SiO2 
 PCOD9254559
Probable space group: C 2/C
;
_chemical_formula_sum "Si O2"
_cell_formula_units_Z 44
_cell_length_a 10.634466
_cell_length_b 15.495223
_cell_length_c 14.729023
_cell_angle_alpha 90.000000
_cell_angle_beta 57.803000
_cell_angle_gamma 90.000000
_cell_volume 2053.862147
_symmetry_space_group_name_H-M "C 2/C"
_symmetry_group_IT_number 15
_symmetry_cell_setting 'monoclinic'
loop_
_space_group_symop_operation_xyz
x,y,z
-x,y,1/2-z
-x,-y,-z
x,-y,1/2+z
1/2+x,1/2+y,z
1/2-x,1/2+y,1/2-z
1/2-x,1/2-y,-z
1/2+x,1/2-y,1/2+z
loop_
_atom_site_type_symbol
_atom_site_label
_atom_site_fract_x
_atom_site_fract_y
_atom_site_fract_z
Si Si1 0.766793 0.885416 0.368466
Si Si2 0.874037 0.531404 0.858248
Si Si3 0.707490 0.452990 0.759788
Si Si4 0.000000 0.738346 0.250000
Si Si5 0.092308 0.971849 0.552842
Si Si6 0.980296 0.385561 0.584953
O O1 0.596130 0.865681 0.460703
O O2 0.857251 0.799527 0.314742
O O3 0.787945 0.948006 0.274837
O O4 0.844325 0.943713 0.418452
O O5 0.797909 0.459238 0.820251
O O6 0.960878 0.478246 0.901504
O O7 0.000000 0.577650 0.750000
O O8 0.736294 0.577821 0.958958
O O9 0.537039 0.427153 0.838946
O O10 0.803090 0.400676 0.648757
O O11 0.997353 0.682324 0.159698
O O12 0.000000 0.000000 0.500000
#
# Coordination Sequence:
#
# PCOD9254559 Si02
#       6
#     8   8   8   4   8   8
#     4  11  21  32  51  83 109 135 181 229 264 311
#     4   8  15  29  48  69 101 137 176 205 262 309
#     4  10  16  32  49  74 106 137 185 217 259 310
#     4  12  20  36  50  78 120 134 174 218 282 322
#     4   9  17  29  49  72 104 135 175 223 262 307
#     4  10  20  34  51  74 110 150 168 215 273 329
#
# _framework density 21.423055000000002
#
# number of rings (size 3 to 8) (size 9 to 14) (size 15 to 20)
#    0.000    2.182    4.545    1.091    0.000    0.000 
#    0.000    0.000    0.000    0.000    0.000    8.909 
#    0.000    0.727    0.000    0.000    0.000    0.000 
#
# Total GULP energy -122499.124779 kJ/mol
# GULP energy per Si atom -5568.142035 kJ/mol
# Density = 2.137430 g / cm^3
# Si number density = 21.423055 Si / 1000 Ang^3
#
#
#
# Elastic Constant Matrix: (Units=GPa)
#
#
# Indices 1 2 3 4 5 6 
#
# 1 52.4854 5.2890 43.4282 0.0000 -19.2705 0.0000
# 2 5.2890 41.9092 15.6687 0.0000 -12.5763 0.0000
# 3 43.4282 15.6687 187.8440 0.0000 -74.7238 0.0000
# 4 0.0000 0.0000 0.0000 15.7510 0.0000 -6.8705
# 5 -19.2705 -12.5763 -74.7238 0.0000 66.7120 0.0000
# 6 0.0000 0.0000 0.0000 -6.8705 0.0000 26.8380
#
#
#
# Elastic Compliance Matrix: (Units=1/GPa)
#
#
# Indices 1 2 3 4 5 6 
#
# 1 0.023645 -0.000792 -0.004947 0.000000 0.001139 0.000000
# 2 -0.000792 0.025334 -0.000219 0.000000 0.004302 0.000000
# 3 -0.004947 -0.000219 0.010643 0.000000 0.010451 0.000000
# 4 0.000000 0.000000 0.000000 0.071469 0.000000 0.018296
# 5 0.001139 0.004302 0.010451 0.000000 0.027836 0.000000
# 6 0.000000 0.000000 0.000000 0.018296 0.000000 0.041944
#
#
# Mechanical properties :
#
#
# Convention : Reuss Voigt Hill
#
# Bulk Modulus (GPa) = 20.96229 45.66781 33.31505
# Shear Modulus (GPa) = 21.86386 36.38372 29.12379
#
# Velocity S-wave (km/s) = 3.19811 4.12557 3.69109
# Velocity P-wave (km/s) = 4.84184 6.63756 5.80950
#
# Compressibility (1/GPa) = 0.04770472
#
# Stress axis : x y z
#
# Youngs Moduli (GPa) = 42.29313 39.47289 93.96019
#
# Poissons Ratio (x) = 0.03128 0.46483
# Poissons Ratio (y) = 0.03352 0.02054
# Poissons Ratio (z) = 0.20923 0.00863
#
# Static dielectric constant tensor:
#      x y z
#    x 1.911530 0.000000 -0.013500 
#    y 0.000000 1.700070 0.000000 
#    z -0.013500 0.000000 1.926840 
# 
# From -- ./inp_files/142984.got.cif
#   From: 2010.05.17/outbox.cif.g08.bks.cpg/sg15_72_cif.got.tgz:142984.got - 2010.06.03 18:47:42.
