data_PCOD9254807
_publ_section_title
;
Structure prediction by ZEFSAII (Michael W. Deem and Ramdas Pophale) SiO2 
 PCOD9254807
Probable space group: C 2/C
;
_chemical_formula_sum "Si O2"
_cell_formula_units_Z 48
_cell_length_a 17.975122
_cell_length_b 16.629737
_cell_length_c 8.024884
_cell_angle_alpha 90.000000
_cell_angle_beta 57.626806
_cell_angle_gamma 90.000000
_cell_volume 2025.984057
_symmetry_space_group_name_H-M "C 2/C"
_symmetry_group_IT_number 15
_symmetry_cell_setting 'monoclinic'
loop_
_space_group_symop_operation_xyz
x,y,z
-x,y,1/2-z
-x,-y,-z
x,-y,1/2+z
1/2+x,1/2+y,z
1/2-x,1/2+y,1/2-z
1/2-x,1/2-y,-z
1/2+x,1/2-y,1/2+z
loop_
_atom_site_type_symbol
_atom_site_label
_atom_site_fract_x
_atom_site_fract_y
_atom_site_fract_z
Si Si1 0.217330 0.535160 0.018708
Si Si2 0.392282 0.179374 0.227834
Si Si3 0.586920 0.775889 0.438911
Si Si4 0.644062 0.462927 0.390025
Si Si5 0.692461 0.146093 0.508317
Si Si6 0.598200 0.617248 0.247520
O O1 0.143899 0.593910 0.169179
O O2 0.289858 0.511442 0.068476
O O3 0.175258 0.450296 0.012557
O O4 0.282194 0.579607 0.810647
O O5 0.378050 0.233223 0.412498
O O6 0.495585 0.176425 0.065887
O O7 0.342990 0.193880 0.111031
O O8 0.648979 0.820101 0.229428
O O9 0.558478 0.690514 0.395621
O O10 0.595026 0.532367 0.347559
O O11 0.582914 0.405410 0.572308
O O12 0.798283 0.146047 0.382536
#
# Coordination Sequence:
#
# PCOD9254807 Si02
#       6
#     8   8   8   8   8   8
#     4  10  16  35  58  89 115 151 210 240 280 369
#     4  11  22  40  55  84 125 171 194 238 296 362
#     4  11  25  37  54  88 131 163 196 240 305 366
#     4   8  17  33  64  88 110 145 200 261 302 331
#     4  10  21  38  61  88 119 164 204 243 301 350
#     4  10  19  39  60  93 116 147 206 260 301 361
#
# _framework density 23.69219
#
# number of rings (size 3 to 8) (size 9 to 14) (size 15 to 20)
#    0.000    2.333    3.333    3.000    0.000    1.333 
#    9.000    0.000    0.000    4.000    0.000    0.000 
#    0.000    0.000    0.000    0.000    0.000    0.000 
#
# Total GULP energy -133879.400009 kJ/mol
# GULP energy per Si atom -5578.308334 kJ/mol
# Density = 2.363827 g / cm^3
# Si number density = 23.692190 Si / 1000 Ang^3
#
#
#
# Elastic Constant Matrix: (Units=GPa)
#
#
# Indices 1 2 3 4 5 6 
#
# 1 68.1642 18.3891 31.8274 0.0000 19.8371 0.0000
# 2 18.3891 73.0530 33.8829 0.0000 -5.7071 0.0000
# 3 31.8274 33.8829 140.3014 0.0000 14.9633 0.0000
# 4 0.0000 0.0000 0.0000 21.4354 0.0000 12.1088
# 5 19.8371 -5.7071 14.9633 0.0000 34.9365 0.0000
# 6 0.0000 0.0000 0.0000 12.1088 0.0000 29.0292
#
#
#
# Elastic Compliance Matrix: (Units=1/GPa)
#
#
# Indices 1 2 3 4 5 6 
#
# 1 0.020377 -0.005007 -0.002192 0.000000 -0.011449 0.000000
# 2 -0.005007 0.017291 -0.003819 0.000000 0.007303 0.000000
# 3 -0.002192 -0.003819 0.008887 0.000000 -0.003185 0.000000
# 4 0.000000 0.000000 0.000000 0.061033 0.000000 -0.025459
# 5 -0.011449 0.007303 -0.003185 0.000000 0.037681 0.000000
# 6 0.000000 0.000000 0.000000 -0.025459 0.000000 0.045068
#
#
# Mechanical properties :
#
#
# Convention : Reuss Voigt Hill
#
# Bulk Modulus (GPa) = 40.78580 49.96861 45.37720
# Shear Modulus (GPa) = 22.67108 30.24149 26.45629
#
# Velocity S-wave (km/s) = 3.09674 3.57660 3.34528
# Velocity P-wave (km/s) = 5.48075 6.18002 5.84086
#
# Compressibility (1/GPa) = 0.02451834
#
# Stress axis : x y z
#
# Youngs Moduli (GPa) = 49.07577 57.83420 112.52668
#
# Poissons Ratio (x) = 0.28957 0.24669
# Poissons Ratio (y) = 0.24572 0.42972
# Poissons Ratio (z) = 0.10759 0.22086
#
# Static dielectric constant tensor:
#      x y z
#    x 1.980000 0.000000 0.069590 
#    y 0.000000 1.897590 0.000000 
#    z 0.069590 0.000000 2.029660 
# 
# From -- ./inp_files/62380.got.cif
#   From: 2010.05.17/outbox.cif.g08.bks.cpg/sg15_32_cif.got.tgz:62380.got - 2010.06.03 18:47:42.
