data_PCOD9254604
_publ_section_title
;
Structure prediction by ZEFSAII (Michael W. Deem and Ramdas Pophale) SiO2 
 PCOD9254604
Probable space group: C 2/C
;
_chemical_formula_sum "Si O2"
_cell_formula_units_Z 64
_cell_length_a 12.294047
_cell_length_b 12.512939
_cell_length_c 20.739162
_cell_angle_alpha 90.000000
_cell_angle_beta 56.813906
_cell_angle_gamma 90.000000
_cell_volume 2670.038403
_symmetry_space_group_name_H-M "C 2/C"
_symmetry_group_IT_number 15
_symmetry_cell_setting 'monoclinic'
loop_
_space_group_symop_operation_xyz
x,y,z
-x,y,1/2-z
-x,-y,-z
x,-y,1/2+z
1/2+x,1/2+y,z
1/2-x,1/2+y,1/2-z
1/2-x,1/2-y,-z
1/2+x,1/2-y,1/2+z
loop_
_atom_site_type_symbol
_atom_site_label
_atom_site_fract_x
_atom_site_fract_y
_atom_site_fract_z
Si Si1 0.309566 0.017425 0.356830
Si Si2 0.052832 0.666142 0.043876
Si Si3 0.342686 0.664172 0.891555
Si Si4 0.957736 0.761488 0.952843
Si Si5 0.352727 0.824020 0.269832
Si Si6 0.104823 0.993529 0.524996
Si Si7 0.751037 0.780518 0.696472
Si Si8 0.978916 0.545646 0.626074
O O1 0.299785 0.103670 0.305623
O O2 0.276856 0.898936 0.343065
O O3 0.227657 0.042011 0.447237
O O4 0.453715 0.006144 0.334455
O O5 0.093662 0.733574 0.093380
O O6 0.979136 0.553647 0.078011
O O7 0.189700 0.650380 0.960863
O O8 0.967302 0.740784 0.025475
O O9 0.333575 0.696385 0.818985
O O10 0.412122 0.563019 0.904241
O O11 0.102544 0.787728 0.880249
O O12 0.934571 0.644559 0.929293
O O13 0.878745 0.868293 0.963163
O O14 0.500000 0.799750 0.250000
O O15 0.268043 0.729432 0.267931
O O16 0.362603 0.892895 0.199296
O O17 0.000000 0.000000 0.500000
#
# Coordination Sequence:
#
# PCOD9254604 Si02
#       8
#     8   8   8   8   8   8   8   8
#     4  11  20  38  61  80 117 151 195 236 287 342
#     4  10  16  32  54  84 113 149 185 228 278 345
#     4  10  18  31  58  86 115 150 188 227 289 345
#     4  10  21  32  56  86 120 148 181 231 294 342
#     4   9  22  40  60  82 108 152 197 235 284 340
#     4  12  20  35  57  89 119 153 185 234 296 349
#     4  10  19  39  62  79 111 158 190 230 289 355
#     4  10  19  36  58  84 111 149 193 237 276 337
#
# _framework density 23.969694
#
# number of rings (size 3 to 8) (size 9 to 14) (size 15 to 20)
#    0.000    1.750    5.000    1.125    0.000    0.500 
#    2.250    3.750    0.000    0.000    0.000    0.000 
#    0.000    0.000    0.000    0.000    0.000    0.000 
#
# Total GULP energy -178197.174252 kJ/mol
# GULP energy per Si atom -5568.661695 kJ/mol
# Density = 2.391514 g / cm^3
# Si number density = 23.969694 Si / 1000 Ang^3
#
#
#
# Elastic Constant Matrix: (Units=GPa)
#
#
# Indices 1 2 3 4 5 6 
#
# 1 65.8652 30.9084 18.8368 0.0000 23.7926 0.0000
# 2 30.9084 130.0483 13.1805 0.0000 17.4472 0.0000
# 3 18.8368 13.1805 41.0138 0.0000 18.4645 0.0000
# 4 0.0000 0.0000 0.0000 37.4859 0.0000 14.4728
# 5 23.7926 17.4472 18.4645 0.0000 31.4121 0.0000
# 6 0.0000 0.0000 0.0000 14.4728 0.0000 34.7625
#
#
#
# Elastic Compliance Matrix: (Units=1/GPa)
#
#
# Indices 1 2 3 4 5 6 
#
# 1 0.022425 -0.003217 -0.003295 0.000000 -0.013262 0.000000
# 2 -0.003217 0.008790 -0.000335 0.000000 -0.002249 0.000000
# 3 -0.003295 -0.000335 0.033719 0.000000 -0.017139 0.000000
# 4 0.000000 0.000000 0.000000 0.031786 0.000000 -0.013234
# 5 -0.013262 -0.002249 -0.017139 0.000000 0.053203 0.000000
# 6 0.000000 0.000000 0.000000 -0.013234 0.000000 0.034276
#
#
# Mechanical properties :
#
#
# Convention : Reuss Voigt Hill
#
# Bulk Modulus (GPa) = 19.51591 40.30873 29.91232
# Shear Modulus (GPa) = 23.25881 32.33220 27.79551
#
# Velocity S-wave (km/s) = 3.11841 3.67669 3.40900
# Velocity P-wave (km/s) = 4.59626 5.90569 5.29163
#
# Compressibility (1/GPa) = 0.05124025
#
# Stress axis : x y z
#
# Youngs Moduli (GPa) = 44.59320 113.77128 29.65692
#
# Poissons Ratio (x) = 0.36595 0.09772
# Poissons Ratio (y) = 0.14344 0.00993
# Poissons Ratio (z) = 0.14694 0.03811
#
# Static dielectric constant tensor:
#      x y z
#    x 2.029680 0.000000 0.004250 
#    y 0.000000 2.098430 0.000000 
#    z 0.004250 0.000000 2.004780 
# 
# From -- ./inp_files/273621.got.cif
#   From: 2010.05.17/outbox.cif.g08.bks.cpg/sg15_137_cif.got.tgz:273621.got - 2010.06.03 18:47:42.
