data_PCOD9254247
_publ_section_title
;
Structure prediction by ZEFSAII (Michael W. Deem and Ramdas Pophale) SiO2 
 PCOD9254247
Probable space group: C 2/C
;
_chemical_formula_sum "Si O2"
_cell_formula_units_Z 56
_cell_length_a 23.917405
_cell_length_b 18.707514
_cell_length_c 14.596774
_cell_angle_alpha 90.000000
_cell_angle_beta 22.137177
_cell_angle_gamma 90.000000
_cell_volume 2461.088082
_symmetry_space_group_name_H-M "C 2/C"
_symmetry_group_IT_number 15
_symmetry_cell_setting 'monoclinic'
loop_
_space_group_symop_operation_xyz
x,y,z
-x,y,1/2-z
-x,-y,-z
x,-y,1/2+z
1/2+x,1/2+y,z
1/2-x,1/2+y,1/2-z
1/2-x,1/2-y,-z
1/2+x,1/2-y,1/2+z
loop_
_atom_site_type_symbol
_atom_site_label
_atom_site_fract_x
_atom_site_fract_y
_atom_site_fract_z
Si Si1 0.500000 0.922854 0.250000
Si Si2 0.104865 0.399494 0.892544
Si Si3 0.498653 0.730770 0.886550
Si Si4 0.815736 0.565256 0.724866
Si Si5 0.248677 0.519619 0.873969
Si Si6 0.251259 0.754569 0.860148
Si Si7 0.999395 0.930530 0.101489
Si Si8 0.000000 0.052649 0.250000
O O1 0.572827 0.886599 0.050401
O O2 0.382086 0.976116 0.381472
O O3 0.952713 0.397381 0.065796
O O4 0.170384 0.479008 0.777987
O O5 0.214637 0.339324 0.691601
O O6 0.583323 0.729279 0.857356
O O7 0.626006 0.762203 0.626517
O O8 0.473839 0.647303 0.901446
O O9 0.337625 0.763494 0.100460
O O10 0.813628 0.562547 0.618201
O O11 0.655800 0.592273 0.002048
O O12 0.366064 0.457400 0.666874
O O13 0.341199 0.573073 0.793166
O O14 0.987307 0.998186 0.185517
#
# Coordination Sequence:
#
# PCOD9254247 Si02
#       8
#     4   8   8   8   8   8   8   4
#     4  10  18  30  48  74 106 136 168 204 254 310
#     4  10  19  32  50  74 105 139 175 214 258 313
#     4  10  20  35  55  77 101 134 171 215 265 313
#     4   9  18  30  48  75 106 139 171 209 260 309
#     4   9  19  30  46  75 104 131 167 207 251 306
#     4  10  21  36  54  77 103 133 174 215 262 314
#     4  10  18  31  50  72 100 133 168 206 254 307
#     4  10  16  28  50  74 104 136 168 206 258 320
#
# _framework density 22.754162999999998
#
# number of rings (size 3 to 8) (size 9 to 14) (size 15 to 20)
#    0.000    2.286    0.000    5.143    0.000    3.429 
#    0.000    1.429    0.000    3.429    0.000    5.000 
#    0.000    0.000    0.000    0.000    0.000    0.000 
#
# Total GULP energy -155967.364630 kJ/mol
# GULP energy per Si atom -5570.263023 kJ/mol
# Density = 2.270237 g / cm^3
# Si number density = 22.754163 Si / 1000 Ang^3
#
#
#
# Elastic Constant Matrix: (Units=GPa)
#
#
# Indices 1 2 3 4 5 6 
#
# 1 114.0290 6.1739 34.4781 0.0008 -56.1441 -0.0004
# 2 6.1739 31.1866 -4.0370 0.0008 -9.4477 -0.0003
# 3 34.4781 -4.0370 75.1254 0.0009 -23.4072 -0.0004
# 4 0.0008 0.0008 0.0009 13.0587 -0.0006 -0.5147
# 5 -56.1441 -9.4477 -23.4072 -0.0006 46.2335 0.0003
# 6 -0.0004 -0.0003 -0.0004 -0.5147 0.0003 9.3604
#
#
#
# Elastic Compliance Matrix: (Units=1/GPa)
#
#
# Indices 1 2 3 4 5 6 
#
# 1 0.022440 0.003567 -0.001650 0.000000 0.027145 0.000000
# 2 0.003567 0.036248 0.004711 -0.000002 0.014124 0.000001
# 3 -0.001650 0.004711 0.016619 -0.000001 0.007373 0.000000
# 4 0.000000 -0.000002 -0.000001 0.076744 0.000000 0.004220
# 5 0.027145 0.014124 0.007373 0.000000 0.061212 0.000000
# 6 0.000000 0.000001 0.000000 0.004220 0.000000 0.107066
#
#
# Mechanical properties :
#
#
# Convention : Reuss Voigt Hill
#
# Bulk Modulus (GPa) = 11.29113 32.61898 21.95506
# Shear Modulus (GPa) = 14.85481 25.97890 20.41686
#
# Velocity S-wave (km/s) = 2.55784 3.38260 2.99871
# Velocity P-wave (km/s) = 3.70087 5.44266 4.65397
#
# Compressibility (1/GPa) = 0.08856509
#
# Stress axis : x y z
#
# Youngs Moduli (GPa) = 44.56251 27.58802 60.17331
#
# Poissons Ratio (x) = -0.09841 0.09926
# Poissons Ratio (y) = -0.15897 -0.28351
# Poissons Ratio (z) = 0.07351 -0.12998
#
# Static dielectric constant tensor:
#      x y z
#    x 2.063750 0.000000 0.007500 
#    y 0.000000 1.875910 0.000000 
#    z 0.007500 0.000000 1.943100 
# 
# From -- ./inp_files/174764.got.cif
#   From: 2010.05.17/outbox.cif.g08.bks.cpg/sg15_88_cif.got.tgz:174764.got - 2010.06.03 18:47:42.
