data_PCOD9254283
_publ_section_title
;
Structure prediction by ZEFSAII (Michael W. Deem and Ramdas Pophale) SiO2 
 PCOD9254283
Probable space group: C 2/C
;
_chemical_formula_sum "Si O2"
_cell_formula_units_Z 52
_cell_length_a 8.792139
_cell_length_b 9.805669
_cell_length_c 26.308980
_cell_angle_alpha 90.000000
_cell_angle_beta 58.442342
_cell_angle_gamma 90.000000
_cell_volume 1932.740071
_symmetry_space_group_name_H-M "C 2/C"
_symmetry_group_IT_number 15
_symmetry_cell_setting 'monoclinic'
loop_
_space_group_symop_operation_xyz
x,y,z
-x,y,1/2-z
-x,-y,-z
x,-y,1/2+z
1/2+x,1/2+y,z
1/2-x,1/2+y,1/2-z
1/2-x,1/2-y,-z
1/2+x,1/2-y,1/2+z
loop_
_atom_site_type_symbol
_atom_site_label
_atom_site_fract_x
_atom_site_fract_y
_atom_site_fract_z
Si Si1 0.220362 0.462048 0.564183
Si Si2 0.429742 0.363157 0.623784
Si Si3 0.989431 0.788630 0.033641
Si Si4 0.887235 0.830596 0.164101
Si Si5 0.875453 0.439085 0.167342
Si Si6 0.000000 0.881727 0.250000
Si Si7 0.500000 0.886211 0.250000
Si Si8 0.250000 0.750000 0.500000
O O1 0.286339 0.392586 0.604352
O O2 0.326087 0.371317 0.505186
O O3 0.320053 0.610913 0.543896
O O4 0.014368 0.498467 0.603657
O O5 0.424276 0.506198 0.654068
O O6 0.383864 0.225665 0.661326
O O7 0.617198 0.333740 0.563644
O O8 0.963175 0.772015 0.098101
O O9 0.939526 0.684362 0.998383
O O10 0.957313 0.793953 0.207265
O O11 0.675835 0.806776 0.201893
O O12 0.669082 0.471772 0.203949
O O13 0.945304 0.472689 0.210976
#
# Coordination Sequence:
#
# PCOD9254283 Si02
#       8
#     8   8   8   8   8   4   4   4
#     4   9  17  32  56  87 118 154 199 260 321 375
#     4  10  19  31  62  88 114 153 209 252 316 383
#     4   9  16  30  56  89 119 154 203 257 314 382
#     4  10  20  37  55  85 116 163 200 256 313 380
#     4  11  20  38  57  88 116 161 208 265 307 380
#     4  10  26  40  56  78 130 160 204 254 322 366
#     4  10  18  34  58  74 118 160 204 258 314 366
#     4  10  16  28  58 100 120 144 204 268 308 384
#
# _framework density 26.904807999999999
#
# number of rings (size 3 to 8) (size 9 to 14) (size 15 to 20)
#    0.000    2.154    4.615    0.923    0.000    1.231 
#    0.000    0.769    0.000    1.846    0.000    0.000 
#    0.000    0.000    0.000    0.000    0.000    0.000 
#
# Total GULP energy -144921.047389 kJ/mol
# GULP energy per Si atom -5573.886438 kJ/mol
# Density = 2.684357 g / cm^3
# Si number density = 26.904808 Si / 1000 Ang^3
#
#
#
# Elastic Constant Matrix: (Units=GPa)
#
#
# Indices 1 2 3 4 5 6 
#
# 1 119.6026 17.8328 61.9558 0.0000 -4.6301 0.0000
# 2 17.8328 151.0676 35.6064 0.0000 -3.1731 0.0000
# 3 61.9558 35.6064 185.5030 0.0000 -10.9711 0.0000
# 4 0.0000 0.0000 0.0000 -13.5862 0.0000 1.3681
# 5 -4.6301 -3.1731 -10.9711 0.0000 70.0268 0.0000
# 6 0.0000 0.0000 0.0000 1.3681 0.0000 11.9714
#
#
#
# Elastic Compliance Matrix: (Units=1/GPa)
#
#
# Indices 1 2 3 4 5 6 
#
# 1 0.010137 -0.000417 -0.003298 0.000000 0.000135 0.000000
# 2 -0.000417 0.006951 -0.001189 0.000000 0.000101 0.000000
# 3 -0.003298 -0.001189 0.006767 0.000000 0.000788 0.000000
# 4 0.000000 0.000000 0.000000 -0.072766 0.000000 0.008316
# 5 0.000135 0.000101 0.000788 0.000000 0.014417 0.000000
# 6 0.000000 0.000000 0.000000 0.008316 0.000000 0.082582
#
#
# Mechanical properties :
#
#
# Convention : Reuss Voigt Hill
#
# Bulk Modulus (GPa) = 71.18361 76.32926 73.75644
# Shear Modulus (GPa) = 79.90190 36.40094 58.15142
#
# Velocity S-wave (km/s) = 5.45550 3.68224 4.65410
# Velocity P-wave (km/s) = 8.13623 6.81984 7.50695
#
# Compressibility (1/GPa) = 0.01404818
#
# Stress axis : x y z
#
# Youngs Moduli (GPa) = 98.65312 143.86167 147.77670
#
# Poissons Ratio (x) = 0.05992 0.48730
# Poissons Ratio (y) = 0.04109 0.17573
# Poissons Ratio (z) = 0.32532 0.17107
#
# Static dielectric constant tensor:
#      x y z
#    x 1.874030 0.000000 -0.287650 
#    y 0.000000 1.386030 0.000000 
#    z -0.287650 0.000000 1.870960 
# 
# From -- ./inp_files/287927.got.cif
#   From: 2010.05.17/outbox.cif.g08.bks.cpg/sg15_144_cif.got.tgz:287927.got - 2010.06.03 18:47:42.
