data_PCOD9254259
_publ_section_title
;
Structure prediction by ZEFSAII (Michael W. Deem and Ramdas Pophale) SiO2 
 PCOD9254259
Probable space group: C 2/C
;
_chemical_formula_sum "Si O2"
_cell_formula_units_Z 60
_cell_length_a 26.790177
_cell_length_b 8.629522
_cell_length_c 20.139813
_cell_angle_alpha 90.000000
_cell_angle_beta 42.606026
_cell_angle_gamma 90.000000
_cell_volume 3151.929685
_symmetry_space_group_name_H-M "C 2/C"
_symmetry_group_IT_number 15
_symmetry_cell_setting 'monoclinic'
loop_
_space_group_symop_operation_xyz
x,y,z
-x,y,1/2-z
-x,-y,-z
x,-y,1/2+z
1/2+x,1/2+y,z
1/2-x,1/2+y,1/2-z
1/2-x,1/2-y,-z
1/2+x,1/2-y,1/2+z
loop_
_atom_site_type_symbol
_atom_site_label
_atom_site_fract_x
_atom_site_fract_y
_atom_site_fract_z
Si Si1 0.319335 0.558925 0.258036
Si Si2 0.793874 0.659711 0.879760
Si Si3 0.069699 0.266108 0.430553
Si Si4 0.000000 0.722530 0.750000
Si Si5 0.142367 0.246742 0.045090
Si Si6 0.922244 0.227126 0.638908
Si Si7 0.852880 0.441026 0.591461
Si Si8 0.933740 0.531084 0.693702
O O1 0.311880 0.671152 0.329825
O O2 0.365293 0.655988 0.158564
O O3 0.369136 0.406390 0.217991
O O4 0.235131 0.529539 0.319021
O O5 0.819365 0.661141 0.931164
O O6 0.845188 0.546875 0.787860
O O7 0.706976 0.630415 0.959915
O O8 0.103965 0.397941 0.443978
O O9 0.043254 0.366361 0.392296
O O10 0.999668 0.178425 0.529520
O O11 0.933634 0.814657 0.849878
O O12 0.967194 0.612281 0.725148
O O13 0.129363 0.357898 0.995564
O O14 0.878444 0.326674 0.625677
O O15 0.947559 0.351922 0.668915
#
# Coordination Sequence:
#
# PCOD9254259 Si02
#       8
#     8   8   8   4   8   8   8   8
#     4  10  20  33  51  74 105 138 166 205 255 301
#     4   8  17  32  50  70  97 129 167 206 246 296
#     4  10  19  33  50  77 106 131 167 212 254 296
#     4  10  16  28  52  76  94 122 172 214 248 298
#     4   9  16  29  51  74  93 124 164 208 247 287
#     4  11  20  32  51  76 106 136 167 208 257 299
#     4  10  19  33  53  76 101 133 175 208 242 302
#     4   9  18  31  50  73  98 132 171 208 245 295
#
# _framework density 19.035958000000001
#
# number of rings (size 3 to 8) (size 9 to 14) (size 15 to 20)
#    0.000    2.400    0.000    4.400    0.000    1.067 
#    0.000    0.000    0.000   33.600    0.000    0.000 
#    0.000    0.000    0.000    0.000    0.000    0.000 
#
# Total GULP energy -167154.880960 kJ/mol
# GULP energy per Si atom -5571.829365 kJ/mol
# Density = 1.899263 g / cm^3
# Si number density = 19.035958 Si / 1000 Ang^3
#
#
#
# Elastic Constant Matrix: (Units=GPa)
#
#
# Indices 1 2 3 4 5 6 
#
# 1 59.9054 0.7104 17.1636 -0.0009 -3.6364 -0.0013
# 2 0.7104 32.2864 13.3880 -0.0048 -5.2329 -0.0006
# 3 17.1636 13.3880 131.5116 0.0009 -30.5317 -0.0003
# 4 -0.0009 -0.0048 0.0009 14.0438 -0.0005 -5.4257
# 5 -3.6364 -5.2329 -30.5317 -0.0005 33.7328 -0.0004
# 6 -0.0013 -0.0006 -0.0003 -5.4257 -0.0004 14.0681
#
#
#
# Elastic Compliance Matrix: (Units=1/GPa)
#
#
# Indices 1 2 3 4 5 6 
#
# 1 0.017353 0.000569 -0.002365 0.000002 -0.000181 0.000002
# 2 0.000569 0.032535 -0.002786 0.000014 0.002587 0.000007
# 3 -0.002365 -0.002786 0.010175 -0.000002 0.008522 -0.000001
# 4 0.000002 0.000014 -0.000002 0.083674 0.000003 0.032271
# 5 -0.000181 0.002587 0.008522 0.000003 0.037740 0.000002
# 6 0.000002 0.000007 -0.000001 0.032271 0.000002 0.083529
#
#
# Mechanical properties :
#
#
# Convention : Reuss Voigt Hill
#
# Bulk Modulus (GPa) = 19.64648 31.80303 25.72476
# Shear Modulus (GPa) = 17.17427 25.19836 21.18631
#
# Velocity S-wave (km/s) = 3.00693 3.64225 3.33973
# Velocity P-wave (km/s) = 4.73272 5.86780 5.33056
#
# Compressibility (1/GPa) = 0.05089969
#
# Stress axis : x y z
#
# Youngs Moduli (GPa) = 57.62776 30.73641 98.28427
#
# Poissons Ratio (x) = -0.01750 0.23242
# Poissons Ratio (y) = -0.03281 0.27380
# Poissons Ratio (z) = 0.13628 0.08562
#
# Static dielectric constant tensor:
#      x y z
#    x 1.681640 0.000000 -0.034940 
#    y 0.000000 1.634810 0.000000 
#    z -0.034940 0.000000 1.735670 
# 
# From -- ./inp_files/257179.got.cif
#   From: 2010.05.17/outbox.cif.g08.bks.cpg/sg15_129_cif.got.tgz:257179.got - 2010.06.03 18:47:42.
