data_PCOD9254404
_publ_section_title
;
Structure prediction by ZEFSAII (Michael W. Deem and Ramdas Pophale) SiO2 
 PCOD9254404
Probable space group: C 2/C
;
_chemical_formula_sum "Si O2"
_cell_formula_units_Z 48
_cell_length_a 16.752920
_cell_length_b 16.857833
_cell_length_c 7.833203
_cell_angle_alpha 90.000000
_cell_angle_beta 119.042610
_cell_angle_gamma 90.000000
_cell_volume 1934.067893
_symmetry_space_group_name_H-M "C 2/C"
_symmetry_group_IT_number 15
_symmetry_cell_setting 'monoclinic'
loop_
_space_group_symop_operation_xyz
x,y,z
-x,y,1/2-z
-x,-y,-z
x,-y,1/2+z
1/2+x,1/2+y,z
1/2-x,1/2+y,1/2-z
1/2-x,1/2-y,-z
1/2+x,1/2-y,1/2+z
loop_
_atom_site_type_symbol
_atom_site_label
_atom_site_fract_x
_atom_site_fract_y
_atom_site_fract_z
Si Si1 0.439361 0.723869 0.485155
Si Si2 0.599810 0.844624 0.651928
Si Si3 0.290739 0.622070 0.453903
Si Si4 0.639522 0.135080 0.792395
Si Si5 0.500000 0.394172 0.750000
Si Si6 0.500000 0.000000 0.500000
Si Si7 0.692458 0.543419 0.403649
O O1 0.523490 0.780917 0.612285
O O2 0.381863 0.673638 0.561923
O O3 0.366938 0.783507 0.318444
O O4 0.478548 0.662047 0.387654
O O5 0.695642 0.831297 0.845527
O O6 0.613518 0.845222 0.461343
O O7 0.566367 0.933522 0.660421
O O8 0.283304 0.548925 0.573906
O O9 0.298794 0.580157 0.275556
O O10 0.566248 0.072604 0.641501
O O11 0.736878 0.092952 0.908035
O O12 0.409688 0.446266 0.633187
#
# Coordination Sequence:
#
# PCOD9254404 Si02
#       7
#     8   8   8   8   4   4   8
#     4  10  19  32  56  89 116 149 195 252 300 331
#     4  10  19  33  55  88 121 146 195 254 290 349
#     4  10  22  38  61  92 118 159 195 249 299 353
#     4  10  19  33  55  86 119 146 195 256 294 342
#     4  10  20  34  60  88 118 150 200 246 300 348
#     4  10  16  30  52  80 112 152 180 236 306 340
#     4  10  22  37  58  90 118 160 196 243 296 356
#
# _framework density 24.818156999999999
#
# number of rings (size 3 to 8) (size 9 to 14) (size 15 to 20)
#    0.000    2.000    3.333    1.500    2.333    4.667 
#    0.000    0.000    0.000    1.000   56.333    0.000 
#    0.000    0.000    0.000    0.000    0.000    0.000 
#
# Total GULP energy -133942.316949 kJ/mol
# GULP energy per Si atom -5580.929873 kJ/mol
# Density = 2.476167 g / cm^3
# Si number density = 24.818157 Si / 1000 Ang^3
#
#
#
# Elastic Constant Matrix: (Units=GPa)
#
#
# Indices 1 2 3 4 5 6 
#
# 1 84.6068 9.2248 49.6462 0.0000 24.9442 0.0000
# 2 9.2248 67.7132 29.2696 0.0000 5.8842 0.0000
# 3 49.6462 29.2696 75.2063 0.0000 21.5294 0.0000
# 4 0.0000 0.0000 0.0000 37.9707 0.0000 12.6199
# 5 24.9442 5.8842 21.5294 0.0000 44.2450 0.0000
# 6 0.0000 0.0000 0.0000 12.6199 0.0000 -31.8419
#
#
#
# Elastic Compliance Matrix: (Units=1/GPa)
#
#
# Indices 1 2 3 4 5 6 
#
# 1 0.021169 0.003541 -0.013711 0.000000 -0.005734 0.000000
# 2 0.003541 0.018399 -0.009558 0.000000 0.000207 0.000000
# 3 -0.013711 -0.009558 0.027293 0.000000 -0.004279 0.000000
# 4 0.000000 0.000000 0.000000 0.023271 0.000000 0.009223
# 5 -0.005734 0.000207 -0.004279 0.000000 0.027889 0.000000
# 6 0.000000 0.000000 0.000000 0.009223 0.000000 -0.027750
#
#
# Mechanical properties :
#
#
# Convention : Reuss Voigt Hill
#
# Bulk Modulus (GPa) = 36.48907 44.86751 40.67829
# Shear Modulus (GPa) = 36.00681 19.36713 27.68697
#
# Velocity S-wave (km/s) = 3.81310 2.79653 3.34367
# Velocity P-wave (km/s) = 5.84130 5.34277 5.59759
#
# Compressibility (1/GPa) = 0.02740546
#
# Stress axis : x y z
#
# Youngs Moduli (GPa) = 47.23788 54.35030 36.63943
#
# Poissons Ratio (x) = -0.19246 0.50238
# Poissons Ratio (y) = -0.16728 0.35019
# Poissons Ratio (z) = 0.64770 0.51947
#
# Static dielectric constant tensor:
#      x y z
#    x 2.002450 0.000000 -0.032650 
#    y 0.000000 1.917420 0.000000 
#    z -0.032650 0.000000 2.001830 
# 
# From -- ./inp_files/112512.got.cif
#   From: 2010.05.17/outbox.cif.g08.bks.cpg/sg15_57_cif.got.tgz:112512.got - 2010.06.03 18:47:42.
