data_PCOD9254294
_publ_section_title
;
Structure prediction by ZEFSAII (Michael W. Deem and Ramdas Pophale) SiO2 
 PCOD9254294
Probable space group: C 2/C
;
_chemical_formula_sum "Si O2"
_cell_formula_units_Z 60
_cell_length_a 21.985430
_cell_length_b 25.446496
_cell_length_c 9.276799
_cell_angle_alpha 90.000000
_cell_angle_beta 141.450011
_cell_angle_gamma 90.000000
_cell_volume 3234.346877
_symmetry_space_group_name_H-M "C 2/C"
_symmetry_group_IT_number 15
_symmetry_cell_setting 'monoclinic'
loop_
_space_group_symop_operation_xyz
x,y,z
-x,y,1/2-z
-x,-y,-z
x,-y,1/2+z
1/2+x,1/2+y,z
1/2-x,1/2+y,1/2-z
1/2-x,1/2-y,-z
1/2+x,1/2-y,1/2+z
loop_
_atom_site_type_symbol
_atom_site_label
_atom_site_fract_x
_atom_site_fract_y
_atom_site_fract_z
Si Si1 0.716083 0.335715 0.894408
Si Si2 0.562226 0.570973 0.124406
Si Si3 0.885586 0.148768 0.792103
Si Si4 0.559548 0.832408 0.725608
Si Si5 0.963911 0.230301 0.521585
Si Si6 0.793036 0.329412 0.746079
Si Si7 0.500000 0.506041 0.750000
Si Si8 0.750871 0.708498 0.766183
O O1 0.646693 0.385788 0.794821
O O2 0.642944 0.292237 0.691853
O O3 0.792744 0.348553 0.910520
O O4 0.755797 0.307390 0.109080
O O5 0.561485 0.530419 0.255055
O O6 0.454289 0.598076 0.923837
O O7 0.565981 0.541534 0.977800
O O8 0.964369 0.195391 0.940024
O O9 0.810541 0.153662 0.518915
O O10 0.816798 0.161517 0.797855
O O11 0.500000 0.859995 0.750000
O O12 0.482815 0.790518 0.521580
O O13 0.621706 0.851562 0.701550
O O14 0.644949 0.799069 0.964266
O O15 0.000000 0.219716 0.750000
O O16 0.792218 0.265031 0.761068
#
# Coordination Sequence:
#
# PCOD9254294 Si02
#       8
#     8   8   8   8   8   8   4   8
#     4  11  22  31  50  73  99 133 175 221 255 299
#     4  10  21  34  54  74 105 139 175 206 270 304
#     4  10  17  31  50  68  92 135 174 207 247 305
#     4  10  19  33  47  60  90 136 174 214 252 293
#     4  10  16  29  45  63  88 124 176 203 239 290
#     4  11  18  31  47  68  95 133 177 218 257 287
#     4  10  20  36  50  76 104 136 168 220 258 324
#     4  11  20  32  45  71 100 125 177 231 254 272
#
# _framework density 18.550885999999998
#
# number of rings (size 3 to 8) (size 9 to 14) (size 15 to 20)
#    0.000    1.600    4.000    3.600    1.867    1.600 
#    0.000    2.000    0.000    0.000    0.000    0.000 
#    0.000    0.000    0.000  271.200    0.000    0.133 
#
# Total GULP energy -167009.697781 kJ/mol
# GULP energy per Si atom -5566.989926 kJ/mol
# Density = 1.850866 g / cm^3
# Si number density = 18.550886 Si / 1000 Ang^3
#
#
#
# Elastic Constant Matrix: (Units=GPa)
#
#
# Indices 1 2 3 4 5 6 
#
# 1 113.4727 12.2088 30.6444 0.0000 1.6275 0.0000
# 2 12.2088 57.4206 21.7859 0.0000 1.5829 0.0000
# 3 30.6444 21.7859 43.7436 0.0000 -10.8733 0.0000
# 4 0.0000 0.0000 0.0000 21.2857 0.0000 -2.6130
# 5 1.6275 1.5829 -10.8733 0.0000 27.5275 0.0000
# 6 0.0000 0.0000 0.0000 -2.6130 0.0000 17.8190
#
#
#
# Elastic Compliance Matrix: (Units=1/GPa)
#
#
# Indices 1 2 3 4 5 6 
#
# 1 0.011384 0.001445 -0.009849 0.000000 -0.004647 0.000000
# 2 0.001445 0.022606 -0.013988 0.000000 -0.006911 0.000000
# 3 -0.009849 -0.013988 0.041108 0.000000 0.017624 0.000000
# 4 0.000000 0.000000 0.000000 0.047841 0.000000 0.007015
# 5 -0.004647 -0.006911 0.017624 0.000000 0.043961 0.000000
# 6 0.000000 0.000000 0.000000 0.007015 0.000000 0.057149
#
#
# Mechanical properties :
#
#
# Convention : Reuss Voigt Hill
#
# Bulk Modulus (GPa) = 32.99077 38.21279 35.60178
# Shear Modulus (GPa) = 17.92506 23.32627 20.62567
#
# Velocity S-wave (km/s) = 3.11185 3.54986 3.33805
# Velocity P-wave (km/s) = 5.54383 6.11928 5.83865
#
# Compressibility (1/GPa) = 0.03031151
#
# Stress axis : x y z
#
# Youngs Moduli (GPa) = 87.84397 44.23590 24.32612
#
# Poissons Ratio (x) = -0.06390 0.23960
# Poissons Ratio (y) = -0.12690 0.34029
# Poissons Ratio (z) = 0.86521 0.61879
#
# Static dielectric constant tensor:
#      x y z
#    x 1.812780 0.000000 0.000680 
#    y 0.000000 1.657700 0.000000 
#    z 0.000680 0.000000 1.665870 
# 
# From -- ./inp_files/59277.got.cif
#   From: 2010.05.17/outbox.cif.g08.bks.cpg/sg15_30_cif.got.tgz:59277.got - 2010.06.03 18:47:42.
