data_PCOD9254422
_publ_section_title
;
Structure prediction by ZEFSAII (Michael W. Deem and Ramdas Pophale) SiO2 
 PCOD9254422
Probable space group: C 2/C
;
_chemical_formula_sum "Si O2"
_cell_formula_units_Z 56
_cell_length_a 23.017301
_cell_length_b 26.092589
_cell_length_c 5.356749
_cell_angle_alpha 90.000000
_cell_angle_beta 108.537431
_cell_angle_gamma 90.000000
_cell_volume 3050.242841
_symmetry_space_group_name_H-M "C 2/C"
_symmetry_group_IT_number 15
_symmetry_cell_setting 'monoclinic'
loop_
_space_group_symop_operation_xyz
x,y,z
-x,y,1/2-z
-x,-y,-z
x,-y,1/2+z
1/2+x,1/2+y,z
1/2-x,1/2+y,1/2-z
1/2-x,1/2-y,-z
1/2+x,1/2-y,1/2+z
loop_
_atom_site_type_symbol
_atom_site_label
_atom_site_fract_x
_atom_site_fract_y
_atom_site_fract_z
Si Si1 0.188930 0.285719 0.927915
Si Si2 0.573659 0.531471 0.341320
Si Si3 0.260503 0.390741 0.014568
Si Si4 0.836210 0.470427 0.806865
Si Si5 0.164411 0.877315 0.887210
Si Si6 0.974178 0.440786 0.963429
Si Si7 0.175177 0.756710 0.911581
O O1 0.214851 0.342572 0.974058
O O2 0.154650 0.274638 0.624491
O O3 0.250000 0.250000 0.000000
O O4 0.153304 0.267587 0.123307
O O5 0.500000 0.536861 0.250000
O O6 0.591106 0.504884 0.629187
O O7 0.605940 0.586053 0.340782
O O8 0.220843 0.437422 0.859473
O O9 0.309237 0.381256 0.858498
O O10 0.290299 0.396488 0.328579
O O11 0.835400 0.515868 0.599137
O O12 0.901390 0.443283 0.855389
O O13 0.158346 0.816183 0.919827
O O14 0.000000 0.416069 0.750000
O O15 0.000000 0.416873 0.250000
O O16 0.000000 0.500000 0.000000
O O17 0.250000 0.750000 0.000000
#
# Coordination Sequence:
#
# PCOD9254422 Si02
#       7
#     8   8   8   8   8   8   8
#     4  10  16  32  50  71 107 136 171 205 251 319
#     4  10  23  42  60  78 109 149 194 238 274 325
#     4  12  23  32  51  82 116 140 174 210 280 343
#     4  12  23  35  47  75 110 139 173 223 259 300
#     4  12  21  35  57  82 106 146 183 212 277 346
#     4  10  16  32  56  66  84 130 191 215 233 276
#     4  10  16  30  54  76 104 134 172 213 249 316
#
# _framework density 18.359193999999999
#
# number of rings (size 3 to 8) (size 9 to 14) (size 15 to 20)
#    0.000    1.143    8.571    1.714    0.000    3.429 
#    0.000    0.000    0.000    0.000    0.000    3.000 
#    0.000    0.000    0.000    0.000    0.000    0.000 
#
# Total GULP energy -156028.354173 kJ/mol
# GULP energy per Si atom -5572.441220 kJ/mol
# Density = 1.831741 g / cm^3
# Si number density = 18.359194 Si / 1000 Ang^3
#
#
#
# Elastic Constant Matrix: (Units=GPa)
#
#
# Indices 1 2 3 4 5 6 
#
# 1 26.1371 22.0513 16.2179 0.0000 -8.3102 0.0000
# 2 22.0513 47.4279 2.9324 0.0000 -2.8871 0.0000
# 3 16.2179 2.9324 117.9834 0.0000 -30.5337 0.0000
# 4 0.0000 0.0000 0.0000 15.7448 0.0000 -4.6782
# 5 -8.3102 -2.8871 -30.5337 0.0000 19.4991 0.0000
# 6 0.0000 0.0000 0.0000 -4.6782 0.0000 14.1140
#
#
#
# Elastic Compliance Matrix: (Units=1/GPa)
#
#
# Indices 1 2 3 4 5 6 
#
# 1 0.076022 -0.033821 -0.004238 0.000000 0.020756 0.000000
# 2 -0.033821 0.036339 0.002367 0.000000 -0.005326 0.000000
# 3 -0.004238 0.002367 0.014498 0.000000 0.021247 0.000000
# 4 0.000000 0.000000 0.000000 0.070451 0.000000 0.023352
# 5 0.020756 -0.005326 0.021247 0.000000 0.092613 0.000000
# 6 0.000000 0.000000 0.000000 0.023352 0.000000 0.078592
#
#
# Mechanical properties :
#
#
# Convention : Reuss Voigt Hill
#
# Bulk Modulus (GPa) = 18.02546 30.43905 24.23225
# Shear Modulus (GPa) = 10.90775 19.89469 15.40122
#
# Velocity S-wave (km/s) = 2.44012 3.29543 2.89949
# Velocity P-wave (km/s) = 4.21645 5.57634 4.94338
#
# Compressibility (1/GPa) = 0.05547709
#
# Stress axis : x y z
#
# Youngs Moduli (GPa) = 13.15403 27.51885 68.97427
#
# Poissons Ratio (x) = 0.93070 0.29230
# Poissons Ratio (y) = 0.44488 -0.16329
# Poissons Ratio (z) = 0.05574 -0.06515
#
# Static dielectric constant tensor:
#      x y z
#    x 1.723600 0.000000 -0.153340 
#    y 0.000000 1.644870 0.000000 
#    z -0.153340 0.000000 1.815360 
# 
# From -- ./inp_files/13930.got.cif
#   From: 2010.05.17/outbox.cif.g08.bks.cpg/sg15_7_cif.got.tgz:13930.got - 2010.06.03 18:47:42.
