data_PCOD9254409
_publ_section_title
;
Structure prediction by ZEFSAII (Michael W. Deem and Ramdas Pophale) SiO2 
 PCOD9254409
Probable space group: C 2/C
;
_chemical_formula_sum "Si O2"
_cell_formula_units_Z 56
_cell_length_a 28.853488
_cell_length_b 10.820662
_cell_length_c 12.649200
_cell_angle_alpha 90.000000
_cell_angle_beta 142.897105
_cell_angle_gamma 90.000000
_cell_volume 2382.381505
_symmetry_space_group_name_H-M "C 2/C"
_symmetry_group_IT_number 15
_symmetry_cell_setting 'monoclinic'
loop_
_space_group_symop_operation_xyz
x,y,z
-x,y,1/2-z
-x,-y,-z
x,-y,1/2+z
1/2+x,1/2+y,z
1/2-x,1/2+y,1/2-z
1/2-x,1/2-y,-z
1/2+x,1/2-y,1/2+z
loop_
_atom_site_type_symbol
_atom_site_label
_atom_site_fract_x
_atom_site_fract_y
_atom_site_fract_z
Si Si1 0.360864 0.897663 0.122140
Si Si2 0.599762 0.391409 0.559182
Si Si3 0.652141 0.841756 0.806315
Si Si4 0.000000 0.086006 0.250000
Si Si5 0.519317 0.156816 0.476426
Si Si6 0.852781 0.134662 0.115381
Si Si7 0.706133 0.627388 0.060688
Si Si8 0.500000 0.028524 0.750000
O O1 0.412543 0.871420 0.320022
O O2 0.314160 0.769532 0.029635
O O3 0.420555 0.905618 0.134093
O O4 0.327817 0.034937 0.086182
O O5 0.555026 0.506729 0.427984
O O6 0.535582 0.286136 0.451197
O O7 0.632878 0.403402 0.736873
O O8 0.666532 0.349296 0.600563
O O9 0.562740 0.842608 0.616910
O O10 0.667312 0.719270 0.903839
O O11 0.704879 0.845515 0.798913
O O12 0.937022 0.146952 0.212913
O O13 0.514975 0.056517 0.377867
O O14 0.808674 0.017931 0.986924
#
# Coordination Sequence:
#
# PCOD9254409 Si02
#       8
#     8   8   8   4   8   8   8   4
#     4  10  21  35  56  85 114 141 183 238 284 327
#     4  10  19  35  58  84 115 150 189 234 284 336
#     4  10  20  38  59  81 113 149 192 234 274 334
#     4  10  18  32  56  84 111 146 191 238 277 332
#     4  10  19  34  59  86 111 143 187 238 281 327
#     4  10  21  36  55  83 116 148 185 233 288 336
#     4  10  22  39  58  81 114 156 193 227 277 343
#     4  10  16  30  52  82 111 140 177 224 279 328
#
# _framework density 23.505890999999998
#
# number of rings (size 3 to 8) (size 9 to 14) (size 15 to 20)
#    0.000    2.000    0.000    6.429    0.000    1.714 
#    0.000   14.286    0.000    0.000    0.000    0.000 
#    0.000    0.000    0.000    0.000    0.000    0.000 
#
# Total GULP energy -156434.585080 kJ/mol
# GULP energy per Si atom -5586.949467 kJ/mol
# Density = 2.345239 g / cm^3
# Si number density = 23.505891 Si / 1000 Ang^3
#
#
#
# Elastic Constant Matrix: (Units=GPa)
#
#
# Indices 1 2 3 4 5 6 
#
# 1 84.1007 -52.1491 9.8709 0.0000 40.7806 0.0000
# 2 -52.1491 66.7281 3.0448 0.0000 20.2837 0.0000
# 3 9.8709 3.0448 37.3910 0.0000 0.2433 0.0000
# 4 0.0000 0.0000 0.0000 -2.7630 0.0000 0.0879
# 5 40.7806 20.2837 0.2433 0.0000 18.9786 0.0000
# 6 0.0000 0.0000 0.0000 0.0879 0.0000 21.4864
#
#
#
# Elastic Compliance Matrix: (Units=1/GPa)
#
#
# Indices 1 2 3 4 5 6 
#
# 1 -0.004690 -0.010085 0.001924 0.000000 0.020831 0.000000
# 2 -0.010085 0.000613 0.002476 0.000000 0.020983 0.000000
# 3 0.001924 0.002476 0.026081 0.000000 -0.007114 0.000000
# 4 0.000000 0.000000 0.000000 -0.361880 0.000000 0.001480
# 5 0.020831 0.020983 -0.007114 0.000000 -0.014405 0.000000
# 6 0.000000 0.000000 0.000000 0.001480 0.000000 0.046535
#
#
# Mechanical properties :
#
#
# Convention : Reuss Voigt Hill
#
# Bulk Modulus (GPa) = 94.03531 12.19477 53.11504
# Shear Modulus (GPa) = -17.07481 22.70393 2.81456
#
# Velocity S-wave (km/s) = -2.69812 3.11124 1.09544
# Velocity P-wave (km/s) = 5.51230 4.25507 4.92397
#
# Compressibility (1/GPa) = 0.01063430
#
# Stress axis : x y z
#
# Youngs Moduli (GPa) = -213.23362 1630.32750 38.34174
#
# Poissons Ratio (x) = 16.44175 -0.07376
# Poissons Ratio (y) = -2.15045 -0.09493
# Poissons Ratio (z) = 0.41021 -4.03649
#
# Static dielectric constant tensor:
#      x y z
#    x 1.905960 0.000000 0.044910 
#    y 0.000000 1.953700 0.000000 
#    z 0.044910 0.000000 1.870340 
# 
# From -- ./inp_files/181596.got.cif
#   From: 2010.05.17/outbox.cif.g08.bks.cpg/sg15_91_cif.got.tgz:181596.got - 2010.06.03 18:47:42.
