data_PCOD9254161
_publ_section_title
;
Structure prediction by ZEFSAII (Michael W. Deem and Ramdas Pophale) SiO2 
 PCOD9254161
Probable space group: C 2/C
;
_chemical_formula_sum "Si O2"
_cell_formula_units_Z 48
_cell_length_a 18.661765
_cell_length_b 6.951369
_cell_length_c 16.089680
_cell_angle_alpha 90.000000
_cell_angle_beta 122.653529
_cell_angle_gamma 90.000000
_cell_volume 1757.341178
_symmetry_space_group_name_H-M "C 2/C"
_symmetry_group_IT_number 15
_symmetry_cell_setting 'monoclinic'
loop_
_space_group_symop_operation_xyz
x,y,z
-x,y,1/2-z
-x,-y,-z
x,-y,1/2+z
1/2+x,1/2+y,z
1/2-x,1/2+y,1/2-z
1/2-x,1/2-y,-z
1/2+x,1/2-y,1/2+z
loop_
_atom_site_type_symbol
_atom_site_label
_atom_site_fract_x
_atom_site_fract_y
_atom_site_fract_z
Si Si1 0.754414 0.591227 0.928575
Si Si2 0.555867 0.460323 0.451722
Si Si3 0.099314 0.969415 0.241329
Si Si4 0.209690 0.046989 0.150048
Si Si5 0.071905 0.506570 0.417211
Si Si6 0.600548 0.993800 0.740101
O O1 0.662600 0.493454 0.858097
O O2 0.771086 0.732509 0.861642
O O3 0.750000 0.750000 0.000000
O O4 0.836422 0.455159 0.987180
O O5 0.500000 0.500000 0.500000
O O6 0.497309 0.534474 0.338630
O O7 0.648700 0.531602 0.538301
O O8 0.567553 0.233017 0.439699
O O9 0.092793 0.737954 0.233202
O O10 0.155254 0.035698 0.198551
O O11 0.302316 0.952958 0.215569
O O12 0.084349 0.467145 0.327111
O O13 0.974387 0.435817 0.368997
#
# Coordination Sequence:
#
# PCOD9254161 Si02
#       6
#     8   8   8   8   8   8
#     4  10  16  27  44  65  86 109 146 180 218 251
#     4   8  15  24  37  59  88 113 136 172 224 262
#     4   9  16  26  39  61  90 113 140 176 221 261
#     4   9  16  26  40  60  90 113 142 176 217 265
#     4   9  15  25  42  62  88 108 140 182 212 254
#     4   9  16  26  42  63  86 114 142 175 220 248
#
# _framework density 27.313991999999999
#
# number of rings (size 3 to 8) (size 9 to 14) (size 15 to 20)
#    0.000    3.000    3.333    0.000    0.000    0.000 
#    0.000    0.833    0.000    0.000    0.000    4.667 
#    0.000   45.333    0.000    0.000    0.000    2.667 
#
# Total GULP energy -133863.951556 kJ/mol
# GULP energy per Si atom -5577.664648 kJ/mol
# Density = 2.725182 g / cm^3
# Si number density = 27.313992 Si / 1000 Ang^3
#
#
#
# Elastic Constant Matrix: (Units=GPa)
#
#
# Indices 1 2 3 4 5 6 
#
# 1 150.4349 3.3781 89.5361 0.0000 70.5018 0.0000
# 2 3.3781 104.6354 19.8405 0.0000 6.1195 0.0000
# 3 89.5361 19.8405 206.0244 0.0000 78.8354 0.0000
# 4 0.0000 0.0000 0.0000 -15.9706 0.0000 -12.3411
# 5 70.5018 6.1195 78.8354 0.0000 95.1103 0.0000
# 6 0.0000 0.0000 0.0000 -12.3411 0.0000 6.7674
#
#
#
# Elastic Compliance Matrix: (Units=1/GPa)
#
#
# Indices 1 2 3 4 5 6 
#
# 1 0.010976 0.000473 -0.002476 0.000000 -0.006114 0.000000
# 2 0.000473 0.009758 -0.001129 0.000000 -0.000043 0.000000
# 3 -0.002476 -0.001129 0.007774 0.000000 -0.004536 0.000000
# 4 0.000000 0.000000 0.000000 -0.025990 0.000000 -0.047396
# 5 -0.006114 -0.000043 -0.004536 0.000000 0.018809 0.000000
# 6 0.000000 0.000000 0.000000 -0.047396 0.000000 0.061335
#
#
# Mechanical properties :
#
#
# Convention : Reuss Voigt Hill
#
# Bulk Modulus (GPa) = 44.95578 76.28935 60.62256
# Shear Modulus (GPa) = 51.89903 40.40408 46.15155
#
# Velocity S-wave (km/s) = 4.36373 3.85027 4.11502
# Velocity P-wave (km/s) = 6.47180 6.91066 6.69482
#
# Compressibility (1/GPa) = 0.02224408
#
# Stress axis : x y z
#
# Youngs Moduli (GPa) = 91.10943 102.47712 128.63042
#
# Poissons Ratio (x) = -0.04844 0.31848
# Poissons Ratio (y) = -0.04307 0.14521
# Poissons Ratio (z) = 0.22558 0.11569
#
# Static dielectric constant tensor:
#      x y z
#    x 2.033500 0.000000 0.139770 
#    y 0.000000 2.078410 0.000000 
#    z 0.139770 0.000000 2.196770 
# 
# From -- ./inp_files/214459.got.cif
#   From: 2010.05.17/outbox.cif.g08.bks.cpg/sg15_108_cif.got.tgz:214459.got - 2010.06.03 18:47:42.
