data_PCOD9254384
_publ_section_title
;
Structure prediction by ZEFSAII (Michael W. Deem and Ramdas Pophale) SiO2 
 PCOD9254384
Probable space group: C 2/C
;
_chemical_formula_sum "Si O2"
_cell_formula_units_Z 44
_cell_length_a 11.531338
_cell_length_b 18.851671
_cell_length_c 11.871737
_cell_angle_alpha 90.000000
_cell_angle_beta 131.142539
_cell_angle_gamma 90.000000
_cell_volume 1943.489149
_symmetry_space_group_name_H-M "C 2/C"
_symmetry_group_IT_number 15
_symmetry_cell_setting 'monoclinic'
loop_
_space_group_symop_operation_xyz
x,y,z
-x,y,1/2-z
-x,-y,-z
x,-y,1/2+z
1/2+x,1/2+y,z
1/2-x,1/2+y,1/2-z
1/2-x,1/2-y,-z
1/2+x,1/2-y,1/2+z
loop_
_atom_site_type_symbol
_atom_site_label
_atom_site_fract_x
_atom_site_fract_y
_atom_site_fract_z
Si Si1 0.160718 0.183681 0.364900
Si Si2 0.500000 0.909005 0.750000
Si Si3 0.046129 0.708358 0.085048
Si Si4 0.712410 0.300972 0.367092
Si Si5 0.338217 0.438586 0.023642
Si Si6 0.485682 0.590408 0.085894
O O1 0.321006 0.209395 0.422946
O O2 0.151530 0.146237 0.480230
O O3 0.000000 0.227099 0.250000
O O4 0.120025 0.118504 0.253590
O O5 0.462689 0.859157 0.834623
O O6 0.658914 0.949784 0.875221
O O7 0.088604 0.770046 0.201763
O O8 0.881146 0.706644 0.919613
O O9 0.750000 0.250000 0.500000
O O10 0.673539 0.380285 0.384329
O O11 0.437830 0.404780 0.986410
O O12 0.423123 0.514066 0.083142
#
# Coordination Sequence:
#
# PCOD9254384 Si02
#       6
#     8   4   8   8   8   8
#     4   8  17  35  56  74 108 151 188 215 291 346
#     4  10  16  30  50  76 106 144 174 226 290 328
#     4  11  19  36  55  81 114 152 184 236 282 338
#     4  11  20  33  56  85 114 143 191 236 284 328
#     4  10  17  31  56  81 106 142 189 236 277 327
#     4   8  17  32  55  76 104 144 186 224 279 345
#
# _framework density 22.639695
#
# number of rings (size 3 to 8) (size 9 to 14) (size 15 to 20)
#    1.091    1.091    5.455    0.000    0.000    0.000 
#    6.545    4.545    0.000    0.000    0.000    0.000 
#    0.000    0.000    0.000    0.000    0.000    0.182 
#
# Total GULP energy -122468.592973 kJ/mol
# GULP energy per Si atom -5566.754226 kJ/mol
# Density = 2.258817 g / cm^3
# Si number density = 22.639695 Si / 1000 Ang^3
#
#
#
# Elastic Constant Matrix: (Units=GPa)
#
#
# Indices 1 2 3 4 5 6 
#
# 1 165.8595 38.7741 27.3623 0.0000 31.0716 0.0000
# 2 38.7741 86.8887 42.4612 0.0000 13.4600 0.0000
# 3 27.3623 42.4612 92.1498 0.0000 25.9349 0.0000
# 4 0.0000 0.0000 0.0000 28.3323 0.0000 5.9365
# 5 31.0716 13.4600 25.9349 0.0000 31.2365 0.0000
# 6 0.0000 0.0000 0.0000 5.9365 0.0000 25.6207
#
#
#
# Elastic Compliance Matrix: (Units=1/GPa)
#
#
# Indices 1 2 3 4 5 6 
#
# 1 0.007946 -0.002918 0.001117 0.000000 -0.007574 0.000000
# 2 -0.002918 0.015947 -0.007000 0.000000 0.001844 0.000000
# 3 0.001117 -0.007000 0.017238 0.000000 -0.012407 0.000000
# 4 0.000000 0.000000 0.000000 0.037096 0.000000 -0.008596
# 5 -0.007574 0.001844 -0.012407 0.000000 0.049054 0.000000
# 6 0.000000 0.000000 0.000000 -0.008596 0.000000 0.041023
#
#
# Mechanical properties :
#
#
# Convention : Reuss Voigt Hill
#
# Bulk Modulus (GPa) = 42.50485 62.45479 52.47982
# Shear Modulus (GPa) = 25.80654 32.79128 29.29891
#
# Velocity S-wave (km/s) = 3.37987 3.80991 3.60132
# Velocity P-wave (km/s) = 5.83495 6.85567 6.36580
#
# Compressibility (1/GPa) = 0.02352672
#
# Stress axis : x y z
#
# Youngs Moduli (GPa) = 125.84826 62.70900 58.01273
#
# Poissons Ratio (x) = 0.18302 -0.06480
# Poissons Ratio (y) = 0.36729 0.40611
# Poissons Ratio (z) = -0.14057 0.43898
#
# Static dielectric constant tensor:
#      x y z
#    x 1.942420 0.000000 0.003920 
#    y 0.000000 1.872620 0.000000 
#    z 0.003920 0.000000 1.889200 
# 
# From -- ./inp_files/199859.got.cif
#   From: 2010.05.17/outbox.cif.g08.bks.cpg/sg15_100_cif.got.tgz:199859.got - 2010.06.03 18:47:42.
