data_PCOD9254245
_publ_section_title
;
Structure prediction by ZEFSAII (Michael W. Deem and Ramdas Pophale) SiO2 
 PCOD9254245
Probable space group: C 2/C
;
_chemical_formula_sum "Si O2"
_cell_formula_units_Z 60
_cell_length_a 26.792589
_cell_length_b 18.844373
_cell_length_c 8.870612
_cell_angle_alpha 90.000000
_cell_angle_beta 41.868202
_cell_angle_gamma 90.000000
_cell_volume 2989.157284
_symmetry_space_group_name_H-M "C 2/C"
_symmetry_group_IT_number 15
_symmetry_cell_setting 'monoclinic'
loop_
_space_group_symop_operation_xyz
x,y,z
-x,y,1/2-z
-x,-y,-z
x,-y,1/2+z
1/2+x,1/2+y,z
1/2-x,1/2+y,1/2-z
1/2-x,1/2-y,-z
1/2+x,1/2-y,1/2+z
loop_
_atom_site_type_symbol
_atom_site_label
_atom_site_fract_x
_atom_site_fract_y
_atom_site_fract_z
Si Si1 0.148175 0.236375 0.510474
Si Si2 0.500000 0.813716 0.750000
Si Si3 0.268617 0.955135 0.363170
Si Si4 0.122870 0.507728 0.633809
Si Si5 0.292249 0.673916 0.653889
Si Si6 0.276169 0.385816 0.532366
Si Si7 0.014838 0.396453 0.025820
Si Si8 0.131089 0.704988 0.385815
O O1 0.219513 0.277622 0.284397
O O2 0.164180 0.153035 0.493606
O O3 0.148731 0.261476 0.683222
O O4 0.072828 0.264610 0.606574
O O5 0.491242 0.863266 0.916971
O O6 0.226284 0.030103 0.453624
O O7 0.312411 0.951595 0.421667
O O8 0.214295 0.890307 0.447812
O O9 0.335506 0.962784 0.088633
O O10 0.080806 0.452070 0.837606
O O11 0.055740 0.561616 0.746666
O O12 0.359498 0.731037 0.516239
O O13 0.285767 0.637226 0.834793
O O14 0.196335 0.352822 0.762385
O O15 0.054050 0.333561 0.028186
#
# Coordination Sequence:
#
# PCOD9254245 Si02
#       8
#     8   4   8   8   8   8   8   8
#     4   8  15  26  47  69  93 120 160 213 238 280
#     4  10  16  28  50  70  98 120 166 204 246 286
#     4  12  19  32  46  75 104 131 166 201 247 300
#     4  11  22  29  46  72 108 135 161 191 249 300
#     4   9  16  28  49  68  93 126 167 205 238 281
#     4   9  16  29  45  69  95 121 165 208 243 283
#     4  10  18  30  43  71 101 133 162 200 237 298
#     4   8  14  29  45  65  90 128 169 205 230 279
#
# _framework density 20.072548999999999
#
# number of rings (size 3 to 8) (size 9 to 14) (size 15 to 20)
#    0.000    2.400    2.667    4.800    0.000    1.600 
#    0.000    0.000    0.000    7.200    0.000    8.400 
#    0.000    0.000    0.000    0.000    0.000    0.000 
#
# Total GULP energy -167377.704320 kJ/mol
# GULP energy per Si atom -5579.256811 kJ/mol
# Density = 2.002686 g / cm^3
# Si number density = 20.072549 Si / 1000 Ang^3
#
#
#
# Elastic Constant Matrix: (Units=GPa)
#
#
# Indices 1 2 3 4 5 6 
#
# 1 94.6784 54.0001 2.6538 0.0000 -10.3772 0.0000
# 2 54.0001 112.1276 -9.2470 0.0000 -17.1830 0.0000
# 3 2.6538 -9.2470 20.1004 0.0000 1.4336 0.0000
# 4 0.0000 0.0000 0.0000 17.1108 0.0000 -2.0016
# 5 -10.3772 -17.1830 1.4336 0.0000 11.1327 0.0000
# 6 0.0000 0.0000 0.0000 -2.0016 0.0000 48.6058
#
#
#
# Elastic Compliance Matrix: (Units=1/GPa)
#
#
# Indices 1 2 3 4 5 6 
#
# 1 0.015258 -0.007231 -0.005611 0.000000 0.003784 0.000000
# 2 -0.007231 0.015458 0.006908 0.000000 0.016228 0.000000
# 3 -0.005611 0.006908 0.053776 0.000000 -0.001492 0.000000
# 4 0.000000 0.000000 0.000000 0.058725 0.000000 0.002418
# 5 0.003784 0.016228 -0.001492 0.000000 0.118592 0.000000
# 6 0.000000 0.000000 0.000000 0.002418 0.000000 0.020673
#
#
# Mechanical properties :
#
#
# Convention : Reuss Voigt Hill
#
# Bulk Modulus (GPa) = 13.76960 35.74670 24.75815
# Shear Modulus (GPa) = 15.69572 27.33651 21.51611
#
# Velocity S-wave (km/s) = 2.79937 3.69438 3.27757
# Velocity P-wave (km/s) = 4.16214 6.00377 5.16569
#
# Compressibility (1/GPa) = 0.07262377
#
# Stress axis : x y z
#
# Youngs Moduli (GPa) = 65.53742 64.69332 18.59582
#
# Poissons Ratio (x) = 0.46781 0.10434
# Poissons Ratio (y) = 0.47392 -0.12847
# Poissons Ratio (z) = 0.36773 -0.44693
#
# Static dielectric constant tensor:
#      x y z
#    x 1.746290 0.000000 0.037920 
#    y 0.000000 1.759330 0.000000 
#    z 0.037920 0.000000 1.795840 
# 
# From -- ./inp_files/126619.got.cif
#   From: 2010.05.17/outbox.cif.g08.bks.cpg/sg15_64_cif.got.tgz:126619.got - 2010.06.03 18:47:42.
