data_PCOD9254723
_publ_section_title
;
Structure prediction by ZEFSAII (Michael W. Deem and Ramdas Pophale) SiO2 
 PCOD9254723
Probable space group: C 2/C
;
_chemical_formula_sum "Si O2"
_cell_formula_units_Z 44
_cell_length_a 12.727376
_cell_length_b 7.450438
_cell_length_c 19.151509
_cell_angle_alpha 90.000000
_cell_angle_beta 66.783310
_cell_angle_gamma 90.000000
_cell_volume 1668.971419
_symmetry_space_group_name_H-M "C 2/C"
_symmetry_group_IT_number 15
_symmetry_cell_setting 'monoclinic'
loop_
_space_group_symop_operation_xyz
x,y,z
-x,y,1/2-z
-x,-y,-z
x,-y,1/2+z
1/2+x,1/2+y,z
1/2-x,1/2+y,1/2-z
1/2-x,1/2-y,-z
1/2+x,1/2-y,1/2+z
loop_
_atom_site_type_symbol
_atom_site_label
_atom_site_fract_x
_atom_site_fract_y
_atom_site_fract_z
Si Si1 0.218685 0.918044 0.620879
Si Si2 0.500000 0.501923 0.750000
Si Si3 0.416628 0.056718 0.708923
Si Si4 0.940986 0.766495 0.125469
Si Si5 0.165559 0.088580 0.499495
Si Si6 0.275906 0.317831 0.664797
O O1 0.191784 0.439245 0.733252
O O2 0.319027 0.790348 0.622812
O O3 0.233929 0.126342 0.643915
O O4 0.097331 0.884662 0.687539
O O5 0.550726 0.625834 0.801757
O O6 0.500000 0.060333 0.750000
O O7 0.376019 0.240890 0.686368
O O8 0.480938 0.935429 0.634540
O O9 0.036055 0.854275 0.051521
O O10 0.250000 0.250000 0.500000
O O11 0.202366 0.930185 0.542115
O O12 0.181796 0.071226 0.412736
#
# Coordination Sequence:
#
# PCOD9254723 Si02
#       6
#     8   4   8   8   8   8
#     4   9  18  30  56  88 120 164 212 262 315 380
#     4  10  16  34  54  84 126 156 212 266 316 368
#     4  11  20  37  60  88 125 165 209 266 317 372
#     4  10  18  31  57  87 123 167 210 263 315 381
#     4   9  18  32  52  92 129 158 215 261 314 381
#     4  10  21  34  59  93 124 165 212 263 316 385
#
# _framework density 26.363541999999999
#
# number of rings (size 3 to 8) (size 9 to 14) (size 15 to 20)
#    0.000    2.182    2.727    2.182    0.000    8.000 
#    0.000    0.909    2.000    2.182    0.000   53.455 
#    0.000    1.455    0.000    0.000    0.000    0.000 
#
# Total GULP energy -123026.726895 kJ/mol
# GULP energy per Si atom -5592.123950 kJ/mol
# Density = 2.630354 g / cm^3
# Si number density = 26.363542 Si / 1000 Ang^3
#
#
#
# Elastic Constant Matrix: (Units=GPa)
#
#
# Indices 1 2 3 4 5 6 
#
# 1 167.1315 50.9401 50.3687 0.0000 13.2277 0.0000
# 2 50.9401 110.1174 46.5148 0.0000 10.1506 0.0000
# 3 50.3687 46.5148 166.3613 0.0000 18.8064 0.0000
# 4 0.0000 0.0000 0.0000 -36.5365 0.0000 -5.9432
# 5 13.2277 10.1506 18.8064 0.0000 34.9113 0.0000
# 6 0.0000 0.0000 0.0000 -5.9432 0.0000 36.5516
#
#
#
# Elastic Compliance Matrix: (Units=1/GPa)
#
#
# Indices 1 2 3 4 5 6 
#
# 1 0.007304 -0.002708 -0.001310 0.000000 -0.001274 0.000000
# 2 -0.002708 0.011379 -0.002240 0.000000 -0.001076 0.000000
# 3 -0.001310 -0.002240 0.007352 0.000000 -0.002813 0.000000
# 4 0.000000 0.000000 0.000000 -0.026665 0.000000 -0.004336
# 5 -0.001274 -0.001076 -0.002813 0.000000 0.030955 0.000000
# 6 0.000000 0.000000 0.000000 -0.004336 0.000000 0.026654
#
#
# Mechanical properties :
#
#
# Convention : Reuss Voigt Hill
#
# Bulk Modulus (GPa) = 73.97095 82.13973 78.05534
# Shear Modulus (GPa) = 67.56472 26.70438 47.13455
#
# Velocity S-wave (km/s) = 5.06791 3.18611 4.23291
# Velocity P-wave (km/s) = 7.89708 6.69023 7.31858
#
# Compressibility (1/GPa) = 0.01351882
#
# Stress axis : x y z
#
# Youngs Moduli (GPa) = 136.90278 87.87810 136.01661
#
# Poissons Ratio (x) = 0.23798 0.17822
# Poissons Ratio (y) = 0.37074 0.30470
# Poissons Ratio (z) = 0.17938 0.19686
#
# Static dielectric constant tensor:
#      x y z
#    x -3.627200 0.000000 1.442180 
#    y 0.000000 2.164580 0.000000 
#    z 1.442180 0.000000 1.723140 
# 
# From -- ./inp_files/241935.got.cif
#   From: 2010.05.17/outbox.cif.g08.bks.cpg/sg15_121_cif.got.tgz:241935.got - 2010.06.03 18:47:42.
