data_PCOD9254233
_publ_section_title
;
Structure prediction by ZEFSAII (Michael W. Deem and Ramdas Pophale) SiO2 
 PCOD9254233
Probable space group: C 2/C
;
_chemical_formula_sum "Si O2"
_cell_formula_units_Z 56
_cell_length_a 8.520999
_cell_length_b 15.642094
_cell_length_c 23.860513
_cell_angle_alpha 90.000000
_cell_angle_beta 38.405486
_cell_angle_gamma 90.000000
_cell_volume 1975.661696
_symmetry_space_group_name_H-M "C 2/C"
_symmetry_group_IT_number 15
_symmetry_cell_setting 'monoclinic'
loop_
_space_group_symop_operation_xyz
x,y,z
-x,y,1/2-z
-x,-y,-z
x,-y,1/2+z
1/2+x,1/2+y,z
1/2-x,1/2+y,1/2-z
1/2-x,1/2-y,-z
1/2+x,1/2-y,1/2+z
loop_
_atom_site_type_symbol
_atom_site_label
_atom_site_fract_x
_atom_site_fract_y
_atom_site_fract_z
Si Si1 0.000000 0.000000 0.000000
Si Si2 0.730514 0.776153 0.892064
Si Si3 0.753670 0.171078 0.886499
Si Si4 0.144825 0.878507 0.028015
Si Si5 0.804387 0.991601 0.692565
Si Si6 0.000000 0.086446 0.250000
Si Si7 0.496921 0.654225 0.076658
Si Si8 0.849654 0.637066 0.705851
O O1 0.243506 0.935355 0.949589
O O2 0.884622 0.910691 0.001908
O O3 0.501630 0.710330 0.941409
O O4 0.777740 0.848324 0.831914
O O5 0.791406 0.815051 0.937675
O O6 0.968790 0.710976 0.824924
O O7 0.654692 0.266411 0.905486
O O8 0.660207 0.123908 0.857604
O O9 0.678159 0.134241 0.968200
O O10 0.059417 0.164338 0.801911
O O11 0.942757 0.953794 0.103704
O O12 0.591967 0.051252 0.776923
O O13 0.958943 0.971589 0.706568
O O14 0.791880 0.899767 0.669089
#
# Coordination Sequence:
#
# PCOD9254233 Si02
#       8
#     4   8   8   8   8   4   8   8
#     4  10  22  40  58  72 100 138 182 238 274 282
#     4  10  20  34  53  79 108 140 175 206 259 329
#     4   9  17  31  55  81 104 136 176 207 255 323
#     4  10  20  36  55  75 101 139 182 220 259 306
#     4   9  17  29  49  77 109 138 167 203 254 309
#     4  10  16  28  48  76 110 138 162 200 254 316
#     4   9  20  36  54  76 102 138 182 220 259 310
#     4   9  17  33  53  77 113 144 164 204 260 321
#
# _framework density 28.344935
#
# number of rings (size 3 to 8) (size 9 to 14) (size 15 to 20)
#    0.000    2.571    0.000    3.429    0.000    2.286 
#    0.000   20.000    0.000    4.286    0.000    0.000 
#    0.000    0.000    0.000    0.000    0.000    0.000 
#
# Total GULP energy -156084.246482 kJ/mol
# GULP energy per Si atom -5574.437374 kJ/mol
# Density = 2.828042 g / cm^3
# Si number density = 28.344935 Si / 1000 Ang^3
#
#
#
# Elastic Constant Matrix: (Units=GPa)
#
#
# Indices 1 2 3 4 5 6 
#
# 1 151.1776 53.1861 27.8655 -0.0128 -9.1293 0.0010
# 2 53.1861 158.7544 32.9286 0.0034 -4.2403 -0.0036
# 3 27.8655 32.9286 80.5026 -0.0186 5.9160 0.0071
# 4 -0.0128 0.0034 -0.0186 65.6680 0.0127 32.8315
# 5 -9.1293 -4.2403 5.9160 0.0127 33.1159 0.0038
# 6 0.0010 -0.0036 0.0071 32.8315 0.0038 45.4437
#
#
#
# Elastic Compliance Matrix: (Units=1/GPa)
#
#
# Indices 1 2 3 4 5 6 
#
# 1 0.007882 -0.002164 -0.002009 0.000001 0.002255 -0.000001
# 2 -0.002164 0.007542 -0.002394 -0.000003 0.000797 0.000003
# 3 -0.002009 -0.002394 0.014348 0.000009 -0.003424 -0.000008
# 4 0.000001 -0.000003 0.000009 0.023839 -0.000009 -0.017223
# 5 0.002255 0.000797 -0.003424 -0.000009 0.031532 0.000004
# 6 -0.000001 0.000003 -0.000008 -0.017223 0.000004 0.034448
#
#
# Mechanical properties :
#
#
# Convention : Reuss Voigt Hill
#
# Bulk Modulus (GPa) = 60.10341 68.71056 64.40699
# Shear Modulus (GPa) = 36.16037 47.27583 41.71810
#
# Velocity S-wave (km/s) = 3.57561 4.08839 3.84057
# Velocity P-wave (km/s) = 6.18845 6.82496 6.51448
#
# Compressibility (1/GPa) = 0.01663799
#
# Stress axis : x y z
#
# Youngs Moduli (GPa) = 126.86341 132.59222 69.69399
#
# Poissons Ratio (x) = 0.28691 0.14002
# Poissons Ratio (y) = 0.27451 0.16688
# Poissons Ratio (z) = 0.25488 0.31749
#
# Static dielectric constant tensor:
#      x y z
#    x 2.231130 -0.000010 -0.246670 
#    y -0.000010 1.950610 0.000030 
#    z -0.246670 0.000030 2.006470 
# 
# From -- ./inp_files/288681.got.cif
#   From: 2010.05.17/outbox.cif.g08.bks.cpg/sg15_145_cif.got.tgz:288681.got - 2010.06.03 18:47:42.
