data_PCOD9254009
_publ_section_title
;
Structure prediction by ZEFSAII (Michael W. Deem and Ramdas Pophale) SiO2 
 PCOD9254009
Probable space group: C 2/C
;
_chemical_formula_sum "Si O2"
_cell_formula_units_Z 60
_cell_length_a 17.735717
_cell_length_b 13.144775
_cell_length_c 20.931204
_cell_angle_alpha 90.000000
_cell_angle_beta 39.976463
_cell_angle_gamma 90.000000
_cell_volume 3135.096461
_symmetry_space_group_name_H-M "C 2/C"
_symmetry_group_IT_number 15
_symmetry_cell_setting 'monoclinic'
loop_
_space_group_symop_operation_xyz
x,y,z
-x,y,1/2-z
-x,-y,-z
x,-y,1/2+z
1/2+x,1/2+y,z
1/2-x,1/2+y,1/2-z
1/2-x,1/2-y,-z
1/2+x,1/2-y,1/2+z
loop_
_atom_site_type_symbol
_atom_site_label
_atom_site_fract_x
_atom_site_fract_y
_atom_site_fract_z
Si Si1 0.500000 0.058525 0.750000
Si Si2 0.979054 0.610159 0.625727
Si Si3 0.205839 0.877762 0.287891
Si Si4 0.558706 0.122573 0.074334
Si Si5 0.020551 0.747565 0.492225
Si Si6 0.793901 0.603270 0.407434
Si Si7 0.118180 0.061367 0.417765
Si Si8 0.409469 0.719019 0.758161
O O1 0.502273 0.125330 0.685344
O O2 0.611302 0.981955 0.676402
O O3 0.844453 0.639162 0.699443
O O4 0.056977 0.676497 0.527166
O O5 0.004373 0.489604 0.601469
O O6 0.151602 0.854097 0.253394
O O7 0.128091 0.806081 0.386580
O O8 0.194293 0.994227 0.320222
O O9 0.682025 0.112030 0.032513
O O10 0.482448 0.195423 0.170682
O O11 0.548068 0.178017 0.014271
O O12 0.924841 0.829692 0.577377
O O13 0.673850 0.570599 0.452225
O O14 0.821853 0.711143 0.356213
O O15 0.000000 0.000000 0.500000
O O16 0.500000 0.670269 0.750000
#
# Coordination Sequence:
#
# PCOD9254009 Si02
#       8
#     4   8   8   8   8   8   8   8
#     4  10  18  32  60  84 102 150 194 232 274 338
#     4  11  19  35  58  82 112 147 191 233 284 323
#     4  10  20  34  56  79 114 155 186 225 285 343
#     4   9  18  32  55  83 110 132 182 242 283 330
#     4  10  22  35  53  88 114 142 188 234 281 341
#     4  10  15  32  56  82 106 139 184 230 285 337
#     4  10  20  34  50  73 110 150 182 219 274 347
#     4   9  15  29  53  85 106 132 178 233 282 330
#
# _framework density 19.138166999999999
#
# number of rings (size 3 to 8) (size 9 to 14) (size 15 to 20)
#    0.000    2.133    4.667    1.200    0.000    1.600 
#    0.000    3.333    1.467    0.000    0.000    0.000 
#    0.000    0.000    0.000    0.000    0.000    0.000 
#
# Total GULP energy -167139.303469 kJ/mol
# GULP energy per Si atom -5571.310116 kJ/mol
# Density = 1.909461 g / cm^3
# Si number density = 19.138167 Si / 1000 Ang^3
#
#
#
# Elastic Constant Matrix: (Units=GPa)
#
#
# Indices 1 2 3 4 5 6 
#
# 1 105.0897 52.8004 16.8757 0.0000 10.6872 0.0000
# 2 52.8004 81.5073 21.8650 0.0000 15.4432 0.0000
# 3 16.8757 21.8650 33.3071 0.0000 5.0352 0.0000
# 4 0.0000 0.0000 0.0000 16.7212 0.0000 5.8468
# 5 10.6872 15.4432 5.0352 0.0000 35.9240 0.0000
# 6 0.0000 0.0000 0.0000 5.8468 0.0000 18.9595
#
#
#
# Elastic Compliance Matrix: (Units=1/GPa)
#
#
# Indices 1 2 3 4 5 6 
#
# 1 0.014163 -0.008753 -0.001391 0.000000 -0.000256 0.000000
# 2 -0.008753 0.021292 -0.008738 0.000000 -0.005324 0.000000
# 3 -0.001391 -0.008738 0.036610 0.000000 -0.000961 0.000000
# 4 0.000000 0.000000 0.000000 0.067033 0.000000 -0.020672
# 5 -0.000256 -0.005324 -0.000961 0.000000 0.030336 0.000000
# 6 0.000000 0.000000 0.000000 -0.020672 0.000000 0.059119
#
#
# Mechanical properties :
#
#
# Convention : Reuss Voigt Hill
#
# Bulk Modulus (GPa) = 29.15378 44.77625 36.96501
# Shear Modulus (GPa) = 18.00182 22.87845 20.44014
#
# Velocity S-wave (km/s) = 3.07029 3.46126 3.27162
# Velocity P-wave (km/s) = 5.27591 6.27860 5.79897
#
# Compressibility (1/GPa) = 0.03430087
#
# Stress axis : x y z
#
# Youngs Moduli (GPa) = 70.60692 46.96639 27.31515
#
# Poissons Ratio (x) = 0.41110 0.03800
# Poissons Ratio (y) = 0.61803 0.23867
# Poissons Ratio (z) = 0.09822 0.41037
#
# Static dielectric constant tensor:
#      x y z
#    x 1.689260 0.000000 0.017550 
#    y 0.000000 1.699320 0.000000 
#    z 0.017550 0.000000 1.796610 
# 
# From -- ./inp_files/277254.got.cif
#   From: 2010.05.17/outbox.cif.g08.bks.cpg/sg15_139_cif.got.tgz:277254.got - 2010.06.03 18:47:42.
