data_PCOD9254778
_publ_section_title
;
Structure prediction by ZEFSAII (Michael W. Deem and Ramdas Pophale) SiO2 
 PCOD9254778
Probable space group: C 2/C
;
_chemical_formula_sum "Si O2"
_cell_formula_units_Z 44
_cell_length_a 16.825118
_cell_length_b 19.065787
_cell_length_c 8.295631
_cell_angle_alpha 90.000000
_cell_angle_beta 36.437311
_cell_angle_gamma 90.000000
_cell_volume 1580.545425
_symmetry_space_group_name_H-M "C 2/C"
_symmetry_group_IT_number 15
_symmetry_cell_setting 'monoclinic'
loop_
_space_group_symop_operation_xyz
x,y,z
-x,y,1/2-z
-x,-y,-z
x,-y,1/2+z
1/2+x,1/2+y,z
1/2-x,1/2+y,1/2-z
1/2-x,1/2-y,-z
1/2+x,1/2-y,1/2+z
loop_
_atom_site_type_symbol
_atom_site_label
_atom_site_fract_x
_atom_site_fract_y
_atom_site_fract_z
Si Si1 0.723261 0.273477 0.288274
Si Si2 0.500000 0.841316 0.750000
Si Si3 0.285817 0.526731 0.178491
Si Si4 0.015280 0.597236 0.558971
Si Si5 0.801093 0.101601 0.472756
Si Si6 0.356211 0.656267 0.910004
O O1 0.671022 0.316918 0.528842
O O2 0.651667 0.305137 0.247623
O O3 0.744061 0.191509 0.214103
O O4 0.876797 0.298854 0.023555
O O5 0.439625 0.880840 0.694202
O O6 0.122561 0.537853 0.440299
O O7 0.348065 0.567643 0.229508
O O8 0.336374 0.448703 0.064861
O O9 0.330450 0.573856 0.953893
O O10 0.000000 0.643258 0.750000
O O11 0.858295 0.587319 0.779162
O O12 0.500000 0.667608 0.750000
#
# Coordination Sequence:
#
# PCOD9254778 Si02
#       6
#     8   4   8   8   8   8
#     4  10  21  39  62  89 121 157 213 246 315 371
#     4  10  16  34  62  84 124 160 192 258 310 372
#     4  11  21  38  57  90 127 160 210 255 313 372
#     4   9  19  32  55  93 125 159 200 255 321 375
#     4  10  22  36  61  89 123 161 202 264 312 370
#     4  11  23  40  64  89 123 170 207 253 304 379
#
# _framework density 27.838488999999999
#
# number of rings (size 3 to 8) (size 9 to 14) (size 15 to 20)
#    0.000    1.818    2.727    1.636    2.545    0.727 
#    1.636    4.545    0.000    0.000    0.000    0.000 
#    0.000    0.000    0.000    0.000    0.000    0.000 
#
# Total GULP energy -122711.963954 kJ/mol
# GULP energy per Si atom -5577.816543 kJ/mol
# Density = 2.777513 g / cm^3
# Si number density = 27.838489 Si / 1000 Ang^3
#
#
#
# Elastic Constant Matrix: (Units=GPa)
#
#
# Indices 1 2 3 4 5 6 
#
# 1 107.9712 15.6677 20.3295 0.0000 12.4118 0.0000
# 2 15.6677 90.8336 3.5383 0.0000 24.1632 0.0000
# 3 20.3295 3.5383 76.7427 -0.0001 17.3407 0.0000
# 4 0.0000 0.0000 -0.0001 9.3518 0.0000 14.8522
# 5 12.4118 24.1632 17.3407 0.0000 51.8728 0.0000
# 6 0.0000 0.0000 0.0000 14.8522 0.0000 21.7044
#
#
#
# Elastic Compliance Matrix: (Units=1/GPa)
#
#
# Indices 1 2 3 4 5 6 
#
# 1 0.010019 -0.001380 -0.002373 0.000000 -0.000961 0.000000
# 2 -0.001380 0.012802 0.001134 -0.000001 -0.006012 0.000000
# 3 -0.002373 0.001134 0.014709 -0.000002 -0.004877 0.000001
# 4 0.000000 -0.000001 -0.000002 -1.232370 0.000002 0.843304
# 5 -0.000961 -0.006012 -0.004877 0.000002 0.023939 -0.000001
# 6 0.000000 0.000000 0.000001 0.843304 -0.000001 -0.530994
#
#
# Mechanical properties :
#
#
# Convention : Reuss Voigt Hill
#
# Bulk Modulus (GPa) = 30.96768 39.40204 35.18486
# Shear Modulus (GPa) = -2.96579 32.31992 14.67706
#
# Velocity S-wave (km/s) = -1.03328 3.41101 2.29862
# Velocity P-wave (km/s) = 3.11844 5.44957 4.43974
#
# Compressibility (1/GPa) = 0.03229173
#
# Stress axis : x y z
#
# Youngs Moduli (GPa) = 99.80686 78.11018 67.98513
#
# Poissons Ratio (x) = 0.10780 0.16135
# Poissons Ratio (y) = 0.13774 -0.07709
# Poissons Ratio (z) = 0.23688 -0.08857
#
# Static dielectric constant tensor:
#      x y z
#    x 2.169660 0.000000 0.048170 
#    y 0.000000 2.248100 0.000000 
#    z 0.048170 0.000000 2.256710 
# 
# From -- ./inp_files/49575.got.cif
#   From: 2010.05.17/outbox.cif.g08.bks.cpg/sg15_25_cif.got.tgz:49575.got - 2010.06.03 18:47:42.
