data_PCOD9254782
_publ_section_title
;
Structure prediction by ZEFSAII (Michael W. Deem and Ramdas Pophale) SiO2 
 PCOD9254782
Probable space group: C 2/C
;
_chemical_formula_sum "Si O2"
_cell_formula_units_Z 52
_cell_length_a 10.647709
_cell_length_b 16.145995
_cell_length_c 16.988017
_cell_angle_alpha 90.000000
_cell_angle_beta 75.145593
_cell_angle_gamma 90.000000
_cell_volume 2822.940030
_symmetry_space_group_name_H-M "C 2/C"
_symmetry_group_IT_number 15
_symmetry_cell_setting 'monoclinic'
loop_
_space_group_symop_operation_xyz
x,y,z
-x,y,1/2-z
-x,-y,-z
x,-y,1/2+z
1/2+x,1/2+y,z
1/2-x,1/2+y,1/2-z
1/2-x,1/2-y,-z
1/2+x,1/2-y,1/2+z
loop_
_atom_site_type_symbol
_atom_site_label
_atom_site_fract_x
_atom_site_fract_y
_atom_site_fract_z
Si Si1 0.731684 0.852783 0.946564
Si Si2 0.244277 0.970653 0.120854
Si Si3 0.500000 0.459584 0.750000
Si Si4 0.684727 0.679639 0.894693
Si Si5 0.064010 0.913448 0.020136
Si Si6 0.876799 0.651868 0.719613
Si Si7 0.539041 0.326672 0.866348
O O1 0.655914 0.774823 0.923412
O O2 0.882324 0.832651 0.899922
O O3 0.697504 0.940443 0.913869
O O4 0.734136 0.853328 0.041488
O O5 0.192156 0.929091 0.049487
O O6 0.331754 0.913286 0.161341
O O7 0.109897 0.989034 0.188794
O O8 0.572267 0.398209 0.798880
O O9 0.551231 0.629439 0.912328
O O10 0.764996 0.670414 0.801993
O O11 0.091798 0.854516 0.941827
O O12 0.000000 0.000000 0.000000
O O13 0.000000 0.621421 0.750000
O O14 0.917713 0.738145 0.671803
#
# Coordination Sequence:
#
# PCOD9254782 Si02
#       7
#     8   8   4   8   8   8   8
#     4   9  18  37  62  85 109 160 200 234 276 369
#     4  11  22  34  59  91 119 144 203 246 297 325
#     4  10  16  34  62  90 108 154 200 256 272 342
#     4  10  19  35  65  84 115 153 205 231 293 350
#     4  11  20  38  64  93 111 150 202 257 286 335
#     4  12  23  37  57  89 122 161 190 237 297 363
#     4  10  19  35  62  85 119 154 204 228 294 354
#
# _framework density 18.420511999999999
#
# number of rings (size 3 to 8) (size 9 to 14) (size 15 to 20)
#    0.000    1.538    6.923    1.846    0.000    0.615 
#    0.000    0.769    6.769    0.000    0.000    0.000 
#    0.000    0.000    0.000    0.000    0.000    0.000 
#
# Total GULP energy -145106.320421 kJ/mol
# GULP energy per Si atom -5581.012324 kJ/mol
# Density = 1.837859 g / cm^3
# Si number density = 18.420512 Si / 1000 Ang^3
#
#
#
# Elastic Constant Matrix: (Units=GPa)
#
#
# Indices 1 2 3 4 5 6 
#
# 1 51.7287 52.7844 28.2323 0.0000 25.9418 0.0000
# 2 52.7844 109.1423 49.0620 0.0000 20.7451 0.0000
# 3 28.2323 49.0620 96.3504 0.0000 13.8008 0.0000
# 4 0.0000 0.0000 0.0000 40.4604 0.0000 3.0467
# 5 25.9418 20.7451 13.8008 0.0000 25.0796 0.0000
# 6 0.0000 0.0000 0.0000 3.0467 0.0000 28.4087
#
#
#
# Elastic Compliance Matrix: (Units=1/GPa)
#
#
# Indices 1 2 3 4 5 6 
#
# 1 0.070378 -0.023522 -0.001090 0.000000 -0.052741 0.000000
# 2 -0.023522 0.021017 -0.005216 0.000000 0.009816 0.000000
# 3 -0.001090 -0.005216 0.013650 0.000000 -0.002070 0.000000
# 4 0.000000 0.000000 0.000000 0.024917 0.000000 -0.002672
# 5 -0.052741 0.009816 -0.002070 0.000000 0.087446 0.000000
# 6 0.000000 0.000000 0.000000 -0.002672 0.000000 0.035487
#
#
# Mechanical properties :
#
#
# Convention : Reuss Voigt Hill
#
# Bulk Modulus (GPa) = 22.03128 57.48653 39.75890
# Shear Modulus (GPa) = 15.25869 27.26592 21.26231
#
# Velocity S-wave (km/s) = 2.88124 3.85150 3.40115
# Velocity P-wave (km/s) = 4.80155 7.14524 6.08725
#
# Compressibility (1/GPa) = 0.04539001
#
# Stress axis : x y z
#
# Youngs Moduli (GPa) = 14.20892 47.58021 73.25755
#
# Poissons Ratio (x) = 1.11920 0.07985
# Poissons Ratio (y) = 0.33423 0.38208
# Poissons Ratio (z) = 0.01549 0.24816
#
# Static dielectric constant tensor:
#      x y z
#    x 1.624660 0.000000 -0.002940 
#    y 0.000000 1.650310 0.000000 
#    z -0.002940 0.000000 1.693270 
# 
# From -- ./inp_files/197271.got.cif
#   From: 2010.05.17/outbox.cif.g08.bks.cpg/sg15_99_cif.got.tgz:197271.got - 2010.06.03 18:47:42.
