data_PCOD9254038
_publ_section_title
;
Structure prediction by ZEFSAII (Michael W. Deem and Ramdas Pophale) SiO2 
 PCOD9254038
Probable space group: C 2/C
;
_chemical_formula_sum "Si O2"
_cell_formula_units_Z 56
_cell_length_a 13.312532
_cell_length_b 33.607988
_cell_length_c 7.079767
_cell_angle_alpha 90.000000
_cell_angle_beta 49.552728
_cell_angle_gamma 90.000000
_cell_volume 2410.508639
_symmetry_space_group_name_H-M "C 2/C"
_symmetry_group_IT_number 15
_symmetry_cell_setting 'monoclinic'
loop_
_space_group_symop_operation_xyz
x,y,z
-x,y,1/2-z
-x,-y,-z
x,-y,1/2+z
1/2+x,1/2+y,z
1/2-x,1/2+y,1/2-z
1/2-x,1/2-y,-z
1/2+x,1/2-y,1/2+z
loop_
_atom_site_type_symbol
_atom_site_label
_atom_site_fract_x
_atom_site_fract_y
_atom_site_fract_z
Si Si1 0.497902 0.171875 0.981545
Si Si2 0.335618 0.960488 0.248636
Si Si3 0.745938 0.370191 0.764783
Si Si4 0.736486 0.122369 0.717057
Si Si5 0.365205 0.047791 0.157353
Si Si6 0.892477 0.247731 0.216264
Si Si7 0.008255 0.164693 0.010927
O O1 0.500000 0.169951 0.750000
O O2 0.588185 0.136009 0.944055
O O3 0.573755 0.212482 0.941445
O O4 0.344702 0.164827 0.211839
O O5 0.246318 0.924950 0.277511
O O6 0.358334 0.950800 0.439112
O O7 0.293974 0.006456 0.295274
O O8 0.480803 0.957074 0.977795
O O9 0.756020 0.370828 0.520756
O O10 0.799780 0.410637 0.790409
O O11 0.591184 0.364462 0.973203
O O12 0.840862 0.150744 0.695477
O O13 0.750000 0.250000 0.500000
O O14 0.938480 0.207516 0.054293
O O15 0.000000 0.248824 0.250000
O O16 0.000000 0.161646 0.250000
#
# Coordination Sequence:
#
# PCOD9254038 Si02
#       7
#     8   8   8   8   8   8   8
#     4   9  14  21  34  47  69 100 137 168 194 236
#     4   9  16  27  43  62  81 106 137 175 210 250
#     4   9  15  24  36  52  72 103 135 165 197 246
#     4   9  15  24  36  52  74 103 135 166 203 245
#     4   9  16  27  43  62  81 105 139 173 211 249
#     4  10  16  22  30  48  72 104 139 172 201 235
#     4   9  16  23  32  49  75 104 135 168 199 238
#
# _framework density 23.231611000000001
#
# number of rings (size 3 to 8) (size 9 to 14) (size 15 to 20)
#    0.000    2.857    1.429    4.286    0.000    0.000 
#    0.000    0.714    0.000    0.000    0.000    0.000 
#    0.000    0.000    0.000    7.714    0.000    8.571 
#
# Total GULP energy -155910.158137 kJ/mol
# GULP energy per Si atom -5568.219933 kJ/mol
# Density = 2.317873 g / cm^3
# Si number density = 23.231611 Si / 1000 Ang^3
#
#
#
# Elastic Constant Matrix: (Units=GPa)
#
#
# Indices 1 2 3 4 5 6 
#
# 1 49.8304 7.0572 38.7542 0.0000 -5.3030 0.0000
# 2 7.0572 142.6606 32.6403 0.0000 -39.8840 0.0000
# 3 38.7542 32.6403 83.0038 0.0000 -25.9172 0.0000
# 4 0.0000 0.0000 0.0000 9.6589 0.0000 -7.3125
# 5 -5.3030 -39.8840 -25.9172 0.0000 51.4653 0.0000
# 6 0.0000 0.0000 0.0000 -7.3125 0.0000 8.9122
#
#
#
# Elastic Compliance Matrix: (Units=1/GPa)
#
#
# Indices 1 2 3 4 5 6 
#
# 1 0.032726 0.001055 -0.017070 0.000000 -0.004407 0.000000
# 2 0.001055 0.009167 -0.002189 0.000000 0.006110 0.000000
# 3 -0.017070 -0.002189 0.023494 0.000000 0.008376 0.000000
# 4 0.000000 0.000000 0.000000 0.273302 0.000000 0.224246
# 5 -0.004407 0.006110 0.008376 0.000000 0.027929 0.000000
# 6 0.000000 0.000000 0.000000 0.224246 0.000000 0.296202
#
#
# Mechanical properties :
#
#
# Convention : Reuss Voigt Hill
#
# Bulk Modulus (GPa) = 34.51101 48.04427 41.27764
# Shear Modulus (GPa) = 7.05330 27.14347 17.09839
#
# Velocity S-wave (km/s) = 1.74433 3.42187 2.71587
# Velocity P-wave (km/s) = 4.35251 6.02808 5.25747
#
# Compressibility (1/GPa) = 0.02897626
#
# Stress axis : x y z
#
# Youngs Moduli (GPa) = 30.55712 109.09220 42.56442
#
# Poissons Ratio (x) = -0.11506 0.72658
# Poissons Ratio (y) = -0.03223 0.09319
# Poissons Ratio (z) = 0.52162 0.23883
#
# Static dielectric constant tensor:
#      x y z
#    x 1.960600 0.000000 0.106280 
#    y 0.000000 2.005460 0.000000 
#    z 0.106280 0.000000 1.921570 
# 
# From -- ./inp_files/101540.got.cif
#   From: 2010.05.17/outbox.cif.g08.bks.cpg/sg15_51_cif.got.tgz:101540.got - 2010.06.03 18:47:42.
