data_PCOD9254980
_publ_section_title
;
Structure prediction by ZEFSAII (Michael W. Deem and Ramdas Pophale) SiO2 
 PCOD9254980
Probable space group: C 2/C
;
_chemical_formula_sum "Si O2"
_cell_formula_units_Z 64
_cell_length_a 32.611852
_cell_length_b 9.848687
_cell_length_c 18.806194
_cell_angle_alpha 90.000000
_cell_angle_beta 24.904402
_cell_angle_gamma 90.000000
_cell_volume 2543.581300
_symmetry_space_group_name_H-M "C 2/C"
_symmetry_group_IT_number 15
_symmetry_cell_setting 'monoclinic'
loop_
_space_group_symop_operation_xyz
x,y,z
-x,y,1/2-z
-x,-y,-z
x,-y,1/2+z
1/2+x,1/2+y,z
1/2-x,1/2+y,1/2-z
1/2-x,1/2-y,-z
1/2+x,1/2-y,1/2+z
loop_
_atom_site_type_symbol
_atom_site_label
_atom_site_fract_x
_atom_site_fract_y
_atom_site_fract_z
Si Si1 0.064241 0.101274 0.585609
Si Si2 0.658869 0.898396 0.627115
Si Si3 0.006933 0.773969 0.962505
Si Si4 0.948509 0.796596 0.902059
Si Si5 0.841664 0.003792 0.750760
Si Si6 0.447080 0.120957 0.479482
Si Si7 0.758185 0.891026 0.251244
Si Si8 0.275386 0.667727 0.072476
O O1 0.065127 0.222125 0.528662
O O2 0.162892 0.068217 0.475210
O O3 0.000000 0.163244 0.750000
O O4 0.019243 0.955805 0.637162
O O5 0.547187 0.938235 0.790680
O O6 0.666845 0.745356 0.581779
O O7 0.688072 0.895695 0.664587
O O8 0.744396 0.977302 0.450756
O O9 0.099182 0.873979 0.816716
O O10 0.977226 0.729027 0.930623
O O11 0.033836 0.646833 0.968138
O O12 0.918027 0.868430 0.133144
O O13 0.000000 0.746847 0.750000
O O14 0.831422 0.808118 0.085324
O O15 0.813622 0.994044 0.710704
O O16 0.343849 0.059775 0.619370
O O17 0.741935 0.785667 0.342491
#
# Coordination Sequence:
#
# PCOD9254980 Si02
#       8
#     8   8   8   8   8   8   8   8
#     4  10  18  27  46  77 103 128 157 208 260 310
#     4  10  17  26  45  76 107 144 157 206 257 326
#     4  10  19  33  49  76 103 147 174 214 268 322
#     4  10  21  34  53  74 100 128 176 231 266 302
#     4   9  18  29  49  74 116 136 171 210 267 327
#     4  11  19  30  51  73 111 139 175 206 259 328
#     4   9  19  32  44  74 100 140 169 213 262 308
#     4   9  17  26  44  70 108 127 164 196 258 318
#
# _framework density 25.161373000000001
#
# number of rings (size 3 to 8) (size 9 to 14) (size 15 to 20)
#    0.000    2.250    1.250    5.250    3.500    0.000 
#    0.000    0.625    0.000    0.750    9.750    0.000 
#    0.000    0.000    0.000    0.000    0.000    0.000 
#
# Total GULP energy -178631.168011 kJ/mol
# GULP energy per Si atom -5582.224000 kJ/mol
# Density = 2.510410 g / cm^3
# Si number density = 25.161373 Si / 1000 Ang^3
#
#
#
# Elastic Constant Matrix: (Units=GPa)
#
#
# Indices 1 2 3 4 5 6 
#
# 1 129.5856 3.7776 62.4331 0.0000 -17.3691 0.0000
# 2 3.7776 44.6066 10.8684 -0.0001 -3.7004 0.0000
# 3 62.4331 10.8684 169.2861 0.0000 -29.0498 0.0000
# 4 0.0000 -0.0001 0.0000 22.0116 0.0000 -5.2129
# 5 -17.3691 -3.7004 -29.0498 0.0000 51.6310 0.0000
# 6 0.0000 0.0000 0.0000 -5.2129 0.0000 18.2388
#
#
#
# Elastic Compliance Matrix: (Units=1/GPa)
#
#
# Indices 1 2 3 4 5 6 
#
# 1 0.009469 0.000106 -0.003267 0.000000 0.001355 0.000000
# 2 0.000106 0.022813 -0.001347 0.000000 0.000913 0.000000
# 3 -0.003267 -0.001347 0.007741 0.000000 0.003160 0.000000
# 4 0.000000 0.000000 0.000000 0.048729 0.000000 0.013927
# 5 0.001355 0.000913 0.003160 0.000000 0.021667 0.000000
# 6 0.000000 0.000000 0.000000 0.013927 0.000000 0.058809
#
#
# Mechanical properties :
#
#
# Convention : Reuss Voigt Hill
#
# Bulk Modulus (GPa) = 32.24948 55.29293 43.77121
# Shear Modulus (GPa) = 26.51411 36.13624 31.32518
#
# Velocity S-wave (km/s) = 3.24969 3.79381 3.53224
# Velocity P-wave (km/s) = 5.18898 6.41979 5.83692
#
# Compressibility (1/GPa) = 0.03100825
#
# Stress axis : x y z
#
# Youngs Moduli (GPa) = 105.60499 43.83432 129.18931
#
# Poissons Ratio (x) = -0.00466 0.42200
# Poissons Ratio (y) = -0.01124 0.17405
# Poissons Ratio (z) = 0.34496 0.05906
#
# Static dielectric constant tensor:
#      x y z
#    x 2.069500 0.000000 -0.046880 
#    y 0.000000 2.037180 0.000000 
#    z -0.046880 0.000000 2.163100 
# 
# From -- ./inp_files/225398.got.cif
#   From: 2010.05.17/outbox.cif.g08.bks.cpg/sg15_113_cif.got.tgz:225398.got - 2010.06.03 18:47:42.
