data_PCOD9254287
_publ_section_title
;
Structure prediction by ZEFSAII (Michael W. Deem and Ramdas Pophale) SiO2 
 PCOD9254287
Probable space group: C 2/C
;
_chemical_formula_sum "Si O2"
_cell_formula_units_Z 48
_cell_length_a 21.375925
_cell_length_b 34.704246
_cell_length_c 5.275746
_cell_angle_alpha 90.000000
_cell_angle_beta 109.609674
_cell_angle_gamma 90.000000
_cell_volume 3686.741439
_symmetry_space_group_name_H-M "C 2/C"
_symmetry_group_IT_number 15
_symmetry_cell_setting 'monoclinic'
loop_
_space_group_symop_operation_xyz
x,y,z
-x,y,1/2-z
-x,-y,-z
x,-y,1/2+z
1/2+x,1/2+y,z
1/2-x,1/2+y,1/2-z
1/2-x,1/2-y,-z
1/2+x,1/2-y,1/2+z
loop_
_atom_site_type_symbol
_atom_site_label
_atom_site_fract_x
_atom_site_fract_y
_atom_site_fract_z
Si Si1 0.354115 0.228342 0.632857
Si Si2 0.219371 0.188379 0.451790
Si Si3 0.575620 0.483395 0.077012
Si Si4 0.543467 0.395630 0.053999
Si Si5 0.849929 0.831997 0.143970
Si Si6 0.576508 0.249078 0.274825
O O1 0.296617 0.197090 0.510207
O O2 0.316833 0.269825 0.590421
O O3 0.406662 0.230850 0.475413
O O4 0.387231 0.225453 0.952793
O O5 0.204448 0.171479 0.707831
O O6 0.184905 0.164859 0.177298
O O7 0.607614 0.494490 0.386477
O O8 0.571259 0.438006 0.027182
O O9 0.500000 0.500000 0.000000
O O10 0.500000 0.400260 0.250000
O O11 0.600212 0.365549 0.205437
O O12 0.500000 0.382795 0.750000
O O13 0.892121 0.792124 0.190996
O O14 0.500000 0.251846 0.250000
#
# Coordination Sequence:
#
# PCOD9254287 Si02
#       6
#     8   8   8   8   8   8
#     4   9  17  28  45  53  67 101 122 152 182 226
#     4   9  17  31  41  54  70  92 133 149 180 231
#     4  10  16  29  41  53  68  95 129 161 178 230
#     4  12  20  28  41  56  76  99 125 154 210 246
#     4  10  20  28  39  56  77  97 116 160 198 237
#     4  10  18  28  39  58  79  93 118 152 200 239
#
# _framework density 13.019628000000001
#
# number of rings (size 3 to 8) (size 9 to 14) (size 15 to 20)
#    0.000    2.000    3.333    3.000    0.000    6.667 
#    0.000    0.000    0.000    0.000    0.000    0.000 
#    0.000    0.000    0.000    0.000    0.000    0.000 
#
# Total GULP energy -133657.694223 kJ/mol
# GULP energy per Si atom -5569.070593 kJ/mol
# Density = 1.298999 g / cm^3
# Si number density = 13.019628 Si / 1000 Ang^3
#
#
#
# Elastic Constant Matrix: (Units=GPa)
#
#
# Indices 1 2 3 4 5 6 
#
# 1 56.0841 16.7707 20.6638 0.0000 -8.3502 0.0000
# 2 16.7707 36.9116 19.4602 0.0000 7.2983 0.0000
# 3 20.6638 19.4602 85.3453 0.0000 -12.4375 0.0000
# 4 0.0000 0.0000 0.0000 16.4366 0.0000 -0.4849
# 5 -8.3502 7.2983 -12.4375 0.0000 19.8489 0.0000
# 6 0.0000 0.0000 0.0000 -0.4849 0.0000 3.9355
#
#
#
# Elastic Compliance Matrix: (Units=1/GPa)
#
#
# Indices 1 2 3 4 5 6 
#
# 1 0.024371 -0.013704 -0.000602 0.000000 0.014914 0.000000
# 2 -0.013704 0.045047 -0.011233 0.000000 -0.029367 0.000000
# 3 -0.000602 -0.011233 0.016496 0.000000 0.014213 0.000000
# 4 0.000000 0.000000 0.000000 0.061062 0.000000 0.007523
# 5 0.014914 -0.029367 0.014213 0.000000 0.076359 0.000000
# 6 0.000000 0.000000 0.000000 0.007523 0.000000 0.255024
#
#
# Mechanical properties :
#
#
# Convention : Reuss Voigt Hill
#
# Bulk Modulus (GPa) = 28.70753 32.45892 30.58322
# Shear Modulus (GPa) = 9.24132 16.14062 12.69097
#
# Velocity S-wave (km/s) = 2.66710 3.52478 3.12550
# Velocity P-wave (km/s) = 5.61977 6.44595 6.04699
#
# Compressibility (1/GPa) = 0.03483406
#
# Stress axis : x y z
#
# Youngs Moduli (GPa) = 41.03297 22.19905 60.62198
#
# Poissons Ratio (x) = 0.30421 0.03652
# Poissons Ratio (y) = 0.56231 0.68098
# Poissons Ratio (z) = 0.02472 0.24937
#
# Static dielectric constant tensor:
#      x y z
#    x 1.423160 0.000000 -0.025710 
#    y 0.000000 1.408030 0.000000 
#    z -0.025710 0.000000 1.443190 
# 
# From -- ./inp_files/11115.got.cif
#   From: 2010.05.17/outbox.cif.g08.bks.cpg/sg15_6_cif.got.tgz:11115.got - 2010.06.03 18:47:42.
