data_PCOD9254586
_publ_section_title
;
Structure prediction by ZEFSAII (Michael W. Deem and Ramdas Pophale) SiO2 
 PCOD9254586
Probable space group: C 2/C
;
_chemical_formula_sum "Si O2"
_cell_formula_units_Z 60
_cell_length_a 21.412198
_cell_length_b 9.921458
_cell_length_c 12.029553
_cell_angle_alpha 90.000000
_cell_angle_beta 71.139923
_cell_angle_gamma 90.000000
_cell_volume 2418.354981
_symmetry_space_group_name_H-M "C 2/C"
_symmetry_group_IT_number 15
_symmetry_cell_setting 'monoclinic'
loop_
_space_group_symop_operation_xyz
x,y,z
-x,y,1/2-z
-x,-y,-z
x,-y,1/2+z
1/2+x,1/2+y,z
1/2-x,1/2+y,1/2-z
1/2-x,1/2-y,-z
1/2+x,1/2-y,1/2+z
loop_
_atom_site_type_symbol
_atom_site_label
_atom_site_fract_x
_atom_site_fract_y
_atom_site_fract_z
Si Si1 0.374560 0.687825 0.460045
Si Si2 0.554617 0.552773 0.882569
Si Si3 0.067351 0.678957 0.228059
Si Si4 0.181592 0.651233 0.322898
Si Si5 0.500000 0.341410 0.750000
Si Si6 0.340678 0.224275 0.527117
Si Si7 0.734673 0.492404 0.995192
Si Si8 0.721653 0.880673 0.249549
O O1 0.389474 0.595117 0.561615
O O2 0.344017 0.816899 0.539974
O O3 0.444208 0.723903 0.361903
O O4 0.319818 0.600024 0.425762
O O5 0.548441 0.687888 0.811330
O O6 0.549055 0.435298 0.795387
O O7 0.500000 0.500000 0.000000
O O8 0.123240 0.612850 0.272498
O O9 0.000000 0.598597 0.250000
O O10 0.097491 0.714290 0.090563
O O11 0.219522 0.779883 0.253242
O O12 0.231518 0.528536 0.294108
O O13 0.311299 0.372538 0.529404
O O14 0.343080 0.185039 0.656469
O O15 0.771768 0.587449 0.883524
O O16 0.790234 0.391644 0.013166
#
# Coordination Sequence:
#
# PCOD9254586 Si02
#       8
#     8   8   8   8   4   8   8   8
#     4   9  20  32  58  89 129 167 204 274 325 383
#     4   9  18  31  52  90 121 160 202 270 320 362
#     4  11  21  38  65  97 126 172 229 273 318 406
#     4  10  21  40  67  96 134 168 219 278 332 389
#     4  10  16  32  52  84 132 162 202 260 330 388
#     4  11  21  36  66  91 119 177 215 269 327 396
#     4  10  20  37  60  92 124 161 223 269 320 386
#     4  11  20  41  65  97 131 167 222 282 330 387
#
# _framework density 24.810255000000002
#
# number of rings (size 3 to 8) (size 9 to 14) (size 15 to 20)
#    0.000    1.867    3.333    1.600    1.867    2.133 
#    0.000    3.333    4.400    0.000    0.000    0.933 
#    0.000    0.000    0.000    0.000    0.000    0.000 
#
# Total GULP energy -167090.203461 kJ/mol
# GULP energy per Si atom -5569.673449 kJ/mol
# Density = 2.475379 g / cm^3
# Si number density = 24.810255 Si / 1000 Ang^3
#
#
#
# Elastic Constant Matrix: (Units=GPa)
#
#
# Indices 1 2 3 4 5 6 
#
# 1 90.8824 30.7952 40.3606 0.0000 0.1917 0.0000
# 2 30.7952 69.0489 23.0019 0.0000 -19.5716 0.0000
# 3 40.3606 23.0019 136.3552 0.0000 -37.9834 0.0000
# 4 0.0000 0.0000 0.0000 43.3139 0.0000 -1.7395
# 5 0.1917 -19.5716 -37.9834 0.0000 35.5304 0.0000
# 6 0.0000 0.0000 0.0000 -1.7395 0.0000 4.0485
#
#
#
# Elastic Compliance Matrix: (Units=1/GPa)
#
#
# Indices 1 2 3 4 5 6 
#
# 1 0.017177 -0.008857 -0.007085 0.000000 -0.012545 0.000000
# 2 -0.008857 0.021742 0.003280 0.000000 0.015531 0.000000
# 3 -0.007085 0.003280 0.013374 0.000000 0.016143 0.000000
# 4 0.000000 0.000000 0.000000 0.023493 0.000000 0.010094
# 5 -0.012545 0.015531 0.016143 0.000000 0.054025 0.000000
# 6 0.000000 0.000000 0.000000 0.010094 0.000000 0.251342
#
#
# Mechanical properties :
#
#
# Convention : Reuss Voigt Hill
#
# Bulk Modulus (GPa) = 37.07775 53.84466 45.46120
# Shear Modulus (GPa) = 12.03467 30.05382 21.04425
#
# Velocity S-wave (km/s) = 2.20482 3.48422 2.91556
# Velocity P-wave (km/s) = 4.63234 6.15922 5.44952
#
# Compressibility (1/GPa) = 0.02697035
#
# Stress axis : x y z
#
# Youngs Moduli (GPa) = 58.21689 45.99427 74.76995
#
# Poissons Ratio (x) = 0.40735 0.52975
# Poissons Ratio (y) = 0.51560 -0.24525
# Poissons Ratio (z) = 0.41247 -0.15087
#
# Static dielectric constant tensor:
#      x y z
#    x 2.109570 0.000000 0.074640 
#    y 0.000000 1.998350 0.000000 
#    z 0.074640 0.000000 2.137540 
# 
# From -- ./inp_files/118527.got.cif
#   From: 2010.05.17/outbox.cif.g08.bks.cpg/sg15_60_cif.got.tgz:118527.got - 2010.06.03 18:47:42.
