data_PCOD9254342
_publ_section_title
;
Structure prediction by ZEFSAII (Michael W. Deem and Ramdas Pophale) SiO2 
 PCOD9254342
Probable space group: C 2/C
;
_chemical_formula_sum "Si O2"
_cell_formula_units_Z 52
_cell_length_a 18.928877
_cell_length_b 29.246343
_cell_length_c 5.277337
_cell_angle_alpha 90.000000
_cell_angle_beta 83.957865
_cell_angle_gamma 90.000000
_cell_volume 2905.306186
_symmetry_space_group_name_H-M "C 2/C"
_symmetry_group_IT_number 15
_symmetry_cell_setting 'monoclinic'
loop_
_space_group_symop_operation_xyz
x,y,z
-x,y,1/2-z
-x,-y,-z
x,-y,1/2+z
1/2+x,1/2+y,z
1/2-x,1/2+y,1/2-z
1/2-x,1/2-y,-z
1/2+x,1/2-y,1/2+z
loop_
_atom_site_type_symbol
_atom_site_label
_atom_site_fract_x
_atom_site_fract_y
_atom_site_fract_z
Si Si1 0.799888 0.469977 0.102206
Si Si2 0.532615 0.050775 0.988853
Si Si3 0.254784 0.311145 0.781412
Si Si4 0.428008 0.177909 0.658069
Si Si5 0.500000 0.247462 0.250000
Si Si6 0.634914 0.744872 0.965440
Si Si7 0.217482 0.633627 0.807698
O O1 0.784520 0.496185 0.844245
O O2 0.883903 0.457912 0.054521
O O3 0.765927 0.420011 0.164871
O O4 0.500000 0.074491 0.250000
O O5 0.500000 0.071327 0.750000
O O6 0.500000 0.000000 0.000000
O O7 0.199061 0.268272 0.780470
O O8 0.233241 0.345937 0.020978
O O9 0.327907 0.289175 0.851971
O O10 0.255787 0.337042 0.513546
O O11 0.500000 0.159887 0.750000
O O12 0.452892 0.212702 0.433403
O O13 0.393744 0.211041 0.877593
O O14 0.366959 0.142519 0.608269
O O15 0.563263 0.274794 0.365140
#
# Coordination Sequence:
#
# PCOD9254342 Si02
#       7
#     8   8   8   8   4   8   8
#     4  12  22  36  52  67  93 131 177 224 274 307
#     4  10  16  30  45  63  83 111 159 219 247 316
#     4  10  21  36  54  78 101 141 178 215 263 310
#     4   9  19  33  47  76 105 137 178 214 263 302
#     4  10  16  32  50  78 106 142 174 214 252 314
#     4   9  19  31  57  73 108 139 177 211 254 322
#     4  11  23  37  51  74 103 135 181 231 261 305
#
# _framework density 17.898285999999999
#
# number of rings (size 3 to 8) (size 9 to 14) (size 15 to 20)
#    0.000    1.846    4.615    0.923    2.154    2.462 
#    1.385    0.000    0.000    0.000    0.000    0.000 
#    0.000    0.000    0.000   13.846    0.000    0.000 
#
# Total GULP energy -144828.215895 kJ/mol
# GULP energy per Si atom -5570.315996 kJ/mol
# Density = 1.785755 g / cm^3
# Si number density = 17.898286 Si / 1000 Ang^3
#
#
#
# Elastic Constant Matrix: (Units=GPa)
#
#
# Indices 1 2 3 4 5 6 
#
# 1 66.4818 22.0052 8.8781 0.0000 22.7644 0.0000
# 2 22.0052 73.7268 9.0046 0.0000 13.6772 0.0000
# 3 8.8781 9.0046 89.4618 0.0000 7.6635 0.0000
# 4 0.0000 0.0000 0.0000 -13.8900 0.0000 -19.1045
# 5 22.7644 13.6772 7.6635 0.0000 21.6203 0.0000
# 6 0.0000 0.0000 0.0000 -19.1045 0.0000 -1.8671
#
#
#
# Elastic Compliance Matrix: (Units=1/GPa)
#
#
# Indices 1 2 3 4 5 6 
#
# 1 0.024025 -0.002802 -0.000090 0.000000 -0.023492 0.000000
# 2 -0.002802 0.015741 -0.000728 0.000000 -0.006750 0.000000
# 3 -0.000090 -0.000728 0.011564 0.000000 -0.003544 0.000000
# 4 0.000000 0.000000 0.000000 0.005507 0.000000 -0.056347
# 5 -0.023492 -0.006750 -0.003544 0.000000 0.076515 0.000000
# 6 0.000000 0.000000 0.000000 -0.056347 0.000000 0.040968
#
#
# Mechanical properties :
#
#
# Convention : Reuss Voigt Hill
#
# Bulk Modulus (GPa) = 22.68061 34.38292 28.53177
# Shear Modulus (GPa) = 25.47704 13.82478 19.65091
#
# Velocity S-wave (km/s) = 3.77694 2.78224 3.31708
# Velocity P-wave (km/s) = 5.63203 5.43811 5.53592
#
# Compressibility (1/GPa) = 0.04409052
#
# Stress axis : x y z
#
# Youngs Moduli (GPa) = 41.62291 63.52864 86.47744
#
# Poissons Ratio (x) = 0.17799 0.00777
# Poissons Ratio (y) = 0.11662 0.06297
# Poissons Ratio (z) = 0.00374 0.04626
#
# Static dielectric constant tensor:
#      x y z
#    x 1.581600 0.000000 0.014260 
#    y 0.000000 1.614730 0.000000 
#    z 0.014260 0.000000 1.722560 
# 
# From -- ./inp_files/11300.got.cif
#   From: 2010.05.17/outbox.cif.g08.bks.cpg/sg15_6_cif.got.tgz:11300.got - 2010.06.03 18:47:42.
