data_PCOD9254621
_publ_section_title
;
Structure prediction by ZEFSAII (Michael W. Deem and Ramdas Pophale) SiO2 
 PCOD9254621
Probable space group: C 2/C
;
_chemical_formula_sum "Si O2"
_cell_formula_units_Z 60
_cell_length_a 17.157223
_cell_length_b 8.160147
_cell_length_c 16.671727
_cell_angle_alpha 90.000000
_cell_angle_beta 66.341043
_cell_angle_gamma 90.000000
_cell_volume 2137.949644
_symmetry_space_group_name_H-M "C 2/C"
_symmetry_group_IT_number 15
_symmetry_cell_setting 'monoclinic'
loop_
_space_group_symop_operation_xyz
x,y,z
-x,y,1/2-z
-x,-y,-z
x,-y,1/2+z
1/2+x,1/2+y,z
1/2-x,1/2+y,1/2-z
1/2-x,1/2-y,-z
1/2+x,1/2-y,1/2+z
loop_
_atom_site_type_symbol
_atom_site_label
_atom_site_fract_x
_atom_site_fract_y
_atom_site_fract_z
Si Si1 0.536187 0.719194 0.058134
Si Si2 0.308209 0.799044 0.776111
Si Si3 0.289226 0.621010 0.046880
Si Si4 0.750000 0.250000 0.500000
Si Si5 0.078101 0.895239 0.365630
Si Si6 0.349277 0.339293 0.844817
Si Si7 0.568528 0.067405 0.794532
Si Si8 0.583723 0.323151 0.132182
O O1 0.471514 0.570245 0.110745
O O2 0.624000 0.732377 0.076376
O O3 0.485868 0.880336 0.105464
O O4 0.568224 0.681904 0.956992
O O5 0.218209 0.826996 0.856760
O O6 0.330714 0.640471 0.713341
O O7 0.361256 0.801685 0.839590
O O8 0.354331 0.948669 0.714679
O O9 0.250000 0.750000 0.000000
O O10 0.256391 0.437952 0.044883
O O11 0.384917 0.636932 0.971323
O O12 0.747739 0.347068 0.592103
O O13 0.014616 0.788650 0.334957
O O14 0.382898 0.224446 0.763652
O O15 0.396993 0.509847 0.827118
O O16 0.500000 0.033231 0.750000
#
# Coordination Sequence:
#
# PCOD9254621 Si02
#       8
#     8   8   8   4   8   8   8   8
#     4   9  20  34  50  75 102 141 179 219 275 329
#     4  11  19  31  51  80 105 134 176 225 271 320
#     4   9  19  32  52  83 111 138 179 222 279 329
#     4  10  16  32  56  80 108 138 170 226 276 326
#     4  10  19  34  54  72 105 143 182 222 270 324
#     4   9  17  31  53  77 100 132 175 221 266 329
#     4  10  18  29  48  76 105 126 168 222 266 316
#     4   9  18  32  53  77 103 139 177 219 270 328
#
# _framework density 28.064273
#
# number of rings (size 3 to 8) (size 9 to 14) (size 15 to 20)
#    0.000    2.400    1.333    2.000    0.000    2.667 
#    0.000    0.000    2.933    0.000    3.467    0.000 
#    0.000    0.000    0.000    0.000    0.000    0.000 
#
# Total GULP energy -167093.216413 kJ/mol
# GULP energy per Si atom -5569.773880 kJ/mol
# Density = 2.800040 g / cm^3
# Si number density = 28.064273 Si / 1000 Ang^3
#
#
#
# Elastic Constant Matrix: (Units=GPa)
#
#
# Indices 1 2 3 4 5 6 
#
# 1 79.7834 23.7944 33.0208 0.0000 4.9414 0.0000
# 2 23.7944 67.2867 40.7703 0.0000 -8.2154 0.0000
# 3 33.0208 40.7703 175.8729 0.0000 -21.0648 0.0000
# 4 0.0000 0.0000 0.0000 45.2586 0.0000 -5.8085
# 5 4.9414 -8.2154 -21.0648 0.0000 43.3298 0.0000
# 6 0.0000 0.0000 0.0000 -5.8085 0.0000 27.9183
#
#
#
# Elastic Compliance Matrix: (Units=1/GPa)
#
#
# Indices 1 2 3 4 5 6 
#
# 1 0.014992 -0.004393 -0.002231 0.000000 -0.003627 0.000000
# 2 -0.004393 0.018659 -0.003204 0.000000 0.002481 0.000000
# 3 -0.002231 -0.003204 0.007226 0.000000 0.003160 0.000000
# 4 0.000000 0.000000 0.000000 0.022701 0.000000 0.004723
# 5 -0.003627 0.002481 0.003160 0.000000 0.025499 0.000000
# 6 0.000000 0.000000 0.000000 0.004723 0.000000 0.036801
#
#
# Mechanical properties :
#
#
# Convention : Reuss Voigt Hill
#
# Bulk Modulus (GPa) = 47.11930 57.56823 52.34376
# Shear Modulus (GPa) = 32.76375 38.32518 35.54447
#
# Velocity S-wave (km/s) = 3.42051 3.69944 3.56271
# Velocity P-wave (km/s) = 5.69439 6.22939 5.96789
#
# Compressibility (1/GPa) = 0.02122273
#
# Stress axis : x y z
#
# Youngs Moduli (GPa) = 66.70227 53.59284 138.39094
#
# Poissons Ratio (x) = 0.23542 0.30874
# Poissons Ratio (y) = 0.29300 0.44335
# Poissons Ratio (z) = 0.14881 0.17169
#
# Static dielectric constant tensor:
#      x y z
#    x 7.468860 0.000000 -4.799660 
#    y 0.000000 2.311800 0.000000 
#    z -4.799660 0.000000 6.684790 
# 
# From -- ./inp_files/221681.got.cif
#   From: 2010.05.17/outbox.cif.g08.bks.cpg/sg15_111_cif.got.tgz:221681.got - 2010.06.03 18:47:42.
