data_PCOD9254254
_publ_section_title
;
Structure prediction by ZEFSAII (Michael W. Deem and Ramdas Pophale) SiO2 
 PCOD9254254
Probable space group: C 2/C
;
_chemical_formula_sum "Si O2"
_cell_formula_units_Z 48
_cell_length_a 15.786193
_cell_length_b 9.311216
_cell_length_c 36.778147
_cell_angle_alpha 90.000000
_cell_angle_beta 156.054121
_cell_angle_gamma 90.000000
_cell_volume 2194.140275
_symmetry_space_group_name_H-M "C 2/C"
_symmetry_group_IT_number 15
_symmetry_cell_setting 'monoclinic'
loop_
_space_group_symop_operation_xyz
x,y,z
-x,y,1/2-z
-x,-y,-z
x,-y,1/2+z
1/2+x,1/2+y,z
1/2-x,1/2+y,1/2-z
1/2-x,1/2-y,-z
1/2+x,1/2-y,1/2+z
loop_
_atom_site_type_symbol
_atom_site_label
_atom_site_fract_x
_atom_site_fract_y
_atom_site_fract_z
Si Si1 0.934360 0.822009 0.433183
Si Si2 0.046663 0.450932 0.309752
Si Si3 0.771091 0.447513 0.897723
Si Si4 0.072733 0.742074 0.880070
Si Si5 0.707346 0.240407 0.371728
Si Si6 0.499338 0.611845 0.075991
O O1 0.793624 0.908919 0.407691
O O2 0.812394 0.669640 0.382010
O O3 0.153858 0.781084 0.537435
O O4 0.961904 0.940481 0.412711
O O5 0.948212 0.363712 0.304029
O O6 0.028128 0.621256 0.304236
O O7 0.000000 0.406616 0.250000
O O8 0.670099 0.361071 0.891334
O O9 0.649528 0.594670 0.843269
O O10 0.000000 0.500000 0.000000
O O11 0.960622 0.823308 0.868717
O O12 0.259494 0.649233 0.971743
O O13 0.855998 0.192167 0.396712
#
# Coordination Sequence:
#
# PCOD9254254 Si02
#       6
#     8   8   8   8   8   8
#     4   9  16  31  50  74  99 132 163 201 246 305
#     4  10  18  31  52  72  95 134 177 201 242 309
#     4   9  16  28  47  71 103 125 164 200 249 295
#     4  10  18  29  47  79  99 127 158 211 252 289
#     4  10  16  32  51  74  99 130 166 207 244 301
#     4  10  16  28  51  73 102 122 162 206 250 287
#
# _framework density 21.876449999999998
#
# number of rings (size 3 to 8) (size 9 to 14) (size 15 to 20)
#    0.000    2.333    6.667    1.000    0.000    0.000 
#    0.000    8.333    0.000   16.000    0.000    0.000 
#    0.000    0.000    0.000    0.000    0.000    0.000 
#
# Total GULP energy -133689.390454 kJ/mol
# GULP energy per Si atom -5570.391269 kJ/mol
# Density = 2.182666 g / cm^3
# Si number density = 21.876450 Si / 1000 Ang^3
#
#
#
# Elastic Constant Matrix: (Units=GPa)
#
#
# Indices 1 2 3 4 5 6 
#
# 1 70.4968 50.1195 20.1619 -0.0001 -27.2322 0.0000
# 2 50.1195 213.6913 35.6933 -0.0004 -28.8771 0.0000
# 3 20.1619 35.6933 64.6981 -0.0014 -21.0802 0.0001
# 4 -0.0001 -0.0004 -0.0014 14.9854 0.0002 -12.8885
# 5 -27.2322 -28.8771 -21.0802 0.0002 31.5098 -0.0001
# 6 0.0000 0.0000 0.0001 -12.8885 -0.0001 31.5968
#
#
#
# Elastic Compliance Matrix: (Units=1/GPa)
#
#
# Indices 1 2 3 4 5 6 
#
# 1 0.022947 -0.003095 0.000120 0.000000 0.017076 0.000000
# 2 -0.003095 0.005914 -0.001795 0.000000 0.001545 0.000000
# 3 0.000120 -0.001795 0.020341 0.000003 0.012067 0.000001
# 4 0.000000 0.000000 0.000003 0.102795 0.000001 0.041931
# 5 0.017076 0.001545 0.012067 0.000001 0.055983 0.000001
# 6 0.000000 0.000000 0.000001 0.041931 0.000001 0.048753
#
#
# Mechanical properties :
#
#
# Convention : Reuss Voigt Hill
#
# Bulk Modulus (GPa) = 25.21236 62.31507 43.76371
# Shear Modulus (GPa) = 17.88955 31.81249 24.85102
#
# Velocity S-wave (km/s) = 2.86274 3.81752 3.37407
# Velocity P-wave (km/s) = 4.74099 6.92662 5.93528
#
# Compressibility (1/GPa) = 0.03966309
#
# Stress axis : x y z
#
# Youngs Moduli (GPa) = 43.57832 169.09037 49.16177
#
# Poissons Ratio (x) = 0.52325 -0.00590
# Poissons Ratio (y) = 0.13485 0.08825
# Poissons Ratio (z) = -0.00523 0.30353
#
# Static dielectric constant tensor:
#      x y z
#    x 1.794250 0.000000 0.032840 
#    y 0.000000 1.886640 0.000000 
#    z 0.032840 0.000000 1.920750 
# 
# From -- ./inp_files/295449.got.cif
#   From: 2010.05.17/outbox.cif.g08.bks.cpg/sg15_148_cif.got.tgz:295449.got - 2010.06.03 18:47:42.
