data_PCOD9254249
_publ_section_title
;
Structure prediction by ZEFSAII (Michael W. Deem and Ramdas Pophale) SiO2 
 PCOD9254249
Probable space group: C 2/C
;
_chemical_formula_sum "Si O2"
_cell_formula_units_Z 40
_cell_length_a 17.782644
_cell_length_b 8.271864
_cell_length_c 13.000248
_cell_angle_alpha 90.000000
_cell_angle_beta 48.398631
_cell_angle_gamma 90.000000
_cell_volume 1429.968582
_symmetry_space_group_name_H-M "C 2/C"
_symmetry_group_IT_number 15
_symmetry_cell_setting 'monoclinic'
loop_
_space_group_symop_operation_xyz
x,y,z
-x,y,1/2-z
-x,-y,-z
x,-y,1/2+z
1/2+x,1/2+y,z
1/2-x,1/2+y,1/2-z
1/2-x,1/2-y,-z
1/2+x,1/2-y,1/2+z
loop_
_atom_site_type_symbol
_atom_site_label
_atom_site_fract_x
_atom_site_fract_y
_atom_site_fract_z
Si Si1 0.113163 0.453118 0.771267
Si Si2 0.181696 0.912066 0.354234
Si Si3 0.017122 0.118109 0.841774
Si Si4 0.576680 0.128854 0.544340
Si Si5 0.314626 0.198085 0.539244
O O1 0.230502 0.491751 0.666770
O O2 0.073433 0.286084 0.759518
O O3 0.085433 0.411672 0.915049
O O4 0.038598 0.603780 0.816523
O O5 0.090281 0.962353 0.359369
O O6 0.128919 0.802522 0.490474
O O7 0.253154 0.826198 0.201690
O O8 0.000000 0.026628 0.750000
O O9 0.908507 0.182621 0.977151
O O10 0.641677 0.981226 0.530737
O O11 0.250000 0.250000 0.500000
#
# Coordination Sequence:
#
# PCOD9254249 Si02
#       5
#     8   8   8   8   8
#     4   8  16  29  47  71 102 132 171 207 251 312
#     4  10  16  28  50  75 101 136 168 209 258 299
#     4  10  18  30  50  81  99 129 177 217 249 306
#     4   8  16  29  47  73 103 131 177 210 246 315
#     4  10  18  30  50  81 104 131 173 219 260 298
#
# _framework density 27.972640999999999
#
# number of rings (size 3 to 8) (size 9 to 14) (size 15 to 20)
#    0.000    2.800    2.000    3.600    0.000    0.000 
#    0.000    0.000    0.000   48.000   15.600    0.000 
#    0.000    0.000    0.000    0.000    0.000    0.000 
#
# Total GULP energy -111685.170705 kJ/mol
# GULP energy per Si atom -5584.258535 kJ/mol
# Density = 2.790897 g / cm^3
# Si number density = 27.972641 Si / 1000 Ang^3
#
#
#
# Elastic Constant Matrix: (Units=GPa)
#
#
# Indices 1 2 3 4 5 6 
#
# 1 214.5217 72.6630 54.8924 0.0000 -24.9001 0.0000
# 2 72.6630 63.6807 28.0368 -0.0002 -1.8516 0.0002
# 3 54.8924 28.0368 191.7091 0.0000 -48.8621 0.0001
# 4 0.0000 -0.0002 0.0000 51.8790 0.0000 0.7610
# 5 -24.9001 -1.8516 -48.8621 0.0000 47.2446 0.0000
# 6 0.0000 0.0002 0.0001 0.7610 0.0000 39.9451
#
#
#
# Elastic Compliance Matrix: (Units=1/GPa)
#
#
# Indices 1 2 3 4 5 6 
#
# 1 0.008292 -0.009352 0.000019 0.000000 0.004023 0.000000
# 2 -0.009352 0.027563 -0.003170 0.000000 -0.007127 0.000000
# 3 0.000019 -0.003170 0.007666 0.000000 0.007814 0.000000
# 4 0.000000 0.000000 0.000000 0.019281 0.000000 -0.000367
# 5 0.004023 -0.007127 0.007814 0.000000 0.031089 0.000000
# 6 0.000000 0.000000 0.000000 -0.000367 0.000000 0.025041
#
#
# Mechanical properties :
#
#
# Convention : Reuss Voigt Hill
#
# Bulk Modulus (GPa) = 54.01126 86.78842 70.39984
# Shear Modulus (GPa) = 33.30889 48.76838 41.03864
#
# Velocity S-wave (km/s) = 3.45449 4.17997 3.83443
# Velocity P-wave (km/s) = 5.93817 7.37494 6.69521
#
# Compressibility (1/GPa) = 0.01851466
#
# Stress axis : x y z
#
# Youngs Moduli (GPa) = 120.60530 36.28019 130.44599
#
# Poissons Ratio (x) = 0.33931 -0.00249
# Poissons Ratio (y) = 1.12796 0.41347
# Poissons Ratio (z) = -0.00230 0.11500
#
# Static dielectric constant tensor:
#      x y z
#    x 2.210670 0.000000 0.063290 
#    y 0.000000 2.429390 0.000000 
#    z 0.063290 0.000000 2.326000 
# 
# From -- ./inp_files/102848.got.cif
#   From: 2010.05.17/outbox.cif.g08.bks.cpg/sg15_52_cif.got.tgz:102848.got - 2010.06.03 18:47:42.
