data_PCOD9254106
_publ_section_title
;
Structure prediction by ZEFSAII (Michael W. Deem and Ramdas Pophale) SiO2 
 PCOD9254106
Probable space group: C 2/C
;
_chemical_formula_sum "Si O2"
_cell_formula_units_Z 56
_cell_length_a 27.260626
_cell_length_b 7.087711
_cell_length_c 23.495423
_cell_angle_alpha 90.000000
_cell_angle_beta 149.528472
_cell_angle_gamma 90.000000
_cell_volume 2302.116940
_symmetry_space_group_name_H-M "C 2/C"
_symmetry_group_IT_number 15
_symmetry_cell_setting 'monoclinic'
loop_
_space_group_symop_operation_xyz
x,y,z
-x,y,1/2-z
-x,-y,-z
x,-y,1/2+z
1/2+x,1/2+y,z
1/2-x,1/2+y,1/2-z
1/2-x,1/2-y,-z
1/2+x,1/2-y,1/2+z
loop_
_atom_site_type_symbol
_atom_site_label
_atom_site_fract_x
_atom_site_fract_y
_atom_site_fract_z
Si Si1 0.227224 0.977105 0.542141
Si Si2 0.394508 0.385496 0.309046
Si Si3 0.272776 0.477104 0.087693
Si Si4 0.772354 0.500000 0.772354
Si Si5 0.394508 0.614503 0.479970
Si Si6 0.608952 0.065790 0.710766
Si Si7 0.608952 0.934210 0.507138
O O1 0.250000 0.750000 0.564501
O O2 0.212931 0.034606 0.462931
O O3 0.134358 0.988539 0.490213
O O4 0.316665 0.082694 0.662519
O O5 0.365642 0.488538 0.221496
O O6 0.303265 0.419311 0.257763
O O7 0.500000 0.445845 0.435083
O O8 0.398632 0.161404 0.303824
O O9 0.183335 0.582693 0.029189
O O10 0.696736 0.419311 0.651234
O O11 0.842808 0.623905 0.801534
O O12 0.842808 0.376096 0.884082
O O13 0.398632 0.838596 0.493440
O O14 0.500000 0.136759 0.609537
#
# Coordination Sequence:
#
# PCOD9254106 Si02
#       7
#     8   8   8   8   8   8   8
#     4   8  14  24  37  54  77 104 131 156 183 220
#     4   9  17  27  39  57  80 105 132 160 190 226
#     4   8  14  24  37  54  77 104 131 156 183 220
#     4  10  16  26  40  54  76 106 134 162 192 224
#     4   9  17  27  39  57  80 105 132 160 190 226
#     4   9  17  27  39  57  80 105 132 160 190 226
#     4   9  17  27  39  57  80 105 132 160 190 226
#
# _framework density 24.325437999999998
#
# number of rings (size 3 to 8) (size 9 to 14) (size 15 to 20)
#    0.000    3.143    0.000    3.429    0.000    1.143 
#    0.000    5.714    0.000    0.000    0.000    0.000 
#    0.000   73.143    0.000  192.000    0.000    9.143 
#
# Total GULP energy -156421.090279 kJ/mol
# GULP energy per Si atom -5586.467510 kJ/mol
# Density = 2.427007 g / cm^3
# Si number density = 24.325438 Si / 1000 Ang^3
#
#
#
# Elastic Constant Matrix: (Units=GPa)
#
#
# Indices 1 2 3 4 5 6 
#
# 1 152.7630 3.0420 119.2244 0.0000 -14.6147 0.0000
# 2 3.0420 81.2586 7.6035 0.0001 6.0188 0.0001
# 3 119.2244 7.6035 155.3387 0.0000 18.0134 0.0000
# 4 0.0000 0.0001 0.0000 21.6518 0.0000 1.0613
# 5 -14.6147 6.0188 18.0134 0.0000 54.2828 0.0000
# 6 0.0000 0.0001 0.0000 1.0613 0.0000 20.8475
#
#
#
# Elastic Compliance Matrix: (Units=1/GPa)
#
#
# Indices 1 2 3 4 5 6 
#
# 1 0.021853 -0.000001 -0.018153 0.000000 0.011908 0.000000
# 2 -0.000001 0.012441 -0.000466 0.000000 -0.001225 0.000000
# 3 -0.018153 -0.000466 0.021793 0.000000 -0.012068 0.000000
# 4 0.000000 0.000000 0.000000 0.046301 0.000000 -0.002357
# 5 0.011908 -0.001225 -0.012068 0.000000 0.025768 0.000000
# 6 0.000000 0.000000 0.000000 -0.002357 0.000000 0.048087
#
#
# Mechanical properties :
#
#
# Convention : Reuss Voigt Hill
#
# Bulk Modulus (GPa) = 53.06313 72.12222 62.59268
# Shear Modulus (GPa) = 22.75141 36.65578 29.70360
#
# Velocity S-wave (km/s) = 3.06157 3.88608 3.49820
# Velocity P-wave (km/s) = 5.86164 7.06036 6.48874
#
# Compressibility (1/GPa) = 0.01884548
#
# Stress axis : x y z
#
# Youngs Moduli (GPa) = 45.75985 80.38077 45.88693
#
# Poissons Ratio (x) = 0.00012 0.83300
# Poissons Ratio (y) = 0.00007 0.02137
# Poissons Ratio (z) = 0.83070 0.03744
#
# Static dielectric constant tensor:
#      x y z
#    x 1.902330 0.000000 -0.011900 
#    y 0.000000 2.196050 0.000000 
#    z -0.011900 0.000000 1.893310 
# 
# From -- ./inp_files/255292.got.cif
#   From: 2010.05.17/outbox.cif.g08.bks.cpg/sg15_128_cif.got.tgz:255292.got - 2010.06.03 18:47:42.
