data_PCOD9254229
_publ_section_title
;
Structure prediction by ZEFSAII (Michael W. Deem and Ramdas Pophale) SiO2 
 PCOD9254229
Probable space group: C 2/C
;
_chemical_formula_sum "Si O2"
_cell_formula_units_Z 60
_cell_length_a 14.861827
_cell_length_b 10.399709
_cell_length_c 19.253358
_cell_angle_alpha 90.000000
_cell_angle_beta 116.879470
_cell_angle_gamma 90.000000
_cell_volume 2654.269721
_symmetry_space_group_name_H-M "C 2/C"
_symmetry_group_IT_number 15
_symmetry_cell_setting 'monoclinic'
loop_
_space_group_symop_operation_xyz
x,y,z
-x,y,1/2-z
-x,-y,-z
x,-y,1/2+z
1/2+x,1/2+y,z
1/2-x,1/2+y,1/2-z
1/2-x,1/2-y,-z
1/2+x,1/2-y,1/2+z
loop_
_atom_site_type_symbol
_atom_site_label
_atom_site_fract_x
_atom_site_fract_y
_atom_site_fract_z
Si Si1 0.424544 0.032980 0.084986
Si Si2 0.130979 0.547731 0.636789
Si Si3 0.722846 0.776787 0.820207
Si Si4 0.719101 0.388102 0.523480
Si Si5 0.394741 0.118200 0.711461
Si Si6 0.005048 0.166089 0.902818
Si Si7 0.796148 0.271223 0.851201
Si Si8 0.500000 0.332034 0.250000
O O1 0.307590 0.022885 0.023083
O O2 0.462776 0.181374 0.093441
O O3 0.511337 0.947675 0.079348
O O4 0.423575 0.987657 0.164564
O O5 0.201346 0.660646 0.635135
O O6 0.134035 0.558855 0.723048
O O7 0.172850 0.415592 0.620661
O O8 0.759731 0.883936 0.886522
O O9 0.728574 0.789743 0.739831
O O10 0.606167 0.742673 0.792421
O O11 0.750000 0.250000 0.500000
O O12 0.600534 0.403307 0.470201
O O13 0.500000 0.197029 0.750000
O O14 0.303019 0.205748 0.653594
O O15 0.992104 0.102875 0.822111
O O16 0.893475 0.179359 0.895288
#
# Coordination Sequence:
#
# PCOD9254229 Si02
#       8
#     8   8   8   8   8   8   8   4
#     4   9  16  28  49  70  91 125 159 198 232 286
#     4   9  18  29  46  74  95 126 161 200 245 280
#     4  10  18  29  49  74  99 126 161 203 243 288
#     4  10  17  30  48  76  99 122 162 203 245 286
#     4   9  17  29  50  72  96 126 170 199 236 287
#     4   9  18  28  50  74  96 121 156 201 247 278
#     4   9  18  32  47  72 102 128 159 205 241 285
#     4  10  16  28  48  70  98 124 148 200 248 282
#
# _framework density 22.605089
#
# number of rings (size 3 to 8) (size 9 to 14) (size 15 to 20)
#    0.000    2.667    2.667    0.800    4.667    0.000 
#    1.200    6.667    0.000    0.000    0.000   12.133 
#    0.000    0.000    0.000    0.000    0.000    0.000 
#
# Total GULP energy -167031.959751 kJ/mol
# GULP energy per Si atom -5567.731992 kJ/mol
# Density = 2.255364 g / cm^3
# Si number density = 22.605089 Si / 1000 Ang^3
#
#
#
# Elastic Constant Matrix: (Units=GPa)
#
#
# Indices 1 2 3 4 5 6 
#
# 1 140.6871 46.7004 40.5469 0.0000 55.3843 0.0000
# 2 46.7004 37.7578 -1.3726 0.0000 14.0736 0.0000
# 3 40.5469 -1.3726 91.9021 0.0000 26.2096 0.0000
# 4 0.0000 0.0000 0.0000 11.1168 0.0000 -0.3852
# 5 55.3843 14.0736 26.2096 0.0000 50.3241 0.0000
# 6 0.0000 0.0000 0.0000 -0.3852 0.0000 8.4372
#
#
#
# Elastic Compliance Matrix: (Units=1/GPa)
#
#
# Indices 1 2 3 4 5 6 
#
# 1 0.021830 -0.021603 -0.005667 0.000000 -0.015032 0.000000
# 2 -0.021603 0.051816 0.008993 0.000000 0.004601 0.000000
# 3 -0.005667 0.008993 0.014627 0.000000 -0.003896 0.000000
# 4 0.000000 0.000000 0.000000 0.090097 0.000000 0.004113
# 5 -0.015032 0.004601 -0.003896 0.000000 0.037157 0.000000
# 6 0.000000 0.000000 0.000000 0.004113 0.000000 0.118710
#
#
# Mechanical properties :
#
#
# Convention : Reuss Voigt Hill
#
# Bulk Modulus (GPa) = 19.33534 49.12186 34.22860
# Shear Modulus (GPa) = 12.88555 26.27378 19.57966
#
# Velocity S-wave (km/s) = 2.39012 3.41294 2.94626
# Velocity P-wave (km/s) = 4.02355 6.10807 5.17192
#
# Compressibility (1/GPa) = 0.05171878
#
# Stress axis : x y z
#
# Youngs Moduli (GPa) = 45.80841 19.29889 68.36750
#
# Poissons Ratio (x) = 0.41692 0.38744
# Poissons Ratio (y) = 0.98962 -0.61483
# Poissons Ratio (z) = 0.25960 -0.17356
#
# Static dielectric constant tensor:
#      x y z
#    x 1.889260 0.000000 0.006330 
#    y 0.000000 1.870090 0.000000 
#    z 0.006330 0.000000 1.933690 
# 
# From -- ./inp_files/243780.got.cif
#   From: 2010.05.17/outbox.cif.g08.bks.cpg/sg15_122_cif.got.tgz:243780.got - 2010.06.03 18:47:42.
