data_PCOD9254246
_publ_section_title
;
Structure prediction by ZEFSAII (Michael W. Deem and Ramdas Pophale) SiO2 
 PCOD9254246
Probable space group: C 2/C
;
_chemical_formula_sum "Si O2"
_cell_formula_units_Z 48
_cell_length_a 16.040679
_cell_length_b 9.265856
_cell_length_c 19.144786
_cell_angle_alpha 90.000000
_cell_angle_beta 126.044670
_cell_angle_gamma 90.000000
_cell_volume 2300.754349
_symmetry_space_group_name_H-M "C 2/C"
_symmetry_group_IT_number 15
_symmetry_cell_setting 'monoclinic'
loop_
_space_group_symop_operation_xyz
x,y,z
-x,y,1/2-z
-x,-y,-z
x,-y,1/2+z
1/2+x,1/2+y,z
1/2-x,1/2+y,1/2-z
1/2-x,1/2-y,-z
1/2+x,1/2-y,1/2+z
loop_
_atom_site_type_symbol
_atom_site_label
_atom_site_fract_x
_atom_site_fract_y
_atom_site_fract_z
Si Si1 0.716129 0.648891 0.629367
Si Si2 0.668624 0.052852 0.424388
Si Si3 0.367195 0.628280 0.614025
Si Si4 0.619066 0.350003 0.813780
Si Si5 0.961802 0.987949 0.901479
Si Si6 0.083231 0.726150 0.939948
O O1 0.773358 0.531030 0.609135
O O2 0.803075 0.761934 0.695321
O O3 0.648742 0.563286 0.652367
O O4 0.640111 0.740111 0.540677
O O5 0.622007 0.201169 0.372393
O O6 0.756183 0.096718 0.523786
O O7 0.588989 0.940881 0.421303
O O8 0.373892 0.522501 0.684038
O O9 0.457016 0.572966 0.606491
O O10 0.500000 0.305331 0.750000
O O11 0.645561 0.304240 0.907173
O O12 0.977455 0.818681 0.891045
O O13 0.000000 0.000000 0.000000
#
# Coordination Sequence:
#
# PCOD9254246 Si02
#       6
#     8   8   8   8   8   8
#     4  10  16  32  52  76  96 126 169 210 241 305
#     4  10  16  28  50  72 102 124 166 205 247 278
#     4  10  18  29  46  76 101 129 159 210 247 288
#     4  10  18  31  52  72  96 136 171 201 249 305
#     4   9  16  28  48  72 100 126 153 200 261 285
#     4   9  16  31  50  75 100 129 161 209 244 300
#
# _framework density 20.862722000000002
#
# number of rings (size 3 to 8) (size 9 to 14) (size 15 to 20)
#    0.000    2.333    6.667    1.000    0.000    0.000 
#    0.000    8.333    0.000   16.000    0.000    0.000 
#    0.000    0.000    0.000    0.000    0.000    0.000 
#
# Total GULP energy -133664.839606 kJ/mol
# GULP energy per Si atom -5569.368317 kJ/mol
# Density = 2.081524 g / cm^3
# Si number density = 20.862722 Si / 1000 Ang^3
#
#
#
# Elastic Constant Matrix: (Units=GPa)
#
#
# Indices 1 2 3 4 5 6 
#
# 1 95.8661 64.9472 18.1086 0.0000 19.6378 0.0000
# 2 64.9472 187.9429 13.7424 0.0000 22.7694 0.0000
# 3 18.1086 13.7424 42.0450 0.0000 11.8063 0.0000
# 4 0.0000 0.0000 0.0000 4.0381 0.0000 9.1213
# 5 19.6378 22.7694 11.8063 0.0000 27.3325 0.0000
# 6 0.0000 0.0000 0.0000 9.1213 0.0000 41.9984
#
#
#
# Elastic Compliance Matrix: (Units=1/GPa)
#
#
# Indices 1 2 3 4 5 6 
#
# 1 0.015192 -0.004287 -0.003505 0.000000 -0.005830 0.000000
# 2 -0.004287 0.007142 0.000362 0.000000 -0.003026 0.000000
# 3 -0.003505 0.000362 0.027942 0.000000 -0.009853 0.000000
# 4 0.000000 0.000000 0.000000 0.486107 0.000000 -0.105573
# 5 -0.005830 -0.003026 -0.009853 0.000000 0.047552 0.000000
# 6 0.000000 0.000000 0.000000 -0.105573 0.000000 0.046739
#
#
# Mechanical properties :
#
#
# Convention : Reuss Voigt Hill
#
# Bulk Modulus (GPa) = 28.23616 57.71670 42.97643
# Shear Modulus (GPa) = 7.60641 29.94419 18.77530
#
# Velocity S-wave (km/s) = 1.91150 3.79264 3.00316
# Velocity P-wave (km/s) = 4.29365 6.84864 5.71574
#
# Compressibility (1/GPa) = 0.03541558
#
# Stress axis : x y z
#
# Youngs Moduli (GPa) = 65.82393 140.00732 35.78834
#
# Poissons Ratio (x) = 0.60026 0.12543
# Poissons Ratio (y) = 0.28221 -0.01295
# Poissons Ratio (z) = 0.23070 -0.05064
#
# Static dielectric constant tensor:
#      x y z
#    x 1.759260 0.000000 0.003370 
#    y 0.000000 1.815400 0.000000 
#    z 0.003370 0.000000 1.820640 
# 
# From -- ./inp_files/276384.got.cif
#   From: 2010.05.17/outbox.cif.g08.bks.cpg/sg15_139_cif.got.tgz:276384.got - 2010.06.03 18:47:42.
