data_PCOD9254957
_publ_section_title
;
Structure prediction by ZEFSAII (Michael W. Deem and Ramdas Pophale) SiO2 
 PCOD9254957
Probable space group: C 2/C
;
_chemical_formula_sum "Si O2"
_cell_formula_units_Z 56
_cell_length_a 30.202173
_cell_length_b 13.916243
_cell_length_c 8.080773
_cell_angle_alpha 90.000000
_cell_angle_beta 84.076963
_cell_angle_gamma 90.000000
_cell_volume 3378.223425
_symmetry_space_group_name_H-M "C 2/C"
_symmetry_group_IT_number 15
_symmetry_cell_setting 'monoclinic'
loop_
_space_group_symop_operation_xyz
x,y,z
-x,y,1/2-z
-x,-y,-z
x,-y,1/2+z
1/2+x,1/2+y,z
1/2-x,1/2+y,1/2-z
1/2-x,1/2-y,-z
1/2+x,1/2-y,1/2+z
loop_
_atom_site_type_symbol
_atom_site_label
_atom_site_fract_x
_atom_site_fract_y
_atom_site_fract_z
Si Si1 0.354368 0.690918 0.037056
Si Si2 0.014463 0.112406 0.994385
Si Si3 0.428843 0.638365 0.198290
Si Si4 0.400601 0.415297 0.215041
Si Si5 0.287580 0.206942 0.362772
Si Si6 0.721257 0.573434 0.245254
Si Si7 0.691858 0.623884 0.889016
O O1 0.388460 0.708810 0.173015
O O2 0.315004 0.626448 0.126030
O O3 0.380174 0.625597 0.891927
O O4 0.332696 0.781447 0.951922
O O5 0.044990 0.138483 0.140178
O O6 0.966930 0.159298 0.046262
O O7 0.049679 0.126008 0.833940
O O8 0.000000 0.000000 0.000000
O O9 0.408307 0.529949 0.202470
O O10 0.361962 0.388252 0.097538
O O11 0.250000 0.250000 0.500000
O O12 0.268703 0.107498 0.298918
O O13 0.294478 0.277357 0.203485
O O14 0.711845 0.461065 0.266924
O O15 0.711533 0.608269 0.063158
#
# Coordination Sequence:
#
# PCOD9254957 Si02
#       7
#     8   8   8   8   8   8   8
#     4  10  19  28  43  58  82 114 155 199 230 273
#     4   9  18  26  36  54  86 114 149 199 222 256
#     4  10  17  26  38  56  81 117 152 192 229 259
#     4  10  17  26  39  60  81 112 156 187 220 261
#     4   9  20  34  45  66  89 111 153 203 239 277
#     4  11  20  32  45  66  88 114 158 198 240 279
#     4  11  20  30  51  66  87 125 153 194 232 282
#
# _framework density 16.576761000000001
#
# number of rings (size 3 to 8) (size 9 to 14) (size 15 to 20)
#    0.000    2.000    1.429    5.571    0.000    1.714 
#    0.000    0.000    0.000    0.000    0.000    0.000 
#    0.000    0.000    0.000    0.000    0.000  380.000 
#
# Total GULP energy -155908.669955 kJ/mol
# GULP energy per Si atom -5568.166784 kJ/mol
# Density = 1.653903 g / cm^3
# Si number density = 16.576761 Si / 1000 Ang^3
#
#
#
# Elastic Constant Matrix: (Units=GPa)
#
#
# Indices 1 2 3 4 5 6 
#
# 1 88.9539 17.3370 16.7043 0.0000 8.5040 0.0000
# 2 17.3370 16.4659 -4.2449 0.0000 -2.0916 0.0000
# 3 16.7043 -4.2449 70.0952 0.0000 1.1764 0.0000
# 4 0.0000 0.0000 0.0000 10.1968 0.0000 1.2063
# 5 8.5040 -2.0916 1.1764 0.0000 33.0056 0.0000
# 6 0.0000 0.0000 0.0000 1.2063 0.0000 22.1889
#
#
#
# Elastic Compliance Matrix: (Units=1/GPa)
#
#
# Indices 1 2 3 4 5 6 
#
# 1 0.016440 -0.019268 -0.004996 0.000000 -0.005279 0.000000
# 2 -0.019268 0.084752 0.009557 0.000000 0.009995 0.000000
# 3 -0.004996 0.009557 0.016013 0.000000 0.001322 0.000000
# 4 0.000000 0.000000 0.000000 0.098704 0.000000 -0.005366
# 5 -0.005279 0.009995 0.001322 0.000000 0.032244 0.000000
# 6 0.000000 0.000000 0.000000 -0.005366 0.000000 0.045359
#
#
# Mechanical properties :
#
#
# Convention : Reuss Voigt Hill
#
# Bulk Modulus (GPa) = 11.39078 26.12310 18.75694
# Shear Modulus (GPa) = 14.19679 22.79285 18.49482
#
# Velocity S-wave (km/s) = 2.92965 3.71211 3.34384
# Velocity P-wave (km/s) = 4.28139 5.84517 5.12330
#
# Compressibility (1/GPa) = 0.08779031
#
# Stress axis : x y z
#
# Youngs Moduli (GPa) = 60.82740 11.79911 62.44739
#
# Poissons Ratio (x) = 0.22735 0.31199
# Poissons Ratio (y) = 1.17203 -0.59678
# Poissons Ratio (z) = 0.30390 -0.11276
#
# Static dielectric constant tensor:
#      x y z
#    x 1.532220 0.000000 -0.099940 
#    y 0.000000 1.524460 0.000000 
#    z -0.099940 0.000000 1.501720 
# 
# From -- ./inp_files/69576.got.cif
#   From: 2010.05.17/outbox.cif.g08.bks.cpg/sg15_35_cif.got.tgz:69576.got - 2010.06.03 18:47:42.
