data_PCOD9254339
_publ_section_title
;
Structure prediction by ZEFSAII (Michael W. Deem and Ramdas Pophale) SiO2 
 PCOD9254339
Probable space group: C 2/C
;
_chemical_formula_sum "Si O2"
_cell_formula_units_Z 56
_cell_length_a 18.737982
_cell_length_b 15.356544
_cell_length_c 16.085865
_cell_angle_alpha 90.000000
_cell_angle_beta 37.425055
_cell_angle_gamma 90.000000
_cell_volume 2812.979208
_symmetry_space_group_name_H-M "C 2/C"
_symmetry_group_IT_number 15
_symmetry_cell_setting 'monoclinic'
loop_
_space_group_symop_operation_xyz
x,y,z
-x,y,1/2-z
-x,-y,-z
x,-y,1/2+z
1/2+x,1/2+y,z
1/2-x,1/2+y,1/2-z
1/2-x,1/2-y,-z
1/2+x,1/2-y,1/2+z
loop_
_atom_site_type_symbol
_atom_site_label
_atom_site_fract_x
_atom_site_fract_y
_atom_site_fract_z
Si Si1 0.801446 0.549646 0.808805
Si Si2 0.173267 0.393100 0.958276
Si Si3 0.835931 0.362812 0.713659
Si Si4 0.207888 0.205617 0.623756
Si Si5 0.108262 0.585220 0.955763
Si Si6 0.000000 0.396883 0.250000
Si Si7 0.500000 0.594254 0.750000
Si Si8 0.879829 0.923133 0.896025
O O1 0.776310 0.450232 0.805195
O O2 0.848452 0.591297 0.679868
O O3 0.903237 0.550287 0.785678
O O4 0.691046 0.598032 0.954195
O O5 0.200076 0.345010 0.848112
O O6 0.119761 0.485391 0.975920
O O7 0.287597 0.412940 0.906647
O O8 0.078387 0.349318 0.107754
O O9 0.808947 0.281414 0.794755
O O10 0.975078 0.383452 0.585528
O O11 0.250000 0.250000 0.500000
O O12 0.306849 0.140357 0.564612
O O13 0.086384 0.153895 0.723110
O O14 0.416980 0.524637 0.873837
O O15 0.000000 0.880514 0.750000
#
# Coordination Sequence:
#
# PCOD9254339 Si02
#       8
#     8   8   8   8   8   4   4   8
#     4  10  19  33  60  88 114 146 200 246 293 344
#     4  10  18  35  60  88 118 144 204 252 291 345
#     4  11  22  35  55  91 120 151 198 249 297 343
#     4  12  25  37  56  82 126 167 193 233 298 377
#     4  11  20  38  55  87 121 151 196 247 299 350
#     4  10  16  29  62  90 103 144 184 252 302 319
#     4  10  20  39  52  84 119 166 192 228 302 361
#     4   9  19  35  58  84 119 152 198 234 298 357
#
# _framework density 19.907719
#
# number of rings (size 3 to 8) (size 9 to 14) (size 15 to 20)
#    0.429    1.143    4.286    2.571    2.000    0.571 
#    0.000    9.286    0.000    3.429    3.714    0.000 
#    0.000    0.000    0.000    0.000    0.000    0.000 
#
# Total GULP energy -156091.301773 kJ/mol
# GULP energy per Si atom -5574.689349 kJ/mol
# Density = 1.986241 g / cm^3
# Si number density = 19.907719 Si / 1000 Ang^3
#
#
#
# Elastic Constant Matrix: (Units=GPa)
#
#
# Indices 1 2 3 4 5 6 
#
# 1 94.9689 9.2722 45.7419 0.0000 7.4432 0.0000
# 2 9.2722 20.2346 8.3457 0.0000 2.5699 0.0000
# 3 45.7419 8.3457 139.5864 0.0000 12.8080 0.0000
# 4 0.0000 0.0000 0.0000 -5.7406 0.0000 2.5712
# 5 7.4432 2.5699 12.8080 0.0000 33.8814 0.0000
# 6 0.0000 0.0000 0.0000 2.5712 0.0000 11.3754
#
#
#
# Elastic Compliance Matrix: (Units=1/GPa)
#
#
# Indices 1 2 3 4 5 6 
#
# 1 0.012887 -0.004173 -0.003877 0.000000 -0.001049 0.000000
# 2 -0.004173 0.052278 -0.001532 0.000000 -0.002470 0.000000
# 3 -0.003877 -0.001532 0.008741 0.000000 -0.002336 0.000000
# 4 0.000000 0.000000 0.000000 -0.158183 0.000000 0.035755
# 5 -0.001049 -0.002470 -0.002336 0.000000 0.030816 0.000000
# 6 0.000000 0.000000 0.000000 0.035755 0.000000 0.079827
#
#
# Mechanical properties :
#
#
# Convention : Reuss Voigt Hill
#
# Bulk Modulus (GPa) = 18.26758 42.38993 30.32875
# Shear Modulus (GPa) = 78.40072 20.66525 49.53298
#
# Velocity S-wave (km/s) = 6.28232 3.22538 4.99353
# Velocity P-wave (km/s) = 7.86254 5.93382 6.96526
#
# Compressibility (1/GPa) = 0.05474180
#
# Stress axis : x y z
#
# Youngs Moduli (GPa) = 77.59842 19.12859 114.40971
#
# Poissons Ratio (x) = 0.07982 0.44360
# Poissons Ratio (y) = 0.32380 0.17523
# Poissons Ratio (z) = 0.30087 0.02930
#
# Static dielectric constant tensor:
#      x y z
#    x 1.686030 0.000000 -0.000970 
#    y 0.000000 1.701710 0.000000 
#    z -0.000970 0.000000 1.748640 
# 
# From -- ./inp_files/163071.got.cif
#   From: 2010.05.17/outbox.cif.g08.bks.cpg/sg15_82_cif.got.tgz:163071.got - 2010.06.03 18:47:42.
