data_PCOD9254109
_publ_section_title
;
Structure prediction by ZEFSAII (Michael W. Deem and Ramdas Pophale) SiO2 
 PCOD9254109
Probable space group: C 2/C
;
_chemical_formula_sum "Si O2"
_cell_formula_units_Z 40
_cell_length_a 7.509842
_cell_length_b 27.524638
_cell_length_c 11.789605
_cell_angle_alpha 90.000000
_cell_angle_beta 135.063338
_cell_angle_gamma 90.000000
_cell_volume 1721.297936
_symmetry_space_group_name_H-M "C 2/C"
_symmetry_group_IT_number 15
_symmetry_cell_setting 'monoclinic'
loop_
_space_group_symop_operation_xyz
x,y,z
-x,y,1/2-z
-x,-y,-z
x,-y,1/2+z
1/2+x,1/2+y,z
1/2-x,1/2+y,1/2-z
1/2-x,1/2-y,-z
1/2+x,1/2-y,1/2+z
loop_
_atom_site_type_symbol
_atom_site_label
_atom_site_fract_x
_atom_site_fract_y
_atom_site_fract_z
Si Si1 0.786616 0.688131 0.331351
Si Si2 0.159627 0.287764 0.204468
Si Si3 0.769487 0.510905 0.811899
Si Si4 0.154394 0.089714 0.200560
Si Si5 0.223591 0.114072 0.671893
O O1 0.500000 0.682970 0.250000
O O2 0.783823 0.734787 0.248206
O O3 0.841921 0.635082 0.303940
O O4 0.969329 0.700414 0.517408
O O5 0.341939 0.334538 0.298828
O O6 0.000000 0.281880 0.250000
O O7 0.500000 0.510870 0.750000
O O8 0.764995 0.463832 0.728074
O O9 0.774077 0.564745 0.763393
O O10 0.000000 0.500000 0.000000
O O11 0.000000 0.085321 0.250000
O O12 0.967941 0.103312 0.015284
O O13 0.500000 0.124550 0.750000
#
# Coordination Sequence:
#
# PCOD9254109 Si02
#       5
#     8   8   8   8   8
#     4  10  16  26  42  69 106 141 176 228 284 331
#     4  10  17  26  44  72 105 141 179 227 281 334
#     4  11  23  40  59  84 115 151 191 236 284 337
#     4  10  19  32  50  77 110 144 183 233 281 331
#     4  11  20  34  55  82 111 147 187 232 285 339
#
# _framework density 23.238278999999999
#
# number of rings (size 3 to 8) (size 9 to 14) (size 15 to 20)
#    0.000    1.600    0.000   12.600    0.000    0.000 
#    0.000    0.000    0.000    0.000    0.000   14.000 
#    0.000    0.000    0.000    0.000    0.000    0.000 
#
# Total GULP energy -111627.326216 kJ/mol
# GULP energy per Si atom -5581.366311 kJ/mol
# Density = 2.318539 g / cm^3
# Si number density = 23.238279 Si / 1000 Ang^3
#
#
#
# Elastic Constant Matrix: (Units=GPa)
#
#
# Indices 1 2 3 4 5 6 
#
# 1 47.6964 -3.8732 -15.3074 0.0000 2.2978 0.0000
# 2 -3.8732 175.6111 -49.6752 0.0000 -4.8530 0.0000
# 3 -15.3074 -49.6752 62.5042 0.0000 8.2459 0.0000
# 4 0.0000 0.0000 0.0000 46.5479 0.0000 -1.3207
# 5 2.2978 -4.8530 8.2459 0.0000 10.0329 0.0000
# 6 0.0000 0.0000 0.0000 -1.3207 0.0000 79.1141
#
#
#
# Elastic Compliance Matrix: (Units=1/GPa)
#
#
# Indices 1 2 3 4 5 6 
#
# 1 0.025144 0.003121 0.010318 0.000000 -0.012729 0.000000
# 2 0.003121 0.007751 0.007318 0.000000 -0.002980 0.000000
# 3 0.010318 0.007318 0.027128 0.000000 -0.021119 0.000000
# 4 0.000000 0.000000 0.000000 0.021493 0.000000 0.000359
# 5 -0.012729 -0.002980 -0.021119 0.000000 0.118503 0.000000
# 6 0.000000 0.000000 0.000000 0.000359 0.000000 0.012646
#
#
# Mechanical properties :
#
#
# Convention : Reuss Voigt Hill
#
# Bulk Modulus (GPa) = 9.84876 16.45557 13.15217
# Shear Modulus (GPa) = 24.39063 50.78349 37.58706
#
# Velocity S-wave (km/s) = 3.24325 4.67983 4.02613
# Velocity P-wave (km/s) = 4.27461 6.02476 5.22350
#
# Compressibility (1/GPa) = 0.10153560
#
# Stress axis : x y z
#
# Youngs Moduli (GPa) = 39.77101 129.01892 36.86295
#
# Poissons Ratio (x) = -0.40272 -0.38034
# Poissons Ratio (y) = -0.12414 -0.26974
# Poissons Ratio (z) = -0.41035 -0.94410
#
# Static dielectric constant tensor:
#      x y z
#    x 1.894130 0.000000 0.004200 
#    y 0.000000 2.072260 0.000000 
#    z 0.004200 0.000000 1.795420 
# 
# From -- ./inp_files/24434.got.cif
#   From: 2010.05.17/outbox.cif.g08.bks.cpg/sg15_13_cif.got.tgz:24434.got - 2010.06.03 18:47:42.
