data_PCOD9254995
_publ_section_title
;
Structure prediction by ZEFSAII (Michael W. Deem and Ramdas Pophale) SiO2 
 PCOD9254995
Probable space group: C 2/C
;
_chemical_formula_sum "Si O2"
_cell_formula_units_Z 56
_cell_length_a 19.971413
_cell_length_b 25.304631
_cell_length_c 7.834768
_cell_angle_alpha 90.000000
_cell_angle_beta 139.062971
_cell_angle_gamma 90.000000
_cell_volume 2594.347604
_symmetry_space_group_name_H-M "C 2/C"
_symmetry_group_IT_number 15
_symmetry_cell_setting 'monoclinic'
loop_
_space_group_symop_operation_xyz
x,y,z
-x,y,1/2-z
-x,-y,-z
x,-y,1/2+z
1/2+x,1/2+y,z
1/2-x,1/2+y,1/2-z
1/2-x,1/2-y,-z
1/2+x,1/2-y,1/2+z
loop_
_atom_site_type_symbol
_atom_site_label
_atom_site_fract_x
_atom_site_fract_y
_atom_site_fract_z
Si Si1 0.239099 0.296861 0.246258
Si Si2 0.084457 0.513545 0.019319
Si Si3 0.056825 0.219212 0.544187
Si Si4 0.637196 0.688205 0.155650
Si Si5 0.555061 0.838313 0.540128
Si Si6 0.118491 0.396936 0.113652
Si Si7 0.775291 0.398253 0.807835
O O1 0.327080 0.296157 0.272673
O O2 0.299269 0.304262 0.543474
O O3 0.176563 0.241512 0.134758
O O4 0.169197 0.349068 0.107187
O O5 0.000000 0.546558 0.750000
O O6 0.116003 0.454399 0.022160
O O7 0.188328 0.547266 0.214378
O O8 0.000000 0.500000 0.000000
O O9 0.053535 0.279196 0.602705
O O10 0.000000 0.217714 0.250000
O O11 0.981910 0.188178 0.524996
O O12 0.669477 0.632455 0.133944
O O13 0.500000 0.835442 0.250000
O O14 0.492834 0.876997 0.542098
O O15 0.665138 0.856890 0.695892
O O16 0.179769 0.403553 0.412169
#
# Coordination Sequence:
#
# PCOD9254995 Si02
#       7
#     8   8   8   8   8   8   8
#     4   9  15  23  38  63  95 126 150 188 241 286
#     4  12  21  33  48  69  96 130 160 195 238 283
#     4   9  14  21  35  62  97 125 150 183 233 288
#     4   9  15  22  38  64  95 126 152 185 240 290
#     4   9  13  20  38  62  92 121 144 178 228 281
#     4  10  18  28  43  65  95 125 154 190 237 282
#     4  10  17  27  42  66  96 126 152 190 238 284
#
# _framework density 21.585387999999998
#
# number of rings (size 3 to 8) (size 9 to 14) (size 15 to 20)
#    0.000    2.286    5.714    0.429    0.000    0.000 
#    0.000    0.000    0.000    0.857    0.000    4.000 
#    0.000    0.000    0.000    0.000    0.000    0.000 
#
# Total GULP energy -155985.528038 kJ/mol
# GULP energy per Si atom -5570.911716 kJ/mol
# Density = 2.153626 g / cm^3
# Si number density = 21.585388 Si / 1000 Ang^3
#
#
#
# Elastic Constant Matrix: (Units=GPa)
#
#
# Indices 1 2 3 4 5 6 
#
# 1 141.7553 76.9285 25.2516 0.0000 33.7134 0.0000
# 2 76.9285 154.4402 23.2247 0.0000 28.8128 0.0000
# 3 25.2516 23.2247 45.7142 0.0000 -4.4828 0.0000
# 4 0.0000 0.0000 0.0000 18.3498 0.0000 6.9554
# 5 33.7134 28.8128 -4.4828 0.0000 36.2436 0.0000
# 6 0.0000 0.0000 0.0000 6.9554 0.0000 43.0899
#
#
#
# Elastic Compliance Matrix: (Units=1/GPa)
#
#
# Indices 1 2 3 4 5 6 
#
# 1 0.012196 -0.003446 -0.005901 0.000000 -0.009335 0.000000
# 2 -0.003446 0.009621 -0.003462 0.000000 -0.004871 0.000000
# 3 -0.005901 -0.003462 0.028042 0.000000 0.011710 0.000000
# 4 0.000000 0.000000 0.000000 0.058048 0.000000 -0.009370
# 5 -0.009335 -0.004871 0.011710 0.000000 0.041595 0.000000
# 6 0.000000 0.000000 0.000000 -0.009370 0.000000 0.024720
#
#
# Mechanical properties :
#
#
# Convention : Reuss Voigt Hill
#
# Bulk Modulus (GPa) = 41.25418 65.85770 53.55594
# Shear Modulus (GPa) = 24.04768 33.97033 29.00901
#
# Velocity S-wave (km/s) = 3.34139 3.97137 3.66993
# Velocity P-wave (km/s) = 5.83439 7.18371 6.54392
#
# Compressibility (1/GPa) = 0.02423997
#
# Stress axis : x y z
#
# Youngs Moduli (GPa) = 81.99559 103.94112 35.66071
#
# Poissons Ratio (x) = 0.35817 0.21045
# Poissons Ratio (y) = 0.28254 0.12346
# Poissons Ratio (z) = 0.48389 0.35985
#
# Static dielectric constant tensor:
#      x y z
#    x 2.051830 0.000000 -0.637810 
#    y 0.000000 1.806860 0.000000 
#    z -0.637810 0.000000 3.352380 
# 
# From -- ./inp_files/52058.got.cif
#   From: 2010.05.17/outbox.cif.g08.bks.cpg/sg15_27_cif.got.tgz:52058.got - 2010.06.03 18:47:42.
