data_PCOD9254844
_publ_section_title
;
Structure prediction by ZEFSAII (Michael W. Deem and Ramdas Pophale) SiO2 
 PCOD9254844
Probable space group: C 2/C
;
_chemical_formula_sum "Si O2"
_cell_formula_units_Z 64
_cell_length_a 12.525277
_cell_length_b 10.284971
_cell_length_c 21.506204
_cell_angle_alpha 90.000000
_cell_angle_beta 71.276758
_cell_angle_gamma 90.000000
_cell_volume 2623.861474
_symmetry_space_group_name_H-M "C 2/C"
_symmetry_group_IT_number 15
_symmetry_cell_setting 'monoclinic'
loop_
_space_group_symop_operation_xyz
x,y,z
-x,y,1/2-z
-x,-y,-z
x,-y,1/2+z
1/2+x,1/2+y,z
1/2-x,1/2+y,1/2-z
1/2-x,1/2-y,-z
1/2+x,1/2-y,1/2+z
loop_
_atom_site_type_symbol
_atom_site_label
_atom_site_fract_x
_atom_site_fract_y
_atom_site_fract_z
Si Si1 0.321150 0.040332 0.012060
Si Si2 0.670767 0.759432 0.426824
Si Si3 0.735817 0.316480 0.634221
Si Si4 0.369832 0.475603 0.039716
Si Si5 0.852939 0.893820 0.323181
Si Si6 0.968205 0.665242 0.892596
Si Si7 0.910130 0.061078 0.671214
Si Si8 0.109275 0.776992 0.772522
O O1 0.417174 0.048758 0.941527
O O2 0.204661 0.086514 0.000708
O O3 0.334891 0.143611 0.066851
O O4 0.318350 0.892988 0.036964
O O5 0.688702 0.617399 0.448972
O O6 0.764779 0.783259 0.356798
O O7 0.541897 0.756977 0.428313
O O8 0.699459 0.464252 0.657516
O O9 0.637244 0.240687 0.616165
O O10 0.716835 0.257243 0.707799
O O11 0.362148 0.411359 0.110562
O O12 0.500000 0.500000 0.000000
O O13 0.879987 0.884399 0.245339
O O14 0.957889 0.898723 0.351584
O O15 0.061990 0.653142 0.820294
O O16 0.886357 0.906291 0.685628
O O17 0.000000 0.809106 0.750000
#
# Coordination Sequence:
#
# PCOD9254844 Si02
#       8
#     8   8   8   8   8   8   8   8
#     4  11  24  36  55  93 129 162 197 261 317 375
#     4  11  22  39  61  84 124 169 199 244 320 386
#     4   9  17  35  59  86 113 158 207 255 301 357
#     4  12  24  39  61  89 122 159 216 257 303 373
#     4   9  17  34  64  90 113 155 213 260 313 358
#     4  11  19  36  59  89 120 157 204 254 307 364
#     4  10  16  36  60  88 114 151 212 264 290 370
#     4   9  15  31  63  83 107 151 206 255 299 346
#
# _framework density 24.391531000000001
#
# number of rings (size 3 to 8) (size 9 to 14) (size 15 to 20)
#    0.000    1.750    5.000    3.375    0.000    0.000 
#    6.750    0.000    0.000    3.000    0.000    0.000 
#    0.000    0.000    0.000    0.000    0.000    0.000 
#
# Total GULP energy -178163.604493 kJ/mol
# GULP energy per Si atom -5567.612640 kJ/mol
# Density = 2.433601 g / cm^3
# Si number density = 24.391531 Si / 1000 Ang^3
#
#
#
# Elastic Constant Matrix: (Units=GPa)
#
#
# Indices 1 2 3 4 5 6 
#
# 1 60.8821 10.6600 12.4056 0.0000 17.4359 0.0000
# 2 10.6600 36.1534 45.6201 0.0000 -6.9747 0.0000
# 3 12.4056 45.6201 121.1346 0.0000 -9.2863 0.0000
# 4 0.0000 0.0000 0.0000 37.4157 0.0000 -0.7069
# 5 17.4359 -6.9747 -9.2863 0.0000 42.8675 0.0000
# 6 0.0000 0.0000 0.0000 -0.7069 0.0000 24.1106
#
#
#
# Elastic Compliance Matrix: (Units=1/GPa)
#
#
# Indices 1 2 3 4 5 6 
#
# 1 0.020586 -0.008268 0.000265 0.000000 -0.009661 0.000000
# 2 -0.008268 0.056837 -0.019923 0.000000 0.008295 0.000000
# 3 0.000265 -0.019923 0.015736 0.000000 0.000060 0.000000
# 4 0.000000 0.000000 0.000000 0.026742 0.000000 0.000784
# 5 -0.009661 0.008295 0.000060 0.000000 0.028620 0.000000
# 6 0.000000 0.000000 0.000000 0.000784 0.000000 0.041499
#
#
# Mechanical properties :
#
#
# Convention : Reuss Voigt Hill
#
# Bulk Modulus (GPa) = 26.80430 39.50462 33.15446
# Shear Modulus (GPa) = 19.35692 30.84438 25.10065
#
# Velocity S-wave (km/s) = 2.82013 3.55991 3.21140
# Velocity P-wave (km/s) = 4.64943 5.75574 5.23191
#
# Compressibility (1/GPa) = 0.03730745
#
# Stress axis : x y z
#
# Youngs Moduli (GPa) = 48.57774 17.59405 63.54950
#
# Poissons Ratio (x) = 0.14546 -0.01683
# Poissons Ratio (y) = 0.40163 1.26608
# Poissons Ratio (z) = -0.01287 0.35052
#
# Static dielectric constant tensor:
#      x y z
#    x 1.979670 0.000000 0.030920 
#    y 0.000000 1.937770 0.000000 
#    z 0.030920 0.000000 2.106410 
# 
# From -- ./inp_files/269241.got.cif
#   From: 2010.05.17/outbox.cif.g08.bks.cpg/sg15_135_cif.got.tgz:269241.got - 2010.06.03 18:47:42.
