data_PCOD9254736
_publ_section_title
;
Structure prediction by ZEFSAII (Michael W. Deem and Ramdas Pophale) SiO2 
 PCOD9254736
Probable space group: C 2/C
;
_chemical_formula_sum "Si O2"
_cell_formula_units_Z 52
_cell_length_a 27.231542
_cell_length_b 18.618897
_cell_length_c 11.621709
_cell_angle_alpha 90.000000
_cell_angle_beta 27.318391
_cell_angle_gamma 90.000000
_cell_volume 2704.251849
_symmetry_space_group_name_H-M "C 2/C"
_symmetry_group_IT_number 15
_symmetry_cell_setting 'monoclinic'
loop_
_space_group_symop_operation_xyz
x,y,z
-x,y,1/2-z
-x,-y,-z
x,-y,1/2+z
1/2+x,1/2+y,z
1/2-x,1/2+y,1/2-z
1/2-x,1/2-y,-z
1/2+x,1/2-y,1/2+z
loop_
_atom_site_type_symbol
_atom_site_label
_atom_site_fract_x
_atom_site_fract_y
_atom_site_fract_z
Si Si1 0.674121 0.664132 0.259073
Si Si2 0.915207 0.290485 0.684895
Si Si3 0.500000 0.237592 0.250000
Si Si4 0.876439 0.761475 0.864863
Si Si5 0.203609 0.139018 0.557211
Si Si6 0.128496 0.959746 0.004135
Si Si7 0.626534 0.615619 0.968048
O O1 0.594261 0.710342 0.506845
O O2 0.632828 0.679097 0.217034
O O3 0.673503 0.582302 0.299537
O O4 0.790287 0.699478 0.025746
O O5 0.965137 0.306607 0.707959
O O6 0.851234 0.216771 0.842277
O O7 0.006860 0.272234 0.399970
O O8 0.829872 0.346876 0.813047
O O9 0.841625 0.806661 0.048975
O O10 0.167244 0.088172 0.529956
O O11 0.156914 0.109242 0.772915
O O12 0.000000 0.959378 0.250000
O O13 0.165456 0.041633 0.943574
O O14 0.500000 0.617279 0.250000
#
# Coordination Sequence:
#
# PCOD9254736 Si02
#       7
#     8   8   4   8   8   8   8
#     4  10  19  34  59  83 116 151 198 233 290 351
#     4  10  20  35  61  87 119 147 196 246 287 352
#     4  10  16  34  56  86 116 150 182 234 304 342
#     4  10  21  36  56  92 112 149 194 252 288 335
#     4  11  22  38  56  88 117 159 193 237 296 350
#     4  11  23  37  58  83 119 163 185 236 298 365
#     4  11  24  34  56  86 124 148 187 248 295 352
#
# _framework density 19.228978000000001
#
# number of rings (size 3 to 8) (size 9 to 14) (size 15 to 20)
#    0.000    1.538    3.846    1.846    4.308    1.231 
#    0.000    0.000    0.000    0.923   16.000    0.000 
#    0.000    0.000    0.000    0.000    0.000    0.000 
#
# Total GULP energy -145012.259445 kJ/mol
# GULP energy per Si atom -5577.394594 kJ/mol
# Density = 1.918521 g / cm^3
# Si number density = 19.228978 Si / 1000 Ang^3
#
#
#
# Elastic Constant Matrix: (Units=GPa)
#
#
# Indices 1 2 3 4 5 6 
#
# 1 66.2443 19.9639 15.4946 0.0000 -8.4636 0.0000
# 2 19.9639 42.2030 8.3187 0.0000 -7.1457 0.0000
# 3 15.4946 8.3187 65.7613 0.0000 -10.5263 0.0000
# 4 0.0000 0.0000 0.0000 55.1260 0.0000 21.8360
# 5 -8.4636 -7.1457 -10.5263 0.0000 23.5871 0.0000
# 6 0.0000 0.0000 0.0000 21.8360 0.0000 16.0227
#
#
#
# Elastic Compliance Matrix: (Units=1/GPa)
#
#
# Indices 1 2 3 4 5 6 
#
# 1 0.018465 -0.007653 -0.002900 0.000000 0.003013 0.000000
# 2 -0.007653 0.028420 -0.000919 0.000000 0.005454 0.000000
# 3 -0.002900 -0.000919 0.017010 0.000000 0.006272 0.000000
# 4 0.000000 0.000000 0.000000 0.039421 0.000000 -0.053723
# 5 0.003013 0.005454 0.006272 0.000000 0.047928 0.000000
# 6 0.000000 0.000000 0.000000 -0.053723 0.000000 0.135626
#
#
# Mechanical properties :
#
#
# Convention : Reuss Voigt Hill
#
# Bulk Modulus (GPa) = 24.41978 29.08479 26.75228
# Shear Modulus (GPa) = 15.45762 27.64259 21.55011
#
# Velocity S-wave (km/s) = 2.83834 3.79562 3.35133
# Velocity P-wave (km/s) = 4.84444 5.86236 5.37754
#
# Compressibility (1/GPa) = 0.04095040
#
# Stress axis : x y z
#
# Youngs Moduli (GPa) = 54.15537 35.18681 58.78862
#
# Poissons Ratio (x) = 0.26929 0.17051
# Poissons Ratio (y) = 0.41446 0.05402
# Poissons Ratio (z) = 0.15707 0.03233
#
# Static dielectric constant tensor:
#      x y z
#    x 1.748040 0.000000 -0.001890 
#    y 0.000000 1.670060 0.000000 
#    z -0.001890 0.000000 1.673770 
# 
# From -- ./inp_files/123882.got.cif
#   From: 2010.05.17/outbox.cif.g08.bks.cpg/sg15_62_cif.got.tgz:123882.got - 2010.06.03 18:47:42.
