data_PCOD9254938
_publ_section_title
;
Structure prediction by ZEFSAII (Michael W. Deem and Ramdas Pophale) SiO2 
 PCOD9254938
Probable space group: C 2/C
;
_chemical_formula_sum "Si O2"
_cell_formula_units_Z 24
_cell_length_a 6.738924
_cell_length_b 23.953420
_cell_length_c 7.714987
_cell_angle_alpha 90.000000
_cell_angle_beta 140.076280
_cell_angle_gamma 90.000000
_cell_volume 799.228179
_symmetry_space_group_name_H-M "C 2/C"
_symmetry_group_IT_number 15
_symmetry_cell_setting 'monoclinic'
loop_
_space_group_symop_operation_xyz
x,y,z
-x,y,1/2-z
-x,-y,-z
x,-y,1/2+z
1/2+x,1/2+y,z
1/2-x,1/2+y,1/2-z
1/2-x,1/2-y,-z
1/2+x,1/2-y,1/2+z
loop_
_atom_site_type_symbol
_atom_site_label
_atom_site_fract_x
_atom_site_fract_y
_atom_site_fract_z
Si Si1 0.261526 0.280801 0.751517
Si Si2 0.139024 0.058504 0.152510
Si Si3 0.134755 0.616580 0.641706
O O1 0.500000 0.281612 0.750000
O O2 0.033426 0.332847 0.570686
O O3 0.013904 0.230156 0.568764
O O4 0.499507 0.064178 0.439515
O O5 0.000000 0.069684 0.250000
O O6 0.991109 0.104854 0.925463
O O7 0.000000 0.000000 0.000000
O O8 0.000000 0.619866 0.750000
#
# Coordination Sequence:
#
# PCOD9254938 Si02
#       3
#     8   8   8
#     4  10  17  25  40  64  95 128 156 184 229 290
#     4  10  20  33  49  68  94 125 159 197 236 278
#     4  10  18  29  44  65  94 126 155 189 236 281
#
# _framework density 30.028972
#
# number of rings (size 3 to 8) (size 9 to 14) (size 15 to 20)
#    0.000    2.000    0.000    9.000    0.000    0.000 
#    0.000    0.000    0.000    0.000    0.000    0.000 
#    0.000   26.667    0.000    0.000    0.000    4.000 
#
# Total GULP energy -67113.809574 kJ/mol
# GULP energy per Si atom -5592.817464 kJ/mol
# Density = 2.996063 g / cm^3
# Si number density = 30.028972 Si / 1000 Ang^3
#
#
#
# Elastic Constant Matrix: (Units=GPa)
#
#
# Indices 1 2 3 4 5 6 
#
# 1 126.3836 -10.5672 39.4562 0.0000 1.2001 0.0000
# 2 -10.5672 178.7719 98.1083 0.0000 7.9743 0.0000
# 3 39.4562 98.1083 336.3501 0.0000 18.4084 0.0000
# 4 0.0000 0.0000 0.0000 19.5018 0.0000 30.2813
# 5 1.2001 7.9743 18.4084 0.0000 69.5327 0.0000
# 6 0.0000 0.0000 0.0000 30.2813 0.0000 1.3883
#
#
#
# Elastic Compliance Matrix: (Units=1/GPa)
#
#
# Indices 1 2 3 4 5 6 
#
# 1 0.008438 0.001239 -0.001355 0.000000 0.000071 0.000000
# 2 0.001239 0.006846 -0.002129 0.000000 -0.000243 0.000000
# 3 -0.001355 -0.002129 0.003793 0.000000 -0.000737 0.000000
# 4 0.000000 0.000000 0.000000 -0.001560 0.000000 0.034028
# 5 0.000071 -0.000243 -0.000737 0.000000 0.014603 0.000000
# 6 0.000000 0.000000 0.000000 0.034028 0.000000 -0.021915
#
#
# Mechanical properties :
#
#
# Convention : Reuss Voigt Hill
#
# Bulk Modulus (GPa) = 68.54832 99.50004 84.02418
# Shear Modulus (GPa) = 255.63704 52.38511 154.01107
#
# Velocity S-wave (km/s) = 9.23661 4.18123 7.16930
# Velocity P-wave (km/s) = 11.68889 7.51777 9.82718
#
# Compressibility (1/GPa) = 0.01458825
#
# Stress axis : x y z
#
# Youngs Moduli (GPa) = 118.50467 146.06620 263.61522
#
# Poissons Ratio (x) = -0.18104 0.35728
# Poissons Ratio (y) = -0.14688 0.56125
# Poissons Ratio (z) = 0.16061 0.31098
#
# Static dielectric constant tensor:
#      x y z
#    x 2.542680 0.000000 0.016650 
#    y 0.000000 2.518080 0.000000 
#    z 0.016650 0.000000 2.128300 
# 
# From -- ./inp_files/2227.got.cif
#   From: 2010.05.17/outbox.cif.g08.bks.cpg/sg15_2_cif.got.tgz:2227.got - 2010.06.03 18:47:42.
