data_PCOD9254063
_publ_section_title
;
Structure prediction by ZEFSAII (Michael W. Deem and Ramdas Pophale) SiO2 
 PCOD9254063
Probable space group: C 2/C
;
_chemical_formula_sum "Si O2"
_cell_formula_units_Z 40
_cell_length_a 23.980690
_cell_length_b 6.939188
_cell_length_c 11.194941
_cell_angle_alpha 90.000000
_cell_angle_beta 118.591206
_cell_angle_gamma 90.000000
_cell_volume 1635.741110
_symmetry_space_group_name_H-M "C 2/C"
_symmetry_group_IT_number 15
_symmetry_cell_setting 'monoclinic'
loop_
_space_group_symop_operation_xyz
x,y,z
-x,y,1/2-z
-x,-y,-z
x,-y,1/2+z
1/2+x,1/2+y,z
1/2-x,1/2+y,1/2-z
1/2-x,1/2-y,-z
1/2+x,1/2-y,1/2+z
loop_
_atom_site_type_symbol
_atom_site_label
_atom_site_fract_x
_atom_site_fract_y
_atom_site_fract_z
Si Si1 0.656341 0.304397 0.304085
Si Si2 0.124303 0.758488 0.521141
Si Si3 0.177903 0.812888 0.072197
Si Si4 0.678720 0.238484 0.827552
Si Si5 0.508848 0.615242 0.631698
O O1 0.665251 0.212208 0.444027
O O2 0.682099 0.219454 0.207280
O O3 0.680806 0.525845 0.330771
O O4 0.580277 0.309341 0.208189
O O5 0.141933 0.684583 0.669791
O O6 0.049157 0.733236 0.425351
O O7 0.138100 0.990470 0.542010
O O8 0.251066 0.845767 0.112696
O O9 0.150402 0.698580 0.930071
O O10 0.500000 0.504488 0.750000
O O11 0.500000 0.500000 0.500000
#
# Coordination Sequence:
#
# PCOD9254063 Si02
#       5
#     8   8   8   8   8
#     4   9  17  27  39  57  80 102 125 155 189 226
#     4   9  17  27  39  57  80 102 125 155 189 226
#     4   9  16  25  37  53  75 103 131 155 181 220
#     4   9  16  25  37  53  75 103 131 155 181 220
#     4  10  16  24  40  58  76 100 126 153 191 233
#
# _framework density 24.453748000000001
#
# number of rings (size 3 to 8) (size 9 to 14) (size 15 to 20)
#    0.000    2.800    4.000    0.000    0.000    0.800 
#    0.000    0.000    0.000    0.000    0.000    0.000 
#    0.000   25.600    0.000  110.400    0.000   52.800 
#
# Total GULP energy -111430.591067 kJ/mol
# GULP energy per Si atom -5571.529553 kJ/mol
# Density = 2.439809 g / cm^3
# Si number density = 24.453748 Si / 1000 Ang^3
#
#
#
# Elastic Constant Matrix: (Units=GPa)
#
#
# Indices 1 2 3 4 5 6 
#
# 1 74.2204 -12.4935 31.6443 0.0000 -17.9809 0.0000
# 2 -12.4935 89.7034 -4.4619 0.0000 5.1996 0.0000
# 3 31.6443 -4.4619 187.6339 0.0000 -55.2835 0.0000
# 4 0.0000 0.0000 0.0000 -16.8158 0.0000 13.9486
# 5 -17.9809 5.1996 -55.2835 0.0000 83.0025 0.0000
# 6 0.0000 0.0000 0.0000 13.9486 0.0000 -2.5590
#
#
#
# Elastic Compliance Matrix: (Units=1/GPa)
#
#
# Indices 1 2 3 4 5 6 
#
# 1 0.015072 0.001895 -0.001953 0.000000 0.001846 0.000000
# 2 0.001895 0.011428 -0.000171 0.000000 -0.000420 0.000000
# 3 -0.001953 -0.000171 0.006884 0.000000 0.004173 0.000000
# 4 0.000000 0.000000 0.000000 0.016887 0.000000 0.092051
# 5 0.001846 -0.000420 0.004173 0.000000 0.015253 0.000000
# 6 0.000000 0.000000 0.000000 0.092051 0.000000 0.110972
#
#
# Mechanical properties :
#
#
# Convention : Reuss Voigt Hill
#
# Bulk Modulus (GPa) = 30.37197 42.32617 36.34907
# Shear Modulus (GPa) = 26.60551 35.18347 30.89449
#
# Velocity S-wave (km/s) = 3.30205 3.79724 3.55827
# Velocity P-wave (km/s) = 5.19473 6.04744 5.63723
#
# Compressibility (1/GPa) = 0.03292510
#
# Stress axis : x y z
#
# Youngs Moduli (GPa) = 66.34733 87.50766 145.25754
#
# Poissons Ratio (x) = -0.16583 0.28370
# Poissons Ratio (y) = -0.12573 0.02491
# Poissons Ratio (z) = 0.12958 0.01500
#
# Static dielectric constant tensor:
#      x y z
#    x 1.971170 0.000000 -0.102950 
#    y 0.000000 1.959820 0.000000 
#    z -0.102950 0.000000 2.126240 
# 
# From -- ./inp_files/104479.got.cif
#   From: 2010.05.17/outbox.cif.g08.bks.cpg/sg15_53_cif.got.tgz:104479.got - 2010.06.03 18:47:42.
