data_PCOD9254833
_publ_section_title
;
Structure prediction by ZEFSAII (Michael W. Deem and Ramdas Pophale) SiO2 
 PCOD9254833
Probable space group: C 2/C
;
_chemical_formula_sum "Si O2"
_cell_formula_units_Z 52
_cell_length_a 32.793430
_cell_length_b 18.002698
_cell_length_c 15.550413
_cell_angle_alpha 90.000000
_cell_angle_beta 17.211604
_cell_angle_gamma 90.000000
_cell_volume 2716.524060
_symmetry_space_group_name_H-M "C 2/C"
_symmetry_group_IT_number 15
_symmetry_cell_setting 'monoclinic'
loop_
_space_group_symop_operation_xyz
x,y,z
-x,y,1/2-z
-x,-y,-z
x,-y,1/2+z
1/2+x,1/2+y,z
1/2-x,1/2+y,1/2-z
1/2-x,1/2-y,-z
1/2+x,1/2-y,1/2+z
loop_
_atom_site_type_symbol
_atom_site_label
_atom_site_fract_x
_atom_site_fract_y
_atom_site_fract_z
Si Si1 0.388384 0.442742 0.609770
Si Si2 0.744959 0.648348 0.769222
Si Si3 0.162737 0.811742 0.910343
Si Si4 0.926845 0.470292 0.983762
Si Si5 0.294835 0.589192 0.008877
Si Si6 0.000000 0.056138 0.250000
Si Si7 0.196779 0.571474 0.031632
O O1 0.328324 0.367405 0.689447
O O2 0.413823 0.498707 0.479281
O O3 0.283939 0.494766 0.872077
O O4 0.542465 0.428740 0.334963
O O5 0.754569 0.735593 0.761973
O O6 0.866974 0.608477 0.574364
O O7 0.759278 0.620538 0.640632
O O8 0.604920 0.610799 0.085782
O O9 0.205851 0.854857 0.909687
O O10 0.000000 0.794421 0.250000
O O11 0.000000 0.502925 0.750000
O O12 0.043312 0.455734 0.819646
O O13 0.800288 0.520727 0.268492
O O14 0.224951 0.616551 0.061657
#
# Coordination Sequence:
#
# PCOD9254833 Si02
#       7
#     8   8   8   8   8   4   8
#     4  10  18  36  57  81 106 145 194 222 264 326
#     4  10  20  35  54  79 108 142 185 227 277 322
#     4  10  19  33  56  80 106 144 182 230 269 324
#     4  10  19  35  55  77 106 145 183 225 268 331
#     4  11  19  34  55  81 110 143 181 232 276 322
#     4  10  16  36  58  76 104 142 192 222 260 324
#     4  10  21  32  55  83 109 141 181 231 278 328
#
# _framework density 19.142109999999999
#
# number of rings (size 3 to 8) (size 9 to 14) (size 15 to 20)
#    0.000    1.846    3.846    4.154    0.000    0.615 
#    4.154    0.000    0.000    0.923    0.000    0.000 
#    0.000    0.000    0.000    0.000    0.000    0.000 
#
# Total GULP energy -144814.716395 kJ/mol
# GULP energy per Si atom -5569.796784 kJ/mol
# Density = 1.909854 g / cm^3
# Si number density = 19.142110 Si / 1000 Ang^3
#
#
#
# Elastic Constant Matrix: (Units=GPa)
#
#
# Indices 1 2 3 4 5 6 
#
# 1 80.7523 22.6166 10.4448 -0.0002 -15.0978 0.0001
# 2 22.6166 103.4050 26.2627 -0.0001 -11.6008 0.0001
# 3 10.4448 26.2627 43.9330 -0.0002 -11.8564 -0.0001
# 4 -0.0002 -0.0001 -0.0002 9.3935 -0.0001 0.6438
# 5 -15.0978 -11.6008 -11.8564 -0.0001 18.9677 -0.0001
# 6 0.0001 0.0001 -0.0001 0.6438 -0.0001 8.6467
#
#
#
# Elastic Compliance Matrix: (Units=1/GPa)
#
#
# Indices 1 2 3 4 5 6 
#
# 1 0.014971 -0.002228 0.000747 0.000000 0.011021 0.000000
# 2 -0.002228 0.011904 -0.006135 0.000000 0.001672 0.000000
# 3 0.000747 -0.006135 0.030554 0.000001 0.015941 0.000000
# 4 0.000000 0.000000 0.000001 0.107002 0.000001 -0.007967
# 5 0.011021 0.001672 0.015941 0.000001 0.072481 0.000001
# 6 0.000000 0.000000 0.000000 -0.007967 0.000001 0.116244
#
#
# Mechanical properties :
#
#
# Convention : Reuss Voigt Hill
#
# Bulk Modulus (GPa) = 23.69835 38.52652 31.11243
# Shear Modulus (GPa) = 13.07347 18.65267 15.86307
#
# Velocity S-wave (km/s) = 2.61620 3.12497 2.88184
# Velocity P-wave (km/s) = 4.64038 5.76115 5.23087
#
# Compressibility (1/GPa) = 0.04219703
#
# Stress axis : x y z
#
# Youngs Moduli (GPa) = 66.79374 84.00722 32.72903
#
# Poissons Ratio (x) = 0.18715 -0.02444
# Poissons Ratio (y) = 0.14880 0.20079
# Poissons Ratio (z) = -0.04987 0.51538
#
# Static dielectric constant tensor:
#      x y z
#    x 1.705500 0.000000 0.034670 
#    y 0.000000 1.643950 0.000000 
#    z 0.034670 0.000000 1.760210 
# 
# From -- ./inp_files/182834.got.cif
#   From: 2010.05.17/outbox.cif.g08.bks.cpg/sg15_92_cif.got.tgz:182834.got - 2010.06.03 18:47:42.
