data_PCOD9254420
_publ_section_title
;
Structure prediction by ZEFSAII (Michael W. Deem and Ramdas Pophale) SiO2 
 PCOD9254420
Probable space group: C 2/C
;
_chemical_formula_sum "Si O2"
_cell_formula_units_Z 60
_cell_length_a 12.439239
_cell_length_b 13.129441
_cell_length_c 21.678304
_cell_angle_alpha 90.000000
_cell_angle_beta 68.070138
_cell_angle_gamma 90.000000
_cell_volume 3284.321230
_symmetry_space_group_name_H-M "C 2/C"
_symmetry_group_IT_number 15
_symmetry_cell_setting 'monoclinic'
loop_
_space_group_symop_operation_xyz
x,y,z
-x,y,1/2-z
-x,-y,-z
x,-y,1/2+z
1/2+x,1/2+y,z
1/2-x,1/2+y,1/2-z
1/2-x,1/2-y,-z
1/2+x,1/2-y,1/2+z
loop_
_atom_site_type_symbol
_atom_site_label
_atom_site_fract_x
_atom_site_fract_y
_atom_site_fract_z
Si Si1 0.999607 0.336410 0.855041
Si Si2 0.748496 0.400010 0.944147
Si Si3 0.000000 0.504536 0.750000
Si Si4 0.763731 0.412975 0.344640
Si Si5 0.646300 0.531875 0.068995
Si Si6 0.682189 0.203025 0.420414
Si Si7 0.524152 0.386915 0.353350
Si Si8 0.500536 0.664712 0.005839
O O1 0.014570 0.427491 0.804119
O O2 0.104154 0.339303 0.881325
O O3 0.003044 0.221915 0.827026
O O4 0.872947 0.347653 0.913190
O O5 0.748968 0.494326 0.896044
O O6 0.636666 0.329817 0.952881
O O7 0.723819 0.449808 0.015780
O O8 0.113044 0.571935 0.713520
O O9 0.748434 0.305231 0.383153
O O10 0.657184 0.419315 0.319399
O O11 0.728052 0.620583 0.075595
O O12 0.569915 0.474047 0.136725
O O13 0.557057 0.580901 0.038355
O O14 0.586079 0.238500 0.491492
O O15 0.511737 0.365219 0.430774
#
# Coordination Sequence:
#
# PCOD9254420 Si02
#       8
#     8   8   4   8   8   8   8   8
#     4   9  21  36  51  77  95 135 175 229 251 292
#     4  10  16  30  54  75 104 137 186 190 238 313
#     4  10  20  38  64  66  88 130 190 220 262 290
#     4   9  17  34  54  75  92 138 173 217 238 308
#     4  11  17  29  52  81 111 145 158 193 253 322
#     4  10  21  32  50  78 117 128 163 211 261 300
#     4   9  17  33  53  75 108 133 172 201 250 303
#     4   9  16  28  51  78 102 147 171 186 231 317
#
# _framework density 18.268616000000002
#
# number of rings (size 3 to 8) (size 9 to 14) (size 15 to 20)
#    0.000    2.667    4.000    1.200    0.000    5.333 
#    0.000    5.333    0.000    0.000    0.000    0.000 
#    0.000    0.000    0.000    0.000    0.000    0.000 
#
# Total GULP energy -167074.117956 kJ/mol
# GULP energy per Si atom -5569.137265 kJ/mol
# Density = 1.822704 g / cm^3
# Si number density = 18.268616 Si / 1000 Ang^3
#
#
#
# Elastic Constant Matrix: (Units=GPa)
#
#
# Indices 1 2 3 4 5 6 
#
# 1 96.2972 58.6214 42.4897 0.0000 -31.8789 0.0000
# 2 58.6214 83.4599 22.0350 0.0000 -20.7067 0.0000
# 3 42.4897 22.0350 56.9891 0.0000 -32.2718 0.0000
# 4 0.0000 0.0000 0.0000 15.2722 0.0000 -6.4241
# 5 -31.8789 -20.7067 -32.2718 0.0000 33.0351 0.0000
# 6 0.0000 0.0000 0.0000 -6.4241 0.0000 38.1638
#
#
#
# Elastic Compliance Matrix: (Units=1/GPa)
#
#
# Indices 1 2 3 4 5 6 
#
# 1 0.024919 -0.013401 -0.010154 0.000000 0.005728 0.000000
# 2 -0.013401 0.021421 0.004452 0.000000 0.004844 0.000000
# 3 -0.010154 0.004452 0.043482 0.000000 0.035469 0.000000
# 4 0.000000 0.000000 0.000000 0.070468 0.000000 0.011862
# 5 0.005728 0.004844 0.035469 0.000000 0.073484 0.000000
# 6 0.000000 0.000000 0.000000 0.011862 0.000000 0.028200
#
#
# Mechanical properties :
#
#
# Convention : Reuss Voigt Hill
#
# Bulk Modulus (GPa) = 19.37386 53.67091 36.52239
# Shear Modulus (GPa) = 15.75382 24.86756 20.31069
#
# Velocity S-wave (km/s) = 2.93975 3.69347 3.33795
# Velocity P-wave (km/s) = 4.70647 6.90156 5.90688
#
# Compressibility (1/GPa) = 0.05161595
#
# Stress axis : x y z
#
# Youngs Moduli (GPa) = 40.13066 46.68365 22.99809
#
# Poissons Ratio (x) = 0.62560 0.23352
# Poissons Ratio (y) = 0.53778 -0.10239
# Poissons Ratio (z) = 0.40748 -0.20783
#
# Static dielectric constant tensor:
#      x y z
#    x 1.654920 0.000000 -0.004900 
#    y 0.000000 1.667140 0.000000 
#    z -0.004900 0.000000 1.647750 
# 
# From -- ./inp_files/292059.got.cif
#   From: 2010.05.17/outbox.cif.g08.bks.cpg/sg15_147_cif.got.tgz:292059.got - 2010.06.03 18:47:42.
