data_PCOD9254885
_publ_section_title
;
Structure prediction by ZEFSAII (Michael W. Deem and Ramdas Pophale) SiO2 
 PCOD9254885
Probable space group: C 2/C
;
_chemical_formula_sum "Si O2"
_cell_formula_units_Z 56
_cell_length_a 12.095951
_cell_length_b 15.667853
_cell_length_c 14.631328
_cell_angle_alpha 90.000000
_cell_angle_beta 80.932606
_cell_angle_gamma 90.000000
_cell_volume 2738.242859
_symmetry_space_group_name_H-M "C 2/C"
_symmetry_group_IT_number 15
_symmetry_cell_setting 'monoclinic'
loop_
_space_group_symop_operation_xyz
x,y,z
-x,y,1/2-z
-x,-y,-z
x,-y,1/2+z
1/2+x,1/2+y,z
1/2-x,1/2+y,1/2-z
1/2-x,1/2-y,-z
1/2+x,1/2-y,1/2+z
loop_
_atom_site_type_symbol
_atom_site_label
_atom_site_fract_x
_atom_site_fract_y
_atom_site_fract_z
Si Si1 0.218723 0.649590 0.498551
Si Si2 0.165474 0.432103 0.355760
Si Si3 0.348813 0.240250 0.560043
Si Si4 0.149267 0.514018 0.659320
Si Si5 0.490061 0.898425 0.956268
Si Si6 0.613861 0.427467 0.895460
Si Si7 0.117344 0.012708 0.089232
O O1 0.250000 0.750000 0.500000
O O2 0.167994 0.599745 0.594750
O O3 0.122549 0.620753 0.438314
O O4 0.331648 0.600046 0.457986
O O5 0.183210 0.331018 0.361511
O O6 0.118653 0.459304 0.265143
O O7 0.073619 0.446910 0.449023
O O8 0.284456 0.475001 0.361472
O O9 0.250000 0.250000 0.500000
O O10 0.445848 0.197093 0.486739
O O11 0.380354 0.326079 0.606986
O O12 0.270833 0.469641 0.649539
O O13 0.070953 0.442648 0.621455
O O14 0.506267 0.466982 0.860098
O O15 0.604723 0.449384 0.004806
#
# Coordination Sequence:
#
# PCOD9254885 Si02
#       7
#     8   8   8   8   8   8   8
#     4  11  22  41  62  91 129 169 213 267 334 388
#     4  10  22  38  62  98 126 167 226 267 328 404
#     4  10  16  37  62  93 118 166 216 271 321 392
#     4  11  22  40  64  95 128 175 213 274 335 400
#     4  10  21  40  65  93 128 170 217 275 331 401
#     4  10  18  36  66  90 127 164 218 266 335 384
#     4  10  20  36  60  93 120 171 208 267 324 394
#
# _framework density 20.451070000000001
#
# number of rings (size 3 to 8) (size 9 to 14) (size 15 to 20)
#    0.857    0.857    5.714    1.286    0.000    1.143 
#    2.571    0.000    3.143    0.000    0.000    0.000 
#    0.000    0.000    0.000    0.000    0.000    0.000 
#
# Total GULP energy -155955.585984 kJ/mol
# GULP energy per Si atom -5569.842357 kJ/mol
# Density = 2.040452 g / cm^3
# Si number density = 20.451070 Si / 1000 Ang^3
#
#
#
# Elastic Constant Matrix: (Units=GPa)
#
#
# Indices 1 2 3 4 5 6 
#
# 1 132.8405 36.1091 20.4729 0.0000 17.8910 0.0000
# 2 36.1091 148.2114 28.2736 0.0000 7.1425 0.0000
# 3 20.4729 28.2736 85.9462 0.0000 14.0373 0.0000
# 4 0.0000 0.0000 0.0000 16.6297 0.0000 9.9971
# 5 17.8910 7.1425 14.0373 0.0000 15.6454 0.0000
# 6 0.0000 0.0000 0.0000 9.9971 0.0000 26.2878
#
#
#
# Elastic Compliance Matrix: (Units=1/GPa)
#
#
# Indices 1 2 3 4 5 6 
#
# 1 0.009346 -0.001797 -0.000027 0.000000 -0.009843 0.000000
# 2 -0.001797 0.007569 -0.002148 0.000000 0.000527 0.000000
# 3 -0.000027 -0.002148 0.014275 0.000000 -0.011796 0.000000
# 4 0.000000 0.000000 0.000000 0.077955 0.000000 -0.029646
# 5 -0.009843 0.000527 -0.011796 0.000000 0.085515 0.000000
# 6 0.000000 0.000000 0.000000 -0.029646 0.000000 0.049315
#
#
# Mechanical properties :
#
#
# Convention : Reuss Voigt Hill
#
# Bulk Modulus (GPa) = 43.02068 59.63437 51.32752
# Shear Modulus (GPa) = 19.25526 30.52206 24.88866
#
# Velocity S-wave (km/s) = 3.07176 3.86741 3.49232
# Velocity P-wave (km/s) = 5.80194 7.01180 6.43536
#
# Compressibility (1/GPa) = 0.02324464
#
# Stress axis : x y z
#
# Youngs Moduli (GPa) = 106.99478 132.11067 70.05293
#
# Poissons Ratio (x) = 0.23747 0.00192
# Poissons Ratio (y) = 0.19232 0.15048
# Poissons Ratio (z) = 0.00294 0.28378
#
# Static dielectric constant tensor:
#      x y z
#    x 1.792190 0.000000 -0.029250 
#    y 0.000000 1.838280 0.000000 
#    z -0.029250 0.000000 1.746320 
# 
# From -- ./inp_files/144223.got.cif
#   From: 2010.05.17/outbox.cif.g08.bks.cpg/sg15_73_cif.got.tgz:144223.got - 2010.06.03 18:47:42.
