data_PCOD9254296
_publ_section_title
;
Structure prediction by ZEFSAII (Michael W. Deem and Ramdas Pophale) SiO2 
 PCOD9254296
Probable space group: C 2/C
;
_chemical_formula_sum "Si O2"
_cell_formula_units_Z 64
_cell_length_a 21.394470
_cell_length_b 18.726508
_cell_length_c 21.541759
_cell_angle_alpha 90.000000
_cell_angle_beta 28.520876
_cell_angle_gamma 90.000000
_cell_volume 4120.915483
_symmetry_space_group_name_H-M "C 2/C"
_symmetry_group_IT_number 15
_symmetry_cell_setting 'monoclinic'
loop_
_space_group_symop_operation_xyz
x,y,z
-x,y,1/2-z
-x,-y,-z
x,-y,1/2+z
1/2+x,1/2+y,z
1/2-x,1/2+y,1/2-z
1/2-x,1/2-y,-z
1/2+x,1/2-y,1/2+z
loop_
_atom_site_type_symbol
_atom_site_label
_atom_site_fract_x
_atom_site_fract_y
_atom_site_fract_z
Si Si1 0.271008 0.190588 0.715207
Si Si2 0.053574 0.690310 0.530485
Si Si3 0.205373 0.459214 0.350385
Si Si4 0.656561 0.656066 0.949293
Si Si5 0.059972 0.479940 0.855949
Si Si6 0.708017 0.847634 0.774049
Si Si7 0.570054 0.096818 0.754454
Si Si8 0.561545 0.551719 0.394060
O O1 0.419697 0.201878 0.608701
O O2 0.267592 0.124951 0.671106
O O3 0.192274 0.164912 0.845003
O O4 0.217695 0.267187 0.741177
O O5 0.101201 0.766334 0.514946
O O6 0.155701 0.659347 0.390912
O O7 0.018292 0.637367 0.616920
O O8 0.135186 0.475298 0.344613
O O9 0.337343 0.504862 0.234664
O O10 0.094358 0.481501 0.495604
O O11 0.789877 0.636163 0.867729
O O12 0.550709 0.593116 0.045269
O O13 0.111852 0.399950 0.820832
O O14 0.091508 0.518045 0.764239
O O15 0.847651 0.887140 0.654078
O O16 0.500000 0.096520 0.750000
O O17 0.500000 0.500000 0.500000
#
# Coordination Sequence:
#
# PCOD9254296 Si02
#       8
#     8   8   8   8   8   8   8   8
#     4  10  16  29  45  75 100 127 151 187 244 306
#     4  10  18  33  49  70  99 131 162 198 243 292
#     4  10  17  28  50  71 101 127 152 193 250 309
#     4  10  19  31  46  68 101 126 162 204 240 284
#     4  10  17  32  47  71  94 128 164 200 238 292
#     4  10  19  27  51  72 101 129 151 192 252 306
#     4  11  22  36  51  65  91 135 181 213 234 271
#     4  11  18  26  42  72 101 126 150 187 254 297
#
# _framework density 15.530529
#
# number of rings (size 3 to 8) (size 9 to 14) (size 15 to 20)
#    0.000    1.750    6.250    2.250    0.000    0.500 
#    0.000    0.000    0.000    0.000    0.000    0.875 
#    0.000    0.000    0.000    0.000    0.000    0.000 
#
# Total GULP energy -178381.987622 kJ/mol
# GULP energy per Si atom -5574.437113 kJ/mol
# Density = 1.549518 g / cm^3
# Si number density = 15.530529 Si / 1000 Ang^3
#
#
#
# Elastic Constant Matrix: (Units=GPa)
#
#
# Indices 1 2 3 4 5 6 
#
# 1 46.9300 32.4329 15.9183 0.0022 -7.5985 0.0005
# 2 32.4329 126.0671 34.4149 0.0061 -10.2143 -0.0021
# 3 15.9183 34.4149 61.4182 0.0080 -17.5709 -0.0026
# 4 0.0022 0.0061 0.0080 29.8673 -0.0032 -4.1001
# 5 -7.5985 -10.2143 -17.5709 -0.0032 12.7532 0.0003
# 6 0.0005 -0.0021 -0.0026 -4.1001 0.0003 8.5407
#
#
#
# Elastic Compliance Matrix: (Units=1/GPa)
#
#
# Indices 1 2 3 4 5 6 
#
# 1 0.027405 -0.005998 -0.000734 0.000000 0.010512 -0.000004
# 2 -0.005998 0.010679 -0.004960 0.000000 -0.001854 0.000001
# 3 -0.000734 -0.004960 0.029694 -0.000002 0.036501 0.000006
# 4 0.000000 0.000000 -0.000002 0.035844 0.000005 0.017207
# 5 0.010512 -0.001854 0.036501 0.000005 0.133480 0.000009
# 6 -0.000004 0.000001 0.000006 0.017207 0.000009 0.125348
#
#
# Mechanical properties :
#
#
# Convention : Reuss Voigt Hill
#
# Bulk Modulus (GPa) = 22.52596 44.43860 33.48228
# Shear Modulus (GPa) = 12.48031 20.34218 16.41125
#
# Velocity S-wave (km/s) = 2.83786 3.62307 3.25423
# Velocity P-wave (km/s) = 5.02730 6.79544 5.97711
#
# Compressibility (1/GPa) = 0.04439323
#
# Stress axis : x y z
#
# Youngs Moduli (GPa) = 36.49002 93.64045 33.67722
#
# Poissons Ratio (x) = 0.56167 0.02473
# Poissons Ratio (y) = 0.21887 0.16703
# Poissons Ratio (z) = 0.02679 0.46443
#
# Static dielectric constant tensor:
#      x y z
#    x 1.471730 0.000000 -0.018380 
#    y 0.000000 1.565060 0.000000 
#    z -0.018380 0.000000 1.554680 
# 
# From -- ./inp_files/253222.got.cif
#   From: 2010.05.17/outbox.cif.g08.bks.cpg/sg15_127_cif.got.tgz:253222.got - 2010.06.03 18:47:42.
