data_PCOD9254260
_publ_section_title
;
Structure prediction by ZEFSAII (Michael W. Deem and Ramdas Pophale) SiO2 
 PCOD9254260
Probable space group: C 2/C
;
_chemical_formula_sum "Si O2"
_cell_formula_units_Z 64
_cell_length_a 13.333807
_cell_length_b 14.391952
_cell_length_c 28.528285
_cell_angle_alpha 90.000000
_cell_angle_beta 30.168844
_cell_angle_gamma 90.000000
_cell_volume 2751.241559
_symmetry_space_group_name_H-M "C 2/C"
_symmetry_group_IT_number 15
_symmetry_cell_setting 'monoclinic'
loop_
_space_group_symop_operation_xyz
x,y,z
-x,y,1/2-z
-x,-y,-z
x,-y,1/2+z
1/2+x,1/2+y,z
1/2-x,1/2+y,1/2-z
1/2-x,1/2-y,-z
1/2+x,1/2-y,1/2+z
loop_
_atom_site_type_symbol
_atom_site_label
_atom_site_fract_x
_atom_site_fract_y
_atom_site_fract_z
Si Si1 0.433549 0.137696 0.630593
Si Si2 0.484304 0.113715 0.333552
Si Si3 0.055806 0.995967 0.134851
Si Si4 0.288426 0.073941 0.169264
Si Si5 0.240263 0.929822 0.431536
Si Si6 0.095318 0.401171 0.977887
Si Si7 0.322849 0.484246 0.637427
Si Si8 0.990292 0.811771 0.308363
O O1 0.485348 0.171473 0.556357
O O2 0.223169 0.182939 0.730535
O O3 0.383937 0.029780 0.637526
O O4 0.602527 0.135028 0.603300
O O5 0.608908 0.129714 0.330426
O O6 0.320305 0.035158 0.409196
O O7 0.399166 0.211802 0.352968
O O8 0.639081 0.076180 0.231544
O O9 0.915183 0.977589 0.148054
O O10 0.131511 0.895607 0.119736
O O11 0.232230 0.066559 0.055376
O O12 0.933869 0.046416 0.225438
O O13 0.320020 0.125550 0.107303
O O14 0.009246 0.925745 0.540731
O O15 0.240200 0.937204 0.374655
O O16 0.000000 0.500000 0.000000
O O17 0.000000 0.833730 0.250000
#
# Coordination Sequence:
#
# PCOD9254260 Si02
#       8
#     8   8   8   8   8   8   8   8
#     4   9  18  32  54  81 109 143 188 235 281 346
#     4  10  21  37  57  85 116 151 192 243 291 349
#     4  10  18  32  53  84 108 143 185 234 278 341
#     4   8  17  30  52  75 103 144 188 225 271 326
#     4  10  19  37  61  88 107 149 203 246 281 340
#     4  10  16  28  52  77 108 138 184 232 273 324
#     4  10  20  35  63  83 113 148 200 248 285 328
#     4  11  21  35  55  83 118 151 187 229 305 360
#
# _framework density 23.262224
#
# number of rings (size 3 to 8) (size 9 to 14) (size 15 to 20)
#    0.000    2.250    1.250    4.500    0.000    0.000 
#    0.000    1.250    5.500    3.000    0.000    0.000 
#    0.000    0.000    0.000    0.000    0.000    0.000 
#
# Total GULP energy -178173.206256 kJ/mol
# GULP energy per Si atom -5567.912696 kJ/mol
# Density = 2.320928 g / cm^3
# Si number density = 23.262224 Si / 1000 Ang^3
#
#
#
# Elastic Constant Matrix: (Units=GPa)
#
#
# Indices 1 2 3 4 5 6 
#
# 1 132.6025 2.2960 7.3818 0.0044 13.2678 -0.0014
# 2 2.2960 26.4700 -1.4104 0.0029 6.9953 -0.0002
# 3 7.3818 -1.4104 64.9788 0.0093 2.9299 -0.0023
# 4 0.0044 0.0029 0.0093 4.8186 0.0001 -1.1979
# 5 13.2678 6.9953 2.9299 0.0001 36.8542 -0.0002
# 6 -0.0014 -0.0002 -0.0023 -1.1979 -0.0002 6.7249
#
#
#
# Elastic Compliance Matrix: (Units=1/GPa)
#
#
# Indices 1 2 3 4 5 6 
#
# 1 0.007861 0.000009 -0.000768 -0.000006 -0.002771 0.000000
# 2 0.000009 0.039869 0.001210 -0.000027 -0.007667 -0.000003
# 3 -0.000768 0.001210 0.015557 -0.000030 -0.001190 0.000000
# 4 -0.000006 -0.000027 -0.000030 0.217145 0.000009 0.038679
# 5 -0.002771 -0.007667 -0.001190 0.000009 0.029681 0.000001
# 6 0.000000 -0.000003 0.000000 0.038679 0.000001 0.155591
#
#
# Mechanical properties :
#
#
# Convention : Reuss Voigt Hill
#
# Bulk Modulus (GPa) = 15.57886 26.73181 21.15534
# Shear Modulus (GPa) = 10.28389 24.06512 17.17450
#
# Velocity S-wave (km/s) = 2.10486 3.21988 2.72012
# Velocity P-wave (km/s) = 3.55231 5.03388 4.35654
#
# Compressibility (1/GPa) = 0.06418954
#
# Stress axis : x y z
#
# Youngs Moduli (GPa) = 127.20763 25.08245 64.28058
#
# Poissons Ratio (x) = -0.00024 0.04936
# Poissons Ratio (y) = -0.00120 -0.07778
# Poissons Ratio (z) = 0.09768 -0.03035
#
# Static dielectric constant tensor:
#      x y z
#    x 1.955560 0.000000 0.052790 
#    y 0.000000 1.838400 0.000000 
#    z 0.052790 0.000000 2.169130 
# 
# From -- ./inp_files/314273.got.cif
#   From: 2010.05.17/outbox.cif.g08.bks.cpg/sg15_158_cif.got.tgz:314273.got - 2010.06.03 18:47:42.
