data_PCOD9254001
_publ_section_title
;
Structure prediction by ZEFSAII (Michael W. Deem and Ramdas Pophale) SiO2 
 PCOD9254001
Probable space group: C 2/C
;
_chemical_formula_sum "Si O2"
_cell_formula_units_Z 60
_cell_length_a 8.323188
_cell_length_b 24.031884
_cell_length_c 14.055910
_cell_angle_alpha 90.000000
_cell_angle_beta 84.698281
_cell_angle_gamma 90.000000
_cell_volume 2799.461903
_symmetry_space_group_name_H-M "C 2/C"
_symmetry_group_IT_number 15
_symmetry_cell_setting 'monoclinic'
loop_
_space_group_symop_operation_xyz
x,y,z
-x,y,1/2-z
-x,-y,-z
x,-y,1/2+z
1/2+x,1/2+y,z
1/2-x,1/2+y,1/2-z
1/2-x,1/2-y,-z
1/2+x,1/2-y,1/2+z
loop_
_atom_site_type_symbol
_atom_site_label
_atom_site_fract_x
_atom_site_fract_y
_atom_site_fract_z
Si Si1 0.472478 0.756763 0.441614
Si Si2 0.500000 0.480500 0.250000
Si Si3 0.539613 0.119811 0.636326
Si Si4 0.599774 0.568577 0.392220
Si Si5 0.757438 0.454340 0.084071
Si Si6 0.778574 0.423161 0.540817
Si Si7 0.341304 0.806584 0.615522
Si Si8 0.164816 0.184943 0.305845
O O1 0.441534 0.814743 0.387456
O O2 0.474809 0.771799 0.552448
O O3 0.324131 0.714711 0.427805
O O4 0.629120 0.728227 0.390538
O O5 0.602796 0.520815 0.313107
O O6 0.623296 0.449356 0.174033
O O7 0.500000 0.111369 0.750000
O O8 0.387202 0.093319 0.590934
O O9 0.685665 0.087956 0.573284
O O10 0.675640 0.550113 0.486338
O O11 0.410965 0.580046 0.424228
O O12 0.681084 0.623753 0.347067
O O13 0.832042 0.516780 0.077610
O O14 0.860014 0.371530 0.590790
O O15 0.307823 0.798864 0.727654
O O16 0.000000 0.184049 0.250000
#
# Coordination Sequence:
#
# PCOD9254001 Si02
#       8
#     8   4   8   8   8   8   8   8
#     4   9  18  32  54  86 116 150 198 253 286 356
#     4  10  20  40  62  84 114 158 204 246 304 362
#     4  11  24  38  56  82 122 164 191 237 313 368
#     4  11  20  36  63  89 112 152 202 257 293 345
#     4  11  25  37  57  89 122 154 199 253 298 359
#     4  10  19  38  58  82 113 151 197 249 293 352
#     4   9  16  30  58  87 111 148 207 245 287 347
#     4  10  15  31  56  87 110 146 203 247 289 348
#
# _framework density 21.432690000000001
#
# number of rings (size 3 to 8) (size 9 to 14) (size 15 to 20)
#    0.000    1.867    3.333    4.000    3.733    0.000 
#    0.000    0.667    0.000    0.000    0.000    0.000 
#    0.000    0.000    0.000    0.000    0.000    0.000 
#
# Total GULP energy -167490.926012 kJ/mol
# GULP energy per Si atom -5583.030867 kJ/mol
# Density = 2.138391 g / cm^3
# Si number density = 21.432690 Si / 1000 Ang^3
#
#
#
# Elastic Constant Matrix: (Units=GPa)
#
#
# Indices 1 2 3 4 5 6 
#
# 1 26.9190 15.1865 28.5081 0.0000 -2.2256 0.0000
# 2 15.1865 51.0618 3.6719 0.0000 -9.0754 0.0000
# 3 28.5081 3.6719 140.6815 0.0000 -36.7741 0.0000
# 4 0.0000 0.0000 0.0000 27.9961 0.0000 -5.3388
# 5 -2.2256 -9.0754 -36.7741 0.0000 28.6495 0.0000
# 6 0.0000 0.0000 0.0000 -5.3388 0.0000 -3.0143
#
#
#
# Elastic Compliance Matrix: (Units=1/GPa)
#
#
# Indices 1 2 3 4 5 6 
#
# 1 0.072164 -0.025323 -0.021963 0.000000 -0.030608 0.000000
# 2 -0.025323 0.029936 0.009503 0.000000 0.019714 0.000000
# 3 -0.021963 0.009503 0.017535 0.000000 0.023812 0.000000
# 4 0.000000 0.000000 0.000000 0.026701 0.000000 -0.047292
# 5 -0.030608 0.019714 0.023812 0.000000 0.069337 0.000000
# 6 0.000000 0.000000 0.000000 -0.047292 0.000000 -0.247992
#
#
# Mechanical properties :
#
#
# Convention : Reuss Voigt Hill
#
# Bulk Modulus (GPa) = 22.69141 34.82171 28.75656
# Shear Modulus (GPa) = 86.30032 22.14599 54.22315
#
# Velocity S-wave (km/s) = 6.35241 3.21796 5.03530
# Velocity P-wave (km/s) = 8.02586 5.48537 6.87400
#
# Compressibility (1/GPa) = 0.04406953
#
# Stress axis : x y z
#
# Youngs Moduli (GPa) = 13.85730 33.40454 57.02720
#
# Poissons Ratio (x) = 0.84591 1.25251
# Poissons Ratio (y) = 0.35091 -0.54196
# Poissons Ratio (z) = 0.30435 -0.31746
#
# Static dielectric constant tensor:
#      x y z
#    x 1.769630 0.000000 -0.037620 
#    y 0.000000 1.773590 0.000000 
#    z -0.037620 0.000000 1.822420 
# 
# From -- ./inp_files/137347.got.cif
#   From: 2010.05.17/outbox.cif.g08.bks.cpg/sg15_69_cif.got.tgz:137347.got - 2010.06.03 18:47:42.
