data_PCOD9254439
_publ_section_title
;
Structure prediction by ZEFSAII (Michael W. Deem and Ramdas Pophale) SiO2 
 PCOD9254439
Probable space group: C 2/C
;
_chemical_formula_sum "Si O2"
_cell_formula_units_Z 40
_cell_length_a 12.430239
_cell_length_b 33.393614
_cell_length_c 5.242211
_cell_angle_alpha 90.000000
_cell_angle_beta 96.780905
_cell_angle_gamma 90.000000
_cell_volume 2160.771270
_symmetry_space_group_name_H-M "C 2/C"
_symmetry_group_IT_number 15
_symmetry_cell_setting 'monoclinic'
loop_
_space_group_symop_operation_xyz
x,y,z
-x,y,1/2-z
-x,-y,-z
x,-y,1/2+z
1/2+x,1/2+y,z
1/2-x,1/2+y,1/2-z
1/2-x,1/2-y,-z
1/2+x,1/2-y,1/2+z
loop_
_atom_site_type_symbol
_atom_site_label
_atom_site_fract_x
_atom_site_fract_y
_atom_site_fract_z
Si Si1 0.156744 0.790849 0.206603
Si Si2 0.049471 0.545593 0.014557
Si Si3 0.000000 0.137245 0.750000
Si Si4 0.000000 0.084620 0.250000
Si Si5 0.301453 0.473780 0.568708
Si Si6 0.612697 0.760492 0.192835
O O1 0.285820 0.790142 0.279304
O O2 0.111445 0.761908 0.419812
O O3 0.100279 0.833316 0.220130
O O4 0.134130 0.772508 0.920992
O O5 0.178785 0.542877 0.055245
O O6 0.000000 0.565345 0.250000
O O7 0.000000 0.565026 0.750000
O O8 0.000000 0.500000 0.000000
O O9 0.977416 0.111062 0.493813
O O10 0.104279 0.057650 0.346876
O O11 0.312323 0.492163 0.289309
O O12 0.500000 0.779389 0.250000
#
# Coordination Sequence:
#
# PCOD9254439 Si02
#       6
#     8   8   4   4   8   8
#     4  10  20  31  58  80 115 149 176 238 272 330
#     4  10  16  30  54  88 103 129 160 222 306 342
#     4  12  22  43  52  76 122 160 198 214 288 358
#     4  12  28  37  56  80 112 166 192 226 284 374
#     4  12  21  38  59  82 116 134 191 255 297 322
#     4  10  17  32  54  94 109 133 190 235 291 305
#
# _framework density 18.511907999999998
#
# number of rings (size 3 to 8) (size 9 to 14) (size 15 to 20)
#    0.000    1.200    6.000    3.000    0.000    0.000 
#    0.000    0.000    0.000    3.600    0.000    0.000 
#    0.000    0.000    0.000    0.000    0.000    0.000 
#
# Total GULP energy -111594.195990 kJ/mol
# GULP energy per Si atom -5579.709799 kJ/mol
# Density = 1.846977 g / cm^3
# Si number density = 18.511908 Si / 1000 Ang^3
#
#
#
# Elastic Constant Matrix: (Units=GPa)
#
#
# Indices 1 2 3 4 5 6 
#
# 1 161.8052 43.1953 16.5384 0.0000 10.0023 0.0000
# 2 43.1953 39.8693 13.4390 0.0000 7.6987 0.0000
# 3 16.5384 13.4390 122.7196 0.0000 8.5673 0.0000
# 4 0.0000 0.0000 0.0000 13.2042 0.0000 -4.5061
# 5 10.0023 7.6987 8.5673 0.0000 30.3981 0.0000
# 6 0.0000 0.0000 0.0000 -4.5061 0.0000 -0.5658
#
#
#
# Elastic Compliance Matrix: (Units=1/GPa)
#
#
# Indices 1 2 3 4 5 6 
#
# 1 0.008704 -0.009298 -0.000122 0.000000 -0.000475 0.000000
# 2 -0.009298 0.037058 -0.002411 0.000000 -0.005647 0.000000
# 3 -0.000122 -0.002411 0.008552 0.000000 -0.001760 0.000000
# 4 0.000000 0.000000 0.000000 0.020370 0.000000 -0.162230
# 5 -0.000475 -0.005647 -0.001760 0.000000 0.034979 0.000000
# 6 0.000000 0.000000 0.000000 -0.162230 0.000000 -0.475380
#
#
# Mechanical properties :
#
#
# Convention : Reuss Voigt Hill
#
# Bulk Modulus (GPa) = 32.62243 52.30438 42.46340
# Shear Modulus (GPa) = -15.06759 25.35539 5.14390
#
# Velocity S-wave (km/s) = -2.85606 3.70493 1.66875
# Velocity P-wave (km/s) = 2.60472 6.82773 5.16732
#
# Compressibility (1/GPa) = 0.03065376
#
# Stress axis : x y z
#
# Youngs Moduli (GPa) = 114.88811 26.98461 116.93265
#
# Poissons Ratio (x) = 0.25089 0.01423
# Poissons Ratio (y) = 1.06817 0.28193
# Poissons Ratio (z) = 0.01398 0.06506
#
# Static dielectric constant tensor:
#      x y z
#    x 1.669870 0.000000 -0.000420 
#    y 0.000000 1.678970 0.000000 
#    z -0.000420 0.000000 1.558130 
# 
# From -- ./inp_files/5574.got.cif
#   From: 2010.05.17/outbox.cif.g08.bks.cpg/sg15_3_cif.got.tgz:5574.got - 2010.06.03 18:47:42.
