data_PCOD9254074
_publ_section_title
;
Structure prediction by ZEFSAII (Michael W. Deem and Ramdas Pophale) SiO2 
 PCOD9254074
Probable space group: C 2/C
;
_chemical_formula_sum "Si O2"
_cell_formula_units_Z 64
_cell_length_a 22.770798
_cell_length_b 14.587810
_cell_length_c 10.275949
_cell_angle_alpha 90.000000
_cell_angle_beta 47.237429
_cell_angle_gamma 90.000000
_cell_volume 2506.045943
_symmetry_space_group_name_H-M "C 2/C"
_symmetry_group_IT_number 15
_symmetry_cell_setting 'monoclinic'
loop_
_space_group_symop_operation_xyz
x,y,z
-x,y,1/2-z
-x,-y,-z
x,-y,1/2+z
1/2+x,1/2+y,z
1/2-x,1/2+y,1/2-z
1/2-x,1/2-y,-z
1/2+x,1/2-y,1/2+z
loop_
_atom_site_type_symbol
_atom_site_label
_atom_site_fract_x
_atom_site_fract_y
_atom_site_fract_z
Si Si1 0.819299 0.369912 0.786139
Si Si2 0.161223 0.297714 0.274868
Si Si3 0.692473 0.588122 0.295124
Si Si4 0.276046 0.343524 0.311633
Si Si5 0.545146 0.361231 0.377852
Si Si6 0.611694 0.519773 0.152605
Si Si7 0.569468 0.287189 0.724330
Si Si8 0.013731 0.660473 0.367951
O O1 0.782206 0.420585 0.716911
O O2 0.792217 0.264919 0.804102
O O3 0.914097 0.380527 0.657452
O O4 0.779387 0.384555 0.989301
O O5 0.169337 0.195418 0.322100
O O6 0.230335 0.354362 0.242289
O O7 0.147240 0.272614 0.143554
O O8 0.073596 0.337546 0.437546
O O9 0.669849 0.548927 0.187204
O O10 0.646056 0.542785 0.485972
O O11 0.366022 0.374897 0.200605
O O12 0.537464 0.459085 0.319646
O O13 0.477745 0.332581 0.581733
O O14 0.545758 0.266015 0.295254
O O15 0.592656 0.618773 0.120942
O O16 0.500000 0.236285 0.750000
O O17 0.000000 0.615184 0.250000
#
# Coordination Sequence:
#
# PCOD9254074 Si02
#       8
#     8   8   8   8   8   8   8   8
#     4   9  16  27  45  71  99 121 151 209 252 290
#     4   9  18  31  49  74 101 123 159 213 255 292
#     4  10  20  33  49  73 102 137 168 203 239 293
#     4   9  15  28  47  69  96 119 158 206 262 283
#     4  10  19  29  45  68  95 132 163 205 243 289
#     4  11  20  32  48  67  99 139 175 197 234 287
#     4  10  21  33  43  64 101 139 170 198 231 294
#     4  10  16  24  45  75  99 115 146 201 265 295
#
# _framework density 25.538239000000001
#
# number of rings (size 3 to 8) (size 9 to 14) (size 15 to 20)
#    0.000    2.250    2.500    1.875    0.000    2.500 
#    0.000    0.625    0.000    3.000    0.000    3.500 
#    0.000    0.000    0.000    0.000    0.000    0.000 
#
# Total GULP energy -178330.884856 kJ/mol
# GULP energy per Si atom -5572.840152 kJ/mol
# Density = 2.548011 g / cm^3
# Si number density = 25.538239 Si / 1000 Ang^3
#
#
#
# Elastic Constant Matrix: (Units=GPa)
#
#
# Indices 1 2 3 4 5 6 
#
# 1 221.7082 7.0029 28.9867 0.0000 -26.5710 0.0000
# 2 7.0029 23.3956 -2.6166 0.0000 1.6457 0.0000
# 3 28.9867 -2.6166 53.6317 0.0000 -7.8097 0.0000
# 4 0.0000 0.0000 0.0000 8.9073 0.0000 -1.1777
# 5 -26.5710 1.6457 -7.8097 0.0000 44.1102 0.0000
# 6 0.0000 0.0000 0.0000 -1.1777 0.0000 10.9406
#
#
#
# Elastic Compliance Matrix: (Units=1/GPa)
#
#
# Indices 1 2 3 4 5 6 
#
# 1 0.005239 -0.002047 -0.002526 0.000000 0.002785 0.000000
# 2 -0.002047 0.043846 0.002902 0.000000 -0.002355 0.000000
# 3 -0.002526 0.002902 0.020442 0.000000 0.001989 0.000000
# 4 0.000000 0.000000 0.000000 0.113888 0.000000 0.012260
# 5 0.002785 -0.002355 0.001989 0.000000 0.024788 0.000000
# 6 0.000000 0.000000 0.000000 0.012260 0.000000 0.092723
#
#
# Mechanical properties :
#
#
# Convention : Reuss Voigt Hill
#
# Bulk Modulus (GPa) = 15.10870 40.60904 27.85887
# Shear Modulus (GPa) = 15.32198 30.48246 22.90222
#
# Velocity S-wave (km/s) = 2.45207 3.45860 2.99788
# Velocity P-wave (km/s) = 3.73441 5.64668 4.78700
#
# Compressibility (1/GPa) = 0.06618705
#
# Stress axis : x y z
#
# Youngs Moduli (GPa) = 190.87239 22.80717 48.91843
#
# Poissons Ratio (x) = 0.04668 0.12356
# Poissons Ratio (y) = 0.39064 -0.14198
# Poissons Ratio (z) = 0.48213 -0.06620
#
# Static dielectric constant tensor:
#      x y z
#    x 2.139120 0.000000 0.086040 
#    y 0.000000 2.116200 0.000000 
#    z 0.086040 0.000000 2.156330 
# 
# From -- ./inp_files/113485.got.cif
#   From: 2010.05.17/outbox.cif.g08.bks.cpg/sg15_57_cif.got.tgz:113485.got - 2010.06.03 18:47:42.
