data_PCOD9254024
_publ_section_title
;
Structure prediction by ZEFSAII (Michael W. Deem and Ramdas Pophale) SiO2 
 PCOD9254024
Probable space group: C 2/C
;
_chemical_formula_sum "Si O2"
_cell_formula_units_Z 64
_cell_length_a 24.601687
_cell_length_b 9.870043
_cell_length_c 14.287338
_cell_angle_alpha 90.000000
_cell_angle_beta 88.085001
_cell_angle_gamma 90.000000
_cell_volume 3467.309683
_symmetry_space_group_name_H-M "C 2/C"
_symmetry_group_IT_number 15
_symmetry_cell_setting 'monoclinic'
loop_
_space_group_symop_operation_xyz
x,y,z
-x,y,1/2-z
-x,-y,-z
x,-y,1/2+z
1/2+x,1/2+y,z
1/2-x,1/2+y,1/2-z
1/2-x,1/2-y,-z
1/2+x,1/2-y,1/2+z
loop_
_atom_site_type_symbol
_atom_site_label
_atom_site_fract_x
_atom_site_fract_y
_atom_site_fract_z
Si Si1 0.382734 0.407847 0.548213
Si Si2 0.986049 0.126718 0.154635
Si Si3 0.390599 0.621071 0.393864
Si Si4 0.943037 0.576481 0.720903
Si Si5 0.361590 0.091439 0.568128
Si Si6 0.815120 0.940466 0.730108
Si Si7 0.352772 0.094235 0.888938
Si Si8 0.227848 0.646217 0.769712
O O1 0.441964 0.437764 0.589478
O O2 0.377223 0.489192 0.453737
O O3 0.376825 0.245998 0.540550
O O4 0.337675 0.456170 0.624793
O O5 0.959559 0.269918 0.189151
O O6 0.000000 0.048333 0.250000
O O7 0.044990 0.147458 0.106272
O O8 0.366814 0.599832 0.291060
O O9 0.360353 0.755505 0.430538
O O10 0.909277 0.528575 0.631847
O O11 0.902939 0.576415 0.812479
O O12 0.000000 0.510767 0.750000
O O13 0.309578 0.102888 0.640033
O O14 0.352244 0.009524 0.473997
O O15 0.775349 0.809361 0.734703
O O16 0.785384 0.072743 0.770103
O O17 0.300709 0.093352 0.824120
#
# Coordination Sequence:
#
# PCOD9254024 Si02
#       8
#     8   8   8   8   8   8   8   8
#     4  10  21  35  55  85 111 141 181 222 275 326
#     4  10  15  34  59  77 108 146 179 215 262 325
#     4  11  20  34  59  84 106 144 185 220 268 326
#     4   9  16  32  57  78 106 148 182 207 263 325
#     4   9  20  36  54  81 114 142 178 224 276 320
#     4  10  21  39  57  79 106 146 186 223 271 329
#     4  10  19  35  57  82 107 145 183 223 264 323
#     4   9  21  38  58  76 107 148 183 226 274 319
#
# _framework density 18.458114999999999
#
# number of rings (size 3 to 8) (size 9 to 14) (size 15 to 20)
#    0.000    2.250    3.750    1.875    0.000    3.500 
#    0.000    6.250    0.000    0.000    0.000    0.000 
#    0.000    0.000    0.000    0.000    0.000    0.000 
#
# Total GULP energy -178248.380517 kJ/mol
# GULP energy per Si atom -5570.261891 kJ/mol
# Density = 1.841610 g / cm^3
# Si number density = 18.458115 Si / 1000 Ang^3
#
#
#
# Elastic Constant Matrix: (Units=GPa)
#
#
# Indices 1 2 3 4 5 6 
#
# 1 47.0893 16.7481 -5.0358 0.0000 -0.2247 0.0000
# 2 16.7481 40.1086 34.7442 0.0000 -4.8932 0.0000
# 3 -5.0358 34.7442 74.2744 0.0000 -2.6399 0.0000
# 4 0.0000 0.0000 0.0000 30.9938 0.0000 3.5318
# 5 -0.2247 -4.8932 -2.6399 0.0000 9.3848 0.0000
# 6 0.0000 0.0000 0.0000 3.5318 0.0000 19.8146
#
#
#
# Elastic Compliance Matrix: (Units=1/GPa)
#
#
# Indices 1 2 3 4 5 6 
#
# 1 0.032553 -0.027513 0.014742 0.000000 -0.009419 0.000000
# 2 -0.027513 0.067865 -0.032704 0.000000 0.025526 0.000000
# 3 0.014742 -0.032704 0.029463 0.000000 -0.008411 0.000000
# 4 0.000000 0.000000 0.000000 0.032933 0.000000 -0.005870
# 5 -0.009419 0.025526 -0.008411 0.000000 0.117273 0.000000
# 6 0.000000 0.000000 0.000000 -0.005870 0.000000 0.051514
#
#
# Mechanical properties :
#
#
# Convention : Reuss Voigt Hill
#
# Bulk Modulus (GPa) = 25.68610 28.26503 26.97556
# Shear Modulus (GPa) = 11.48030 19.70635 15.59332
#
# Velocity S-wave (km/s) = 2.49663 3.27100 2.90969
# Velocity P-wave (km/s) = 4.71773 5.44171 5.09260
#
# Compressibility (1/GPa) = 0.03893157
#
# Stress axis : x y z
#
# Youngs Moduli (GPa) = 30.71880 14.73511 33.94138
#
# Poissons Ratio (x) = 0.40541 -0.50038
# Poissons Ratio (y) = 0.84517 1.11002
# Poissons Ratio (z) = -0.45287 0.48190
#
# Static dielectric constant tensor:
#      x y z
#    x 1.677590 0.000000 0.015790 
#    y 0.000000 1.621940 0.000000 
#    z 0.015790 0.000000 1.637820 
# 
# From -- ./inp_files/172401.got.cif
#   From: 2010.05.17/outbox.cif.g08.bks.cpg/sg15_87_cif.got.tgz:172401.got - 2010.06.03 18:47:42.
