data_PCOD9254431
_publ_section_title
;
Structure prediction by ZEFSAII (Michael W. Deem and Ramdas Pophale) SiO2 
 PCOD9254431
Probable space group: C 2/C
;
_chemical_formula_sum "Si O2"
_cell_formula_units_Z 60
_cell_length_a 14.495894
_cell_length_b 7.547460
_cell_length_c 23.031115
_cell_angle_alpha 90.000000
_cell_angle_beta 86.938476
_cell_angle_gamma 90.000000
_cell_volume 2516.173034
_symmetry_space_group_name_H-M "C 2/C"
_symmetry_group_IT_number 15
_symmetry_cell_setting 'monoclinic'
loop_
_space_group_symop_operation_xyz
x,y,z
-x,y,1/2-z
-x,-y,-z
x,-y,1/2+z
1/2+x,1/2+y,z
1/2-x,1/2+y,1/2-z
1/2-x,1/2-y,-z
1/2+x,1/2-y,1/2+z
loop_
_atom_site_type_symbol
_atom_site_label
_atom_site_fract_x
_atom_site_fract_y
_atom_site_fract_z
Si Si1 0.404760 0.043313 0.147870
Si Si2 0.260338 0.488100 0.557238
Si Si3 0.694875 0.867901 0.244088
Si Si4 0.235520 0.064912 0.572320
Si Si5 0.122233 0.945394 0.339057
Si Si6 0.900424 0.595948 0.859246
Si Si7 0.352652 0.700128 0.822266
Si Si8 0.000000 0.978869 0.750000
O O1 0.424874 0.252824 0.150810
O O2 0.492437 0.921180 0.129180
O O3 0.365327 0.998401 0.213575
O O4 0.325583 0.008603 0.102515
O O5 0.239116 0.277687 0.561813
O O6 0.277614 0.525439 0.489166
O O7 0.346560 0.504897 0.597408
O O8 0.175113 0.604659 0.586628
O O9 0.780973 0.916520 0.198884
O O10 0.753159 0.778258 0.294060
O O11 0.624694 0.788895 0.197856
O O12 0.156214 0.064751 0.623462
O O13 0.057412 0.082348 0.305578
O O14 0.882474 0.395600 0.837069
O O15 0.421625 0.608127 0.777129
#
# Coordination Sequence:
#
# PCOD9254431 Si02
#       8
#     8   8   8   8   8   8   8   4
#     4  11  20  32  59  86 109 140 194 238 270 330
#     4   9  20  40  59  75 112 155 187 225 286 338
#     4   9  18  28  47  79 111 139 168 225 276 326
#     4   9  20  38  59  77 112 153 188 225 286 338
#     4  10  20  33  58  85 109 145 190 232 272 332
#     4  10  18  31  55  79 107 145 190 224 272 331
#     4   9  17  30  51  78 104 143 182 222 266 333
#     4  10  16  30  54  80 112 132 180 228 272 320
#
# _framework density 23.845737
#
# number of rings (size 3 to 8) (size 9 to 14) (size 15 to 20)
#    0.000    2.400    1.333    2.000    0.000    2.133 
#    0.000    0.667   32.267    0.000    0.000    0.000 
#    0.000    0.000    0.000    0.000    0.000    0.000 
#
# Total GULP energy -167208.094225 kJ/mol
# GULP energy per Si atom -5573.603141 kJ/mol
# Density = 2.379146 g / cm^3
# Si number density = 23.845737 Si / 1000 Ang^3
#
#
#
# Elastic Constant Matrix: (Units=GPa)
#
#
# Indices 1 2 3 4 5 6 
#
# 1 80.9926 -0.8815 39.1834 0.0000 18.1000 0.0000
# 2 -0.8815 47.8372 17.5515 0.0000 -10.0838 0.0000
# 3 39.1834 17.5515 176.8169 0.0000 9.6194 0.0000
# 4 0.0000 0.0000 0.0000 29.3534 0.0000 6.2303
# 5 18.1000 -10.0838 9.6194 0.0000 28.3398 0.0000
# 6 0.0000 0.0000 0.0000 6.2303 0.0000 22.2077
#
#
#
# Elastic Compliance Matrix: (Units=1/GPa)
#
#
# Indices 1 2 3 4 5 6 
#
# 1 0.015852 -0.000595 -0.002946 0.000000 -0.009336 0.000000
# 2 -0.000595 0.023995 -0.002787 0.000000 0.009864 0.000000
# 3 -0.002946 -0.002787 0.006660 0.000000 -0.001370 0.000000
# 4 0.000000 0.000000 0.000000 0.036225 0.000000 -0.010163
# 5 -0.009336 0.009864 -0.001370 0.000000 0.045224 0.000000
# 6 0.000000 0.000000 0.000000 -0.010163 0.000000 0.047880
#
#
# Mechanical properties :
#
#
# Convention : Reuss Voigt Hill
#
# Bulk Modulus (GPa) = 29.54092 46.37262 37.95677
# Shear Modulus (GPa) = 25.02829 32.63307 28.83068
#
# Velocity S-wave (km/s) = 3.24326 3.70335 3.48091
# Velocity P-wave (km/s) = 5.14200 6.14618 5.66638
#
# Compressibility (1/GPa) = 0.03385135
#
# Stress axis : x y z
#
# Youngs Moduli (GPa) = 63.08375 41.67561 150.16018
#
# Poissons Ratio (x) = 0.02480 0.44235
# Poissons Ratio (y) = 0.03754 0.41843
# Poissons Ratio (z) = 0.18584 0.11613
#
# Static dielectric constant tensor:
#      x y z
#    x 1.965530 0.000000 0.037820 
#    y 0.000000 2.060700 0.000000 
#    z 0.037820 0.000000 1.988390 
# 
# From -- ./inp_files/243396.got.cif
#   From: 2010.05.17/outbox.cif.g08.bks.cpg/sg15_122_cif.got.tgz:243396.got - 2010.06.03 18:47:42.
