data_PCOD9254286
_publ_section_title
;
Structure prediction by ZEFSAII (Michael W. Deem and Ramdas Pophale) SiO2 
 PCOD9254286
Probable space group: C 2/C
;
_chemical_formula_sum "Si O2"
_cell_formula_units_Z 44
_cell_length_a 12.771510
_cell_length_b 13.124318
_cell_length_c 13.457010
_cell_angle_alpha 90.000000
_cell_angle_beta 71.319139
_cell_angle_gamma 90.000000
_cell_volume 2136.795922
_symmetry_space_group_name_H-M "C 2/C"
_symmetry_group_IT_number 15
_symmetry_cell_setting 'monoclinic'
loop_
_space_group_symop_operation_xyz
x,y,z
-x,y,1/2-z
-x,-y,-z
x,-y,1/2+z
1/2+x,1/2+y,z
1/2-x,1/2+y,1/2-z
1/2-x,1/2-y,-z
1/2+x,1/2-y,1/2+z
loop_
_atom_site_type_symbol
_atom_site_label
_atom_site_fract_x
_atom_site_fract_y
_atom_site_fract_z
Si Si1 0.665082 0.664664 0.484883
Si Si2 0.625500 0.521963 0.685366
Si Si3 0.500000 0.909678 0.750000
Si Si4 0.680480 0.057480 0.477601
Si Si5 0.729458 0.988566 0.176684
Si Si6 0.957348 0.652190 0.476449
O O1 0.750000 0.750000 0.500000
O O2 0.624933 0.599252 0.591857
O O3 0.712265 0.589872 0.386870
O O4 0.573072 0.739410 0.469958
O O5 0.500000 0.495299 0.750000
O O6 0.709649 0.434471 0.621197
O O7 0.692265 0.558758 0.763271
O O8 0.394030 0.978401 0.751474
O O9 0.534304 0.843299 0.645635
O O10 0.576625 0.122119 0.478404
O O11 0.710551 0.075998 0.582866
O O12 0.630781 0.940544 0.480806
#
# Coordination Sequence:
#
# PCOD9254286 Si02
#       6
#     8   8   4   8   8   8
#     4  11  21  36  60  93 127 156 210 265 305 362
#     4  11  23  38  61  89 125 172 205 243 319 388
#     4  10  16  28  64  86 114 150 204 252 296 360
#     4   9  19  35  60  88 123 163 199 255 312 363
#     4  10  21  36  59  91 125 163 204 257 312 371
#     4  10  18  34  57  91 125 151 205 260 307 359
#
# _framework density 20.591578999999999
#
# number of rings (size 3 to 8) (size 9 to 14) (size 15 to 20)
#    0.000    1.818    7.273    0.000    1.273    2.909 
#    0.000    0.000    4.000    2.182    0.000    0.000 
#    0.000    0.000    0.000    0.000    0.000    0.000 
#
# Total GULP energy -122585.332079 kJ/mol
# GULP energy per Si atom -5572.060549 kJ/mol
# Density = 2.054471 g / cm^3
# Si number density = 20.591579 Si / 1000 Ang^3
#
#
#
# Elastic Constant Matrix: (Units=GPa)
#
#
# Indices 1 2 3 4 5 6 
#
# 1 127.7629 17.3193 34.6326 0.0000 -19.8097 0.0000
# 2 17.3193 39.7215 0.0762 0.0000 -8.7318 0.0000
# 3 34.6326 0.0762 73.0501 0.0000 -13.0698 0.0000
# 4 0.0000 0.0000 0.0000 6.7790 0.0000 1.0681
# 5 -19.8097 -8.7318 -13.0698 0.0000 40.8213 0.0000
# 6 0.0000 0.0000 0.0000 1.0681 0.0000 25.1523
#
#
#
# Elastic Compliance Matrix: (Units=1/GPa)
#
#
# Indices 1 2 3 4 5 6 
#
# 1 0.009883 -0.003718 -0.004207 0.000000 0.002654 0.000000
# 2 -0.003718 0.027891 0.002629 0.000000 0.005004 0.000000
# 3 -0.004207 0.002629 0.016353 0.000000 0.003757 0.000000
# 4 0.000000 0.000000 0.000000 0.148507 0.000000 -0.006307
# 5 0.002654 0.005004 0.003757 0.000000 0.028058 0.000000
# 6 0.000000 0.000000 0.000000 -0.006307 0.000000 0.040026
#
#
# Mechanical properties :
#
#
# Convention : Reuss Voigt Hill
#
# Bulk Modulus (GPa) = 22.96977 38.28786 30.62881
# Shear Modulus (GPa) = 16.90212 27.11761 22.00986
#
# Velocity S-wave (km/s) = 2.86812 3.63289 3.27292
# Velocity P-wave (km/s) = 4.70609 6.01926 5.40272
#
# Compressibility (1/GPa) = 0.04353549
#
# Stress axis : x y z
#
# Youngs Moduli (GPa) = 101.18664 35.85373 61.15097
#
# Poissons Ratio (x) = 0.13329 0.25724
# Poissons Ratio (y) = 0.37617 -0.16074
# Poissons Ratio (z) = 0.42566 -0.09425
#
# Static dielectric constant tensor:
#      x y z
#    x 1.838190 0.000000 -0.015790 
#    y 0.000000 1.771610 0.000000 
#    z -0.015790 0.000000 1.780290 
# 
# From -- ./inp_files/142924.got.cif
#   From: 2010.05.17/outbox.cif.g08.bks.cpg/sg15_72_cif.got.tgz:142924.got - 2010.06.03 18:47:42.
