data_PCOD9254672
_publ_section_title
;
Structure prediction by ZEFSAII (Michael W. Deem and Ramdas Pophale) SiO2 
 PCOD9254672
Probable space group: C 2/C
;
_chemical_formula_sum "Si O2"
_cell_formula_units_Z 36
_cell_length_a 7.536815
_cell_length_b 21.761443
_cell_length_c 13.571270
_cell_angle_alpha 90.000000
_cell_angle_beta 42.111389
_cell_angle_gamma 90.000000
_cell_volume 1492.597832
_symmetry_space_group_name_H-M "C 2/C"
_symmetry_group_IT_number 15
_symmetry_cell_setting 'monoclinic'
loop_
_space_group_symop_operation_xyz
x,y,z
-x,y,1/2-z
-x,-y,-z
x,-y,1/2+z
1/2+x,1/2+y,z
1/2-x,1/2+y,1/2-z
1/2-x,1/2-y,-z
1/2+x,1/2-y,1/2+z
loop_
_atom_site_type_symbol
_atom_site_label
_atom_site_fract_x
_atom_site_fract_y
_atom_site_fract_z
Si Si1 0.166174 0.179015 0.339598
Si Si2 0.904410 0.629664 0.449249
Si Si3 0.220662 0.902381 0.415531
Si Si4 0.500000 0.706419 0.750000
Si Si5 0.865061 0.983791 0.409959
O O1 0.289759 0.146031 0.387539
O O2 0.292403 0.149521 0.190000
O O3 0.288992 0.247167 0.286095
O O4 0.870455 0.160669 0.491264
O O5 0.698007 0.666158 0.602907
O O6 0.893327 0.559148 0.483740
O O7 0.500000 0.891539 0.250000
O O8 0.056467 0.938886 0.396884
O O9 0.197771 0.953638 0.509381
O O10 0.000000 0.991686 0.250000
#
# Coordination Sequence:
#
# PCOD9254672 Si02
#       5
#     8   8   8   4   8
#     4   9  18  32  52  80 119 148 186 240 296 342
#     4   9  17  31  57  90 108 143 199 254 288 320
#     4  10  23  38  56  82 128 165 188 234 307 364
#     4  10  16  32  62  90 110 140 204 264 280 326
#     4  10  21  37  59  87 116 154 203 250 285 349
#
# _framework density 24.119022000000001
#
# number of rings (size 3 to 8) (size 9 to 14) (size 15 to 20)
#    0.000    2.667    1.111    2.667    9.333    0.889 
#    0.000    0.000    0.000   12.000    0.000    1.556 
#    0.000    2.222    0.000    0.000    0.000    0.000 
#
# Total GULP energy -100214.189215 kJ/mol
# GULP energy per Si atom -5567.454956 kJ/mol
# Density = 2.406413 g / cm^3
# Si number density = 24.119022 Si / 1000 Ang^3
#
#
#
# Elastic Constant Matrix: (Units=GPa)
#
#
# Indices 1 2 3 4 5 6 
#
# 1 39.0112 2.6203 24.9223 0.0000 11.2166 0.0000
# 2 2.6203 60.9191 25.5786 0.0000 8.5348 0.0000
# 3 24.9223 25.5786 197.3721 0.0000 13.5986 0.0000
# 4 0.0000 0.0000 0.0000 1.6817 0.0000 10.8121
# 5 11.2166 8.5348 13.5986 0.0000 32.9220 0.0000
# 6 0.0000 0.0000 0.0000 10.8121 0.0000 -2.1992
#
#
#
# Elastic Compliance Matrix: (Units=1/GPa)
#
#
# Indices 1 2 3 4 5 6 
#
# 1 0.030376 0.001417 -0.003377 0.000000 -0.009322 0.000000
# 2 0.001417 0.017869 -0.002205 0.000000 -0.004205 0.000000
# 3 -0.003377 -0.002205 0.005826 0.000000 -0.000684 0.000000
# 4 0.000000 0.000000 0.000000 0.018236 0.000000 0.089653
# 5 -0.009322 -0.004205 -0.000684 0.000000 0.034923 0.000000
# 6 0.000000 0.000000 0.000000 0.089653 0.000000 -0.013945
#
#
# Mechanical properties :
#
#
# Convention : Reuss Voigt Hill
#
# Bulk Modulus (GPa) = 21.86189 44.83832 33.35010
# Shear Modulus (GPa) = 42.78550 22.75964 32.77257
#
# Velocity S-wave (km/s) = 4.21638 3.07520 3.69017
# Velocity P-wave (km/s) = 5.72605 5.58927 5.65807
#
# Compressibility (1/GPa) = 0.04574171
#
# Stress axis : x y z
#
# Youngs Moduli (GPa) = 32.92060 55.96226 171.64724
#
# Poissons Ratio (x) = -0.07932 0.57966
# Poissons Ratio (y) = -0.04666 0.37849
# Poissons Ratio (z) = 0.11117 0.12340
#
# Static dielectric constant tensor:
#      x y z
#    x 2.206820 0.000000 -0.159250 
#    y 0.000000 1.946800 0.000000 
#    z -0.159250 0.000000 1.946330 
# 
# From -- ./inp_files/200082.got.cif
#   From: 2010.05.17/outbox.cif.g08.bks.cpg/sg15_101_cif.got.tgz:200082.got - 2010.06.03 18:47:42.
