data_PCOD9254994
_publ_section_title
;
Structure prediction by ZEFSAII (Michael W. Deem and Ramdas Pophale) SiO2 
 PCOD9254994
Probable space group: C 2/C
;
_chemical_formula_sum "Si O2"
_cell_formula_units_Z 64
_cell_length_a 12.574189
_cell_length_b 21.000329
_cell_length_c 13.087830
_cell_angle_alpha 90.000000
_cell_angle_beta 109.093526
_cell_angle_gamma 90.000000
_cell_volume 3265.871153
_symmetry_space_group_name_H-M "C 2/C"
_symmetry_group_IT_number 15
_symmetry_cell_setting 'monoclinic'
loop_
_space_group_symop_operation_xyz
x,y,z
-x,y,1/2-z
-x,-y,-z
x,-y,1/2+z
1/2+x,1/2+y,z
1/2-x,1/2+y,1/2-z
1/2-x,1/2-y,-z
1/2+x,1/2-y,1/2+z
loop_
_atom_site_type_symbol
_atom_site_label
_atom_site_fract_x
_atom_site_fract_y
_atom_site_fract_z
Si Si1 0.349074 0.918211 0.349739
Si Si2 0.625142 0.704793 0.309277
Si Si3 0.657241 0.594246 0.163394
Si Si4 0.775575 0.335644 0.151338
Si Si5 0.582180 0.394625 0.980555
Si Si6 0.596935 0.078263 0.971779
Si Si7 0.297485 0.520634 0.129151
Si Si8 0.617763 0.971444 0.813470
O O1 0.320993 0.855905 0.276341
O O2 0.465384 0.910422 0.447482
O O3 0.245745 0.948841 0.378189
O O4 0.368140 0.972408 0.267434
O O5 0.500000 0.732996 0.250000
O O6 0.659494 0.661186 0.224218
O O7 0.713371 0.760418 0.357153
O O8 0.608031 0.657265 0.399238
O O9 0.550567 0.596599 0.055330
O O10 0.636620 0.542448 0.248570
O O11 0.774612 0.573282 0.152425
O O12 0.853187 0.368160 0.087889
O O13 0.654042 0.368331 0.097076
O O14 0.636707 0.458965 0.951668
O O15 0.606001 0.011846 0.912917
O O16 0.684056 0.065893 0.090508
O O17 0.500000 0.938378 0.750000
#
# Coordination Sequence:
#
# PCOD9254994 Si02
#       8
#     8   8   8   8   8   8   8   8
#     4   9  16  26  41  63  91 113 139 180 216 250
#     4   9  16  27  44  64  88 115 141 174 215 254
#     4   9  17  30  44  63  88 113 142 177 210 253
#     4  10  17  27  42  65  91 117 143 173 216 260
#     4   9  18  29  42  62  91 118 142 173 209 256
#     4   9  16  26  42  65  89 111 139 181 220 249
#     4   9  16  27  41  60  87 117 142 169 211 254
#     4   8  15  28  45  64  84 108 141 179 217 252
#
# _framework density 19.596609999999998
#
# number of rings (size 3 to 8) (size 9 to 14) (size 15 to 20)
#    0.000    3.000    0.000    3.750    0.000    0.000 
#    0.000   11.250    0.000    0.000    0.000    8.750 
#    0.000    0.000    0.000    0.000    0.000    0.000 
#
# Total GULP energy -178384.770464 kJ/mol
# GULP energy per Si atom -5574.524077 kJ/mol
# Density = 1.955201 g / cm^3
# Si number density = 19.596610 Si / 1000 Ang^3
#
#
#
# Elastic Constant Matrix: (Units=GPa)
#
#
# Indices 1 2 3 4 5 6 
#
# 1 87.2499 31.8055 16.4626 0.0000 32.0580 0.0000
# 2 31.8055 52.6338 -0.5315 0.0000 5.0291 0.0000
# 3 16.4626 -0.5315 36.2679 0.0000 18.0939 0.0000
# 4 0.0000 0.0000 0.0000 16.3905 0.0000 2.9918
# 5 32.0580 5.0291 18.0939 0.0000 27.2455 0.0000
# 6 0.0000 0.0000 0.0000 2.9918 0.0000 19.2077
#
#
#
# Elastic Compliance Matrix: (Units=1/GPa)
#
#
# Indices 1 2 3 4 5 6 
#
# 1 0.027610 -0.013575 0.003329 0.000000 -0.032192 0.000000
# 2 -0.013575 0.026248 0.001488 0.000000 0.010139 0.000000
# 3 0.003329 0.001488 0.042134 0.000000 -0.032173 0.000000
# 4 0.000000 0.000000 0.000000 0.062797 0.000000 -0.009781
# 5 -0.032192 0.010139 -0.032173 0.000000 0.094076 0.000000
# 6 0.000000 0.000000 0.000000 -0.009781 0.000000 0.053586
#
#
# Mechanical properties :
#
#
# Convention : Reuss Voigt Hill
#
# Bulk Modulus (GPa) = 12.74257 30.18053 21.46155
# Shear Modulus (GPa) = 14.28060 21.12973 17.70516
#
# Velocity S-wave (km/s) = 2.70242 3.28721 3.00906
# Velocity P-wave (km/s) = 4.03163 5.46278 4.80083
#
# Compressibility (1/GPa) = 0.07847713
#
# Stress axis : x y z
#
# Youngs Moduli (GPa) = 36.21914 38.09778 23.73356
#
# Poissons Ratio (x) = 0.51716 -0.07901
# Poissons Ratio (y) = 0.49166 -0.03532
# Poissons Ratio (z) = -0.12057 -0.05669
#
# Static dielectric constant tensor:
#      x y z
#    x 1.741140 0.000000 0.024830 
#    y 0.000000 1.671370 0.000000 
#    z 0.024830 0.000000 1.760750 
# 
# From -- ./inp_files/147870.got.cif
#   From: 2010.05.17/outbox.cif.g08.bks.cpg/sg15_74_cif.got.tgz:147870.got - 2010.06.03 18:47:42.
