data_PCOD9254477
_publ_section_title
;
Structure prediction by ZEFSAII (Michael W. Deem and Ramdas Pophale) SiO2 
 PCOD9254477
Probable space group: C 2/C
;
_chemical_formula_sum "Si O2"
_cell_formula_units_Z 52
_cell_length_a 10.457065
_cell_length_b 13.820624
_cell_length_c 15.907114
_cell_angle_alpha 90.000000
_cell_angle_beta 120.641485
_cell_angle_gamma 90.000000
_cell_volume 1977.951972
_symmetry_space_group_name_H-M "C 2/C"
_symmetry_group_IT_number 15
_symmetry_cell_setting 'monoclinic'
loop_
_space_group_symop_operation_xyz
x,y,z
-x,y,1/2-z
-x,-y,-z
x,-y,1/2+z
1/2+x,1/2+y,z
1/2-x,1/2+y,1/2-z
1/2-x,1/2-y,-z
1/2+x,1/2-y,1/2+z
loop_
_atom_site_type_symbol
_atom_site_label
_atom_site_fract_x
_atom_site_fract_y
_atom_site_fract_z
Si Si1 0.207937 0.158899 0.854236
Si Si2 0.880973 0.634180 0.134158
Si Si3 0.360944 0.456510 0.846489
Si Si4 0.033776 0.152309 0.623369
Si Si5 0.705492 0.792925 0.574251
Si Si6 0.500000 0.333076 0.750000
Si Si7 0.114401 0.487332 0.618960
O O1 0.152380 0.251535 0.892530
O O2 0.141423 0.178122 0.740111
O O3 0.098273 0.092615 0.871662
O O4 0.360269 0.100183 0.897255
O O5 0.717579 0.605462 0.108422
O O6 0.000000 0.635898 0.250000
O O7 0.957415 0.556454 0.098329
O O8 0.398847 0.558388 0.899904
O O9 0.471760 0.394681 0.825620
O O10 0.228733 0.477825 0.734790
O O11 0.064458 0.238192 0.567790
O O12 0.750000 0.750000 0.500000
O O13 0.849513 0.775091 0.682073
O O14 0.671666 0.907414 0.571426
#
# Coordination Sequence:
#
# PCOD9254477 Si02
#       7
#     8   8   8   8   8   4   8
#     4  10  16  30  60  84 120 159 221 270 322 401
#     4  10  16  31  52  85 123 164 212 265 338 399
#     4   9  18  31  55  87 125 157 213 275 317 395
#     4  10  17  32  55  91 119 162 215 263 336 399
#     4  11  22  39  62  92 135 172 216 284 340 406
#     4  10  20  40  58  94 126 168 230 278 336 404
#     4   9  18  32  54  89 118 162 217 270 324 396
#
# _framework density 26.289819999999999
#
# number of rings (size 3 to 8) (size 9 to 14) (size 15 to 20)
#    0.000    2.154    3.077    4.615    0.000    0.000 
#    9.692    3.077    0.000    1.846    0.000    0.000 
#    0.000    0.000    0.000    0.000    0.000    0.000 
#
# Total GULP energy -144747.897403 kJ/mol
# GULP energy per Si atom -5567.226823 kJ/mol
# Density = 2.622998 g / cm^3
# Si number density = 26.289820 Si / 1000 Ang^3
#
#
#
# Elastic Constant Matrix: (Units=GPa)
#
#
# Indices 1 2 3 4 5 6 
#
# 1 125.3932 40.2501 7.8004 0.0000 -38.1322 0.0000
# 2 40.2501 44.8585 9.0941 0.0000 -20.7722 0.0000
# 3 7.8004 9.0941 71.4246 0.0000 1.1130 0.0000
# 4 0.0000 0.0000 0.0000 11.6634 0.0000 -7.5745
# 5 -38.1322 -20.7722 1.1130 0.0000 36.5893 0.0000
# 6 0.0000 0.0000 0.0000 -7.5745 0.0000 22.9816
#
#
#
# Elastic Compliance Matrix: (Units=1/GPa)
#
#
# Indices 1 2 3 4 5 6 
#
# 1 0.013331 -0.007300 -0.000679 0.000000 0.009770 0.000000
# 2 -0.007300 0.035503 -0.003920 0.000000 0.012666 0.000000
# 3 -0.000679 -0.003920 0.014627 0.000000 -0.003378 0.000000
# 4 0.000000 0.000000 0.000000 0.109088 0.000000 0.035954
# 5 0.009770 0.012666 -0.003378 0.000000 0.044806 0.000000
# 6 0.000000 0.000000 0.000000 0.035954 0.000000 0.055363
#
#
# Mechanical properties :
#
#
# Convention : Reuss Voigt Hill
#
# Bulk Modulus (GPa) = 25.21304 39.55172 32.38238
# Shear Modulus (GPa) = 16.14269 26.54896 21.34583
#
# Velocity S-wave (km/s) = 2.48065 3.18127 2.85255
# Velocity P-wave (km/s) = 4.22091 5.34520 4.81597
#
# Compressibility (1/GPa) = 0.03966202
#
# Stress axis : x y z
#
# Youngs Moduli (GPa) = 75.01043 28.16678 68.36801
#
# Poissons Ratio (x) = 0.20563 0.04640
# Poissons Ratio (y) = 0.54760 0.26804
# Poissons Ratio (z) = 0.05091 0.11043
#
# Static dielectric constant tensor:
#      x y z
#    x 2.168360 0.000000 0.084890 
#    y 0.000000 2.168240 0.000000 
#    z 0.084890 0.000000 2.095700 
# 
# From -- ./inp_files/197341.got.cif
#   From: 2010.05.17/outbox.cif.g08.bks.cpg/sg15_99_cif.got.tgz:197341.got - 2010.06.03 18:47:42.
