data_PCOD9254113
_publ_section_title
;
Structure prediction by ZEFSAII (Michael W. Deem and Ramdas Pophale) SiO2 
 PCOD9254113
Probable space group: C 2/C
;
_chemical_formula_sum "Si O2"
_cell_formula_units_Z 64
_cell_length_a 17.862577
_cell_length_b 10.547860
_cell_length_c 15.551505
_cell_angle_alpha 90.000000
_cell_angle_beta 125.597641
_cell_angle_gamma 90.000000
_cell_volume 2382.528276
_symmetry_space_group_name_H-M "C 2/C"
_symmetry_group_IT_number 15
_symmetry_cell_setting 'monoclinic'
loop_
_space_group_symop_operation_xyz
x,y,z
-x,y,1/2-z
-x,-y,-z
x,-y,1/2+z
1/2+x,1/2+y,z
1/2-x,1/2+y,1/2-z
1/2-x,1/2-y,-z
1/2+x,1/2-y,1/2+z
loop_
_atom_site_type_symbol
_atom_site_label
_atom_site_fract_x
_atom_site_fract_y
_atom_site_fract_z
Si Si1 0.498961 0.868989 0.944617
Si Si2 0.536783 0.497884 0.372574
Si Si3 0.670947 0.816663 0.290440
Si Si4 0.685862 0.736679 0.124309
Si Si5 0.850738 0.955598 0.773538
Si Si6 0.400492 0.982649 0.122369
Si Si7 0.371596 0.742609 0.980726
Si Si8 0.216518 0.894104 0.435046
O O1 0.582352 0.779052 0.032288
O O2 0.406538 0.796168 0.911388
O O3 0.500000 0.000000 0.000000
O O4 0.527708 0.914762 0.868187
O O5 0.500000 0.513539 0.250000
O O6 0.441604 0.464941 0.356220
O O7 0.579517 0.618556 0.448737
O O8 0.620170 0.399165 0.419884
O O9 0.707214 0.833956 0.217723
O O10 0.617650 0.683780 0.242180
O O11 0.606193 0.922687 0.287007
O O12 0.762936 0.786672 0.405468
O O13 0.696129 0.596401 0.171035
O O14 0.752477 0.765467 0.090412
O O15 0.798573 0.014334 0.658666
O O16 0.399254 0.856175 0.063056
O O17 0.301403 0.044552 0.039912
#
# Coordination Sequence:
#
# PCOD9254113 Si02
#       8
#     8   8   8   8   8   8   8   8
#     4   9  19  28  43  69 110 141 164 210 269 314
#     4  10  18  26  45  73 100 130 167 212 259 303
#     4  10  18  28  48  72 104 136 169 210 262 309
#     4   9  19  32  44  75 109 136 169 216 269 310
#     4   9  18  31  46  75 102 137 165 217 267 302
#     4  10  16  26  43  71 100 136 168 206 257 313
#     4  11  16  27  44  71 102 133 168 211 257 313
#     4  10  17  29  47  71 105 136 173 208 259 320
#
# _framework density 26.862221000000002
#
# number of rings (size 3 to 8) (size 9 to 14) (size 15 to 20)
#    0.750    1.500    3.750    1.875    0.000    0.000 
#    0.000    1.875    0.000    3.000    0.000    8.750 
#    0.000    0.000    0.000    0.000    0.000    0.000 
#
# Total GULP energy -178836.553004 kJ/mol
# GULP energy per Si atom -5588.642281 kJ/mol
# Density = 2.680108 g / cm^3
# Si number density = 26.862221 Si / 1000 Ang^3
#
#
#
# Elastic Constant Matrix: (Units=GPa)
#
#
# Indices 1 2 3 4 5 6 
#
# 1 94.8112 41.1289 30.6158 0.0000 -20.5142 0.0000
# 2 41.1289 93.5254 25.2715 0.0000 -9.1212 0.0000
# 3 30.6158 25.2715 65.6155 0.0000 -0.7361 0.0000
# 4 0.0000 0.0000 0.0000 17.5531 0.0000 -28.1108
# 5 -20.5142 -9.1212 -0.7361 0.0000 37.8093 0.0000
# 6 0.0000 0.0000 0.0000 -28.1108 0.0000 55.8695
#
#
#
# Elastic Compliance Matrix: (Units=1/GPa)
#
#
# Indices 1 2 3 4 5 6 
#
# 1 0.016040 -0.004832 -0.005540 0.000000 0.007429 0.000000
# 2 -0.004832 0.013692 -0.003012 0.000000 0.000623 0.000000
# 3 -0.005540 -0.003012 0.018947 0.000000 -0.003363 0.000000
# 4 0.000000 0.000000 0.000000 0.293330 0.000000 0.147589
# 5 0.007429 0.000623 -0.003363 0.000000 0.030564 0.000000
# 6 0.000000 0.000000 0.000000 0.147589 0.000000 0.092158
#
#
# Mechanical properties :
#
#
# Convention : Reuss Voigt Hill
#
# Bulk Modulus (GPa) = 45.63751 49.77603 47.70677
# Shear Modulus (GPa) = 10.02402 32.70879 21.36640
#
# Velocity S-wave (km/s) = 1.93384 3.49327 2.82336
# Velocity P-wave (km/s) = 4.69177 5.90262 5.33168
#
# Compressibility (1/GPa) = 0.02191180
#
# Stress axis : x y z
#
# Youngs Moduli (GPa) = 62.34523 73.03627 52.77820
#
# Poissons Ratio (x) = 0.35293 0.29237
# Poissons Ratio (y) = 0.30127 0.15895
# Poissons Ratio (z) = 0.34536 0.21996
#
# Static dielectric constant tensor:
#      x y z
#    x 2.211040 0.000000 -0.075500 
#    y 0.000000 2.094110 0.000000 
#    z -0.075500 0.000000 2.116950 
# 
# From -- ./inp_files/210978.got.cif
#   From: 2010.05.17/outbox.cif.g08.bks.cpg/sg15_106_cif.got.tgz:210978.got - 2010.06.03 18:47:42.
