data_PCOD9254097
_publ_section_title
;
Structure prediction by ZEFSAII (Michael W. Deem and Ramdas Pophale) SiO2 
 PCOD9254097
Probable space group: C 2/C
;
_chemical_formula_sum "Si O2"
_cell_formula_units_Z 32
_cell_length_a 7.542510
_cell_length_b 34.365699
_cell_length_c 5.364072
_cell_angle_alpha 90.000000
_cell_angle_beta 63.239978
_cell_angle_gamma 90.000000
_cell_volume 1241.476763
_symmetry_space_group_name_H-M "C 2/C"
_symmetry_group_IT_number 15
_symmetry_cell_setting 'monoclinic'
loop_
_space_group_symop_operation_xyz
x,y,z
-x,y,1/2-z
-x,-y,-z
x,-y,1/2+z
1/2+x,1/2+y,z
1/2-x,1/2+y,1/2-z
1/2-x,1/2-y,-z
1/2+x,1/2-y,1/2+z
loop_
_atom_site_type_symbol
_atom_site_label
_atom_site_fract_x
_atom_site_fract_y
_atom_site_fract_z
Si Si1 0.225810 0.015373 0.312014
Si Si2 0.124552 0.283188 0.432080
Si Si3 0.720463 0.363296 0.319333
Si Si4 0.228518 0.105720 0.312710
O O1 0.226323 0.060578 0.244386
O O2 0.312602 0.009518 0.531367
O O3 0.000000 0.000000 0.500000
O O4 0.250000 0.250000 0.500000
O O5 0.266508 0.318140 0.256247
O O6 0.000000 0.272504 0.250000
O O7 0.000000 0.298513 0.750000
O O8 0.496622 0.378671 0.501858
O O9 0.812949 0.369638 0.531475
O O10 0.811436 0.388233 0.036283
#
# Coordination Sequence:
#
# PCOD9254097 Si02
#       4
#     8   8   8   8
#     4  10  16  25  44  80 132 168 207 266 328 386
#     4  12  28  50  73 101 134 173 226 284 346 410
#     4  10  20  37  60  87 126 164 219 260 329 400
#     4  10  19  33  59  90 130 175 215 272 341 383
#
# _framework density 25.775756000000001
#
# number of rings (size 3 to 8) (size 9 to 14) (size 15 to 20)
#    0.000    1.500    0.000    9.750    3.500    0.000 
#    0.000    0.000    0.000    0.000    0.000    0.000 
#    0.000  244.000    0.000    0.000    0.000    0.000 
#
# Total GULP energy -89398.331666 kJ/mol
# GULP energy per Si atom -5587.395729 kJ/mol
# Density = 2.571709 g / cm^3
# Si number density = 25.775756 Si / 1000 Ang^3
#
#
#
# Elastic Constant Matrix: (Units=GPa)
#
#
# Indices 1 2 3 4 5 6 
#
# 1 105.8733 6.3699 13.9634 0.0000 21.0102 0.0000
# 2 6.3699 185.6230 47.4349 0.0000 8.9500 0.0000
# 3 13.9634 47.4349 231.7607 0.0000 46.7770 0.0000
# 4 0.0000 0.0000 0.0000 53.0459 0.0000 15.8978
# 5 21.0102 8.9500 46.7770 0.0000 37.1866 0.0000
# 6 0.0000 0.0000 0.0000 15.8978 0.0000 20.3891
#
#
#
# Elastic Compliance Matrix: (Units=1/GPa)
#
#
# Indices 1 2 3 4 5 6 
#
# 1 0.010751 -0.000240 0.000825 0.000000 -0.007054 0.000000
# 2 -0.000240 0.005690 -0.001208 0.000000 0.000285 0.000000
# 3 0.000825 -0.001208 0.006095 0.000000 -0.007843 0.000000
# 4 0.000000 0.000000 0.000000 0.024600 0.000000 -0.019181
# 5 -0.007054 0.000285 -0.007843 0.000000 0.040674 0.000000
# 6 0.000000 0.000000 0.000000 -0.019181 0.000000 0.064002
#
#
# Mechanical properties :
#
#
# Convention : Reuss Voigt Hill
#
# Bulk Modulus (GPa) = 46.96655 73.19924 60.08290
# Shear Modulus (GPa) = 31.22000 52.49025 41.85512
#
# Velocity S-wave (km/s) = 3.48403 4.51757 4.03403
# Velocity P-wave (km/s) = 5.86902 7.46132 6.71255
#
# Compressibility (1/GPa) = 0.02129175
#
# Stress axis : x y z
#
# Youngs Moduli (GPa) = 93.01670 175.73526 164.06399
#
# Poissons Ratio (x) = 0.04211 -0.13537
# Poissons Ratio (y) = 0.02229 0.19815
# Poissons Ratio (z) = -0.07675 0.21225
#
# Static dielectric constant tensor:
#      x y z
#    x 1.430150 0.000000 -0.168560 
#    y 0.000000 1.911720 0.000000 
#    z -0.168560 0.000000 1.976730 
# 
# From -- ./inp_files/2570.got.cif
#   From: 2010.05.17/outbox.cif.g08.bks.cpg/sg15_2_cif.got.tgz:2570.got - 2010.06.03 18:47:42.
