data_PCOD9254506
_publ_section_title
;
Structure prediction by ZEFSAII (Michael W. Deem and Ramdas Pophale) SiO2 
 PCOD9254506
Probable space group: C 2/C
;
_chemical_formula_sum "Si O2"
_cell_formula_units_Z 56
_cell_length_a 23.856121
_cell_length_b 16.848409
_cell_length_c 14.318894
_cell_angle_alpha 90.000000
_cell_angle_beta 155.711758
_cell_angle_gamma 90.000000
_cell_volume 2367.313370
_symmetry_space_group_name_H-M "C 2/C"
_symmetry_group_IT_number 15
_symmetry_cell_setting 'monoclinic'
loop_
_space_group_symop_operation_xyz
x,y,z
-x,y,1/2-z
-x,-y,-z
x,-y,1/2+z
1/2+x,1/2+y,z
1/2-x,1/2+y,1/2-z
1/2-x,1/2-y,-z
1/2+x,1/2-y,1/2+z
loop_
_atom_site_type_symbol
_atom_site_label
_atom_site_fract_x
_atom_site_fract_y
_atom_site_fract_z
Si Si1 0.514776 0.556242 0.614423
Si Si2 0.380052 0.586789 0.999277
Si Si3 0.889503 0.531123 0.944673
Si Si4 0.589052 0.844178 0.529355
Si Si5 0.500579 0.301665 0.974293
Si Si6 0.706817 0.160004 0.013377
Si Si7 0.189655 0.526864 0.460340
O O1 0.500000 0.500000 0.500000
O O2 0.421480 0.505061 0.541103
O O3 0.477563 0.645577 0.531570
O O4 0.674745 0.560584 0.879864
O O5 0.500000 0.614526 0.250000
O O6 0.405144 0.643698 0.949154
O O7 0.219797 0.581053 0.782202
O O8 0.880263 0.436810 0.910264
O O9 0.841244 0.548691 0.978275
O O10 0.051878 0.544326 0.193994
O O11 0.576550 0.782394 0.595119
O O12 0.438487 0.834640 0.256768
O O13 0.682824 0.817176 0.585320
O O14 0.348193 0.300247 0.699008
O O15 0.727053 0.065728 0.030155
#
# Coordination Sequence:
#
# PCOD9254506 Si02
#       7
#     8   8   8   8   8   8   8
#     4  10  16  31  53  76 104 136 186 216 260 313
#     4  11  22  34  55  81 112 140 181 233 268 316
#     4   9  17  32  51  77 107 143 175 211 275 321
#     4   9  19  29  50  80 111 142 175 223 273 329
#     4  11  19  32  55  83 109 140 185 226 263 329
#     4   9  16  30  49  76 113 145 168 215 284 330
#     4   9  14  29  55  76  99 140 179 214 252 326
#
# _framework density 23.655505999999999
#
# number of rings (size 3 to 8) (size 9 to 14) (size 15 to 20)
#    0.000    2.286    5.714    3.000    2.000    0.000 
#    0.000    0.714    0.000    2.571    0.000    0.000 
#    0.000    0.000    0.000    0.000    0.000    0.000 
#
# Total GULP energy -155994.488011 kJ/mol
# GULP energy per Si atom -5571.231715 kJ/mol
# Density = 2.360167 g / cm^3
# Si number density = 23.655506 Si / 1000 Ang^3
#
#
#
# Elastic Constant Matrix: (Units=GPa)
#
#
# Indices 1 2 3 4 5 6 
#
# 1 38.8722 12.3289 15.3685 0.0000 6.9974 0.0000
# 2 12.3289 34.9247 29.1585 0.0000 15.0646 0.0000
# 3 15.3685 29.1585 147.7390 0.0000 47.3990 0.0000
# 4 0.0000 0.0000 0.0000 9.0049 0.0000 11.5405
# 5 6.9974 15.0646 47.3990 0.0000 33.0184 0.0000
# 6 0.0000 0.0000 0.0000 11.5405 0.0000 31.5889
#
#
#
# Elastic Compliance Matrix: (Units=1/GPa)
#
#
# Indices 1 2 3 4 5 6 
#
# 1 0.029148 -0.009204 -0.001077 0.000000 -0.000432 0.000000
# 2 -0.009204 0.039484 -0.003117 0.000000 -0.011589 0.000000
# 3 -0.001077 -0.003117 0.012914 0.000000 -0.016888 0.000000
# 4 0.000000 0.000000 0.000000 0.208820 0.000000 -0.076289
# 5 -0.000432 -0.011589 -0.016888 0.000000 0.059909 0.000000
# 6 0.000000 0.000000 0.000000 -0.076289 0.000000 0.059528
#
#
# Mechanical properties :
#
#
# Convention : Reuss Voigt Hill
#
# Bulk Modulus (GPa) = 18.26520 37.24975 27.75748
# Shear Modulus (GPa) = 10.99266 25.70111 18.34688
#
# Velocity S-wave (km/s) = 2.15802 3.29975 2.78796
# Velocity P-wave (km/s) = 3.73464 5.50443 4.70352
#
# Compressibility (1/GPa) = 0.05474892
#
# Stress axis : x y z
#
# Youngs Moduli (GPa) = 34.30748 25.32701 77.43402
#
# Poissons Ratio (x) = 0.23312 0.08340
# Poissons Ratio (y) = 0.31578 0.24137
# Poissons Ratio (z) = 0.03695 0.07895
#
# Static dielectric constant tensor:
#      x y z
#    x 1.966720 0.000000 -0.060670 
#    y 0.000000 1.924300 0.000000 
#    z -0.060670 0.000000 1.999990 
# 
# From -- ./inp_files/225736.got.cif
#   From: 2010.05.17/outbox.cif.g08.bks.cpg/sg15_113_cif.got.tgz:225736.got - 2010.06.03 18:47:42.
