data_PCOD9254100
_publ_section_title
;
Structure prediction by ZEFSAII (Michael W. Deem and Ramdas Pophale) SiO2 
 PCOD9254100
Probable space group: C 2/C
;
_chemical_formula_sum "Si O2"
_cell_formula_units_Z 48
_cell_length_a 5.457289
_cell_length_b 28.448396
_cell_length_c 16.205310
_cell_angle_alpha 90.000000
_cell_angle_beta 59.212791
_cell_angle_gamma 90.000000
_cell_volume 2161.338306
_symmetry_space_group_name_H-M "C 2/C"
_symmetry_group_IT_number 15
_symmetry_cell_setting 'monoclinic'
loop_
_space_group_symop_operation_xyz
x,y,z
-x,y,1/2-z
-x,-y,-z
x,-y,1/2+z
1/2+x,1/2+y,z
1/2-x,1/2+y,1/2-z
1/2-x,1/2-y,-z
1/2+x,1/2-y,1/2+z
loop_
_atom_site_type_symbol
_atom_site_label
_atom_site_fract_x
_atom_site_fract_y
_atom_site_fract_z
Si Si1 0.899467 0.895496 0.921201
Si Si2 0.462609 0.420461 0.364192
Si Si3 0.416890 0.036266 0.893162
Si Si4 0.696609 0.801445 0.044168
Si Si5 0.521887 0.314952 0.156338
Si Si6 0.579299 0.075111 0.094458
O O1 0.720481 0.899999 0.868671
O O2 0.230350 0.908019 0.862319
O O3 0.753419 0.936745 0.003691
O O4 0.854646 0.845105 0.972239
O O5 0.719724 0.453426 0.348579
O O6 0.571025 0.369418 0.321027
O O7 0.273842 0.412253 0.480448
O O8 0.231495 0.441652 0.341580
O O9 0.443526 0.981065 0.901816
O O10 0.363150 0.813041 0.085574
O O11 0.822159 0.798290 0.115941
O O12 0.750000 0.750000 0.000000
O O13 0.500000 0.291275 0.250000
#
# Coordination Sequence:
#
# PCOD9254100 Si02
#       6
#     8   8   8   8   8   8
#     4  10  16  29  44  70 109 137 179 214 285 328
#     4  10  16  29  44  70 109 141 176 215 269 327
#     4  10  16  25  46  72 110 145 171 208 271 309
#     4  12  23  40  59  82 114 156 185 252 305 350
#     4  12  23  40  59  82 114 158 192 236 297 378
#     4  10  16  25  46  72 110 145 169 211 269 310
#
# _framework density 22.208459999999999
#
# number of rings (size 3 to 8) (size 9 to 14) (size 15 to 20)
#    0.000    1.333    6.667    6.000    0.000    0.000 
#    0.000    0.000    0.000    0.000    0.000    0.000 
#    0.000   45.333    0.000    0.000    0.000    0.000 
#
# Total GULP energy -133993.930080 kJ/mol
# GULP energy per Si atom -5583.080420 kJ/mol
# Density = 2.215791 g / cm^3
# Si number density = 22.208460 Si / 1000 Ang^3
#
#
#
# Elastic Constant Matrix: (Units=GPa)
#
#
# Indices 1 2 3 4 5 6 
#
# 1 185.8476 24.3529 22.0315 0.0000 18.9113 0.0000
# 2 24.3529 114.0571 15.5842 0.0000 9.9091 0.0000
# 3 22.0315 15.5842 27.8071 0.0000 6.8637 0.0000
# 4 0.0000 0.0000 0.0000 12.7252 0.0000 -37.2059
# 5 18.9113 9.9091 6.8637 0.0000 29.6494 0.0000
# 6 0.0000 0.0000 0.0000 -37.2059 0.0000 484.9697
#
#
#
# Elastic Compliance Matrix: (Units=1/GPa)
#
#
# Indices 1 2 3 4 5 6 
#
# 1 0.006207 -0.000542 -0.003905 0.000000 -0.002874 0.000000
# 2 -0.000542 0.009662 -0.004533 0.000000 -0.001834 0.000000
# 3 -0.003905 -0.004533 0.043068 0.000000 -0.005965 0.000000
# 4 0.000000 0.000000 0.000000 0.101308 0.000000 0.007772
# 5 -0.002874 -0.001834 -0.005965 0.000000 0.037554 0.000000
# 6 0.000000 0.000000 0.000000 0.007772 0.000000 0.002658
#
#
# Mechanical properties :
#
#
# Convention : Reuss Voigt Hill
#
# Bulk Modulus (GPa) = 24.40310 50.18321 37.29316
# Shear Modulus (GPa) = 21.54459 123.18507 72.36483
#
# Velocity S-wave (km/s) = 3.11803 7.45574 5.71446
# Velocity P-wave (km/s) = 4.89642 9.83681 7.76974
#
# Compressibility (1/GPa) = 0.04097840
#
# Stress axis : x y z
#
# Youngs Moduli (GPa) = 161.10519 103.49871 23.21892
#
# Poissons Ratio (x) = 0.05611 0.09066
# Poissons Ratio (y) = 0.08734 0.10525
# Poissons Ratio (z) = 0.62906 0.46913
#
# Static dielectric constant tensor:
#      x y z
#    x 1.978110 0.000000 0.027260 
#    y 0.000000 1.756310 0.000000 
#    z 0.027260 0.000000 2.058070 
# 
# From -- ./inp_files/185732.got.cif
#   From: 2010.05.17/outbox.cif.g08.bks.cpg/sg15_93_cif.got.tgz:185732.got - 2010.06.03 18:47:42.
