data_PCOD9254739
_publ_section_title
;
Structure prediction by ZEFSAII (Michael W. Deem and Ramdas Pophale) SiO2 
 PCOD9254739
Probable space group: C 2/C
;
_chemical_formula_sum "Si O2"
_cell_formula_units_Z 52
_cell_length_a 17.608398
_cell_length_b 17.852962
_cell_length_c 8.157025
_cell_angle_alpha 90.000000
_cell_angle_beta 109.926918
_cell_angle_gamma 90.000000
_cell_volume 2410.732142
_symmetry_space_group_name_H-M "C 2/C"
_symmetry_group_IT_number 15
_symmetry_cell_setting 'monoclinic'
loop_
_space_group_symop_operation_xyz
x,y,z
-x,y,1/2-z
-x,-y,-z
x,-y,1/2+z
1/2+x,1/2+y,z
1/2-x,1/2+y,1/2-z
1/2-x,1/2-y,-z
1/2+x,1/2-y,1/2+z
loop_
_atom_site_type_symbol
_atom_site_label
_atom_site_fract_x
_atom_site_fract_y
_atom_site_fract_z
Si Si1 0.091465 0.905939 0.130245
Si Si2 0.000000 0.031421 0.250000
Si Si3 0.364578 0.267164 0.692125
Si Si4 0.490015 0.736167 0.984633
Si Si5 0.104988 0.536385 0.889920
Si Si6 0.751222 0.627401 0.583574
Si Si7 0.026578 0.596719 0.492765
O O1 0.066153 0.975191 0.222459
O O2 0.186297 0.898469 0.169393
O O3 0.055746 0.825418 0.156932
O O4 0.044760 0.921448 0.922975
O O5 0.426234 0.293776 0.876341
O O6 0.423997 0.249009 0.581833
O O7 0.302110 0.330910 0.593412
O O8 0.312377 0.192696 0.690263
O O9 0.518759 0.816928 0.944821
O O10 0.069692 0.574708 0.698414
O O11 0.063779 0.572192 0.021043
O O12 0.198042 0.558015 0.948563
O O13 0.075311 0.451280 0.894464
#
# Coordination Sequence:
#
# PCOD9254739 Si02
#       7
#     8   4   8   8   8   8   8
#     4  10  22  36  64  80 114 140 199 235 295 333
#     4  10  22  44  54  86 106 150 182 246 290 364
#     4   9  16  27  54  82 110 136 202 226 270 326
#     4  10  16  34  57  81 106 158 186 232 269 351
#     4  10  19  32  49  77 112 148 184 229 271 330
#     4  10  17  29  52  88 106 142 185 248 269 324
#     4  10  19  33  52  74 112 156 188 216 274 346
#
# _framework density 21.570211
#
# number of rings (size 3 to 8) (size 9 to 14) (size 15 to 20)
#    0.000    2.154    3.077    2.769    0.000    1.231 
#    0.000    3.077    0.000    0.923    0.000    0.000 
#    0.000    0.000    0.000    0.000    0.000    0.000 
#
# Total GULP energy -144943.526774 kJ/mol
# GULP energy per Si atom -5574.751030 kJ/mol
# Density = 2.152112 g / cm^3
# Si number density = 21.570211 Si / 1000 Ang^3
#
#
#
# Elastic Constant Matrix: (Units=GPa)
#
#
# Indices 1 2 3 4 5 6 
#
# 1 162.3557 57.6729 27.6179 0.0000 14.1981 0.0000
# 2 57.6729 126.8287 9.1915 0.0000 1.9552 0.0000
# 3 27.6179 9.1915 44.0872 0.0000 -7.2633 0.0000
# 4 0.0000 0.0000 0.0000 1.7870 0.0000 4.0152
# 5 14.1981 1.9552 -7.2633 0.0000 26.1534 0.0000
# 6 0.0000 0.0000 0.0000 4.0152 0.0000 49.3623
#
#
#
# Elastic Compliance Matrix: (Units=1/GPa)
#
#
# Indices 1 2 3 4 5 6 
#
# 1 0.008974 -0.003556 -0.005910 0.000000 -0.006247 0.000000
# 2 -0.003556 0.009446 0.000482 0.000000 0.001358 0.000000
# 3 -0.005910 0.000482 0.028092 0.000000 0.010974 0.000000
# 4 0.000000 0.000000 0.000000 0.684765 0.000000 -0.055699
# 5 -0.006247 0.001358 0.010974 0.000000 0.044573 0.000000
# 6 0.000000 0.000000 0.000000 -0.055699 0.000000 0.024789
#
#
# Mechanical properties :
#
#
# Convention : Reuss Voigt Hill
#
# Bulk Modulus (GPa) = 35.03288 58.02623 46.52956
# Shear Modulus (GPa) = 6.03776 31.37981 18.70878
#
# Velocity S-wave (km/s) = 1.67487 3.81829 2.94826
# Velocity P-wave (km/s) = 4.47402 6.81165 5.76261
#
# Compressibility (1/GPa) = 0.02854461
#
# Stress axis : x y z
#
# Youngs Moduli (GPa) = 111.43101 105.86609 35.59771
#
# Poissons Ratio (x) = 0.37649 0.21037
# Poissons Ratio (y) = 0.39628 -0.01717
# Poissons Ratio (z) = 0.65851 -0.05105
#
# Static dielectric constant tensor:
#      x y z
#    x 1.771870 0.000000 0.000540 
#    y 0.000000 1.851750 0.000000 
#    z 0.000540 0.000000 1.853130 
# 
# From -- ./inp_files/106158.got.cif
#   From: 2010.05.17/outbox.cif.g08.bks.cpg/sg15_54_cif.got.tgz:106158.got - 2010.06.03 18:47:42.
