data_PCOD9254748
_publ_section_title
;
Structure prediction by ZEFSAII (Michael W. Deem and Ramdas Pophale) SiO2 
 PCOD9254748
Probable space group: C 2/C
;
_chemical_formula_sum "Si O2"
_cell_formula_units_Z 44
_cell_length_a 16.982037
_cell_length_b 9.487715
_cell_length_c 17.230017
_cell_angle_alpha 90.000000
_cell_angle_beta 119.274732
_cell_angle_gamma 90.000000
_cell_volume 2421.561641
_symmetry_space_group_name_H-M "C 2/C"
_symmetry_group_IT_number 15
_symmetry_cell_setting 'monoclinic'
loop_
_space_group_symop_operation_xyz
x,y,z
-x,y,1/2-z
-x,-y,-z
x,-y,1/2+z
1/2+x,1/2+y,z
1/2-x,1/2+y,1/2-z
1/2-x,1/2-y,-z
1/2+x,1/2-y,1/2+z
loop_
_atom_site_type_symbol
_atom_site_label
_atom_site_fract_x
_atom_site_fract_y
_atom_site_fract_z
Si Si1 0.606354 0.228984 0.549829
Si Si2 0.500000 0.490174 0.250000
Si Si3 0.142794 0.064852 0.939720
Si Si4 0.098868 0.836528 0.048816
Si Si5 0.796134 0.549945 0.401880
Si Si6 0.146357 0.062806 0.202020
O O1 0.655643 0.299351 0.499587
O O2 0.502241 0.276119 0.494066
O O3 0.647289 0.304423 0.645435
O O4 0.623908 0.063900 0.562295
O O5 0.432569 0.404794 0.161995
O O6 0.565711 0.577898 0.225600
O O7 0.105456 0.944644 0.980161
O O8 0.229163 0.001516 0.937829
O O9 0.875490 0.072374 0.862667
O O10 0.166085 0.706334 0.069335
O O11 0.737325 0.544868 0.294734
#
# Coordination Sequence:
#
# PCOD9254748 Si02
#       6
#     8   4   8   8   8   8
#     4  11  20  38  57  82 110 144 181 222 271 321
#     4  10  16  34  58  82  90 142 198 218 236 320
#     4  10  20  36  59  79 106 148 188 213 259 335
#     4  11  20  38  57  82 110 144 181 222 271 321
#     4  11  23  33  57  86 116 134 175 235 279 303
#     4  10  20  36  59  79 106 148 188 213 259 335
#
# _framework density 18.170093000000001
#
# number of rings (size 3 to 8) (size 9 to 14) (size 15 to 20)
#    0.000    1.455    3.636    3.818    0.000    0.000 
#    0.000    0.000    0.000    2.182    0.000    0.000 
#    0.000    0.000    0.000    0.000    0.000    0.000 
#
# Total GULP energy -122784.668232 kJ/mol
# GULP energy per Si atom -5581.121283 kJ/mol
# Density = 1.812874 g / cm^3
# Si number density = 18.170093 Si / 1000 Ang^3
#
#
#
# Elastic Constant Matrix: (Units=GPa)
#
#
# Indices 1 2 3 4 5 6 
#
# 1 58.7644 9.1920 25.9141 0.0000 -3.3578 0.0000
# 2 9.1920 75.5276 25.7871 0.0000 1.0116 0.0000
# 3 25.9141 25.7871 87.7586 0.0000 -10.2938 0.0000
# 4 0.0000 0.0000 0.0000 12.8207 0.0000 10.8417
# 5 -3.3578 1.0116 -10.2938 0.0000 30.1171 0.0000
# 6 0.0000 0.0000 0.0000 10.8417 0.0000 22.1177
#
#
#
# Elastic Compliance Matrix: (Units=1/GPa)
#
#
# Indices 1 2 3 4 5 6 
#
# 1 0.019581 -0.000471 -0.005611 0.000000 0.000281 0.000000
# 2 -0.000471 0.014851 -0.004469 0.000000 -0.002079 0.000000
# 3 -0.005611 -0.004469 0.014907 0.000000 0.004620 0.000000
# 4 0.000000 0.000000 0.000000 0.133220 0.000000 -0.065302
# 5 0.000281 -0.002079 0.004620 0.000000 0.034884 0.000000
# 6 0.000000 0.000000 0.000000 -0.065302 0.000000 0.077222
#
#
# Mechanical properties :
#
#
# Convention : Reuss Voigt Hill
#
# Bulk Modulus (GPa) = 35.41339 38.20412 36.80876
# Shear Modulus (GPa) = 15.37616 23.75492 19.56554
#
# Velocity S-wave (km/s) = 2.91217 3.61967 3.28502
# Velocity P-wave (km/s) = 5.55337 6.20813 5.88985
#
# Compressibility (1/GPa) = 0.02823790
#
# Stress axis : x y z
#
# Youngs Moduli (GPa) = 51.06971 67.33529 67.08466
#
# Poissons Ratio (x) = 0.03173 0.37639
# Poissons Ratio (y) = 0.02407 0.29977
# Poissons Ratio (z) = 0.28653 0.30089
#
# Static dielectric constant tensor:
#      x y z
#    x 1.640220 0.000000 0.003570 
#    y 0.000000 1.579310 0.000000 
#    z 0.003570 0.000000 1.624560 
# 
# From -- ./inp_files/208748.got.cif
#   From: 2010.05.17/outbox.cif.g08.bks.cpg/sg15_105_cif.got.tgz:208748.got - 2010.06.03 18:47:42.
