data_PCOD9254136
_publ_section_title
;
Structure prediction by ZEFSAII (Michael W. Deem and Ramdas Pophale) SiO2 
 PCOD9254136
Probable space group: C 2/C
;
_chemical_formula_sum "Si O2"
_cell_formula_units_Z 60
_cell_length_a 26.240166
_cell_length_b 26.773334
_cell_length_c 10.034124
_cell_angle_alpha 90.000000
_cell_angle_beta 147.509471
_cell_angle_gamma 90.000000
_cell_volume 3786.625150
_symmetry_space_group_name_H-M "C 2/C"
_symmetry_group_IT_number 15
_symmetry_cell_setting 'monoclinic'
loop_
_space_group_symop_operation_xyz
x,y,z
-x,y,1/2-z
-x,-y,-z
x,-y,1/2+z
1/2+x,1/2+y,z
1/2-x,1/2+y,1/2-z
1/2-x,1/2-y,-z
1/2+x,1/2-y,1/2+z
loop_
_atom_site_type_symbol
_atom_site_label
_atom_site_fract_x
_atom_site_fract_y
_atom_site_fract_z
Si Si1 0.000000 0.698207 0.750000
Si Si2 0.813950 0.657415 0.967669
Si Si3 0.059212 0.563242 0.244582
Si Si4 0.802946 0.801738 0.064777
Si Si5 0.525138 0.763752 0.591127
Si Si6 0.574028 0.051744 0.791571
Si Si7 0.183874 0.355711 0.580584
Si Si8 0.320499 0.206213 0.699611
O O1 0.004292 0.730522 0.627655
O O2 0.909216 0.663447 0.547649
O O3 0.854862 0.601810 0.059354
O O4 0.903483 0.691177 0.214458
O O5 0.725716 0.663684 0.873527
O O6 0.791278 0.679154 0.771689
O O7 0.093854 0.506181 0.303029
O O8 0.000000 0.567069 0.250000
O O9 0.985047 0.574623 0.962305
O O10 0.909252 0.785175 0.262813
O O11 0.750000 0.750000 0.000000
O O12 0.763695 0.829568 0.846659
O O13 0.426644 0.770772 0.451968
O O14 0.500000 0.051582 0.750000
O O15 0.665817 0.085159 0.027588
O O16 0.180322 0.332538 0.424964
O O17 0.250000 0.250000 0.500000
#
# Coordination Sequence:
#
# PCOD9254136 Si02
#       8
#     4   8   8   8   8   8   8   8
#     4  10  16  26  48  64  86 124 158 192 220 276
#     4  11  19  32  47  70  97 130 157 194 238 284
#     4  10  19  31  44  67 100 129 161 198 240 282
#     4  10  19  32  48  67  93 125 168 196 232 278
#     4  10  20  31  48  65  94 128 158 198 234 286
#     4  10  19  29  47  69  92 129 169 197 228 286
#     4  11  18  31  47  67  95 126 168 193 234 289
#     4  11  23  32  48  69  97 126 162 197 248 293
#
# _framework density 15.845243999999999
#
# number of rings (size 3 to 8) (size 9 to 14) (size 15 to 20)
#    0.000    1.600    3.333    6.000    1.867    0.000 
#    0.000    0.000    0.000    0.000    0.000    0.000 
#    0.000    6.400    0.000    0.000    0.000    0.000 
#
# Total GULP energy -167120.867314 kJ/mol
# GULP energy per Si atom -5570.695577 kJ/mol
# Density = 1.580918 g / cm^3
# Si number density = 15.845244 Si / 1000 Ang^3
#
#
#
# Elastic Constant Matrix: (Units=GPa)
#
#
# Indices 1 2 3 4 5 6 
#
# 1 52.3950 14.7440 22.4285 0.0000 -10.8091 0.0000
# 2 14.7440 85.2804 28.9251 0.0000 1.2399 0.0000
# 3 22.4285 28.9251 54.8824 0.0000 -11.8161 0.0000
# 4 0.0000 0.0000 0.0000 23.8511 0.0000 6.1275
# 5 -10.8091 1.2399 -11.8161 0.0000 28.4299 0.0000
# 6 0.0000 0.0000 0.0000 6.1275 0.0000 2.9052
#
#
#
# Elastic Compliance Matrix: (Units=1/GPa)
#
#
# Indices 1 2 3 4 5 6 
#
# 1 0.024079 -0.001649 -0.007671 0.000000 0.006039 0.000000
# 2 -0.001649 0.014844 -0.008154 0.000000 -0.004663 0.000000
# 3 -0.007671 -0.008154 0.027569 0.000000 0.008897 0.000000
# 4 0.000000 0.000000 0.000000 0.091515 0.000000 -0.193018
# 5 0.006039 -0.004663 0.008897 0.000000 0.041371 0.000000
# 6 0.000000 0.000000 0.000000 -0.193018 0.000000 0.751316
#
#
# Mechanical properties :
#
#
# Convention : Reuss Voigt Hill
#
# Bulk Modulus (GPa) = 31.70110 36.08367 33.89238
# Shear Modulus (GPa) = 5.01929 19.46791 12.24360
#
# Velocity S-wave (km/s) = 1.78173 3.50898 2.78276
# Velocity P-wave (km/s) = 4.92777 6.26413 5.63570
#
# Compressibility (1/GPa) = 0.03154465
#
# Stress axis : x y z
#
# Youngs Moduli (GPa) = 41.52932 67.36523 36.27317
#
# Poissons Ratio (x) = 0.11108 0.27826
# Poissons Ratio (y) = 0.06848 0.29576
# Poissons Ratio (z) = 0.31858 0.54928
#
# Static dielectric constant tensor:
#      x y z
#    x 1.558700 0.000000 -0.032120 
#    y 0.000000 1.563320 0.000000 
#    z -0.032120 0.000000 1.584570 
# 
# From -- ./inp_files/64170.got.cif
#   From: 2010.05.17/outbox.cif.g08.bks.cpg/sg15_33_cif.got.tgz:64170.got - 2010.06.03 18:47:42.
