data_PCOD9254087
_publ_section_title
;
Structure prediction by ZEFSAII (Michael W. Deem and Ramdas Pophale) SiO2 
 PCOD9254087
Probable space group: C 2/C
;
_chemical_formula_sum "Si O2"
_cell_formula_units_Z 48
_cell_length_a 5.500469
_cell_length_b 23.926874
_cell_length_c 20.052507
_cell_angle_alpha 90.000000
_cell_angle_beta 42.718005
_cell_angle_gamma 90.000000
_cell_volume 1790.334455
_symmetry_space_group_name_H-M "C 2/C"
_symmetry_group_IT_number 15
_symmetry_cell_setting 'monoclinic'
loop_
_space_group_symop_operation_xyz
x,y,z
-x,y,1/2-z
-x,-y,-z
x,-y,1/2+z
1/2+x,1/2+y,z
1/2-x,1/2+y,1/2-z
1/2-x,1/2-y,-z
1/2+x,1/2-y,1/2+z
loop_
_atom_site_type_symbol
_atom_site_label
_atom_site_fract_x
_atom_site_fract_y
_atom_site_fract_z
Si Si1 0.210953 0.418478 0.076357
Si Si2 0.677663 0.927644 0.653619
Si Si3 0.048808 0.253005 0.880632
Si Si4 0.977380 0.710198 0.903512
Si Si5 0.245116 0.446050 0.433685
Si Si6 0.735083 0.875961 0.875976
O O1 0.184104 0.351887 0.070817
O O2 0.505813 0.440764 0.962816
O O3 0.361919 0.440761 0.115294
O O4 0.825621 0.439433 0.129929
O O5 0.500000 0.961668 0.750000
O O6 0.361030 0.917425 0.664745
O O7 0.893429 0.881334 0.657575
O O8 0.869169 0.219267 0.856230
O O9 0.410735 0.231657 0.842359
O O10 0.131799 0.318647 0.859939
O O11 0.750000 0.250000 0.000000
O O12 0.750000 0.750000 0.000000
O O13 0.000000 0.500000 0.500000
O O14 0.057503 0.392975 0.509080
#
# Coordination Sequence:
#
# PCOD9254087 Si02
#       6
#     8   8   8   8   8   8
#     4  10  19  30  42  64  90 114 148 180 208 260
#     4  10  18  29  43  58  83 121 150 177 212 245
#     4  10  16  25  41  60  83 115 141 168 210 249
#     4  10  16  25  41  60  83 115 141 168 210 250
#     4  10  18  29  43  58  83 121 144 169 219 264
#     4  10  19  30  42  64  90 114 148 180 207 260
#
# _framework density 26.810631000000001
#
# number of rings (size 3 to 8) (size 9 to 14) (size 15 to 20)
#    0.000    2.000    0.000   11.000    0.000    0.000 
#    0.000    0.000    0.000    0.000    0.000    0.000 
#    0.000    0.000    0.000 1092.000    0.000    1.333 
#
# Total GULP energy -133602.419421 kJ/mol
# GULP energy per Si atom -5566.767476 kJ/mol
# Density = 2.674961 g / cm^3
# Si number density = 26.810631 Si / 1000 Ang^3
#
#
#
# Elastic Constant Matrix: (Units=GPa)
#
#
# Indices 1 2 3 4 5 6 
#
# 1 329.1782 48.5474 27.9766 0.0000 -6.2154 0.0000
# 2 48.5474 132.1079 4.9761 0.0000 -9.5589 0.0000
# 3 27.9766 4.9761 79.4321 0.0000 -13.7875 0.0000
# 4 0.0000 0.0000 0.0000 -13.4265 0.0000 -0.3058
# 5 -6.2154 -9.5589 -13.7875 0.0000 27.2449 0.0000
# 6 0.0000 0.0000 0.0000 -0.3058 0.0000 27.8256
#
#
#
# Elastic Compliance Matrix: (Units=1/GPa)
#
#
# Indices 1 2 3 4 5 6 
#
# 1 0.003305 -0.001189 -0.001130 0.000000 -0.000235 0.000000
# 2 -0.001189 0.008194 0.000392 0.000000 0.002802 0.000000
# 3 -0.001130 0.000392 0.014188 0.000000 0.007060 0.000000
# 4 0.000000 0.000000 0.000000 -0.074461 0.000000 -0.000818
# 5 -0.000235 0.002802 0.007060 0.000000 0.041206 0.000000
# 6 0.000000 0.000000 0.000000 -0.000818 0.000000 0.035929
#
#
# Mechanical properties :
#
#
# Convention : Reuss Voigt Hill
#
# Bulk Modulus (GPa) = 45.80296 78.19094 61.99695
# Shear Modulus (GPa) = 126.59947 38.94334 82.77140
#
# Velocity S-wave (km/s) = 6.87913 3.81535 5.56234
# Velocity P-wave (km/s) = 8.95642 6.97400 8.02665
#
# Compressibility (1/GPa) = 0.02183265
#
# Stress axis : x y z
#
# Youngs Moduli (GPa) = 302.58700 122.03361 70.48051
#
# Poissons Ratio (x) = 0.14509 0.07967
# Poissons Ratio (y) = 0.35975 -0.02761
# Poissons Ratio (z) = 0.34202 -0.04781
#
# Static dielectric constant tensor:
#      x y z
#    x 2.296960 0.000000 -0.088580 
#    y 0.000000 2.290390 0.000000 
#    z -0.088580 0.000000 2.203470 
# 
# From -- ./inp_files/227712.got.cif
#   From: 2010.05.17/outbox.cif.g08.bks.cpg/sg15_114_cif.got.tgz:227712.got - 2010.06.03 18:47:42.
