data_PCOD9254269
_publ_section_title
;
Structure prediction by ZEFSAII (Michael W. Deem and Ramdas Pophale) SiO2 
 PCOD9254269
Probable space group: C 2/C
;
_chemical_formula_sum "Si O2"
_cell_formula_units_Z 40
_cell_length_a 29.355865
_cell_length_b 12.137226
_cell_length_c 16.227356
_cell_angle_alpha 90.000000
_cell_angle_beta 162.654830
_cell_angle_gamma 90.000000
_cell_volume 1723.709584
_symmetry_space_group_name_H-M "C 2/C"
_symmetry_group_IT_number 15
_symmetry_cell_setting 'monoclinic'
loop_
_space_group_symop_operation_xyz
x,y,z
-x,y,1/2-z
-x,-y,-z
x,-y,1/2+z
1/2+x,1/2+y,z
1/2-x,1/2+y,1/2-z
1/2-x,1/2-y,-z
1/2+x,1/2-y,1/2+z
loop_
_atom_site_type_symbol
_atom_site_label
_atom_site_fract_x
_atom_site_fract_y
_atom_site_fract_z
Si Si1 0.775352 0.843494 0.979121
Si Si2 0.000000 0.546791 0.250000
Si Si3 0.511643 0.084495 0.597189
Si Si4 0.000000 0.913148 0.250000
Si Si5 0.837441 0.081677 0.170668
Si Si6 0.344774 0.545746 0.847408
O O1 0.636395 0.843400 0.675300
O O2 0.750000 0.750000 0.000000
O O3 0.929659 0.834359 0.195890
O O4 0.798327 0.960861 0.064096
O O5 0.000501 0.475681 0.166061
O O6 0.174017 0.596924 0.549840
O O7 0.500000 0.000000 0.500000
O O8 0.676985 0.142289 0.877381
O O9 0.120742 0.993724 0.503448
O O10 0.848745 0.054462 0.287176
O O11 0.001225 0.112028 0.414155
#
# Coordination Sequence:
#
# PCOD9254269 Si02
#       6
#     8   4   8   4   8   8
#     4  10  19  33  53  78 114 148 189 236 295 354
#     4  10  16  28  53  81 104 142 184 228 284 340
#     4   9  17  31  50  81 108 142 191 236 279 336
#     4  10  18  32  55  77 100 148 192 226 290 348
#     4   8  17  31  52  77 109 134 182 234 288 328
#     4   9  16  29  52  81 101 135 184 236 267 336
#
# _framework density 23.205766000000001
#
# number of rings (size 3 to 8) (size 9 to 14) (size 15 to 20)
#    0.000    2.800    2.000    0.000    0.000    0.000 
#    0.000    9.000    0.000   31.200    0.000    0.000 
#    0.000    0.000    0.000    0.000    0.000    0.000 
#
# Total GULP energy -111401.516987 kJ/mol
# GULP energy per Si atom -5570.075849 kJ/mol
# Density = 2.315295 g / cm^3
# Si number density = 23.205766 Si / 1000 Ang^3
#
#
#
# Elastic Constant Matrix: (Units=GPa)
#
#
# Indices 1 2 3 4 5 6 
#
# 1 113.9043 8.8985 25.9398 0.0000 -7.4037 0.0000
# 2 8.8985 31.1701 11.4750 0.0000 -1.9825 0.0000
# 3 25.9398 11.4750 195.6427 0.0000 11.8431 0.0000
# 4 0.0000 0.0000 0.0000 19.3936 0.0000 3.3723
# 5 -7.4037 -1.9825 11.8431 0.0000 50.3330 0.0000
# 6 0.0000 0.0000 0.0000 3.3723 0.0000 17.0757
#
#
#
# Elastic Compliance Matrix: (Units=1/GPa)
#
#
# Indices 1 2 3 4 5 6 
#
# 1 0.009322 -0.002117 -0.001207 0.000000 0.001572 0.000000
# 2 -0.002117 0.033427 -0.001766 0.000000 0.001421 0.000000
# 3 -0.001207 -0.001766 0.005468 0.000000 -0.001534 0.000000
# 4 0.000000 0.000000 0.000000 0.053397 0.000000 -0.010545
# 5 0.001572 0.001421 -0.001534 0.000000 0.020516 0.000000
# 6 0.000000 0.000000 0.000000 -0.010545 0.000000 0.060645
#
#
# Mechanical properties :
#
#
# Convention : Reuss Voigt Hill
#
# Bulk Modulus (GPa) = 26.29031 48.14931 37.21981
# Shear Modulus (GPa) = 24.31517 36.98737 30.65127
#
# Velocity S-wave (km/s) = 3.24050 3.99668 3.63829
# Velocity P-wave (km/s) = 5.03537 6.48782 5.80718
#
# Compressibility (1/GPa) = 0.03803682
#
# Stress axis : x y z
#
# Youngs Moduli (GPa) = 107.27663 29.91612 182.88911
#
# Poissons Ratio (x) = 0.06333 0.22073
# Poissons Ratio (y) = 0.22709 0.32297
# Poissons Ratio (z) = 0.12947 0.05283
#
# Static dielectric constant tensor:
#      x y z
#    x 1.883760 0.000000 0.045440 
#    y 0.000000 1.998490 0.000000 
#    z 0.045440 0.000000 1.966090 
# 
# From -- ./inp_files/135639.got.cif
#   From: 2010.05.17/outbox.cif.g08.bks.cpg/sg15_68_cif.got.tgz:135639.got - 2010.06.03 18:47:42.
