data_PCOD9254721
_publ_section_title
;
Structure prediction by ZEFSAII (Michael W. Deem and Ramdas Pophale) SiO2 
 PCOD9254721
Probable space group: C 2/C
;
_chemical_formula_sum "Si O2"
_cell_formula_units_Z 56
_cell_length_a 7.447294
_cell_length_b 14.730845
_cell_length_c 20.120344
_cell_angle_alpha 90.000000
_cell_angle_beta 103.147067
_cell_angle_gamma 90.000000
_cell_volume 2149.446430
_symmetry_space_group_name_H-M "C 2/C"
_symmetry_group_IT_number 15
_symmetry_cell_setting 'monoclinic'
loop_
_space_group_symop_operation_xyz
x,y,z
-x,y,1/2-z
-x,-y,-z
x,-y,1/2+z
1/2+x,1/2+y,z
1/2-x,1/2+y,1/2-z
1/2-x,1/2-y,-z
1/2+x,1/2-y,1/2+z
loop_
_atom_site_type_symbol
_atom_site_label
_atom_site_fract_x
_atom_site_fract_y
_atom_site_fract_z
Si Si1 0.000000 0.466975 0.250000
Si Si2 0.576551 0.587746 0.898030
Si Si3 0.692419 0.891093 0.956137
Si Si4 0.263129 0.365414 0.758402
Si Si5 0.851576 0.586953 0.596864
Si Si6 0.250000 0.250000 0.500000
Si Si7 0.507014 0.229224 0.345716
Si Si8 0.549046 0.384652 0.888405
O O1 0.824380 0.532800 0.253144
O O2 0.942866 0.413368 0.178187
O O3 0.372470 0.588446 0.913782
O O4 0.552413 0.665774 0.842116
O O5 0.618693 0.486402 0.881277
O O6 0.730843 0.614982 0.963746
O O7 0.565750 0.807070 0.923016
O O8 0.876567 0.889036 0.925680
O O9 0.603246 0.989090 0.932057
O O10 0.137929 0.324213 0.807394
O O11 0.460149 0.360166 0.810082
O O12 0.195235 0.303866 0.691263
O O13 0.879481 0.674759 0.554243
O O14 0.306541 0.327529 0.558449
#
# Coordination Sequence:
#
# PCOD9254721 Si02
#       8
#     4   8   8   8   8   4   8   8
#     4  10  16  34  60  78 100 136 192 230 260 312
#     4  11  18  31  54  82 106 139 175 226 273 320
#     4  10  16  34  54  79 100 140 182 222 262 318
#     4   9  17  36  55  81 104 138 183 236 262 326
#     4  11  20  33  57  81 109 142 184 228 271 318
#     4  12  22  34  52  84 116 148 180 224 282 328
#     4   9  18  29  57  83 104 130 183 229 272 309
#     4  10  19  33  55  74 106 142 184 223 265 317
#
# _framework density 26.053218999999999
#
# number of rings (size 3 to 8) (size 9 to 14) (size 15 to 20)
#    0.000    2.000    8.571    1.286    0.000    1.143 
#    0.000    0.000    0.000   12.857    0.000    0.000 
#    0.000    0.000    0.000    0.000    0.000    0.000 
#
# Total GULP energy -156080.719654 kJ/mol
# GULP energy per Si atom -5574.311416 kJ/mol
# Density = 2.599392 g / cm^3
# Si number density = 26.053219 Si / 1000 Ang^3
#
#
#
# Elastic Constant Matrix: (Units=GPa)
#
#
# Indices 1 2 3 4 5 6 
#
# 1 57.0489 21.7857 40.1700 0.0000 16.7248 0.0000
# 2 21.7857 143.3207 81.2179 0.0000 24.7568 0.0000
# 3 40.1700 81.2179 240.9801 0.0000 52.7464 0.0000
# 4 0.0000 0.0000 0.0000 74.4359 0.0000 9.3624
# 5 16.7248 24.7568 52.7464 0.0000 39.6143 0.0000
# 6 0.0000 0.0000 0.0000 9.3624 0.0000 -14.7691
#
#
#
# Elastic Compliance Matrix: (Units=1/GPa)
#
#
# Indices 1 2 3 4 5 6 
#
# 1 0.020935 -0.001150 -0.001870 0.000000 -0.005630 0.000000
# 2 -0.001150 0.008819 -0.002372 0.000000 -0.001868 0.000000
# 3 -0.001870 -0.002372 0.006723 0.000000 -0.006680 0.000000
# 4 0.000000 0.000000 0.000000 0.012442 0.000000 0.007887
# 5 -0.005630 -0.001868 -0.006680 0.000000 0.037682 0.000000
# 6 0.000000 0.000000 0.000000 0.007887 0.000000 -0.062709
#
#
# Mechanical properties :
#
#
# Convention : Reuss Voigt Hill
#
# Bulk Modulus (GPa) = 38.92003 80.85521 59.88762
# Shear Modulus (GPa) = 115.63345 39.73462 77.68403
#
# Velocity S-wave (km/s) = 6.66933 3.90953 5.46646
# Velocity P-wave (km/s) = 8.61845 7.17504 7.92966
#
# Compressibility (1/GPa) = 0.02569371
#
# Stress axis : x y z
#
# Youngs Moduli (GPa) = 47.76642 113.39378 148.74673
#
# Poissons Ratio (x) = 0.13042 0.27812
# Poissons Ratio (y) = 0.05494 0.35278
# Poissons Ratio (z) = 0.08931 0.26893
#
# Static dielectric constant tensor:
#      x y z
#    x 2.311660 0.000000 -0.059620 
#    y 0.000000 2.034650 0.000000 
#    z -0.059620 0.000000 2.107840 
# 
# From -- ./inp_files/292085.got.cif
#   From: 2010.05.17/outbox.cif.g08.bks.cpg/sg15_147_cif.got.tgz:292085.got - 2010.06.03 18:47:42.
