data_PCOD9254700
_publ_section_title
;
Structure prediction by ZEFSAII (Michael W. Deem and Ramdas Pophale) SiO2 
 PCOD9254700
Probable space group: C 2/C
;
_chemical_formula_sum "Si O2"
_cell_formula_units_Z 48
_cell_length_a 10.734983
_cell_length_b 14.384800
_cell_length_c 18.570502
_cell_angle_alpha 90.000000
_cell_angle_beta 138.199211
_cell_angle_gamma 90.000000
_cell_volume 1911.423110
_symmetry_space_group_name_H-M "C 2/C"
_symmetry_group_IT_number 15
_symmetry_cell_setting 'monoclinic'
loop_
_space_group_symop_operation_xyz
x,y,z
-x,y,1/2-z
-x,-y,-z
x,-y,1/2+z
1/2+x,1/2+y,z
1/2-x,1/2+y,1/2-z
1/2-x,1/2-y,-z
1/2+x,1/2-y,1/2+z
loop_
_atom_site_type_symbol
_atom_site_label
_atom_site_fract_x
_atom_site_fract_y
_atom_site_fract_z
Si Si1 0.975066 0.208446 0.406418
Si Si2 0.171760 0.013939 0.131490
Si Si3 0.041126 0.267797 0.939225
Si Si4 0.122850 0.629317 0.880607
Si Si5 0.435884 0.963355 0.547753
Si Si6 0.008508 0.903374 0.337397
O O1 0.997283 0.277200 0.345636
O O2 0.176922 0.157700 0.498086
O O3 0.965502 0.266855 0.477058
O O4 0.820575 0.127069 0.357908
O O5 0.312306 0.932563 0.162104
O O6 0.116758 0.986726 0.188722
O O7 0.000000 0.000000 0.000000
O O8 0.941770 0.183547 0.856591
O O9 0.250000 0.250000 0.000000
O O10 0.970178 0.368359 0.886750
O O11 0.034603 0.547402 0.887581
O O12 0.217839 0.935096 0.448019
O O13 0.500000 0.000000 0.500000
O O14 0.000000 0.882583 0.250000
#
# Coordination Sequence:
#
# PCOD9254700 Si02
#       6
#     8   8   8   8   8   8
#     4  10  17  30  56  87 113 147 204 262 295 350
#     4  10  16  33  58  85 109 156 216 249 287 388
#     4  10  19  33  58  87 112 158 205 249 298 375
#     4  10  18  30  56  90 111 149 209 261 295 350
#     4  11  20  35  62  90 118 150 208 255 301 371
#     4  11  22  38  60  88 124 160 203 263 318 366
#
# _framework density 25.112179000000001
#
# number of rings (size 3 to 8) (size 9 to 14) (size 15 to 20)
#    0.000    1.667    8.333    1.000    0.000    0.000 
#    0.000    0.000   11.000    0.000    0.000    0.000 
#    0.000    0.000    0.000    0.000    0.000    0.000 
#
# Total GULP energy -133616.785187 kJ/mol
# GULP energy per Si atom -5567.366049 kJ/mol
# Density = 2.505502 g / cm^3
# Si number density = 25.112179 Si / 1000 Ang^3
#
#
#
# Elastic Constant Matrix: (Units=GPa)
#
#
# Indices 1 2 3 4 5 6 
#
# 1 118.1237 49.1423 32.4784 0.0000 -26.6964 0.0000
# 2 49.1423 186.9873 17.7031 0.0000 -6.5248 0.0000
# 3 32.4784 17.7031 78.4269 0.0000 2.9091 0.0000
# 4 0.0000 0.0000 0.0000 -5.9414 0.0000 -20.6855
# 5 -26.6964 -6.5248 2.9091 0.0000 35.2525 0.0000
# 6 0.0000 0.0000 0.0000 -20.6855 0.0000 55.3772
#
#
#
# Elastic Compliance Matrix: (Units=1/GPa)
#
#
# Indices 1 2 3 4 5 6 
#
# 1 0.013273 -0.002640 -0.005272 0.000000 0.009998 0.000000
# 2 -0.002640 0.006034 -0.000237 0.000000 -0.000863 0.000000
# 3 -0.005272 -0.000237 0.015183 0.000000 -0.005289 0.000000
# 4 0.000000 0.000000 0.000000 -0.073162 0.000000 -0.027329
# 5 0.009998 -0.000863 -0.005289 0.000000 0.036215 0.000000
# 6 0.000000 0.000000 0.000000 -0.027329 0.000000 0.007850
#
#
# Mechanical properties :
#
#
# Convention : Reuss Voigt Hill
#
# Bulk Modulus (GPa) = 54.96438 64.68725 59.82582
# Shear Modulus (GPa) = 180.15154 35.88528 108.01841
#
# Velocity S-wave (km/s) = 8.47906 3.78431 6.56565
# Velocity P-wave (km/s) = 10.85331 6.70149 9.01954
#
# Compressibility (1/GPa) = 0.01819360
#
# Stress axis : x y z
#
# Youngs Moduli (GPa) = 75.33998 165.72321 65.86145
#
# Poissons Ratio (x) = 0.43757 0.34719
# Poissons Ratio (y) = 0.19893 0.01558
# Poissons Ratio (z) = 0.39716 0.03921
#
# Static dielectric constant tensor:
#      x y z
#    x 2.001350 0.000000 0.021940 
#    y 0.000000 2.079940 0.000000 
#    z 0.021940 0.000000 2.091970 
# 
# From -- ./inp_files/238114.got.cif
#   From: 2010.05.17/outbox.cif.g08.bks.cpg/sg15_120_cif.got.tgz:238114.got - 2010.06.03 18:47:42.
