data_PCOD9254843
_publ_section_title
;
Structure prediction by ZEFSAII (Michael W. Deem and Ramdas Pophale) SiO2 
 PCOD9254843
Probable space group: C 2/C
;
_chemical_formula_sum "Si O2"
_cell_formula_units_Z 60
_cell_length_a 20.265448
_cell_length_b 8.551993
_cell_length_c 25.348974
_cell_angle_alpha 90.000000
_cell_angle_beta 39.311296
_cell_angle_gamma 90.000000
_cell_volume 2783.257990
_symmetry_space_group_name_H-M "C 2/C"
_symmetry_group_IT_number 15
_symmetry_cell_setting 'monoclinic'
loop_
_space_group_symop_operation_xyz
x,y,z
-x,y,1/2-z
-x,-y,-z
x,-y,1/2+z
1/2+x,1/2+y,z
1/2-x,1/2+y,1/2-z
1/2-x,1/2-y,-z
1/2+x,1/2-y,1/2+z
loop_
_atom_site_type_symbol
_atom_site_label
_atom_site_fract_x
_atom_site_fract_y
_atom_site_fract_z
Si Si1 0.252939 0.907328 0.749143
Si Si2 0.038483 0.118009 0.021466
Si Si3 0.619265 0.940235 0.576852
Si Si4 0.527660 0.054178 0.923788
Si Si5 0.796011 0.657610 0.332849
Si Si6 0.736161 0.661972 0.834597
Si Si7 0.000000 0.616702 0.250000
Si Si8 0.659839 0.602986 0.516448
O O1 0.266869 0.795916 0.792077
O O2 0.214038 0.812253 0.722918
O O3 0.368049 0.969844 0.661585
O O4 0.193527 0.053986 0.812001
O O5 0.961485 0.258352 0.081559
O O6 0.076417 0.021803 0.048568
O O7 0.142074 0.196852 0.931858
O O8 0.000000 0.000000 0.000000
O O9 0.552153 0.979116 0.670081
O O10 0.614058 0.751347 0.574562
O O11 0.741555 0.969106 0.513114
O O12 0.565781 0.013166 0.558826
O O13 0.500000 0.000000 0.000000
O O14 0.807431 0.467159 0.318948
O O15 0.709399 0.674414 0.431188
O O16 0.905708 0.717432 0.284503
#
# Coordination Sequence:
#
# PCOD9254843 Si02
#       8
#     8   8   8   8   8   8   4   8
#     4  10  20  36  57  85 114 154 194 236 304 348
#     4  11  23  37  57  85 125 158 194 254 299 349
#     4  10  20  37  63  87 118 160 202 245 292 360
#     4  12  23  36  60  92 119 152 205 249 296 360
#     4   8  18  32  58  80 111 151 195 231 293 343
#     4   9  20  36  52  83 114 153 190 237 295 352
#     4  10  16  36  60  86 114 154 196 242 284 358
#     4   9  20  38  58  85 118 160 200 237 302 354
#
# _framework density 21.557469000000001
#
# number of rings (size 3 to 8) (size 9 to 14) (size 15 to 20)
#    0.800    1.333    2.667    0.800    1.867    1.600 
#    0.000    0.000    0.000    0.800    0.000    0.000 
#    0.000    0.000    0.000    0.000    0.000    0.000 
#
# Total GULP energy -167154.195217 kJ/mol
# GULP energy per Si atom -5571.806507 kJ/mol
# Density = 2.150840 g / cm^3
# Si number density = 21.557469 Si / 1000 Ang^3
#
#
#
# Elastic Constant Matrix: (Units=GPa)
#
#
# Indices 1 2 3 4 5 6 
#
# 1 118.9705 34.6565 32.8414 0.0000 10.1675 0.0001
# 2 34.6565 55.2666 6.9714 0.0001 -2.8644 0.0007
# 3 32.8414 6.9714 78.9597 0.0000 6.5036 0.0000
# 4 0.0000 0.0001 0.0000 22.2201 0.0000 6.2337
# 5 10.1675 -2.8644 6.5036 0.0000 26.2053 -0.0001
# 6 0.0001 0.0007 0.0000 6.2337 -0.0001 33.0918
#
#
#
# Elastic Compliance Matrix: (Units=1/GPa)
#
#
# Indices 1 2 3 4 5 6 
#
# 1 0.011999 -0.007253 -0.003983 0.000000 -0.004460 0.000000
# 2 -0.007253 0.022838 0.000575 0.000000 0.005168 0.000000
# 3 -0.003983 0.000575 0.014433 0.000000 -0.001974 0.000000
# 4 0.000000 0.000000 0.000000 0.047515 0.000000 -0.008951
# 5 -0.004460 0.005168 -0.001974 0.000000 0.040945 0.000000
# 6 0.000000 0.000000 0.000000 -0.008951 0.000000 0.031905
#
#
# Mechanical properties :
#
#
# Convention : Reuss Voigt Hill
#
# Bulk Modulus (GPa) = 35.78172 44.68170 40.23171
# Shear Modulus (GPa) = 24.96584 28.21860 26.59222
#
# Velocity S-wave (km/s) = 3.40679 3.62193 3.51600
# Velocity P-wave (km/s) = 5.66650 6.18570 5.93179
#
# Compressibility (1/GPa) = 0.02794723
#
# Stress axis : x y z
#
# Youngs Moduli (GPa) = 83.34109 43.78737 69.28506
#
# Poissons Ratio (x) = 0.31759 0.27596
# Poissons Ratio (y) = 0.60447 -0.03982
# Poissons Ratio (z) = 0.33194 -0.02516
#
# Static dielectric constant tensor:
#      x y z
#    x 1.794030 0.000000 -0.010510 
#    y 0.000000 1.791000 0.000000 
#    z -0.010510 0.000000 1.822350 
# 
# From -- ./inp_files/300519.got.cif
#   From: 2010.05.17/outbox.cif.g08.bks.cpg/sg15_151_cif.got.tgz:300519.got - 2010.06.03 18:47:42.
