data_PCOD9254180
_publ_section_title
;
Structure prediction by ZEFSAII (Michael W. Deem and Ramdas Pophale) SiO2 
 PCOD9254180
Probable space group: C 2/C
;
_chemical_formula_sum "Si O2"
_cell_formula_units_Z 56
_cell_length_a 7.769365
_cell_length_b 15.983287
_cell_length_c 26.024269
_cell_angle_alpha 90.000000
_cell_angle_beta 44.883722
_cell_angle_gamma 90.000000
_cell_volume 2280.510106
_symmetry_space_group_name_H-M "C 2/C"
_symmetry_group_IT_number 15
_symmetry_cell_setting 'monoclinic'
loop_
_space_group_symop_operation_xyz
x,y,z
-x,y,1/2-z
-x,-y,-z
x,-y,1/2+z
1/2+x,1/2+y,z
1/2-x,1/2+y,1/2-z
1/2-x,1/2-y,-z
1/2+x,1/2-y,1/2+z
loop_
_atom_site_type_symbol
_atom_site_label
_atom_site_fract_x
_atom_site_fract_y
_atom_site_fract_z
Si Si1 0.321950 0.465750 0.163043
Si Si2 0.718954 0.922656 0.294171
Si Si3 0.892743 0.449674 0.071364
Si Si4 0.953690 0.268066 0.026189
Si Si5 0.693618 0.349754 0.858212
Si Si6 0.236244 0.729803 0.253987
Si Si7 0.882637 0.785128 0.113751
O O1 0.177623 0.465408 0.247859
O O2 0.604183 0.456245 0.121475
O O3 0.295723 0.551451 0.138275
O O4 0.290475 0.380670 0.137172
O O5 0.576517 0.961451 0.373317
O O6 0.718278 0.822152 0.280886
O O7 0.000000 0.936824 0.250000
O O8 0.994126 0.356618 0.043247
O O9 0.000000 0.500000 0.000000
O O10 0.965513 0.194578 0.065001
O O11 0.670373 0.277651 0.067223
O O12 0.122971 0.249886 0.941961
O O13 0.621825 0.332278 0.814019
O O14 0.955859 0.303710 0.809071
O O15 0.258125 0.738088 0.310790
#
# Coordination Sequence:
#
# PCOD9254180 Si02
#       7
#     8   8   8   8   8   8   8
#     4   9  19  29  47  77 101 123 168 218 256 299
#     4   9  14  31  51  68  91 131 174 214 249 293
#     4  10  19  32  51  72  99 130 172 216 261 299
#     4   9  16  29  48  66  96 132 162 200 249 304
#     4  10  16  27  48  77  95 126 166 213 257 301
#     4   9  15  28  51  71  93 131 172 209 248 308
#     4   8  16  29  46  71  95 125 168 202 238 296
#
# _framework density 24.555910000000001
#
# number of rings (size 3 to 8) (size 9 to 14) (size 15 to 20)
#    0.000    2.857    2.857    1.714    0.000    1.714 
#    0.000    2.143    0.000    0.000    7.429    0.000 
#    0.000    0.000    0.000    0.000    0.000    0.000 
#
# Total GULP energy -156295.667925 kJ/mol
# GULP energy per Si atom -5581.988140 kJ/mol
# Density = 2.450002 g / cm^3
# Si number density = 24.555910 Si / 1000 Ang^3
#
#
#
# Elastic Constant Matrix: (Units=GPa)
#
#
# Indices 1 2 3 4 5 6 
#
# 1 74.6100 35.5841 46.9574 -0.0007 5.3585 0.0004
# 2 35.5841 119.1901 55.3959 0.0015 13.7732 -0.0018
# 3 46.9574 55.3959 202.2246 0.0027 30.8167 -0.0016
# 4 -0.0007 0.0015 0.0027 41.0138 0.0000 5.3084
# 5 5.3585 13.7732 30.8167 0.0000 38.5604 0.0002
# 6 0.0004 -0.0018 -0.0016 5.3084 0.0002 12.1560
#
#
#
# Elastic Compliance Matrix: (Units=1/GPa)
#
#
# Indices 1 2 3 4 5 6 
#
# 1 0.017099 -0.003812 -0.003156 0.000001 0.001508 -0.000002
# 2 -0.003812 0.010542 -0.001719 -0.000001 -0.001862 0.000002
# 3 -0.003156 -0.001719 0.006819 -0.000001 -0.004397 0.000001
# 4 0.000001 -0.000001 -0.000001 0.025843 0.000001 -0.011285
# 5 0.001508 -0.001862 -0.004397 0.000001 0.029903 -0.000002
# 6 -0.000002 0.000002 0.000001 -0.011285 -0.000002 0.087192
#
#
# Mechanical properties :
#
#
# Convention : Reuss Voigt Hill
#
# Bulk Modulus (GPa) = 58.52821 74.65552 66.59186
# Shear Modulus (GPa) = 24.94177 35.55187 30.24682
#
# Velocity S-wave (km/s) = 3.19048 3.80912 3.51344
# Velocity P-wave (km/s) = 6.12035 7.05791 6.60578
#
# Compressibility (1/GPa) = 0.01708578
#
# Stress axis : x y z
#
# Youngs Moduli (GPa) = 58.48206 94.85703 146.65558
#
# Poissons Ratio (x) = 0.36163 0.46284
# Poissons Ratio (y) = 0.22296 0.25208
# Poissons Ratio (z) = 0.18457 0.16304
#
# Static dielectric constant tensor:
#      x y z
#    x 2.079400 0.000000 -0.054240 
#    y 0.000000 1.894760 0.000000 
#    z -0.054240 0.000000 1.988700 
# 
# From -- ./inp_files/311049.got.cif
#   From: 2010.05.17/outbox.cif.g08.bks.cpg/sg15_156_cif.got.tgz:311049.got - 2010.06.03 18:47:42.
