data_PCOD9254767
_publ_section_title
;
Structure prediction by ZEFSAII (Michael W. Deem and Ramdas Pophale) SiO2 
 PCOD9254767
Probable space group: C 2/C
;
_chemical_formula_sum "Si O2"
_cell_formula_units_Z 48
_cell_length_a 21.584309
_cell_length_b 8.584570
_cell_length_c 12.497180
_cell_angle_alpha 90.000000
_cell_angle_beta 118.560126
_cell_angle_gamma 90.000000
_cell_volume 2033.852558
_symmetry_space_group_name_H-M "C 2/C"
_symmetry_group_IT_number 15
_symmetry_cell_setting 'monoclinic'
loop_
_space_group_symop_operation_xyz
x,y,z
-x,y,1/2-z
-x,-y,-z
x,-y,1/2+z
1/2+x,1/2+y,z
1/2-x,1/2+y,1/2-z
1/2-x,1/2-y,-z
1/2+x,1/2-y,1/2+z
loop_
_atom_site_type_symbol
_atom_site_label
_atom_site_fract_x
_atom_site_fract_y
_atom_site_fract_z
Si Si1 0.000487 0.160770 0.067492
Si Si2 0.386419 0.648897 0.144954
Si Si3 0.897256 0.634938 0.971750
Si Si4 0.084229 0.186518 0.805118
Si Si5 0.289316 0.155609 0.706310
Si Si6 0.842251 0.662150 0.328123
O O1 0.056738 0.154143 0.211104
O O2 0.031120 0.298132 0.019658
O O3 0.927136 0.179941 0.068622
O O4 0.000000 0.000000 0.000000
O O5 0.369399 0.465383 0.128650
O O6 0.325878 0.765684 0.133534
O O7 0.834689 0.710650 0.848594
O O8 0.884074 0.455050 0.939625
O O9 0.897287 0.681192 0.094215
O O10 0.106176 0.243733 0.706832
O O11 0.000000 0.154164 0.750000
O O12 0.211976 0.222359 0.659840
O O13 0.298888 0.968844 0.721370
#
# Coordination Sequence:
#
# PCOD9254767 Si02
#       6
#     8   8   8   8   8   8
#     4  10  16  34  60  94 123 155 205 247 308 371
#     4  10  19  33  63  91 121 160 204 251 303 376
#     4   9  22  39  64  94 121 168 206 253 321 364
#     4  12  22  38  64  96 126 161 208 256 318 377
#     4   9  21  43  61  86 125 166 211 256 310 361
#     4  10  23  41  63  85 129 166 209 263 307 368
#
# _framework density 23.600529999999999
#
# number of rings (size 3 to 8) (size 9 to 14) (size 15 to 20)
#    1.000    1.000    3.333    1.000    0.000    2.667 
#    0.000    2.500    0.000    0.000    0.000    0.000 
#    0.000    0.000    0.000    0.000    0.000    0.000 
#
# Total GULP energy -134081.197291 kJ/mol
# GULP energy per Si atom -5586.716554 kJ/mol
# Density = 2.354681 g / cm^3
# Si number density = 23.600530 Si / 1000 Ang^3
#
#
#
# Elastic Constant Matrix: (Units=GPa)
#
#
# Indices 1 2 3 4 5 6 
#
# 1 122.9417 34.2560 25.9971 0.0000 -13.7018 0.0000
# 2 34.2560 107.3980 -1.2750 0.0000 -6.0070 0.0000
# 3 25.9971 -1.2750 61.9411 0.0000 -11.3310 0.0000
# 4 0.0000 0.0000 0.0000 40.3001 0.0000 -0.8989
# 5 -13.7018 -6.0070 -11.3310 0.0000 37.1180 0.0000
# 6 0.0000 0.0000 0.0000 -0.8989 0.0000 40.0701
#
#
#
# Elastic Compliance Matrix: (Units=1/GPa)
#
#
# Indices 1 2 3 4 5 6 
#
# 1 0.010063 -0.003144 -0.003921 0.000000 0.002009 0.000000
# 2 -0.003144 0.010393 0.001725 0.000000 0.001048 0.000000
# 3 -0.003921 0.001725 0.018653 0.000000 0.004526 0.000000
# 4 0.000000 0.000000 0.000000 0.024826 0.000000 0.000557
# 5 0.002009 0.001048 0.004526 0.000000 0.029234 0.000000
# 6 0.000000 0.000000 0.000000 0.000557 0.000000 0.024969
#
#
# Mechanical properties :
#
#
# Convention : Reuss Voigt Hill
#
# Bulk Modulus (GPa) = 35.17341 45.58191 40.37766
# Shear Modulus (GPa) = 36.15485 39.05115 37.60300
#
# Velocity S-wave (km/s) = 3.91826 4.07218 3.99596
# Velocity P-wave (km/s) = 5.95032 6.43941 6.19969
#
# Compressibility (1/GPa) = 0.02843056
#
# Stress axis : x y z
#
# Youngs Moduli (GPa) = 99.37495 96.21824 53.60953
#
# Poissons Ratio (x) = 0.30250 0.21019
# Poissons Ratio (y) = 0.31242 -0.09249
# Poissons Ratio (z) = 0.38962 -0.16599
#
# Static dielectric constant tensor:
#      x y z
#    x 1.868010 0.000000 0.052400 
#    y 0.000000 1.886490 0.000000 
#    z 0.052400 0.000000 1.941240 
# 
# From -- ./inp_files/116473.got.cif
#   From: 2010.05.17/outbox.cif.g08.bks.cpg/sg15_59_cif.got.tgz:116473.got - 2010.06.03 18:47:42.
