data_PCOD9254291
_publ_section_title
;
Structure prediction by ZEFSAII (Michael W. Deem and Ramdas Pophale) SiO2 
 PCOD9254291
Probable space group: C 2/C
;
_chemical_formula_sum "Si O2"
_cell_formula_units_Z 32
_cell_length_a 12.009940
_cell_length_b 30.719251
_cell_length_c 13.864466
_cell_angle_alpha 90.000000
_cell_angle_beta 21.917143
_cell_angle_gamma 90.000000
_cell_volume 1909.291830
_symmetry_space_group_name_H-M "C 2/C"
_symmetry_group_IT_number 15
_symmetry_cell_setting 'monoclinic'
loop_
_space_group_symop_operation_xyz
x,y,z
-x,y,1/2-z
-x,-y,-z
x,-y,1/2+z
1/2+x,1/2+y,z
1/2-x,1/2+y,1/2-z
1/2-x,1/2-y,-z
1/2+x,1/2-y,1/2+z
loop_
_atom_site_type_symbol
_atom_site_label
_atom_site_fract_x
_atom_site_fract_y
_atom_site_fract_z
Si Si1 0.653760 0.868172 0.021809
Si Si2 0.099480 0.268922 0.022129
Si Si3 0.587654 0.964735 0.791111
Si Si4 0.746075 0.058410 0.753558
O O1 0.500000 0.863261 0.250000
O O2 0.654202 0.820150 0.974857
O O3 0.450241 0.902166 0.128547
O O4 0.000000 0.882731 0.750000
O O5 0.757592 0.256400 0.309228
O O6 0.250000 0.250000 0.000000
O O7 0.500000 0.964065 0.750000
O O8 0.900252 0.938664 0.548874
O O9 0.648406 0.014386 0.776052
O O10 0.339596 0.947678 0.065189
#
# Coordination Sequence:
#
# PCOD9254291 Si02
#       4
#     8   8   8   8
#     4  12  20  30  49  73 109 138 163 205 240 301
#     4  10  16  29  43  66  99 144 156 180 249 310
#     4  10  20  38  53  67 102 133 163 216 261 282
#     4  10  22  33  51  79  94 128 182 202 241 315
#
# _framework density 16.760141000000001
#
# number of rings (size 3 to 8) (size 9 to 14) (size 15 to 20)
#    0.000    1.500    5.000    3.000    0.000    4.000 
#    0.000    0.000    0.000    0.000    0.000    0.000 
#    0.000   20.000    0.000    0.000    0.000    0.000 
#
# Total GULP energy -89200.812998 kJ/mol
# GULP energy per Si atom -5575.050812 kJ/mol
# Density = 1.672199 g / cm^3
# Si number density = 16.760141 Si / 1000 Ang^3
#
#
#
# Elastic Constant Matrix: (Units=GPa)
#
#
# Indices 1 2 3 4 5 6 
#
# 1 52.0029 21.3827 9.7916 0.0002 0.3085 0.0001
# 2 21.3827 74.1981 18.5740 0.0004 -11.7577 0.0003
# 3 9.7916 18.5740 99.3853 0.0000 8.3098 0.0004
# 4 0.0002 0.0004 0.0000 28.7277 0.0000 -4.9450
# 5 0.3085 -11.7577 8.3098 0.0000 18.6098 -0.0003
# 6 0.0001 0.0003 0.0004 -4.9450 -0.0003 6.5362
#
#
#
# Elastic Compliance Matrix: (Units=1/GPa)
#
#
# Indices 1 2 3 4 5 6 
#
# 1 0.022232 -0.007007 -0.000499 0.000000 -0.004573 0.000000
# 2 -0.007007 0.018646 -0.003936 0.000000 0.013654 0.000000
# 3 -0.000499 -0.003936 0.011482 0.000000 -0.007606 -0.000001
# 4 0.000000 0.000000 0.000000 0.040022 0.000000 0.030279
# 5 -0.004573 0.013654 -0.007606 0.000000 0.065833 0.000003
# 6 0.000000 0.000000 -0.000001 0.030279 0.000003 0.175901
#
#
# Mechanical properties :
#
#
# Convention : Reuss Voigt Hill
#
# Bulk Modulus (GPa) = 33.92417 36.12033 35.02225
# Shear Modulus (GPa) = 13.63051 22.49730 18.06390
#
# Velocity S-wave (km/s) = 2.85488 3.66773 3.28653
# Velocity P-wave (km/s) = 5.58140 6.28764 5.94502
#
# Compressibility (1/GPa) = 0.02947751
#
# Stress axis : x y z
#
# Youngs Moduli (GPa) = 44.98085 53.63212 87.08925
#
# Poissons Ratio (x) = 0.37578 0.04342
# Poissons Ratio (y) = 0.31516 0.34278
# Poissons Ratio (z) = 0.02242 0.21109
#
# Static dielectric constant tensor:
#      x y z
#    x 1.539300 0.000000 0.052770 
#    y 0.000000 1.551190 0.000000 
#    z 0.052770 0.000000 1.592980 
# 
# From -- ./inp_files/2561.got.cif
#   From: 2010.05.17/outbox.cif.g08.bks.cpg/sg15_2_cif.got.tgz:2561.got - 2010.06.03 18:47:42.
