data_PCOD9254147
_publ_section_title
;
Structure prediction by ZEFSAII (Michael W. Deem and Ramdas Pophale) SiO2 
 PCOD9254147
Probable space group: C 2/C
;
_chemical_formula_sum "Si O2"
_cell_formula_units_Z 60
_cell_length_a 12.757254
_cell_length_b 20.868446
_cell_length_c 14.298879
_cell_angle_alpha 90.000000
_cell_angle_beta 89.423235
_cell_angle_gamma 90.000000
_cell_volume 3806.512838
_symmetry_space_group_name_H-M "C 2/C"
_symmetry_group_IT_number 15
_symmetry_cell_setting 'monoclinic'
loop_
_space_group_symop_operation_xyz
x,y,z
-x,y,1/2-z
-x,-y,-z
x,-y,1/2+z
1/2+x,1/2+y,z
1/2-x,1/2+y,1/2-z
1/2-x,1/2-y,-z
1/2+x,1/2-y,1/2+z
loop_
_atom_site_type_symbol
_atom_site_label
_atom_site_fract_x
_atom_site_fract_y
_atom_site_fract_z
Si Si1 0.160823 0.731684 0.755338
Si Si2 0.618719 0.706668 0.457673
Si Si3 0.500000 0.883215 0.250000
Si Si4 0.610465 0.702927 0.067640
Si Si5 0.500621 0.929474 0.042376
Si Si6 0.881360 0.287908 0.740636
Si Si7 0.835502 0.663987 0.036474
Si Si8 0.159431 0.336352 0.561610
O O1 0.133389 0.757335 0.858181
O O2 0.117893 0.780799 0.677496
O O3 0.287207 0.735490 0.743146
O O4 0.100680 0.664748 0.742318
O O5 0.503095 0.677843 0.459423
O O6 0.717663 0.659931 0.464937
O O7 0.627167 0.763795 0.532543
O O8 0.490984 0.923327 0.154564
O O9 0.709955 0.661318 0.037354
O O10 0.628383 0.772141 0.018894
O O11 0.608192 0.895269 0.010855
O O12 0.410365 0.886241 0.994298
O O13 0.500000 0.000000 0.000000
O O14 0.871855 0.324661 0.642540
O O15 0.858334 0.336081 0.827036
O O16 0.000000 0.262933 0.750000
#
# Coordination Sequence:
#
# PCOD9254147 Si02
#       8
#     8   8   4   8   8   8   8   8
#     4  10  16  26  51  75 104 138 169 207 265 319
#     4  10  16  28  50  75 105 130 163 220 268 309
#     4  12  20  38  54  74 102 130 184 214 240 322
#     4  10  16  28  50  75 105 130 163 220 268 309
#     4  12  24  38  54  72 104 148 180 214 249 305
#     4  10  18  27  46  74 115 139 155 216 272 317
#     4  10  19  30  46  74 104 136 173 208 261 312
#     4  10  19  30  46  74 104 136 173 208 261 312
#
# _framework density 15.762458000000001
#
# number of rings (size 3 to 8) (size 9 to 14) (size 15 to 20)
#    0.000    1.600    6.667    0.000    0.000    1.067 
#    0.000    0.000    0.000    0.800    0.000    0.000 
#    0.000    0.000    0.000    0.000    0.000    0.000 
#
# Total GULP energy -167209.124637 kJ/mol
# GULP energy per Si atom -5573.637488 kJ/mol
# Density = 1.572658 g / cm^3
# Si number density = 15.762458 Si / 1000 Ang^3
#
#
#
# Elastic Constant Matrix: (Units=GPa)
#
#
# Indices 1 2 3 4 5 6 
#
# 1 141.7102 29.9355 3.3878 0.0000 5.8007 0.0000
# 2 29.9355 57.2954 23.1145 0.0000 -1.4905 0.0000
# 3 3.3878 23.1145 90.2363 0.0000 1.2848 0.0000
# 4 0.0000 0.0000 0.0000 12.5066 0.0000 -0.1999
# 5 5.8007 -1.4905 1.2848 0.0000 19.9598 0.0000
# 6 0.0000 0.0000 0.0000 -0.1999 0.0000 11.1093
#
#
#
# Elastic Compliance Matrix: (Units=1/GPa)
#
#
# Indices 1 2 3 4 5 6 
#
# 1 0.008142 -0.004705 0.000939 0.000000 -0.002778 0.000000
# 2 -0.004705 0.022247 -0.005570 0.000000 0.003387 0.000000
# 3 0.000939 -0.005570 0.012495 0.000000 -0.001493 0.000000
# 4 0.000000 0.000000 0.000000 0.079981 0.000000 0.001439
# 5 -0.002778 0.003387 -0.001493 0.000000 0.051257 0.000000
# 6 0.000000 0.000000 0.000000 0.001439 0.000000 0.090041
#
#
# Mechanical properties :
#
#
# Convention : Reuss Voigt Hill
#
# Bulk Modulus (GPa) = 41.30307 44.67972 42.99139
# Shear Modulus (GPa) = 17.18774 24.23541 20.71157
#
# Velocity S-wave (km/s) = 3.30574 3.92540 3.62882
# Velocity P-wave (km/s) = 6.38990 6.99659 6.70011
#
# Compressibility (1/GPa) = 0.02421128
#
# Stress axis : x y z
#
# Youngs Moduli (GPa) = 122.82256 44.94992 80.03283
#
# Poissons Ratio (x) = 0.21149 -0.07516
# Poissons Ratio (y) = 0.57788 0.44580
# Poissons Ratio (z) = -0.11534 0.25038
#
# Static dielectric constant tensor:
#      x y z
#    x 1.584790 0.000000 0.005720 
#    y 0.000000 1.470250 0.000000 
#    z 0.005720 0.000000 1.556960 
# 
# From -- ./inp_files/147685.got.cif
#   From: 2010.05.17/outbox.cif.g08.bks.cpg/sg15_74_cif.got.tgz:147685.got - 2010.06.03 18:47:42.
