data_PCOD9254243
_publ_section_title
;
Structure prediction by ZEFSAII (Michael W. Deem and Ramdas Pophale) SiO2 
 PCOD9254243
Probable space group: C 2/C
;
_chemical_formula_sum "Si O2"
_cell_formula_units_Z 48
_cell_length_a 9.565682
_cell_length_b 15.826530
_cell_length_c 27.269187
_cell_angle_alpha 90.000000
_cell_angle_beta 147.773425
_cell_angle_gamma 90.000000
_cell_volume 2201.506283
_symmetry_space_group_name_H-M "C 2/C"
_symmetry_group_IT_number 15
_symmetry_cell_setting 'monoclinic'
loop_
_space_group_symop_operation_xyz
x,y,z
-x,y,1/2-z
-x,-y,-z
x,-y,1/2+z
1/2+x,1/2+y,z
1/2-x,1/2+y,1/2-z
1/2-x,1/2-y,-z
1/2+x,1/2-y,1/2+z
loop_
_atom_site_type_symbol
_atom_site_label
_atom_site_fract_x
_atom_site_fract_y
_atom_site_fract_z
Si Si1 0.064680 0.450313 0.449866
Si Si2 0.005632 0.640351 0.080186
Si Si3 0.510161 0.552262 0.694259
Si Si4 0.900719 0.784044 0.120188
Si Si5 0.514357 0.617158 0.348711
Si Si6 0.965364 0.726151 0.894187
O O1 0.085993 0.544637 0.435934
O O2 0.314127 0.419698 0.554738
O O3 0.001067 0.373661 0.393308
O O4 0.807784 0.453165 0.409060
O O5 0.017769 0.700433 0.130824
O O6 0.284230 0.637164 0.135461
O O7 0.803858 0.681155 0.981317
O O8 0.500000 0.556030 0.750000
O O9 0.588469 0.637544 0.689938
O O10 0.641673 0.465572 0.715705
O O11 0.742098 0.766811 0.123226
O O12 0.396251 0.704945 0.332747
O O13 0.250000 0.750000 0.000000
#
# Coordination Sequence:
#
# PCOD9254243 Si02
#       6
#     8   8   8   8   8   8
#     4   9  16  31  47  67  93 128 152 193 233 277
#     4  10  16  28  50  69  98 119 164 191 236 272
#     4  10  18  31  50  71  92 127 165 192 233 289
#     4  10  18  29  45  75  97 125 149 204 237 277
#     4  10  16  32  50  70  93 125 159 198 226 285
#     4   9  16  28  47  69  97 122 152 188 246 270
#
# _framework density 21.803253999999999
#
# number of rings (size 3 to 8) (size 9 to 14) (size 15 to 20)
#    0.000    2.333    6.667    1.000    0.000    0.000 
#    0.000   11.667    0.000    0.000    0.000   10.500 
#    0.000    0.000    0.000    0.000    0.000    0.000 
#
# Total GULP energy -133799.405021 kJ/mol
# GULP energy per Si atom -5574.975209 kJ/mol
# Density = 2.175363 g / cm^3
# Si number density = 21.803254 Si / 1000 Ang^3
#
#
#
# Elastic Constant Matrix: (Units=GPa)
#
#
# Indices 1 2 3 4 5 6 
#
# 1 55.7168 77.6337 14.1227 -0.0001 -19.8485 -0.0001
# 2 77.6337 243.0929 19.5729 0.0002 -32.5862 0.0000
# 3 14.1227 19.5729 64.6484 0.0011 -19.9063 0.0002
# 4 -0.0001 0.0002 0.0011 17.4693 0.0001 -16.2573
# 5 -19.8485 -32.5862 -19.9063 0.0001 23.5290 -0.0001
# 6 -0.0001 0.0000 0.0002 -16.2573 -0.0001 52.3292
#
#
#
# Elastic Compliance Matrix: (Units=1/GPa)
#
#
# Indices 1 2 3 4 5 6 
#
# 1 0.038077 -0.009624 0.000517 0.000000 0.019229 0.000000
# 2 -0.009624 0.007518 0.000720 0.000000 0.002903 0.000000
# 3 0.000517 0.000720 0.021067 -0.000002 0.019256 -0.000001
# 4 0.000000 0.000000 -0.000002 0.080524 -0.000002 0.025017
# 5 0.019229 0.002903 0.019256 -0.000002 0.079034 -0.000001
# 6 0.000000 0.000000 -0.000001 0.025017 -0.000001 0.026882
#
#
# Mechanical properties :
#
#
# Convention : Reuss Voigt Hill
#
# Bulk Modulus (GPa) = 20.04523 65.12410 42.58466
# Shear Modulus (GPa) = 17.45163 35.47410 26.46286
#
# Velocity S-wave (km/s) = 2.83223 4.03800 3.48762
# Velocity P-wave (km/s) = 4.46195 7.18849 5.98262
#
# Compressibility (1/GPa) = 0.04988719
#
# Stress axis : x y z
#
# Youngs Moduli (GPa) = 26.26249 133.00752 47.46832
#
# Poissons Ratio (x) = 1.28009 -0.02453
# Poissons Ratio (y) = 0.25276 -0.03418
# Poissons Ratio (z) = -0.01357 -0.09577
#
# Static dielectric constant tensor:
#      x y z
#    x 1.735420 0.000000 0.016930 
#    y 0.000000 1.926150 0.000000 
#    z 0.016930 0.000000 1.933990 
# 
# From -- ./inp_files/310970.got.cif
#   From: 2010.05.17/outbox.cif.g08.bks.cpg/sg15_156_cif.got.tgz:310970.got - 2010.06.03 18:47:42.
