data_PCOD9254704
_publ_section_title
;
Structure prediction by ZEFSAII (Michael W. Deem and Ramdas Pophale) SiO2 
 PCOD9254704
Probable space group: C 2/C
;
_chemical_formula_sum "Si O2"
_cell_formula_units_Z 44
_cell_length_a 27.973396
_cell_length_b 18.291775
_cell_length_c 8.595663
_cell_angle_alpha 90.000000
_cell_angle_beta 144.154162
_cell_angle_gamma 90.000000
_cell_volume 2575.646207
_symmetry_space_group_name_H-M "C 2/C"
_symmetry_group_IT_number 15
_symmetry_cell_setting 'monoclinic'
loop_
_space_group_symop_operation_xyz
x,y,z
-x,y,1/2-z
-x,-y,-z
x,-y,1/2+z
1/2+x,1/2+y,z
1/2-x,1/2+y,1/2-z
1/2-x,1/2-y,-z
1/2+x,1/2-y,1/2+z
loop_
_atom_site_type_symbol
_atom_site_label
_atom_site_fract_x
_atom_site_fract_y
_atom_site_fract_z
Si Si1 0.135606 0.960948 0.745339
Si Si2 0.752263 0.663485 0.991746
Si Si3 0.000000 0.514681 0.250000
Si Si4 0.617917 0.943112 0.805376
Si Si5 0.083277 0.900957 0.915738
Si Si6 0.246508 0.938542 0.761606
O O1 0.084432 0.914040 0.733184
O O2 0.190797 0.919943 0.763506
O O3 0.086611 0.021541 0.517975
O O4 0.196281 0.005671 0.018714
O O5 0.666342 0.637826 0.689727
O O6 0.750000 0.750000 0.000000
O O7 0.824105 0.625175 0.080755
O O8 0.763109 0.628732 0.192352
O O9 0.938770 0.562431 0.192859
O O10 0.056327 0.463195 0.504784
O O11 0.675947 0.014447 0.979607
O O12 0.000000 0.863136 0.750000
#
# Coordination Sequence:
#
# PCOD9254704 Si02
#       6
#     8   8   4   8   8   8
#     4   9  16  29  56  83 100 138 183 228 277 325
#     4  11  23  38  57  81 119 158 185 233 303 351
#     4  10  22  30  62  96 104 146 202 256 272 330
#     4  11  18  37  58  87 114 143 200 238 293 336
#     4  10  19  33  54  84 110 139 185 233 279 338
#     4  10  16  33  60  79 108 147 188 231 275 347
#
# _framework density 17.083089999999999
#
# number of rings (size 3 to 8) (size 9 to 14) (size 15 to 20)
#    0.000    1.818    7.273    0.545    0.000    0.000 
#    1.636    0.909    4.000    0.000    0.000    0.000 
#    0.000    0.000    0.000    0.000    0.000    0.000 
#
# Total GULP energy -122568.800938 kJ/mol
# GULP energy per Si atom -5571.309134 kJ/mol
# Density = 1.704421 g / cm^3
# Si number density = 17.083090 Si / 1000 Ang^3
#
#
#
# Elastic Constant Matrix: (Units=GPa)
#
#
# Indices 1 2 3 4 5 6 
#
# 1 170.8767 51.4966 37.8512 0.0000 9.1450 0.0000
# 2 51.4966 90.1434 16.2205 0.0000 10.1790 0.0000
# 3 37.8512 16.2205 68.5127 0.0000 14.1029 0.0000
# 4 0.0000 0.0000 0.0000 3.5734 0.0000 -1.2372
# 5 9.1450 10.1790 14.1029 0.0000 31.3626 0.0000
# 6 0.0000 0.0000 0.0000 -1.2372 0.0000 13.0837
#
#
#
# Elastic Compliance Matrix: (Units=1/GPa)
#
#
# Indices 1 2 3 4 5 6 
#
# 1 0.007761 -0.003869 -0.003487 0.000000 0.000561 0.000000
# 2 -0.003869 0.013741 -0.000474 0.000000 -0.003119 0.000000
# 3 -0.003487 -0.000474 0.018066 0.000000 -0.006953 0.000000
# 4 0.000000 0.000000 0.000000 0.289316 0.000000 0.027357
# 5 0.000561 -0.003119 -0.006953 0.000000 0.035860 0.000000
# 6 0.000000 0.000000 0.000000 0.027357 0.000000 0.079018
#
#
# Mechanical properties :
#
#
# Convention : Reuss Voigt Hill
#
# Bulk Modulus (GPa) = 41.82737 60.07440 50.95088
# Shear Modulus (GPa) = 10.69769 24.53489 17.61629
#
# Velocity S-wave (km/s) = 2.50514 3.79385 3.21473
# Velocity P-wave (km/s) = 5.73633 7.37790 6.60828
#
# Compressibility (1/GPa) = 0.02390779
#
# Stress axis : x y z
#
# Youngs Moduli (GPa) = 128.85533 72.77341 55.35372
#
# Poissons Ratio (x) = 0.28159 0.19301
# Poissons Ratio (y) = 0.49859 0.02622
# Poissons Ratio (z) = 0.44930 0.03447
#
# Static dielectric constant tensor:
#      x y z
#    x 1.646120 0.000000 0.015210 
#    y 0.000000 1.549900 0.000000 
#    z 0.015210 0.000000 1.598210 
# 
# From -- ./inp_files/47909.got.cif
#   From: 2010.05.17/outbox.cif.g08.bks.cpg/sg15_24_cif.got.tgz:47909.got - 2010.06.03 18:47:42.
