data_PCOD9254763
_publ_section_title
;
Structure prediction by ZEFSAII (Michael W. Deem and Ramdas Pophale) SiO2 
 PCOD9254763
Probable space group: C 2/C
;
_chemical_formula_sum "Si O2"
_cell_formula_units_Z 60
_cell_length_a 12.180903
_cell_length_b 18.791220
_cell_length_c 14.692681
_cell_angle_alpha 90.000000
_cell_angle_beta 78.511128
_cell_angle_gamma 90.000000
_cell_volume 3295.682535
_symmetry_space_group_name_H-M "C 2/C"
_symmetry_group_IT_number 15
_symmetry_cell_setting 'monoclinic'
loop_
_space_group_symop_operation_xyz
x,y,z
-x,y,1/2-z
-x,-y,-z
x,-y,1/2+z
1/2+x,1/2+y,z
1/2-x,1/2+y,1/2-z
1/2-x,1/2-y,-z
1/2+x,1/2-y,1/2+z
loop_
_atom_site_type_symbol
_atom_site_label
_atom_site_fract_x
_atom_site_fract_y
_atom_site_fract_z
Si Si1 0.821728 0.994985 0.082212
Si Si2 0.841907 0.224069 0.056160
Si Si3 0.597264 0.663019 0.156860
Si Si4 0.073959 0.467837 0.068421
Si Si5 0.742205 0.885194 0.722077
Si Si6 0.500000 0.062568 0.250000
Si Si7 0.983660 0.687556 0.860624
Si Si8 0.502000 0.605075 0.989759
O O1 0.788387 0.038682 0.178281
O O2 0.903689 0.046675 0.011666
O O3 0.707546 0.981106 0.046250
O O4 0.896676 0.924860 0.087607
O O5 0.785233 0.170558 0.138709
O O6 0.905105 0.283684 0.106016
O O7 0.938156 0.179520 0.986498
O O8 0.750000 0.250000 0.000000
O O9 0.500000 0.661701 0.250000
O O10 0.706182 0.636287 0.190195
O O11 0.600273 0.744670 0.122654
O O12 0.557403 0.614526 0.080557
O O13 0.055646 0.383999 0.084972
O O14 0.028152 0.510981 0.162366
O O15 0.000000 0.500000 0.000000
O O16 0.609436 0.890380 0.748438
O O17 0.000000 0.673092 0.750000
#
# Coordination Sequence:
#
# PCOD9254763 Si02
#       8
#     8   8   8   8   8   4   8   8
#     4   9  19  35  54  79 116 140 184 241 280 350
#     4  10  20  34  61  83 112 152 198 248 298 360
#     4  10  16  34  60  82 100 149 200 234 279 347
#     4  11  24  38  56  86 120 158 195 240 302 361
#     4  10  19  37  58  82 112 149 194 235 297 347
#     4  10  24  38  54  84 124 156 188 248 296 362
#     4  10  19  38  59  82 110 153 199 237 288 352
#     4   9  18  34  56  82 108 143 187 238 290 331
#
# _framework density 18.205636999999999
#
# number of rings (size 3 to 8) (size 9 to 14) (size 15 to 20)
#    0.000    2.133    6.000    0.000    7.467    0.000 
#    0.000    4.000    2.933    0.000    0.000    0.000 
#    0.000    0.000    0.000    0.000    0.000    0.000 
#
# Total GULP energy -167139.704257 kJ/mol
# GULP energy per Si atom -5571.323475 kJ/mol
# Density = 1.816420 g / cm^3
# Si number density = 18.205637 Si / 1000 Ang^3
#
#
#
# Elastic Constant Matrix: (Units=GPa)
#
#
# Indices 1 2 3 4 5 6 
#
# 1 172.3138 76.4324 56.8001 0.0000 21.9091 0.0000
# 2 76.4324 103.6298 37.6313 0.0000 17.2061 0.0000
# 3 56.8001 37.6313 48.2574 0.0000 20.2167 0.0000
# 4 0.0000 0.0000 0.0000 17.4739 0.0000 2.8938
# 5 21.9091 17.2061 20.2167 0.0000 29.3948 0.0000
# 6 0.0000 0.0000 0.0000 2.8938 0.0000 29.7849
#
#
#
# Elastic Compliance Matrix: (Units=1/GPa)
#
#
# Indices 1 2 3 4 5 6 
#
# 1 0.010959 -0.004767 -0.009733 0.000000 0.001316 0.000000
# 2 -0.004767 0.015553 -0.005889 0.000000 -0.001501 0.000000
# 3 -0.009733 -0.005889 0.045355 0.000000 -0.020492 0.000000
# 4 0.000000 0.000000 0.000000 0.058164 0.000000 -0.005651
# 5 0.001316 -0.001501 -0.020492 0.000000 0.048011 0.000000
# 6 0.000000 0.000000 0.000000 -0.005651 0.000000 0.034123
#
#
# Mechanical properties :
#
#
# Convention : Reuss Voigt Hill
#
# Bulk Modulus (GPa) = 32.16493 73.99207 53.07850
# Shear Modulus (GPa) = 18.98931 25.55320 22.27126
#
# Velocity S-wave (km/s) = 3.23313 3.75051 3.50139
# Velocity P-wave (km/s) = 5.62525 7.71270 6.75015
#
# Compressibility (1/GPa) = 0.03108976
#
# Stress axis : x y z
#
# Youngs Moduli (GPa) = 91.25195 64.29551 22.04814
#
# Poissons Ratio (x) = 0.30649 0.21459
# Poissons Ratio (y) = 0.43498 0.12984
# Poissons Ratio (z) = 0.88814 0.37864
#
# Static dielectric constant tensor:
#      x y z
#    x 1.636560 0.000000 -0.012430 
#    y 0.000000 1.661880 0.000000 
#    z -0.012430 0.000000 1.619960 
# 
# From -- ./inp_files/145610.got.cif
#   From: 2010.05.17/outbox.cif.g08.bks.cpg/sg15_73_cif.got.tgz:145610.got - 2010.06.03 18:47:42.
