data_PCOD9254050
_publ_section_title
;
Structure prediction by ZEFSAII (Michael W. Deem and Ramdas Pophale) SiO2 
 PCOD9254050
Probable space group: C 2/C
;
_chemical_formula_sum "Si O2"
_cell_formula_units_Z 32
_cell_length_a 7.665336
_cell_length_b 36.304403
_cell_length_c 7.421120
_cell_angle_alpha 90.000000
_cell_angle_beta 39.113893
_cell_angle_gamma 90.000000
_cell_volume 1302.853759
_symmetry_space_group_name_H-M "C 2/C"
_symmetry_group_IT_number 15
_symmetry_cell_setting 'monoclinic'
loop_
_space_group_symop_operation_xyz
x,y,z
-x,y,1/2-z
-x,-y,-z
x,-y,1/2+z
1/2+x,1/2+y,z
1/2-x,1/2+y,1/2-z
1/2-x,1/2-y,-z
1/2+x,1/2-y,1/2+z
loop_
_atom_site_type_symbol
_atom_site_label
_atom_site_fract_x
_atom_site_fract_y
_atom_site_fract_z
Si Si1 0.611241 0.770360 0.368060
Si Si2 0.191652 0.155946 0.922507
Si Si3 0.583163 0.041472 0.890102
Si Si4 0.417519 0.417828 0.603736
O O1 0.500000 0.768827 0.250000
O O2 0.345455 0.760710 0.698447
O O3 0.749660 0.810361 0.258946
O O4 0.500000 0.144708 0.750000
O O5 0.000000 0.167282 0.250000
O O6 0.028357 0.122280 0.962529
O O7 0.500000 0.046704 0.750000
O O8 0.903483 0.051255 0.639541
O O9 0.500000 0.000000 0.000000
O O10 0.399263 0.070706 0.146416
O O11 0.500000 0.418715 0.750000
#
# Coordination Sequence:
#
# PCOD9254050 Si02
#       4
#     8   8   8   8
#     4   9  15  21  29  44  67  96 131 167 197 228
#     4  10  16  23  35  50  71 100 134 170 202 233
#     4  10  19  31  46  63  83 106 136 171 208 248
#     4   9  17  28  41  58  78 103 136 171 203 241
#
# _framework density 24.561468000000001
#
# number of rings (size 3 to 8) (size 9 to 14) (size 15 to 20)
#    0.000    2.500    0.000    8.250    0.000    0.000 
#    0.000    0.000    0.000    0.000    0.000    0.000 
#    0.000    0.000    0.000    0.000    0.000   25.000 
#
# Total GULP energy -89377.570344 kJ/mol
# GULP energy per Si atom -5586.098146 kJ/mol
# Density = 2.450557 g / cm^3
# Si number density = 24.561468 Si / 1000 Ang^3
#
#
#
# Elastic Constant Matrix: (Units=GPa)
#
#
# Indices 1 2 3 4 5 6 
#
# 1 79.2144 -11.8593 -12.2244 0.0000 14.5363 0.0000
# 2 -11.8593 146.5512 35.8479 0.0000 9.6578 0.0000
# 3 -12.2244 35.8479 123.0240 0.0000 -5.9136 0.0000
# 4 0.0000 0.0000 0.0000 39.9132 0.0000 -6.7521
# 5 14.5363 9.6578 -5.9136 0.0000 -11.6183 0.0000
# 6 0.0000 0.0000 0.0000 -6.7521 0.0000 -0.1233
#
#
#
# Elastic Compliance Matrix: (Units=1/GPa)
#
#
# Indices 1 2 3 4 5 6 
#
# 1 0.010619 -0.000364 0.001743 0.000000 0.012096 0.000000
# 2 -0.000364 0.006816 -0.001729 0.000000 0.006090 0.000000
# 3 0.001743 -0.001729 0.008630 0.000000 -0.003650 0.000000
# 4 0.000000 0.000000 0.000000 0.002440 0.000000 -0.133675
# 5 0.012096 0.006090 -0.003650 0.000000 -0.064017 0.000000
# 6 0.000000 0.000000 0.000000 -0.133675 0.000000 -0.790178
#
#
# Mechanical properties :
#
#
# Convention : Reuss Voigt Hill
#
# Bulk Modulus (GPa) = 39.42777 41.36865 40.39821
# Shear Modulus (GPa) = -6.12345 28.10268 10.98961
#
# Velocity S-wave (km/s) = -1.58067 3.38624 2.11756
# Velocity P-wave (km/s) = 3.57158 5.67171 4.73943
#
# Compressibility (1/GPa) = 0.02536284
#
# Stress axis : x y z
#
# Youngs Moduli (GPa) = 94.17338 146.71842 115.87266
#
# Poissons Ratio (x) = 0.05342 -0.20193
# Poissons Ratio (y) = 0.03429 0.20040
# Poissons Ratio (z) = -0.16411 0.25375
#
# Static dielectric constant tensor:
#      x y z
#    x 1.986600 0.000000 0.024490 
#    y 0.000000 2.013800 0.000000 
#    z 0.024490 0.000000 1.941610 
# 
# From -- ./inp_files/157359.got.cif
#   From: 2010.05.17/outbox.cif.g08.bks.cpg/sg15_79_cif.got.tgz:157359.got - 2010.06.03 18:47:42.
