data_PCOD9254722
_publ_section_title
;
Structure prediction by ZEFSAII (Michael W. Deem and Ramdas Pophale) SiO2 
 PCOD9254722
Probable space group: C 2/C
;
_chemical_formula_sum "Si O2"
_cell_formula_units_Z 44
_cell_length_a 8.383516
_cell_length_b 23.123137
_cell_length_c 11.991649
_cell_angle_alpha 90.000000
_cell_angle_beta 75.777065
_cell_angle_gamma 90.000000
_cell_volume 2253.363023
_symmetry_space_group_name_H-M "C 2/C"
_symmetry_group_IT_number 15
_symmetry_cell_setting 'monoclinic'
loop_
_space_group_symop_operation_xyz
x,y,z
-x,y,1/2-z
-x,-y,-z
x,-y,1/2+z
1/2+x,1/2+y,z
1/2-x,1/2+y,1/2-z
1/2-x,1/2-y,-z
1/2+x,1/2-y,1/2+z
loop_
_atom_site_type_symbol
_atom_site_label
_atom_site_fract_x
_atom_site_fract_y
_atom_site_fract_z
Si Si1 0.566449 0.558120 0.115740
Si Si2 0.209221 0.344990 0.869696
Si Si3 0.691022 0.759003 0.688933
Si Si4 0.000000 0.566964 0.250000
Si Si5 0.132454 0.334340 0.478243
Si Si6 0.244116 0.541150 0.024068
O O1 0.500000 0.544097 0.250000
O O2 0.638977 0.622281 0.103613
O O3 0.415196 0.554170 0.057524
O O4 0.712635 0.514097 0.057794
O O5 0.258752 0.290877 0.786207
O O6 0.121795 0.390711 0.798549
O O7 0.065034 0.330491 0.981181
O O8 0.500000 0.746253 0.750000
O O9 0.787751 0.702873 0.632949
O O10 0.690752 0.804207 0.584911
O O11 0.106360 0.531493 0.142753
O O12 0.187431 0.401064 0.469922
#
# Coordination Sequence:
#
# PCOD9254722 Si02
#       6
#     8   8   8   4   8   8
#     4  11  21  35  56  81 116 150 182 230 285 331
#     4  10  17  33  55  81 107 146 187 223 278 335
#     4   9  15  29  54  80 104 142 185 230 263 328
#     4  10  16  34  54  80 108 148 192 218 268 344
#     4   9  17  30  53  79 106 138 192 222 268 319
#     4  10  21  35  54  84 113 147 189 229 273 336
#
# _framework density 19.52637
#
# number of rings (size 3 to 8) (size 9 to 14) (size 15 to 20)
#    0.000    2.182    6.364    0.000    0.000    3.636 
#    0.000    0.000    0.000   24.000    0.000    0.000 
#    0.000    0.000    0.000    0.000    0.000    0.000 
#
# Total GULP energy -122794.801489 kJ/mol
# GULP energy per Si atom -5581.581886 kJ/mol
# Density = 1.948193 g / cm^3
# Si number density = 19.526370 Si / 1000 Ang^3
#
#
#
# Elastic Constant Matrix: (Units=GPa)
#
#
# Indices 1 2 3 4 5 6 
#
# 1 35.8701 25.3722 28.4164 0.0000 -11.3200 0.0000
# 2 25.3722 88.5230 71.6491 0.0000 -31.0881 0.0000
# 3 28.4164 71.6491 83.7920 0.0000 -38.0374 0.0000
# 4 0.0000 0.0000 0.0000 25.9793 0.0000 -11.3140
# 5 -11.3200 -31.0881 -38.0374 0.0000 29.0830 0.0000
# 6 0.0000 0.0000 0.0000 -11.3140 0.0000 26.3015
#
#
#
# Elastic Compliance Matrix: (Units=1/GPa)
#
#
# Indices 1 2 3 4 5 6 
#
# 1 0.038471 -0.001253 -0.014241 0.000000 -0.004991 0.000000
# 2 -0.001253 0.036965 -0.033148 0.000000 -0.004328 0.000000
# 3 -0.014241 -0.033148 0.065243 0.000000 0.044353 0.000000
# 4 0.000000 0.000000 0.000000 0.047366 0.000000 0.020375
# 5 -0.004991 -0.004328 0.044353 0.000000 0.085825 0.000000
# 6 0.000000 0.000000 0.000000 0.020375 0.000000 0.046785
#
#
# Mechanical properties :
#
#
# Convention : Reuss Voigt Hill
#
# Bulk Modulus (GPa) = 23.04411 51.00674 37.02542
# Shear Modulus (GPa) = 11.56326 21.78925 16.67626
#
# Velocity S-wave (km/s) = 2.43613 3.34412 2.92556
# Velocity P-wave (km/s) = 4.44299 6.41011 5.51496
#
# Compressibility (1/GPa) = 0.04339504
#
# Stress axis : x y z
#
# Youngs Moduli (GPa) = 25.99338 27.05252 15.32740
#
# Poissons Ratio (x) = 0.03388 0.21828
# Poissons Ratio (y) = 0.03256 0.50808
# Poissons Ratio (z) = 0.37018 0.89674
#
# Static dielectric constant tensor:
#      x y z
#    x 1.705220 0.000000 -0.005390 
#    y 0.000000 1.672890 0.000000 
#    z -0.005390 0.000000 1.684380 
# 
# From -- ./inp_files/78112.got.cif
#   From: 2010.05.17/outbox.cif.g08.bks.cpg/sg15_40_cif.got.tgz:78112.got - 2010.06.03 18:47:42.
