data_PCOD9254606
_publ_section_title
;
Structure prediction by ZEFSAII (Michael W. Deem and Ramdas Pophale) SiO2 
 PCOD9254606
Probable space group: C 2/C
;
_chemical_formula_sum "Si O2"
_cell_formula_units_Z 60
_cell_length_a 24.601359
_cell_length_b 11.654721
_cell_length_c 17.923455
_cell_angle_alpha 90.000000
_cell_angle_beta 29.404959
_cell_angle_gamma 90.000000
_cell_volume 2523.165658
_symmetry_space_group_name_H-M "C 2/C"
_symmetry_group_IT_number 15
_symmetry_cell_setting 'monoclinic'
loop_
_space_group_symop_operation_xyz
x,y,z
-x,y,1/2-z
-x,-y,-z
x,-y,1/2+z
1/2+x,1/2+y,z
1/2-x,1/2+y,1/2-z
1/2-x,1/2-y,-z
1/2+x,1/2-y,1/2+z
loop_
_atom_site_type_symbol
_atom_site_label
_atom_site_fract_x
_atom_site_fract_y
_atom_site_fract_z
Si Si1 0.570833 0.358695 0.448346
Si Si2 0.291747 0.170449 0.166494
Si Si3 0.784559 0.569936 0.598772
Si Si4 0.000000 0.662376 0.750000
Si Si5 0.790116 0.193024 0.530999
Si Si6 0.589475 0.410276 0.985602
Si Si7 0.502959 0.799566 0.834995
Si Si8 0.667573 0.016416 0.125482
O O1 0.596064 0.229689 0.440042
O O2 0.672428 0.389485 0.271391
O O3 0.458505 0.381260 0.539621
O O4 0.578648 0.453197 0.504468
O O5 0.238809 0.261158 0.170377
O O6 0.214390 0.133564 0.328173
O O7 0.308608 0.057170 0.098581
O O8 0.888901 0.644886 0.499500
O O9 0.780269 0.562956 0.514364
O O10 0.087971 0.751156 0.609932
O O11 0.069618 0.574443 0.719566
O O12 0.750000 0.250000 0.500000
O O13 0.758629 0.059658 0.558941
O O14 0.511189 0.334165 0.130900
O O15 0.500000 0.815405 0.750000
O O16 0.607928 0.874573 0.735377
#
# Coordination Sequence:
#
# PCOD9254606 Si02
#       8
#     8   8   8   4   8   8   8   8
#     4  10  23  41  61  87 125 164 208 251 317 372
#     4  11  20  38  64  86 128 159 203 265 305 373
#     4  10  18  37  61  88 119 166 197 253 316 359
#     4  10  16  32  54  86 128 158 196 254 310 366
#     4  10  20  33  55  92 123 157 200 249 316 368
#     4  10  23  43  62  88 122 168 209 250 320 376
#     4  10  19  39  69  89 121 161 213 255 304 370
#     4  10  18  35  58  90 121 158 207 255 314 370
#
# _framework density 23.779651999999999
#
# number of rings (size 3 to 8) (size 9 to 14) (size 15 to 20)
#    0.000    1.867    6.000    0.000    0.000    3.200 
#    7.200    5.333    0.000    0.000    0.000    0.000 
#    0.000    0.000    0.000    0.000    0.000    0.000 
#
# Total GULP energy -167380.108590 kJ/mol
# GULP energy per Si atom -5579.336953 kJ/mol
# Density = 2.372553 g / cm^3
# Si number density = 23.779652 Si / 1000 Ang^3
#
#
#
# Elastic Constant Matrix: (Units=GPa)
#
#
# Indices 1 2 3 4 5 6 
#
# 1 40.7959 -13.0560 -6.1157 0.0000 -4.6061 0.0000
# 2 -13.0560 49.0296 19.6352 0.0000 2.3049 0.0000
# 3 -6.1157 19.6352 76.9985 0.0000 -5.0083 0.0000
# 4 0.0000 0.0000 0.0000 45.2798 0.0000 -3.6831
# 5 -4.6061 2.3049 -5.0083 0.0000 16.5658 0.0000
# 6 0.0000 0.0000 0.0000 -3.6831 0.0000 26.6177
#
#
#
# Elastic Compliance Matrix: (Units=1/GPa)
#
#
# Indices 1 2 3 4 5 6 
#
# 1 0.027571 0.006628 0.000957 0.000000 0.007033 0.000000
# 2 0.006628 0.024724 -0.006000 0.000000 -0.003411 0.000000
# 3 0.000957 -0.006000 0.014959 0.000000 0.005624 0.000000
# 4 0.000000 0.000000 0.000000 0.022336 0.000000 0.003091
# 5 0.007033 -0.003411 0.005624 0.000000 0.064496 0.000000
# 6 0.000000 0.000000 0.000000 0.003091 0.000000 0.037997
#
#
# Mechanical properties :
#
#
# Convention : Reuss Voigt Hill
#
# Bulk Modulus (GPa) = 14.19976 18.63901 16.41938
# Shear Modulus (GPa) = 23.54183 28.78336 26.16259
#
# Velocity S-wave (km/s) = 3.14984 3.48288 3.32054
# Velocity P-wave (km/s) = 4.38326 4.90196 4.64985
#
# Compressibility (1/GPa) = 0.07042374
#
# Stress axis : x y z
#
# Youngs Moduli (GPa) = 36.26999 40.44642 66.84854
#
# Poissons Ratio (x) = -0.26807 -0.06399
# Poissons Ratio (y) = -0.24039 0.40111
# Poissons Ratio (z) = -0.03472 0.24269
#
# Static dielectric constant tensor:
#      x y z
#    x 1.953690 0.000000 0.025520 
#    y 0.000000 1.939920 0.000000 
#    z 0.025520 0.000000 1.926180 
# 
# From -- ./inp_files/222530.got.cif
#   From: 2010.05.17/outbox.cif.g08.bks.cpg/sg15_112_cif.got.tgz:222530.got - 2010.06.03 18:47:42.
