data_PCOD9254388
_publ_section_title
;
Structure prediction by ZEFSAII (Michael W. Deem and Ramdas Pophale) SiO2 
 PCOD9254388
Probable space group: C 2/C
;
_chemical_formula_sum "Si O2"
_cell_formula_units_Z 60
_cell_length_a 18.969523
_cell_length_b 16.430169
_cell_length_c 16.713331
_cell_angle_alpha 90.000000
_cell_angle_beta 37.633193
_cell_angle_gamma 90.000000
_cell_volume 3180.688513
_symmetry_space_group_name_H-M "C 2/C"
_symmetry_group_IT_number 15
_symmetry_cell_setting 'monoclinic'
loop_
_space_group_symop_operation_xyz
x,y,z
-x,y,1/2-z
-x,-y,-z
x,-y,1/2+z
1/2+x,1/2+y,z
1/2-x,1/2+y,1/2-z
1/2-x,1/2-y,-z
1/2+x,1/2-y,1/2+z
loop_
_atom_site_type_symbol
_atom_site_label
_atom_site_fract_x
_atom_site_fract_y
_atom_site_fract_z
Si Si1 0.143367 0.019190 0.758503
Si Si2 0.138442 0.849390 0.134869
Si Si3 0.023195 0.853518 0.476906
Si Si4 0.907700 0.713898 0.208065
Si Si5 0.740876 0.411539 0.782390
Si Si6 0.757330 0.475959 0.932717
Si Si7 0.942422 0.899407 0.881330
Si Si8 0.000000 0.409337 0.750000
O O1 0.181294 0.083504 0.659230
O O2 0.097211 0.072014 0.874373
O O3 0.242723 0.958003 0.696553
O O4 0.033441 0.970467 0.823559
O O5 0.157297 0.763401 0.161555
O O6 0.000000 0.853202 0.250000
O O7 0.193661 0.888369 0.006545
O O8 0.036263 0.780439 0.401340
O O9 0.062142 0.843714 0.534750
O O10 0.890454 0.880385 0.596427
O O11 0.824755 0.662065 0.226049
O O12 0.989870 0.651205 0.182229
O O13 0.766065 0.476653 0.829190
O O14 0.884597 0.463683 0.853796
O O15 0.676588 0.551794 0.029710
O O16 0.000000 0.861312 0.750000
#
# Coordination Sequence:
#
# PCOD9254388 Si02
#       8
#     8   8   8   8   8   8   8   4
#     4  10  16  30  50  80 100 129 175 227 276 285
#     4  11  18  30  52  79 106 129 177 223 266 302
#     4  10  19  32  51  77 107 132 178 224 266 300
#     4  10  22  33  45  75 114 149 170 196 267 327
#     4  10  19  30  51  71 105 144 169 211 259 314
#     4  11  18  32  48  73 111 134 178 211 259 318
#     4  11  17  30  56  85  97 128 176 240 269 287
#     4  10  24  30  48  74 114 162 164 182 260 350
#
# _framework density 18.86384
#
# number of rings (size 3 to 8) (size 9 to 14) (size 15 to 20)
#    0.000    1.600    6.000    1.600    1.867    1.067 
#    0.000    0.000    0.000    8.000    0.000    0.000 
#    0.000    0.000    0.000    0.000    0.000    0.000 
#
# Total GULP energy -167054.285159 kJ/mol
# GULP energy per Si atom -5568.476172 kJ/mol
# Density = 1.882090 g / cm^3
# Si number density = 18.863840 Si / 1000 Ang^3
#
#
#
# Elastic Constant Matrix: (Units=GPa)
#
#
# Indices 1 2 3 4 5 6 
#
# 1 110.0085 37.0436 26.4889 0.0000 -7.8102 0.0000
# 2 37.0436 33.4443 1.5329 0.0000 -7.2994 0.0000
# 3 26.4889 1.5329 31.6174 0.0000 -1.1065 0.0000
# 4 0.0000 0.0000 0.0000 8.1872 0.0000 -0.0355
# 5 -7.8102 -7.2994 -1.1065 0.0000 34.4431 0.0000
# 6 0.0000 0.0000 0.0000 -0.0355 0.0000 40.1320
#
#
#
# Elastic Compliance Matrix: (Units=1/GPa)
#
#
# Indices 1 2 3 4 5 6 
#
# 1 0.020213 -0.021778 -0.015898 0.000000 -0.000543 0.000000
# 2 -0.021778 0.054868 0.015838 0.000000 0.007198 0.000000
# 3 -0.015898 0.015838 0.044220 0.000000 0.001172 0.000000
# 4 0.000000 0.000000 0.000000 0.122143 0.000000 0.000108
# 5 -0.000543 0.007198 0.001172 0.000000 0.030474 0.000000
# 6 0.000000 0.000000 0.000000 0.000108 0.000000 0.024918
#
#
# Mechanical properties :
#
#
# Convention : Reuss Voigt Hill
#
# Bulk Modulus (GPa) = 13.22322 33.91123 23.56723
# Shear Modulus (GPa) = 13.67165 23.88611 18.77888
#
# Velocity S-wave (km/s) = 2.69505 3.56228 3.15857
# Velocity P-wave (km/s) = 4.08772 5.91064 5.08159
#
# Compressibility (1/GPa) = 0.07562454
#
# Stress axis : x y z
#
# Youngs Moduli (GPa) = 49.47265 18.22562 22.61405
#
# Poissons Ratio (x) = 0.39692 0.35951
# Poissons Ratio (y) = 1.07743 -0.35815
# Poissons Ratio (z) = 0.78650 -0.28865
#
# Static dielectric constant tensor:
#      x y z
#    x 1.705630 0.000000 0.054470 
#    y 0.000000 1.683550 0.000000 
#    z 0.054470 0.000000 1.719820 
# 
# From -- ./inp_files/106377.got.cif
#   From: 2010.05.17/outbox.cif.g08.bks.cpg/sg15_54_cif.got.tgz:106377.got - 2010.06.03 18:47:42.
