data_PCOD9254726
_publ_section_title
;
Structure prediction by ZEFSAII (Michael W. Deem and Ramdas Pophale) SiO2 
 PCOD9254726
Probable space group: C 2/C
;
_chemical_formula_sum "Si O2"
_cell_formula_units_Z 40
_cell_length_a 13.079654
_cell_length_b 12.710430
_cell_length_c 13.083834
_cell_angle_alpha 90.000000
_cell_angle_beta 136.251449
_cell_angle_gamma 90.000000
_cell_volume 1504.112896
_symmetry_space_group_name_H-M "C 2/C"
_symmetry_group_IT_number 15
_symmetry_cell_setting 'monoclinic'
loop_
_space_group_symop_operation_xyz
x,y,z
-x,y,1/2-z
-x,-y,-z
x,-y,1/2+z
1/2+x,1/2+y,z
1/2-x,1/2+y,1/2-z
1/2-x,1/2-y,-z
1/2+x,1/2-y,1/2+z
loop_
_atom_site_type_symbol
_atom_site_label
_atom_site_fract_x
_atom_site_fract_y
_atom_site_fract_z
Si Si1 0.945448 0.034337 0.075701
Si Si2 0.136808 0.752016 0.060827
Si Si3 0.277810 0.970313 0.865000
Si Si4 0.335308 0.907452 0.669361
Si Si5 0.177610 0.290895 0.110930
O O1 0.891389 0.154825 0.037572
O O2 0.100453 0.026710 0.246107
O O3 0.000000 0.000000 0.000000
O O4 0.798662 0.965731 0.985312
O O5 0.155147 0.633481 0.033714
O O6 0.985895 0.754748 0.018287
O O7 0.271741 0.780899 0.233500
O O8 0.331860 0.087626 0.923447
O O9 0.317289 0.945155 0.774062
O O10 0.500000 0.927615 0.750000
O O11 0.294136 0.783667 0.638466
#
# Coordination Sequence:
#
# PCOD9254726 Si02
#       5
#     8   8   8   8   8
#     4  10  16  34  55  76 112 151 191 219 284 337
#     4  11  18  32  57  83 109 144 200 235 266 328
#     4  10  20  34  58  83 109 155 198 232 268 345
#     4  10  20  34  57  88 118 150 182 236 295 336
#     4  11  19  34  55  86 114 148 194 233 275 340
#
# _framework density 26.593748999999999
#
# number of rings (size 3 to 8) (size 9 to 14) (size 15 to 20)
#    0.000    1.600   10.000    0.600    0.000    0.000 
#    0.000    9.000    0.000    6.000    0.000    0.000 
#    0.000    0.000    0.000    0.000    0.000    0.000 
#
# Total GULP energy -112033.858267 kJ/mol
# GULP energy per Si atom -5601.692913 kJ/mol
# Density = 2.653322 g / cm^3
# Si number density = 26.593749 Si / 1000 Ang^3
#
#
#
# Elastic Constant Matrix: (Units=GPa)
#
#
# Indices 1 2 3 4 5 6 
#
# 1 130.6326 18.1819 30.1148 0.0000 42.4639 0.0000
# 2 18.1819 188.9220 36.3017 0.0000 -3.1287 0.0000
# 3 30.1148 36.3017 142.7243 0.0000 23.8183 0.0000
# 4 0.0000 0.0000 0.0000 47.7876 0.0000 12.5295
# 5 42.4639 -3.1287 23.8183 0.0000 38.0941 0.0000
# 6 0.0000 0.0000 0.0000 12.5295 0.0000 17.9046
#
#
#
# Elastic Compliance Matrix: (Units=1/GPa)
#
#
# Indices 1 2 3 4 5 6 
#
# 1 0.012376 -0.001439 0.000086 0.000000 -0.013967 0.000000
# 2 -0.001439 0.005810 -0.001699 0.000000 0.003143 0.000000
# 3 0.000086 -0.001699 0.008329 0.000000 -0.005442 0.000000
# 4 0.000000 0.000000 0.000000 0.025628 0.000000 -0.017934
# 5 -0.013967 0.003143 -0.005442 0.000000 0.045481 0.000000
# 6 0.000000 0.000000 0.000000 -0.017934 0.000000 0.068402
#
#
# Mechanical properties :
#
#
# Convention : Reuss Voigt Hill
#
# Bulk Modulus (GPa) = 48.99400 70.16395 59.57898
# Shear Modulus (GPa) = 27.94341 45.93597 36.93969
#
# Velocity S-wave (km/s) = 3.24505 4.16062 3.73102
# Velocity P-wave (km/s) = 5.70119 7.03718 6.40412
#
# Compressibility (1/GPa) = 0.02041066
#
# Stress axis : x y z
#
# Youngs Moduli (GPa) = 80.80322 172.11325 120.06543
#
# Poissons Ratio (x) = 0.24763 -0.01027
# Poissons Ratio (y) = 0.11626 0.20396
# Poissons Ratio (z) = -0.00691 0.29238
#
# Static dielectric constant tensor:
#      x y z
#    x 2.223340 0.000000 -0.102480 
#    y 0.000000 2.055590 0.000000 
#    z -0.102480 0.000000 2.010370 
# 
# From -- ./inp_files/248905.got.cif
#   From: 2010.05.17/outbox.cif.g08.bks.cpg/sg15_125_cif.got.tgz:248905.got - 2010.06.03 18:47:42.
