data_PCOD9254752
_publ_section_title
;
Structure prediction by ZEFSAII (Michael W. Deem and Ramdas Pophale) SiO2 
 PCOD9254752
Probable space group: C 2/C
;
_chemical_formula_sum "Si O2"
_cell_formula_units_Z 44
_cell_length_a 12.344588
_cell_length_b 12.028234
_cell_length_c 16.242048
_cell_angle_alpha 90.000000
_cell_angle_beta 46.941830
_cell_angle_gamma 90.000000
_cell_volume 1762.118609
_symmetry_space_group_name_H-M "C 2/C"
_symmetry_group_IT_number 15
_symmetry_cell_setting 'monoclinic'
loop_
_space_group_symop_operation_xyz
x,y,z
-x,y,1/2-z
-x,-y,-z
x,-y,1/2+z
1/2+x,1/2+y,z
1/2-x,1/2+y,1/2-z
1/2-x,1/2-y,-z
1/2+x,1/2-y,1/2+z
loop_
_atom_site_type_symbol
_atom_site_label
_atom_site_fract_x
_atom_site_fract_y
_atom_site_fract_z
Si Si1 0.300865 0.586222 0.649065
Si Si2 0.183045 0.238961 0.702471
Si Si3 0.237366 0.520087 0.909667
Si Si4 0.451636 0.963769 0.661070
Si Si5 0.465616 0.647050 0.091480
Si Si6 0.500000 0.649094 0.250000
O O1 0.319029 0.673320 0.711353
O O2 0.132641 0.546250 0.733110
O O3 0.373379 0.638451 0.530876
O O4 0.398079 0.477706 0.625698
O O5 0.173699 0.137782 0.642452
O O6 0.081721 0.344059 0.780085
O O7 0.347631 0.286120 0.598512
O O8 0.142161 0.489308 0.875781
O O9 0.361454 0.426703 0.848682
O O10 0.120392 0.523553 0.044949
O O11 0.460687 0.702857 0.183658
#
# Coordination Sequence:
#
# PCOD9254752 Si02
#       6
#     8   8   8   8   8   4
#     4   9  18  35  58  83 108 163 198 228 271 376
#     4  10  16  34  58  90 108 158 200 230 274 372
#     4  10  20  34  61  83 121 147 200 235 295 332
#     4   9  18  35  58  83 108 163 198 228 271 376
#     4  10  20  34  61  83 121 147 200 235 295 332
#     4  12  20  40  54  96 114 154 180 270 288 328
#
# _framework density 24.969942
#
# number of rings (size 3 to 8) (size 9 to 14) (size 15 to 20)
#    0.000    2.182    5.455    1.091    0.000    0.000 
#    0.000    2.727    0.000    0.000    0.000    0.000 
#    0.000    0.000    0.000    0.000    0.000    0.000 
#
# Total GULP energy -122784.006179 kJ/mol
# GULP energy per Si atom -5581.091190 kJ/mol
# Density = 2.491311 g / cm^3
# Si number density = 24.969942 Si / 1000 Ang^3
#
#
#
# Elastic Constant Matrix: (Units=GPa)
#
#
# Indices 1 2 3 4 5 6 
#
# 1 46.6860 0.6546 16.1003 0.0000 -4.0107 0.0000
# 2 0.6546 71.1673 14.6916 0.0000 -3.0223 0.0000
# 3 16.1003 14.6916 200.5002 0.0000 -12.3734 0.0000
# 4 0.0000 0.0000 0.0000 3.7781 0.0000 13.8786
# 5 -4.0107 -3.0223 -12.3734 0.0000 33.2020 0.0000
# 6 0.0000 0.0000 0.0000 13.8786 0.0000 0.7629
#
#
#
# Elastic Compliance Matrix: (Units=1/GPa)
#
#
# Indices 1 2 3 4 5 6 
#
# 1 0.022170 0.000229 -0.001669 0.000000 0.002077 0.000000
# 2 0.000229 0.014298 -0.001007 0.000000 0.000954 0.000000
# 3 -0.001669 -0.001007 0.005299 0.000000 0.001682 0.000000
# 4 0.000000 0.000000 0.000000 -0.004021 0.000000 0.073148
# 5 0.002077 0.000954 0.001682 0.000000 0.031083 0.000000
# 6 0.000000 0.000000 0.000000 0.073148 0.000000 -0.019913
#
#
# Mechanical properties :
#
#
# Convention : Reuss Voigt Hill
#
# Bulk Modulus (GPa) = 27.12029 42.36073 34.74051
# Shear Modulus (GPa) = 75.64062 26.67573 51.15817
#
# Velocity S-wave (km/s) = 5.50985 3.27205 4.53127
# Velocity P-wave (km/s) = 7.16677 5.59255 6.42804
#
# Compressibility (1/GPa) = 0.03687276
#
# Stress axis : x y z
#
# Youngs Moduli (GPa) = 45.10508 69.94124 188.71085
#
# Poissons Ratio (x) = -0.01600 0.31494
# Poissons Ratio (y) = -0.01032 0.19007
# Poissons Ratio (z) = 0.07528 0.07044
#
# Static dielectric constant tensor:
#      x y z
#    x 2.053890 0.000000 -0.022950 
#    y 0.000000 1.974950 0.000000 
#    z -0.022950 0.000000 1.970720 
# 
# From -- ./inp_files/126313.got.cif
#   From: 2010.05.17/outbox.cif.g08.bks.cpg/sg15_64_cif.got.tgz:126313.got - 2010.06.03 18:47:42.
