data_PCOD9254792
_publ_section_title
;
Structure prediction by ZEFSAII (Michael W. Deem and Ramdas Pophale) SiO2 
 PCOD9254792
Probable space group: C 2/C
;
_chemical_formula_sum "Si O2"
_cell_formula_units_Z 36
_cell_length_a 7.849647
_cell_length_b 12.925077
_cell_length_c 13.377912
_cell_angle_alpha 90.000000
_cell_angle_beta 86.212305
_cell_angle_gamma 90.000000
_cell_volume 1354.321972
_symmetry_space_group_name_H-M "C 2/C"
_symmetry_group_IT_number 15
_symmetry_cell_setting 'monoclinic'
loop_
_space_group_symop_operation_xyz
x,y,z
-x,y,1/2-z
-x,-y,-z
x,-y,1/2+z
1/2+x,1/2+y,z
1/2-x,1/2+y,1/2-z
1/2-x,1/2-y,-z
1/2+x,1/2-y,1/2+z
loop_
_atom_site_type_symbol
_atom_site_label
_atom_site_fract_x
_atom_site_fract_y
_atom_site_fract_z
Si Si1 0.165807 0.554124 0.296040
Si Si2 0.394517 0.162205 0.005062
Si Si3 0.178918 0.993221 0.896986
Si Si4 0.500000 0.347516 0.250000
Si Si5 0.222145 0.138946 0.578058
O O1 0.113962 0.638925 0.377011
O O2 0.280953 0.581696 0.197942
O O3 0.243999 0.464177 0.358743
O O4 0.000000 0.508760 0.250000
O O5 0.328192 0.060441 0.946499
O O6 0.592990 0.180921 0.966892
O O7 0.250000 0.250000 0.000000
O O8 0.088227 0.083019 0.834306
O O9 0.121554 0.912680 0.986395
O O10 0.364751 0.293773 0.330013
#
# Coordination Sequence:
#
# PCOD9254792 Si02
#       5
#     8   8   8   4   8
#     4  10  16  34  67  95 122 186 227 266 339 412
#     4  11  22  36  61 102 143 174 225 295 355 399
#     4  10  19  38  61  96 130 180 233 280 336 412
#     4  10  22  32  62  94 126 180 236 282 314 398
#     4  10  19  35  62  93 132 174 233 285 328 413
#
# _framework density 26.581565999999999
#
# number of rings (size 3 to 8) (size 9 to 14) (size 15 to 20)
#    0.000    1.778    4.444    2.000    0.000    0.000 
#    2.000    1.111    0.000   56.000    0.000    4.667 
#    0.000    0.000    0.000    0.444    0.000    0.000 
#
# Total GULP energy -100243.527418 kJ/mol
# GULP energy per Si atom -5569.084857 kJ/mol
# Density = 2.652106 g / cm^3
# Si number density = 26.581566 Si / 1000 Ang^3
#
#
#
# Elastic Constant Matrix: (Units=GPa)
#
#
# Indices 1 2 3 4 5 6 
#
# 1 54.2156 13.8830 40.6229 0.0000 -5.6380 0.0000
# 2 13.8830 99.3309 32.8054 0.0000 -8.2895 0.0000
# 3 40.6229 32.8054 267.7121 0.0000 -35.7270 0.0000
# 4 0.0000 0.0000 0.0000 5.3822 0.0000 16.1286
# 5 -5.6380 -8.2895 -35.7270 0.0000 61.6019 0.0000
# 6 0.0000 0.0000 0.0000 16.1286 0.0000 37.5547
#
#
#
# Elastic Compliance Matrix: (Units=1/GPa)
#
#
# Indices 1 2 3 4 5 6 
#
# 1 0.021178 -0.001981 -0.002978 0.000000 -0.000056 0.000000
# 2 -0.001981 0.010707 -0.000914 0.000000 0.000729 0.000000
# 3 -0.002978 -0.000914 0.004603 0.000000 0.002274 0.000000
# 4 0.000000 0.000000 0.000000 -0.647438 0.000000 0.278055
# 5 -0.000056 0.000729 0.002274 0.000000 0.017645 0.000000
# 6 0.000000 0.000000 0.000000 0.278055 0.000000 -0.092788
#
#
# Mechanical properties :
#
#
# Convention : Reuss Voigt Hill
#
# Bulk Modulus (GPa) = 40.41870 66.20903 53.31386
# Shear Modulus (GPa) = -7.50638 43.17091 17.83227
#
# Velocity S-wave (km/s) = -1.68227 4.03437 2.59289
# Velocity P-wave (km/s) = 3.38603 6.83107 5.39114
#
# Compressibility (1/GPa) = 0.02474103
#
# Stress axis : x y z
#
# Youngs Moduli (GPa) = 47.21903 93.39690 217.26192
#
# Poissons Ratio (x) = 0.18502 0.64705
# Poissons Ratio (y) = 0.09354 0.19860
# Poissons Ratio (z) = 0.14063 0.08537
#
# Static dielectric constant tensor:
#      x y z
#    x 2.394610 0.000000 -0.171120 
#    y 0.000000 2.125280 0.000000 
#    z -0.171120 0.000000 2.080980 
# 
# From -- ./inp_files/132801.got.cif
#   From: 2010.05.17/outbox.cif.g08.bks.cpg/sg15_67_cif.got.tgz:132801.got - 2010.06.03 18:47:42.
