data_PCOD9254793
_publ_section_title
;
Structure prediction by ZEFSAII (Michael W. Deem and Ramdas Pophale) SiO2 
 PCOD9254793
Probable space group: C 2/C
;
_chemical_formula_sum "Si O2"
_cell_formula_units_Z 56
_cell_length_a 13.644146
_cell_length_b 12.112311
_cell_length_c 17.595811
_cell_angle_alpha 90.000000
_cell_angle_beta 115.756044
_cell_angle_gamma 90.000000
_cell_volume 2619.026382
_symmetry_space_group_name_H-M "C 2/C"
_symmetry_group_IT_number 15
_symmetry_cell_setting 'monoclinic'
loop_
_space_group_symop_operation_xyz
x,y,z
-x,y,1/2-z
-x,-y,-z
x,-y,1/2+z
1/2+x,1/2+y,z
1/2-x,1/2+y,1/2-z
1/2-x,1/2-y,-z
1/2+x,1/2-y,1/2+z
loop_
_atom_site_type_symbol
_atom_site_label
_atom_site_fract_x
_atom_site_fract_y
_atom_site_fract_z
Si Si1 0.258653 0.625251 0.535654
Si Si2 0.330187 0.839825 0.192377
Si Si3 0.863410 0.897230 0.740068
Si Si4 0.953833 0.968886 0.605891
Si Si5 0.334655 0.028121 0.844034
Si Si6 0.851053 0.225890 0.977163
Si Si7 0.081844 0.558015 0.931191
O O1 0.250000 0.750000 0.500000
O O2 0.381925 0.577787 0.564757
O O3 0.221100 0.609077 0.611522
O O4 0.175522 0.534944 0.470654
O O5 0.381922 0.732319 0.249384
O O6 0.322456 0.924950 0.256342
O O7 0.210899 0.810967 0.118989
O O8 0.399539 0.885017 0.144662
O O9 0.908399 0.932842 0.673026
O O10 0.918721 0.963088 0.828668
O O11 0.736716 0.919005 0.685250
O O12 0.922415 0.874370 0.534870
O O13 0.461578 0.011773 0.899494
O O14 0.750000 0.250000 0.000000
O O15 0.909905 0.343029 0.004233
#
# Coordination Sequence:
#
# PCOD9254793 Si02
#       7
#     8   8   8   8   8   8   8
#     4  11  24  44  65  90 137 185 214 255 330 408
#     4  11  21  38  68  99 128 162 217 275 335 382
#     4  10  21  38  64  94 128 165 212 280 327 374
#     4  10  18  38  66  89 122 170 219 258 325 380
#     4  11  25  41  61 101 131 165 220 273 327 391
#     4  10  16  34  67  97 117 156 219 274 312 373
#     4  11  21  42  71  97 122 172 222 277 324 383
#
# _framework density 21.381989999999998
#
# number of rings (size 3 to 8) (size 9 to 14) (size 15 to 20)
#    0.000    1.429    5.714    2.571    2.000    1.143 
#    5.143    0.714    3.143    0.000    0.000    0.000 
#    0.000    0.000    0.000    0.000    0.000    0.000 
#
# Total GULP energy -156087.646695 kJ/mol
# GULP energy per Si atom -5574.558811 kJ/mol
# Density = 2.133332 g / cm^3
# Si number density = 21.381990 Si / 1000 Ang^3
#
#
#
# Elastic Constant Matrix: (Units=GPa)
#
#
# Indices 1 2 3 4 5 6 
#
# 1 67.0131 22.3286 36.0264 0.0000 21.0335 0.0000
# 2 22.3286 89.6621 30.9266 0.0000 7.1036 0.0000
# 3 36.0264 30.9266 111.0961 0.0000 17.8815 0.0000
# 4 0.0000 0.0000 0.0000 35.0888 0.0000 1.8655
# 5 21.0335 7.1036 17.8815 0.0000 38.5637 0.0000
# 6 0.0000 0.0000 0.0000 1.8655 0.0000 20.3927
#
#
#
# Elastic Compliance Matrix: (Units=1/GPa)
#
#
# Indices 1 2 3 4 5 6 
#
# 1 0.021176 -0.002981 -0.004611 0.000000 -0.008863 0.000000
# 2 -0.002981 0.012777 -0.002672 0.000000 0.000512 0.000000
# 3 -0.004611 -0.002672 0.011624 0.000000 -0.002383 0.000000
# 4 0.000000 0.000000 0.000000 0.028638 0.000000 -0.002620
# 5 -0.008863 0.000512 -0.002383 0.000000 0.031776 0.000000
# 6 0.000000 0.000000 0.000000 -0.002620 0.000000 0.049277
#
#
# Mechanical properties :
#
#
# Convention : Reuss Voigt Hill
#
# Bulk Modulus (GPa) = 39.92243 49.59270 44.75757
# Shear Modulus (GPa) = 27.15245 30.70834 28.93040
#
# Velocity S-wave (km/s) = 3.56740 3.79381 3.68234
# Velocity P-wave (km/s) = 5.97327 6.51419 6.24959
#
# Compressibility (1/GPa) = 0.02504858
#
# Stress axis : x y z
#
# Youngs Moduli (GPa) = 47.22262 78.26822 86.03033
#
# Poissons Ratio (x) = 0.23332 0.39666
# Poissons Ratio (y) = 0.14077 0.22990
# Poissons Ratio (z) = 0.21773 0.20916
#
# Static dielectric constant tensor:
#      x y z
#    x 1.857290 0.000000 0.057540 
#    y 0.000000 1.616820 0.000000 
#    z 0.057540 0.000000 1.832250 
# 
# From -- ./inp_files/204527.got.cif
#   From: 2010.05.17/outbox.cif.g08.bks.cpg/sg15_103_cif.got.tgz:204527.got - 2010.06.03 18:47:42.
