data_PCOD9254099
_publ_section_title
;
Structure prediction by ZEFSAII (Michael W. Deem and Ramdas Pophale) SiO2 
 PCOD9254099
Probable space group: C 2/C
;
_chemical_formula_sum "Si O2"
_cell_formula_units_Z 64
_cell_length_a 19.375703
_cell_length_b 17.734605
_cell_length_c 11.908128
_cell_angle_alpha 90.000000
_cell_angle_beta 75.404982
_cell_angle_gamma 90.000000
_cell_volume 3959.835769
_symmetry_space_group_name_H-M "C 2/C"
_symmetry_group_IT_number 15
_symmetry_cell_setting 'monoclinic'
loop_
_space_group_symop_operation_xyz
x,y,z
-x,y,1/2-z
-x,-y,-z
x,-y,1/2+z
1/2+x,1/2+y,z
1/2-x,1/2+y,1/2-z
1/2-x,1/2-y,-z
1/2+x,1/2-y,1/2+z
loop_
_atom_site_type_symbol
_atom_site_label
_atom_site_fract_x
_atom_site_fract_y
_atom_site_fract_z
Si Si1 0.249656 0.127111 0.361870
Si Si2 0.116343 0.784515 0.986117
Si Si3 0.308131 0.867362 0.092722
Si Si4 0.531796 0.099093 0.401874
Si Si5 0.174655 0.778810 0.219092
Si Si6 0.162019 0.501840 0.259116
Si Si7 0.942944 0.459271 0.369218
Si Si8 0.973845 0.225244 0.638079
O O1 0.168322 0.154819 0.407210
O O2 0.282596 0.121623 0.474594
O O3 0.291332 0.195801 0.284280
O O4 0.267144 0.049486 0.292832
O O5 0.135089 0.701353 0.930697
O O6 0.142584 0.780440 0.105411
O O7 0.032480 0.801952 0.024562
O O8 0.239374 0.837382 0.189947
O O9 0.334296 0.942665 0.141619
O O10 0.599326 0.061448 0.312756
O O11 0.547829 0.093144 0.527254
O O12 0.520283 0.183790 0.368392
O O13 0.465952 0.043532 0.400567
O O14 0.110000 0.793000 0.331048
O O15 0.133590 0.461171 0.158154
O O16 0.000000 0.437896 0.250000
O O17 0.000000 0.198983 0.750000
#
# Coordination Sequence:
#
# PCOD9254099 Si02
#       8
#     8   8   8   8   8   8   8   8
#     4   9  16  30  41  64  91 115 145 179 219 262
#     4   8  17  26  44  64  90 113 142 182 221 261
#     4   9  18  28  44  64  90 117 145 179 220 260
#     4  10  19  27  40  61  91 116 141 174 212 264
#     4   8  15  29  42  64  90 114 142 179 219 262
#     4  11  18  27  44  62  87 122 145 176 214 265
#     4   9  20  28  35  58  91 120 142 171 206 263
#     4  10  16  25  46  68  85 112 140 178 225 258
#
# _framework density 16.162286999999999
#
# number of rings (size 3 to 8) (size 9 to 14) (size 15 to 20)
#    0.000    2.750    1.250    3.375    8.750    0.000 
#    0.000    0.000    0.000    1.500    0.000    0.000 
#    0.000    0.000    0.000    0.000    0.000    0.000 
#
# Total GULP energy -178204.168857 kJ/mol
# GULP energy per Si atom -5568.880277 kJ/mol
# Density = 1.612550 g / cm^3
# Si number density = 16.162287 Si / 1000 Ang^3
#
#
#
# Elastic Constant Matrix: (Units=GPa)
#
#
# Indices 1 2 3 4 5 6 
#
# 1 63.1746 10.8072 21.1176 0.0000 -31.3988 0.0000
# 2 10.8072 31.1402 8.6946 0.0000 -6.5706 0.0000
# 3 21.1176 8.6946 51.9697 0.0000 -11.6677 0.0000
# 4 0.0000 0.0000 0.0000 17.7342 0.0000 -4.7799
# 5 -31.3988 -6.5706 -11.6677 0.0000 29.3618 0.0000
# 6 0.0000 0.0000 0.0000 -4.7799 0.0000 11.9676
#
#
#
# Elastic Compliance Matrix: (Units=1/GPa)
#
#
# Indices 1 2 3 4 5 6 
#
# 1 0.036006 -0.003328 -0.006145 0.000000 0.035317 0.000000
# 2 -0.003328 0.034924 -0.003881 0.000000 0.002714 0.000000
# 3 -0.006145 -0.003881 0.022747 0.000000 0.001600 0.000000
# 4 0.000000 0.000000 0.000000 0.063191 0.000000 0.025239
# 5 0.035317 0.002714 0.001600 0.000000 0.073068 0.000000
# 6 0.000000 0.000000 0.000000 0.025239 0.000000 0.093639
#
#
# Mechanical properties :
#
#
# Convention : Reuss Voigt Hill
#
# Bulk Modulus (GPa) = 14.93234 25.28037 20.10636
# Shear Modulus (GPa) = 13.41898 18.85706 16.13802
#
# Velocity S-wave (km/s) = 2.88456 3.41945 3.16333
# Velocity P-wave (km/s) = 4.51146 5.59158 5.08031
#
# Compressibility (1/GPa) = 0.06696875
#
# Stress axis : x y z
#
# Youngs Moduli (GPa) = 27.77339 28.63346 43.96114
#
# Poissons Ratio (x) = 0.09530 0.27013
# Poissons Ratio (y) = 0.09244 0.17062
# Poissons Ratio (z) = 0.17066 0.11113
#
# Static dielectric constant tensor:
#      x y z
#    x 1.585560 0.000000 -0.040580 
#    y 0.000000 1.530380 0.000000 
#    z -0.040580 0.000000 1.564370 
# 
# From -- ./inp_files/106446.got.cif
#   From: 2010.05.17/outbox.cif.g08.bks.cpg/sg15_54_cif.got.tgz:106446.got - 2010.06.03 18:47:42.
