data_PCOD9254967
_publ_section_title
;
Structure prediction by ZEFSAII (Michael W. Deem and Ramdas Pophale) SiO2 
 PCOD9254967
Probable space group: C 2/C
;
_chemical_formula_sum "Si O2"
_cell_formula_units_Z 56
_cell_length_a 11.489174
_cell_length_b 17.950319
_cell_length_c 11.476304
_cell_angle_alpha 90.000000
_cell_angle_beta 80.533700
_cell_angle_gamma 90.000000
_cell_volume 2334.577974
_symmetry_space_group_name_H-M "C 2/C"
_symmetry_group_IT_number 15
_symmetry_cell_setting 'monoclinic'
loop_
_space_group_symop_operation_xyz
x,y,z
-x,y,1/2-z
-x,-y,-z
x,-y,1/2+z
1/2+x,1/2+y,z
1/2-x,1/2+y,1/2-z
1/2-x,1/2-y,-z
1/2+x,1/2-y,1/2+z
loop_
_atom_site_type_symbol
_atom_site_label
_atom_site_fract_x
_atom_site_fract_y
_atom_site_fract_z
Si Si1 0.394967 0.735676 0.673250
Si Si2 0.881651 0.398171 0.013417
Si Si3 0.161934 0.827192 0.699897
Si Si4 0.289595 0.400132 0.058955
Si Si5 0.297672 0.569771 0.129931
Si Si6 0.418457 0.032264 0.168048
Si Si7 0.556494 0.191609 0.585824
O O1 0.500000 0.736889 0.750000
O O2 0.283923 0.787883 0.724865
O O3 0.351902 0.652683 0.644968
O O4 0.430111 0.769301 0.542163
O O5 0.760633 0.385437 0.967283
O O6 0.990281 0.408739 0.903308
O O7 0.875081 0.478230 0.075094
O O8 0.925457 0.341135 0.102824
O O9 0.177982 0.875594 0.578411
O O10 0.113089 0.878521 0.813020
O O11 0.092841 0.755503 0.666878
O O12 0.321019 0.485818 0.082449
O O13 0.151192 0.375614 0.085290
O O14 0.193907 0.559776 0.243240
O O15 0.500000 0.991657 0.250000
#
# Coordination Sequence:
#
# PCOD9254967 Si02
#       7
#     8   8   8   8   8   8   8
#     4   9  16  29  48  69  91 119 154 193 230 269
#     4  10  17  26  42  67  96 122 152 184 221 273
#     4   9  18  29  44  69  95 120 149 192 237 267
#     4   9  18  29  44  69  98 122 152 190 230 273
#     4  11  18  27  44  70  99 125 150 183 231 280
#     4   9  17  25  38  64  97 124 145 177 223 272
#     4   9  16  28  43  64  95 120 147 190 233 271
#
# _framework density 23.987203999999998
#
# number of rings (size 3 to 8) (size 9 to 14) (size 15 to 20)
#    0.000    2.571    0.000    7.714    0.000    1.143 
#    0.000    0.000    0.000    3.429    0.000   51.000 
#    0.000    0.000    0.000    0.000    0.000    0.000 
#
# Total GULP energy -156308.409142 kJ/mol
# GULP energy per Si atom -5582.443184 kJ/mol
# Density = 2.393261 g / cm^3
# Si number density = 23.987204 Si / 1000 Ang^3
#
#
#
# Elastic Constant Matrix: (Units=GPa)
#
#
# Indices 1 2 3 4 5 6 
#
# 1 43.5359 26.4171 42.5212 0.0000 20.9039 0.0000
# 2 26.4171 148.5725 52.4869 0.0000 33.4668 0.0000
# 3 42.5212 52.4869 105.8263 0.0000 43.1678 0.0000
# 4 0.0000 0.0000 0.0000 45.7773 0.0000 12.6539
# 5 20.9039 33.4668 43.1678 0.0000 35.3546 0.0000
# 6 0.0000 0.0000 0.0000 12.6539 0.0000 21.2390
#
#
#
# Elastic Compliance Matrix: (Units=1/GPa)
#
#
# Indices 1 2 3 4 5 6 
#
# 1 0.038967 -0.000992 -0.012252 0.000000 -0.007141 0.000000
# 2 -0.000992 0.008770 -0.001602 0.000000 -0.005760 0.000000
# 3 -0.012252 -0.001602 0.023097 0.000000 -0.019441 0.000000
# 4 0.000000 0.000000 0.000000 0.026152 0.000000 -0.015581
# 5 -0.007141 -0.005760 -0.019441 0.000000 0.061696 0.000000
# 6 0.000000 0.000000 0.000000 -0.015581 0.000000 0.056366
#
#
# Mechanical properties :
#
#
# Convention : Reuss Voigt Hill
#
# Bulk Modulus (GPa) = 24.30565 60.08725 42.19645
# Shear Modulus (GPa) = 19.34583 32.24148 25.79365
#
# Velocity S-wave (km/s) = 2.84299 3.67019 3.28275
# Velocity P-wave (km/s) = 4.57510 6.56235 5.65668
#
# Compressibility (1/GPa) = 0.04114269
#
# Stress axis : x y z
#
# Youngs Moduli (GPa) = 25.66295 114.02011 43.29574
#
# Poissons Ratio (x) = 0.11306 0.53047
# Poissons Ratio (y) = 0.02545 0.06936
# Poissons Ratio (z) = 0.31443 0.18266
#
# Static dielectric constant tensor:
#      x y z
#    x 2.011170 0.000000 0.002330 
#    y 0.000000 1.978610 0.000000 
#    z 0.002330 0.000000 1.962860 
# 
# From -- ./inp_files/99451.got.cif
#   From: 2010.05.17/outbox.cif.g08.bks.cpg/sg15_50_cif.got.tgz:99451.got - 2010.06.03 18:47:42.
