data_PCOD9254354
_publ_section_title
;
Structure prediction by ZEFSAII (Michael W. Deem and Ramdas Pophale) SiO2 
 PCOD9254354
Probable space group: C 2/C
;
_chemical_formula_sum "Si O2"
_cell_formula_units_Z 52
_cell_length_a 20.007002
_cell_length_b 28.916836
_cell_length_c 5.196973
_cell_angle_alpha 90.000000
_cell_angle_beta 70.348706
_cell_angle_gamma 90.000000
_cell_volume 2831.535399
_symmetry_space_group_name_H-M "C 2/C"
_symmetry_group_IT_number 15
_symmetry_cell_setting 'monoclinic'
loop_
_space_group_symop_operation_xyz
x,y,z
-x,y,1/2-z
-x,-y,-z
x,-y,1/2+z
1/2+x,1/2+y,z
1/2-x,1/2+y,1/2-z
1/2-x,1/2-y,-z
1/2+x,1/2-y,1/2+z
loop_
_atom_site_type_symbol
_atom_site_label
_atom_site_fract_x
_atom_site_fract_y
_atom_site_fract_z
Si Si1 0.582562 0.287333 0.174833
Si Si2 0.500000 0.531279 0.750000
Si Si3 0.531827 0.947880 0.456984
Si Si4 0.883637 0.893886 0.316113
Si Si5 0.302244 0.969135 0.281762
Si Si6 0.820483 0.219604 0.451924
Si Si7 0.699047 0.388043 0.570958
O O1 0.500000 0.272015 0.250000
O O2 0.581768 0.343288 0.203103
O O3 0.630427 0.271134 0.358494
O O4 0.627255 0.276217 0.860602
O O5 0.500000 0.500000 0.500000
O O6 0.566887 0.564993 0.660225
O O7 0.500000 0.923738 0.250000
O O8 0.615153 0.955001 0.333748
O O9 0.500000 0.000000 0.500000
O O10 0.500000 0.924760 0.750000
O O11 0.864494 0.901208 0.042561
O O12 0.818828 0.893331 0.604498
O O13 0.260019 0.922783 0.403834
O O14 0.287321 0.006136 0.528630
O O15 0.750000 0.250000 0.500000
O O16 0.792674 0.166410 0.497310
#
# Coordination Sequence:
#
# PCOD9254354 Si02
#       7
#     8   4   8   8   8   8   8
#     4  10  19  36  64  89 108 148 200 242 277 344
#     4  12  24  34  54  74 108 158 190 234 294 322
#     4  10  16  30  48  70  94 123 181 220 259 312
#     4  10  21  39  51  76 110 142 194 235 268 333
#     4  12  21  32  52  77 104 144 180 229 272 326
#     4  10  21  38  61  88 119 152 185 243 303 356
#     4  10  23  36  55  79 112 146 187 229 283 336
#
# _framework density 18.364595000000001
#
# number of rings (size 3 to 8) (size 9 to 14) (size 15 to 20)
#    0.000    1.538    3.846    2.769    0.000    3.692 
#    0.000    0.000    0.000    2.769    0.000    0.000 
#    0.000    0.000    0.000    0.000    0.000    0.000 
#
# Total GULP energy -144901.289285 kJ/mol
# GULP energy per Si atom -5573.126511 kJ/mol
# Density = 1.832280 g / cm^3
# Si number density = 18.364595 Si / 1000 Ang^3
#
#
#
# Elastic Constant Matrix: (Units=GPa)
#
#
# Indices 1 2 3 4 5 6 
#
# 1 103.1064 47.1908 41.1726 0.0000 -3.9381 0.0000
# 2 47.1908 55.6671 18.4308 0.0000 -3.9885 0.0000
# 3 41.1726 18.4308 114.6862 0.0000 21.7616 0.0000
# 4 0.0000 0.0000 0.0000 10.4446 0.0000 -2.9885
# 5 -3.9381 -3.9885 21.7616 0.0000 37.2654 0.0000
# 6 0.0000 0.0000 0.0000 -2.9885 0.0000 47.4384
#
#
#
# Elastic Compliance Matrix: (Units=1/GPa)
#
#
# Indices 1 2 3 4 5 6 
#
# 1 0.017866 -0.013280 -0.004913 0.000000 0.003335 0.000000
# 2 -0.013280 0.029474 -0.000339 0.000000 0.001949 0.000000
# 3 -0.004913 -0.000339 0.011969 0.000000 -0.007545 0.000000
# 4 0.000000 0.000000 0.000000 0.097501 0.000000 0.006142
# 5 0.003335 0.001949 -0.007545 0.000000 0.031802 0.000000
# 6 0.000000 0.000000 0.000000 0.006142 0.000000 0.021467
#
#
# Mechanical properties :
#
#
# Convention : Reuss Voigt Hill
#
# Bulk Modulus (GPa) = 44.95237 54.11645 49.53441
# Shear Modulus (GPa) = 19.64200 30.14070 24.89135
#
# Velocity S-wave (km/s) = 3.27396 4.05562 3.68557
# Velocity P-wave (km/s) = 6.23078 7.17374 6.71882
#
# Compressibility (1/GPa) = 0.02224577
#
# Stress axis : x y z
#
# Youngs Moduli (GPa) = 55.97224 33.92850 83.54778
#
# Poissons Ratio (x) = 0.45057 0.41044
# Poissons Ratio (y) = 0.74332 0.02831
# Poissons Ratio (z) = 0.27497 0.01150
#
# Static dielectric constant tensor:
#      x y z
#    x 1.654060 0.000000 0.044570 
#    y 0.000000 1.599860 0.000000 
#    z 0.044570 0.000000 1.596600 
# 
# From -- ./inp_files/11222.got.cif
#   From: 2010.05.17/outbox.cif.g08.bks.cpg/sg15_6_cif.got.tgz:11222.got - 2010.06.03 18:47:42.
