data_PCOD9254004
_publ_section_title
;
Structure prediction by ZEFSAII (Michael W. Deem and Ramdas Pophale) SiO2 
 PCOD9254004
Probable space group: C 2/C
;
_chemical_formula_sum "Si O2"
_cell_formula_units_Z 36
_cell_length_a 7.959257
_cell_length_b 10.829179
_cell_length_c 17.538757
_cell_angle_alpha 90.000000
_cell_angle_beta 61.123126
_cell_angle_gamma 90.000000
_cell_volume 1323.738333
_symmetry_space_group_name_H-M "C 2/C"
_symmetry_group_IT_number 15
_symmetry_cell_setting 'monoclinic'
loop_
_space_group_symop_operation_xyz
x,y,z
-x,y,1/2-z
-x,-y,-z
x,-y,1/2+z
1/2+x,1/2+y,z
1/2-x,1/2+y,1/2-z
1/2-x,1/2-y,-z
1/2+x,1/2-y,1/2+z
loop_
_atom_site_type_symbol
_atom_site_label
_atom_site_fract_x
_atom_site_fract_y
_atom_site_fract_z
Si Si1 0.432570 0.233383 0.850598
Si Si2 0.500000 0.074985 0.250000
Si Si3 0.890717 0.937405 0.593587
Si Si4 0.822667 0.656087 0.572992
Si Si5 0.024426 0.730817 0.391474
O O1 0.500000 0.226639 0.750000
O O2 0.472739 0.371955 0.873963
O O3 0.205506 0.221032 0.899991
O O4 0.558951 0.140375 0.875729
O O5 0.306524 0.012158 0.325030
O O6 0.578478 0.161178 0.301811
O O7 0.812622 0.807347 0.573455
O O8 0.000000 0.000000 0.500000
O O9 0.942621 0.630302 0.471280
O O10 0.595012 0.645652 0.610414
#
# Coordination Sequence:
#
# PCOD9254004 Si02
#       5
#     8   4   8   8   8
#     4  10  17  29  54  78  97 140 173 212 260 322
#     4  10  18  32  58  72 106 146 172 224 262 316
#     4   9  19  34  52  75 106 141 178 218 263 314
#     4   8  19  28  52  75 106 132 165 231 250 314
#     4  10  15  32  50  79 100 129 181 206 276 306
#
# _framework density 27.195706000000001
#
# number of rings (size 3 to 8) (size 9 to 14) (size 15 to 20)
#    1.333    1.333    2.222    0.667    0.000    0.000 
#    0.000    4.444    4.889    0.000    0.000    0.000 
#    0.000    0.000    0.000    0.000    0.000    0.000 
#
# Total GULP energy -100239.586346 kJ/mol
# GULP energy per Si atom -5568.865908 kJ/mol
# Density = 2.713381 g / cm^3
# Si number density = 27.195706 Si / 1000 Ang^3
#
#
#
# Elastic Constant Matrix: (Units=GPa)
#
#
# Indices 1 2 3 4 5 6 
#
# 1 222.3917 -4.2478 67.6492 0.0000 10.9792 0.0000
# 2 -4.2478 78.5586 37.8995 0.0000 0.5974 0.0000
# 3 67.6492 37.8995 175.4824 0.0000 8.9179 0.0000
# 4 0.0000 0.0000 0.0000 33.6752 0.0000 10.8114
# 5 10.9792 0.5974 8.9179 0.0000 65.0032 0.0000
# 6 0.0000 0.0000 0.0000 10.8114 0.0000 -3.0307
#
#
#
# Elastic Compliance Matrix: (Units=1/GPa)
#
#
# Indices 1 2 3 4 5 6 
#
# 1 0.005250 0.001396 -0.002296 0.000000 -0.000585 0.000000
# 2 0.001396 0.014587 -0.003695 0.000000 0.000137 0.000000
# 3 -0.002296 -0.003695 0.007412 0.000000 -0.000595 0.000000
# 4 0.000000 0.000000 0.000000 0.013842 0.000000 0.049380
# 5 -0.000585 0.000137 -0.000595 0.000000 0.015563 0.000000
# 6 0.000000 0.000000 0.000000 0.049380 0.000000 -0.153808
#
#
# Mechanical properties :
#
#
# Convention : Reuss Voigt Hill
#
# Bulk Modulus (GPa) = 55.37586 75.44827 65.41206
# Shear Modulus (GPa) = -61.01789 44.13833 -8.43978
#
# Velocity S-wave (km/s) = -4.74187 4.03300 -1.76354
# Velocity P-wave (km/s) = 3.09422 7.03490 4.46741
#
# Compressibility (1/GPa) = 0.01805841
#
# Stress axis : x y z
#
# Youngs Moduli (GPa) = 190.45896 68.55605 134.91637
#
# Poissons Ratio (x) = -0.09570 0.30975
# Poissons Ratio (y) = -0.26587 0.49857
# Poissons Ratio (z) = 0.43727 0.25334
#
# Static dielectric constant tensor:
#      x y z
#    x 3.111770 0.000000 -0.405450 
#    y 0.000000 2.309070 0.000000 
#    z -0.405450 0.000000 2.197320 
# 
# From -- ./inp_files/78826.got.cif
#   From: 2010.05.17/outbox.cif.g08.bks.cpg/sg15_40_cif.got.tgz:78826.got - 2010.06.03 18:47:42.
