data_PCOD9254683
_publ_section_title
;
Structure prediction by ZEFSAII (Michael W. Deem and Ramdas Pophale) SiO2 
 PCOD9254683
Probable space group: C 2/C
;
_chemical_formula_sum "Si O2"
_cell_formula_units_Z 52
_cell_length_a 14.710460
_cell_length_b 14.727266
_cell_length_c 14.157817
_cell_angle_alpha 90.000000
_cell_angle_beta 140.503918
_cell_angle_gamma 90.000000
_cell_volume 1950.828875
_symmetry_space_group_name_H-M "C 2/C"
_symmetry_group_IT_number 15
_symmetry_cell_setting 'monoclinic'
loop_
_space_group_symop_operation_xyz
x,y,z
-x,y,1/2-z
-x,-y,-z
x,-y,1/2+z
1/2+x,1/2+y,z
1/2-x,1/2+y,1/2-z
1/2-x,1/2-y,-z
1/2+x,1/2-y,1/2+z
loop_
_atom_site_type_symbol
_atom_site_label
_atom_site_fract_x
_atom_site_fract_y
_atom_site_fract_z
Si Si1 0.903638 0.631826 0.521125
Si Si2 0.195314 0.449728 0.989101
Si Si3 0.500000 0.757866 0.250000
Si Si4 0.500000 0.192335 0.250000
Si Si5 0.000000 0.970337 0.250000
Si Si6 0.792784 0.337060 0.742997
Si Si7 0.000172 0.884093 0.919389
Si Si8 0.804200 0.456516 0.212643
O O1 0.833360 0.532216 0.463975
O O2 0.879914 0.678317 0.605250
O O3 0.845836 0.692875 0.389585
O O4 0.073419 0.612175 0.655441
O O5 0.088125 0.367739 0.896883
O O6 0.177674 0.506563 0.878986
O O7 0.355845 0.415161 0.124250
O O8 0.519098 0.693455 0.175753
O O9 0.631668 0.216873 0.282219
O O10 0.983036 0.029955 0.332522
O O11 0.621151 0.352252 0.603770
O O12 0.832443 0.444500 0.779275
O O13 0.147985 0.910489 0.090132
#
# Coordination Sequence:
#
# PCOD9254683 Si02
#       8
#     8   8   4   4   4   8   8   8
#     4  12  20  35  59  90 129 163 204 257 320 391
#     4  10  16  33  51  84 118 160 191 251 314 371
#     4  11  25  40  62 100 140 167 206 255 332 413
#     4  10  21  36  57  80 114 152 218 270 302 360
#     4   9  18  30  49  80 120 151 198 223 314 381
#     4  11  22  37  59  85 119 167 219 265 312 371
#     4  10  22  36  55  84 126 170 199 250 320 385
#     4  10  20  35  55  83 123 166 205 254 313 384
#
# _framework density 26.655338
#
# number of rings (size 3 to 8) (size 9 to 14) (size 15 to 20)
#    0.000    1.538    6.154    0.923    0.000    2.462 
#    0.000    0.000    0.000    0.923    0.000    0.000 
#    0.000    0.000    0.000    0.000    0.000    0.000 
#
# Total GULP energy -144748.955792 kJ/mol
# GULP energy per Si atom -5567.267530 kJ/mol
# Density = 2.659467 g / cm^3
# Si number density = 26.655338 Si / 1000 Ang^3
#
#
#
# Elastic Constant Matrix: (Units=GPa)
#
#
# Indices 1 2 3 4 5 6 
#
# 1 91.4962 -18.2836 30.8460 0.0000 -2.2046 0.0000
# 2 -18.2836 41.6769 -5.5767 0.0000 -8.3622 0.0000
# 3 30.8460 -5.5767 109.5925 0.0000 30.6100 0.0000
# 4 0.0000 0.0000 0.0000 10.8017 0.0000 -26.7685
# 5 -2.2046 -8.3622 30.6100 0.0000 62.0436 0.0000
# 6 0.0000 0.0000 0.0000 -26.7685 0.0000 59.5110
#
#
#
# Elastic Compliance Matrix: (Units=1/GPa)
#
#
# Indices 1 2 3 4 5 6 
#
# 1 0.013783 0.006153 -0.004564 0.000001 0.003571 0.000000
# 2 0.006153 0.027421 -0.001658 0.000001 0.004733 0.000000
# 3 -0.004564 -0.001658 0.012100 0.000000 -0.006355 0.000000
# 4 0.000001 0.000001 0.000000 -0.807107 0.000000 -0.363043
# 5 0.003571 0.004733 -0.006355 0.000000 0.020018 0.000000
# 6 0.000000 0.000000 0.000000 -0.363043 0.000000 -0.146496
#
#
# Mechanical properties :
#
#
# Convention : Reuss Voigt Hill
#
# Bulk Modulus (GPa) = 18.80918 28.52634 23.66776
# Shear Modulus (GPa) = -5.79764 42.18992 18.19614
#
# Velocity S-wave (km/s) = -1.47640 3.98275 2.61558
# Velocity P-wave (km/s) = 2.04093 5.64579 4.24502
#
# Compressibility (1/GPa) = 0.05316553
#
# Stress axis : x y z
#
# Youngs Moduli (GPa) = 72.55074 36.46856 82.64514
#
# Poissons Ratio (x) = -0.22437 0.37717
# Poissons Ratio (y) = -0.44637 0.13704
# Poissons Ratio (z) = 0.33110 0.06047
#
# Static dielectric constant tensor:
#      x y z
#    x 2.429660 0.000000 -0.016660 
#    y 0.000000 2.197980 0.000000 
#    z -0.016660 0.000000 2.084050 
# 
# From -- ./inp_files/155566.got.cif
#   From: 2010.05.17/outbox.cif.g08.bks.cpg/sg15_78_cif.got.tgz:155566.got - 2010.06.03 18:47:42.
