data_PCOD9254215
_publ_section_title
;
Structure prediction by ZEFSAII (Michael W. Deem and Ramdas Pophale) SiO2 
 PCOD9254215
Probable space group: C 2/C
;
_chemical_formula_sum "Si O2"
_cell_formula_units_Z 60
_cell_length_a 15.823847
_cell_length_b 23.079596
_cell_length_c 14.007171
_cell_angle_alpha 90.000000
_cell_angle_beta 33.708174
_cell_angle_gamma 90.000000
_cell_volume 2838.930915
_symmetry_space_group_name_H-M "C 2/C"
_symmetry_group_IT_number 15
_symmetry_cell_setting 'monoclinic'
loop_
_space_group_symop_operation_xyz
x,y,z
-x,y,1/2-z
-x,-y,-z
x,-y,1/2+z
1/2+x,1/2+y,z
1/2-x,1/2+y,1/2-z
1/2-x,1/2-y,-z
1/2+x,1/2-y,1/2+z
loop_
_atom_site_type_symbol
_atom_site_label
_atom_site_fract_x
_atom_site_fract_y
_atom_site_fract_z
Si Si1 0.820838 0.217372 0.096610
Si Si2 0.281479 0.608088 0.845648
Si Si3 0.451131 0.409524 0.517714
Si Si4 0.851619 0.009892 0.932629
Si Si5 0.942076 0.504436 0.207843
Si Si6 0.658726 0.073640 0.385672
Si Si7 0.500175 0.178907 0.040749
Si Si8 0.500000 0.698098 0.750000
O O1 0.890658 0.155635 0.060158
O O2 0.640182 0.208428 0.269828
O O3 0.888466 0.269251 0.096734
O O4 0.890101 0.230322 0.927169
O O5 0.366008 0.592167 0.665626
O O6 0.291835 0.553135 0.905584
O O7 0.116576 0.635555 0.985059
O O8 0.386413 0.656646 0.796984
O O9 0.405448 0.447816 0.468268
O O10 0.342905 0.430855 0.705986
O O11 0.000000 0.979666 0.750000
O O12 0.713995 0.974633 0.108565
O O13 0.895590 0.545406 0.164163
O O14 0.000000 0.534990 0.250000
O O15 0.071032 0.461956 0.047987
O O16 0.590992 0.138507 0.448168
#
# Coordination Sequence:
#
# PCOD9254215 Si02
#       8
#     8   8   8   8   8   8   8   4
#     4  10  19  31  40  65  96 133 171 203 251 297
#     4  10  16  28  46  68 100 137 174 203 249 294
#     4   8  15  31  47  65  99 138 164 208 247 294
#     4   9  15  29  48  72 101 132 167 208 250 301
#     4  10  19  34  56  77 103 136 174 218 265 307
#     4   9  20  36  50  78 107 133 178 217 254 309
#     4  11  22  31  47  67 100 138 173 209 254 306
#     4  10  18  32  40  68 100 138 176 212 234 298
#
# _framework density 21.134716000000001
#
# number of rings (size 3 to 8) (size 9 to 14) (size 15 to 20)
#    0.000    2.400    3.333    2.400    0.000    2.667 
#    1.200    1.333    0.000    6.400    0.000    3.733 
#    0.000    0.000    0.000    0.267    0.000    0.000 
#
# Total GULP energy -167061.546818 kJ/mol
# GULP energy per Si atom -5568.718227 kJ/mol
# Density = 2.108661 g / cm^3
# Si number density = 21.134716 Si / 1000 Ang^3
#
#
#
# Elastic Constant Matrix: (Units=GPa)
#
#
# Indices 1 2 3 4 5 6 
#
# 1 43.7314 16.5890 25.1009 -0.0036 -3.4043 0.0033
# 2 16.5890 31.7678 38.4174 -0.0048 -3.9774 0.0020
# 3 25.1009 38.4174 187.4123 -0.0121 -22.2976 0.0048
# 4 -0.0036 -0.0048 -0.0121 27.4324 0.0047 -8.9136
# 5 -3.4043 -3.9774 -22.2976 0.0047 17.4785 -0.0034
# 6 0.0033 0.0020 0.0048 -8.9136 -0.0034 21.6520
#
#
#
# Elastic Compliance Matrix: (Units=1/GPa)
#
#
# Indices 1 2 3 4 5 6 
#
# 1 0.028690 -0.013775 -0.000857 0.000000 0.001360 -0.000003
# 2 -0.013775 0.048509 -0.008376 0.000004 -0.002330 0.000000
# 3 -0.000857 -0.008376 0.008159 0.000001 0.008336 0.000001
# 4 0.000000 0.000004 0.000001 0.042082 -0.000006 0.017324
# 5 0.001360 -0.002330 0.008336 -0.000006 0.067582 0.000006
# 6 -0.000003 0.000000 0.000001 0.017324 0.000006 0.053317
#
#
# Mechanical properties :
#
#
# Convention : Reuss Voigt Hill
#
# Bulk Modulus (GPa) = 25.41787 47.01401 36.21594
# Shear Modulus (GPa) = 16.26169 25.49953 20.88061
#
# Velocity S-wave (km/s) = 2.77687 3.47727 3.14662
# Velocity P-wave (km/s) = 4.72589 6.19799 5.51131
#
# Compressibility (1/GPa) = 0.03934240
#
# Stress axis : x y z
#
# Youngs Moduli (GPa) = 34.85530 20.61461 122.55795
#
# Poissons Ratio (x) = 0.28397 0.10503
# Poissons Ratio (y) = 0.48013 1.02656
# Poissons Ratio (z) = 0.02987 0.17267
#
# Static dielectric constant tensor:
#      x y z
#    x 1.803620 0.000000 -0.045930 
#    y 0.000000 1.809010 0.000010 
#    z -0.045930 0.000010 1.879600 
# 
# From -- ./inp_files/164386.got.cif
#   From: 2010.05.17/outbox.cif.g08.bks.cpg/sg15_83_cif.got.tgz:164386.got - 2010.06.03 18:47:42.
