data_PCOD9254117
_publ_section_title
;
Structure prediction by ZEFSAII (Michael W. Deem and Ramdas Pophale) SiO2 
 PCOD9254117
Probable space group: C 2/C
;
_chemical_formula_sum "Si O2"
_cell_formula_units_Z 44
_cell_length_a 14.035763
_cell_length_b 23.809242
_cell_length_c 8.122511
_cell_angle_alpha 90.000000
_cell_angle_beta 48.609173
_cell_angle_gamma 90.000000
_cell_volume 2036.379740
_symmetry_space_group_name_H-M "C 2/C"
_symmetry_group_IT_number 15
_symmetry_cell_setting 'monoclinic'
loop_
_space_group_symop_operation_xyz
x,y,z
-x,y,1/2-z
-x,-y,-z
x,-y,1/2+z
1/2+x,1/2+y,z
1/2-x,1/2+y,1/2-z
1/2-x,1/2-y,-z
1/2+x,1/2-y,1/2+z
loop_
_atom_site_type_symbol
_atom_site_label
_atom_site_fract_x
_atom_site_fract_y
_atom_site_fract_z
Si Si1 0.731827 0.141868 0.048035
Si Si2 0.500000 0.688727 0.750000
Si Si3 0.140278 0.529872 0.011244
Si Si4 0.294684 0.193892 0.790383
Si Si5 0.143269 0.582370 0.643300
Si Si6 0.578514 0.774930 0.942984
O O1 0.711501 0.076674 0.036524
O O2 0.637963 0.170141 0.287365
O O3 0.875666 0.153723 0.936909
O O4 0.704305 0.172682 0.902967
O O5 0.544929 0.729188 0.842659
O O6 0.192532 0.466682 0.967126
O O7 0.000000 0.527567 0.250000
O O8 0.134791 0.552742 0.832319
O O9 0.273914 0.138404 0.925669
O O10 0.438415 0.211434 0.666796
O O11 0.190149 0.242862 0.914039
O O12 0.000000 0.596992 0.750000
#
# Coordination Sequence:
#
# PCOD9254117 Si02
#       6
#     8   4   8   8   8   8
#     4  10  17  27  48  77 109 136 178 221 270 304
#     4  10  16  26  44  74 114 140 170 220 262 318
#     4  10  19  32  54  79 105 135 179 227 271 311
#     4  10  19  29  51  76 109 137 177 217 268 314
#     4  10  20  35  53  80 106 138 179 228 269 314
#     4  11  16  30  47  79 109 143 174 219 263 317
#
# _framework density 21.606971000000001
#
# number of rings (size 3 to 8) (size 9 to 14) (size 15 to 20)
#    0.000    1.818    3.636    5.455    0.000    0.000 
#    0.000    0.909    0.000    9.818    0.000    0.000 
#    0.000    0.000    0.000    0.000    0.000    0.000 
#
# Total GULP energy -122929.743533 kJ/mol
# GULP energy per Si atom -5587.715615 kJ/mol
# Density = 2.155779 g / cm^3
# Si number density = 21.606971 Si / 1000 Ang^3
#
#
#
# Elastic Constant Matrix: (Units=GPa)
#
#
# Indices 1 2 3 4 5 6 
#
# 1 139.9333 49.8665 26.8564 0.0000 -6.0938 0.0000
# 2 49.8665 118.9657 24.6793 0.0000 -5.9823 0.0000
# 3 26.8564 24.6793 61.2758 0.0000 -9.1497 0.0000
# 4 0.0000 0.0000 0.0000 18.2039 0.0000 -0.4999
# 5 -6.0938 -5.9823 -9.1497 0.0000 36.3691 0.0000
# 6 0.0000 0.0000 0.0000 -0.4999 0.0000 83.4163
#
#
#
# Elastic Compliance Matrix: (Units=1/GPa)
#
#
# Indices 1 2 3 4 5 6 
#
# 1 0.008762 -0.003132 -0.002532 0.000000 0.000316 0.000000
# 2 -0.003132 0.010304 -0.002704 0.000000 0.000490 0.000000
# 3 -0.002532 -0.002704 0.019106 0.000000 0.003938 0.000000
# 4 0.000000 0.000000 0.000000 0.054942 0.000000 0.000329
# 5 0.000316 0.000490 0.003938 0.000000 0.028620 0.000000
# 6 0.000000 0.000000 0.000000 0.000329 0.000000 0.011990
#
#
# Mechanical properties :
#
#
# Convention : Reuss Voigt Hill
#
# Bulk Modulus (GPa) = 46.64830 58.10881 52.37855
# Shear Modulus (GPa) = 31.72465 42.18270 36.95367
#
# Velocity S-wave (km/s) = 3.83594 4.42325 4.14002
# Velocity P-wave (km/s) = 6.42305 7.28277 6.86638
#
# Compressibility (1/GPa) = 0.02143701
#
# Stress axis : x y z
#
# Youngs Moduli (GPa) = 114.13053 97.04877 52.33825
#
# Poissons Ratio (x) = 0.30392 0.13251
# Poissons Ratio (y) = 0.35741 0.14154
# Poissons Ratio (z) = 0.28895 0.26246
#
# Static dielectric constant tensor:
#      x y z
#    x 1.810240 0.000000 0.053820 
#    y 0.000000 1.844360 0.000000 
#    z 0.053820 0.000000 1.761710 
# 
# From -- ./inp_files/32431.got.cif
#   From: 2010.05.17/outbox.cif.g08.bks.cpg/sg15_17_cif.got.tgz:32431.got - 2010.06.03 18:47:42.
