data_PCOD9254939
_publ_section_title
;
Structure prediction by ZEFSAII (Michael W. Deem and Ramdas Pophale) SiO2 
 PCOD9254939
Probable space group: C 2/C
;
_chemical_formula_sum "Si O2"
_cell_formula_units_Z 64
_cell_length_a 22.113675
_cell_length_b 6.958007
_cell_length_c 20.500323
_cell_angle_alpha 90.000000
_cell_angle_beta 122.161409
_cell_angle_gamma 90.000000
_cell_volume 2670.300088
_symmetry_space_group_name_H-M "C 2/C"
_symmetry_group_IT_number 15
_symmetry_cell_setting 'monoclinic'
loop_
_space_group_symop_operation_xyz
x,y,z
-x,y,1/2-z
-x,-y,-z
x,-y,1/2+z
1/2+x,1/2+y,z
1/2-x,1/2+y,1/2-z
1/2-x,1/2-y,-z
1/2+x,1/2-y,1/2+z
loop_
_atom_site_type_symbol
_atom_site_label
_atom_site_fract_x
_atom_site_fract_y
_atom_site_fract_z
Si Si1 0.699169 0.419561 0.274508
Si Si2 0.076557 0.566116 0.516286
Si Si3 0.918810 0.909650 0.199225
Si Si4 0.824985 0.069146 0.039953
Si Si5 0.580092 0.944194 0.378710
Si Si6 0.843885 0.204661 0.341751
Si Si7 0.714740 0.184817 0.086268
Si Si8 0.582674 0.154344 0.744166
O O1 0.636086 0.329441 0.279775
O O2 0.765714 0.281446 0.312106
O O3 0.665621 0.487169 0.187372
O O4 0.730594 0.617842 0.325787
O O5 0.079152 0.584478 0.439807
O O6 0.102724 0.755624 0.568537
O O7 0.139737 0.409192 0.564577
O O8 0.000000 0.500000 0.500000
O O9 0.877935 0.918640 0.106107
O O10 0.921882 0.131403 0.227126
O O11 0.000000 0.835737 0.250000
O O12 0.873463 0.261448 0.072273
O O13 0.756150 0.080425 0.048419
O O14 0.796088 0.099080 0.949139
O O15 0.497279 0.896599 0.321872
O O16 0.606481 0.975383 0.319663
O O17 0.874409 0.330112 0.298325
#
# Coordination Sequence:
#
# PCOD9254939 Si02
#       8
#     8   8   8   8   8   8   8   8
#     4   9  19  29  44  66  93 123 156 189 229 285
#     4  10  17  25  40  66  98 120 149 199 242 277
#     4   9  13  22  40  68  91 112 144 191 235 276
#     4   8  12  21  35  56  92 112 134 182 239 276
#     4   9  14  22  38  64  91 116 145 192 237 270
#     4  10  19  32  46  69  96 126 158 190 239 282
#     4   8  15  23  35  59  88 119 143 176 235 280
#     4   9  14  23  41  64  95 115 146 190 237 271
#
# _framework density 23.967343
#
# number of rings (size 3 to 8) (size 9 to 14) (size 15 to 20)
#    0.000    3.000    3.750    0.750    0.000    0.000 
#    0.000    0.000    0.000    0.750    3.250    7.875 
#    0.000    0.000    0.000    0.000    0.000    0.000 
#
# Total GULP energy -178199.658771 kJ/mol
# GULP energy per Si atom -5568.739337 kJ/mol
# Density = 2.391279 g / cm^3
# Si number density = 23.967343 Si / 1000 Ang^3
#
#
#
# Elastic Constant Matrix: (Units=GPa)
#
#
# Indices 1 2 3 4 5 6 
#
# 1 141.7456 31.4380 27.4756 0.0000 18.4275 -0.0002
# 2 31.4380 37.5917 13.8298 0.0000 -6.6941 -0.0005
# 3 27.4756 13.8298 67.9323 0.0000 0.2044 0.0000
# 4 0.0000 0.0000 0.0000 4.1964 0.0000 -7.1109
# 5 18.4275 -6.6941 0.2044 0.0000 33.8271 0.0001
# 6 -0.0002 -0.0005 0.0000 -7.1109 0.0001 16.6451
#
#
#
# Elastic Compliance Matrix: (Units=1/GPa)
#
#
# Indices 1 2 3 4 5 6 
#
# 1 0.010564 -0.009320 -0.002353 0.000000 -0.007585 0.000000
# 2 -0.009320 0.038131 -0.004031 0.000005 0.012647 0.000003
# 3 -0.002353 -0.004031 0.016492 -0.000001 0.000384 -0.000001
# 4 0.000000 0.000005 -0.000001 0.863118 0.000000 0.368729
# 5 -0.007585 0.012647 0.000384 0.000000 0.036195 0.000000
# 6 0.000000 0.000003 -0.000001 0.368729 0.000000 0.217601
#
#
# Mechanical properties :
#
#
# Convention : Reuss Voigt Hill
#
# Bulk Modulus (GPa) = 29.60401 43.63960 36.62181
# Shear Modulus (GPa) = 4.08241 22.56879 13.32560
#
# Velocity S-wave (km/s) = 1.30653 3.07196 2.36050
# Velocity P-wave (km/s) = 3.82814 5.55248 4.76889
#
# Compressibility (1/GPa) = 0.03377920
#
# Stress axis : x y z
#
# Youngs Moduli (GPa) = 94.66035 26.22525 60.63699
#
# Poissons Ratio (x) = 0.24442 0.14265
# Poissons Ratio (y) = 0.88223 0.24445
# Poissons Ratio (z) = 0.22269 0.10572
#
# Static dielectric constant tensor:
#      x y z
#    x 1.889230 0.000000 -0.064690 
#    y 0.000000 2.017020 0.000000 
#    z -0.064690 0.000000 2.045070 
# 
# From -- ./inp_files/252268.got.cif
#   From: 2010.05.17/outbox.cif.g08.bks.cpg/sg15_127_cif.got.tgz:252268.got - 2010.06.03 18:47:42.
