data_PCOD9254997
_publ_section_title
;
Structure prediction by ZEFSAII (Michael W. Deem and Ramdas Pophale) SiO2 
 PCOD9254997
Probable space group: C 2/C
;
_chemical_formula_sum "Si O2"
_cell_formula_units_Z 64
_cell_length_a 24.831685
_cell_length_b 32.088954
_cell_length_c 16.840066
_cell_angle_alpha 90.000000
_cell_angle_beta 19.343575
_cell_angle_gamma 90.000000
_cell_volume 4444.653777
_symmetry_space_group_name_H-M "C 2/C"
_symmetry_group_IT_number 15
_symmetry_cell_setting 'monoclinic'
loop_
_space_group_symop_operation_xyz
x,y,z
-x,y,1/2-z
-x,-y,-z
x,-y,1/2+z
1/2+x,1/2+y,z
1/2-x,1/2+y,1/2-z
1/2-x,1/2-y,-z
1/2+x,1/2-y,1/2+z
loop_
_atom_site_type_symbol
_atom_site_label
_atom_site_fract_x
_atom_site_fract_y
_atom_site_fract_z
Si Si1 0.801766 0.066502 0.748462
Si Si2 0.375649 0.151173 0.497536
Si Si3 0.372882 0.296776 0.254048
Si Si4 0.374027 0.798921 0.751859
Si Si5 0.688472 0.020755 0.474675
Si Si6 0.378317 0.348823 0.494848
Si Si7 0.901738 0.933545 0.548050
Si Si8 0.014791 0.020807 0.322080
O O1 0.936908 0.078565 0.626452
O O2 0.900409 0.050528 0.534558
O O3 0.708844 0.026328 0.912958
O O4 0.686411 0.105459 0.893561
O O5 0.500000 0.147181 0.250000
O O6 0.223718 0.178692 0.679366
O O7 0.471205 0.175627 0.432885
O O8 0.409291 0.249000 0.181609
O O9 0.249310 0.296521 0.501245
O O10 0.529063 0.321510 0.067891
O O11 0.278447 0.824107 0.817596
O O12 0.770004 0.050476 0.295040
O O13 0.804527 0.023753 0.390955
O O14 0.500000 0.030000 0.750000
O O15 0.500000 0.352849 0.250000
O O16 0.345860 0.394569 0.574185
O O17 0.952164 0.973735 0.426032
O O18 0.000000 0.030116 0.250000
#
# Coordination Sequence:
#
# PCOD9254997 Si02
#       8
#     8   8   8   8   8   8   8   8
#     4   9  17  31  48  64  88 122 150 174 216 270
#     4  10  17  27  43  63  90 120 152 179 212 257
#     4   9  16  28  42  55  89 125 149 171 220 270
#     4   9  18  26  38  65  87 117 149 187 214 246
#     4   9  18  33  49  65  88 117 149 182 219 260
#     4  10  17  27  43  63  90 120 152 179 212 257
#     4   9  17  31  48  64  88 122 150 174 216 270
#     4   9  18  33  49  65  88 117 149 182 219 260
#
# _framework density 14.399322
#
# number of rings (size 3 to 8) (size 9 to 14) (size 15 to 20)
#    0.000    2.750    1.250    3.000    0.000    3.000 
#    4.500    1.250    0.000    0.000    0.000    0.000 
#    0.000    6.000    0.000    0.000    0.000    0.000 
#
# Total GULP energy -178246.639784 kJ/mol
# GULP energy per Si atom -5570.207493 kJ/mol
# Density = 1.436655 g / cm^3
# Si number density = 14.399322 Si / 1000 Ang^3
#
#
#
# Elastic Constant Matrix: (Units=GPa)
#
#
# Indices 1 2 3 4 5 6 
#
# 1 79.2254 42.6154 32.9201 0.0028 -20.0569 -0.0012
# 2 42.6154 115.4583 34.6600 -0.0242 -22.3378 0.0166
# 3 32.9201 34.6600 65.2210 -0.0415 -19.7144 0.0150
# 4 0.0028 -0.0242 -0.0415 20.8210 -0.0110 -4.5895
# 5 -20.0569 -22.3378 -19.7144 -0.0110 21.2711 -0.0050
# 6 -0.0012 0.0166 0.0150 -4.5895 -0.0050 22.4249
#
#
#
# Elastic Compliance Matrix: (Units=1/GPa)
#
#
# Indices 1 2 3 4 5 6 
#
# 1 0.019035 -0.003747 -0.004696 -0.000010 0.009661 0.000007
# 2 -0.003747 0.012120 -0.002459 0.000013 0.006916 -0.000003
# 3 -0.004696 -0.002459 0.023464 0.000052 0.014736 0.000000
# 4 -0.000010 0.000013 0.000052 0.050298 0.000081 0.010294
# 5 0.009661 0.006916 0.014736 0.000081 0.077042 0.000019
# 6 0.000007 -0.000003 0.000000 0.010294 0.000019 0.046700
#
#
# Mechanical properties :
#
#
# Convention : Reuss Voigt Hill
#
# Bulk Modulus (GPa) = 30.47464 53.36618 41.92041
# Shear Modulus (GPa) = 19.12762 22.88403 21.00583
#
# Velocity S-wave (km/s) = 3.64863 3.99086 3.82358
# Velocity P-wave (km/s) = 6.24179 7.64055 6.97631
#
# Compressibility (1/GPa) = 0.03281417
#
# Stress axis : x y z
#
# Youngs Moduli (GPa) = 52.53520 82.50564 42.61800
#
# Poissons Ratio (x) = 0.30913 0.20015
# Poissons Ratio (y) = 0.19684 0.10482
# Poissons Ratio (z) = 0.24673 0.20292
#
# Static dielectric constant tensor:
#      x y z
#    x 1.465620 -0.000020 -0.017100 
#    y -0.000020 1.471180 0.000060 
#    z -0.017100 0.000060 1.458920 
# 
# From -- ./inp_files/149188.got.cif
#   From: 2010.05.17/outbox.cif.g08.bks.cpg/sg15_75_cif.got.tgz:149188.got - 2010.06.03 18:47:42.
