data_PCOD9254122
_publ_section_title
;
Structure prediction by ZEFSAII (Michael W. Deem and Ramdas Pophale) SiO2 
 PCOD9254122
Probable space group: C 2/C
;
_chemical_formula_sum "Si O2"
_cell_formula_units_Z 36
_cell_length_a 18.482162
_cell_length_b 22.809145
_cell_length_c 5.433925
_cell_angle_alpha 90.000000
_cell_angle_beta 101.844392
_cell_angle_gamma 90.000000
_cell_volume 2241.965097
_symmetry_space_group_name_H-M "C 2/C"
_symmetry_group_IT_number 15
_symmetry_cell_setting 'monoclinic'
loop_
_space_group_symop_operation_xyz
x,y,z
-x,y,1/2-z
-x,-y,-z
x,-y,1/2+z
1/2+x,1/2+y,z
1/2-x,1/2+y,1/2-z
1/2-x,1/2-y,-z
1/2+x,1/2-y,1/2+z
loop_
_atom_site_type_symbol
_atom_site_label
_atom_site_fract_x
_atom_site_fract_y
_atom_site_fract_z
Si Si1 0.573966 0.258006 0.696801
Si Si2 0.267049 0.713486 0.263688
Si Si3 0.911375 0.534241 0.712542
Si Si4 0.630402 0.852556 0.539904
Si Si5 0.000000 0.673020 0.250000
O O1 0.500000 0.288073 0.750000
O O2 0.644690 0.296800 0.678632
O O3 0.602498 0.209833 0.913490
O O4 0.546071 0.216606 0.457110
O O5 0.250000 0.750000 0.500000
O O6 0.250000 0.750000 0.000000
O O7 0.210034 0.659462 0.212588
O O8 0.891986 0.496908 0.454961
O O9 0.871386 0.597056 0.663263
O O10 0.000000 0.543083 0.750000
O O11 0.562840 0.867328 0.674502
#
# Coordination Sequence:
#
# PCOD9254122 Si02
#       5
#     8   8   8   8   4
#     4   9  18  29  45  69  91 124 151 188 227 282
#     4  10  19  32  46  68  93 121 155 190 230 279
#     4  10  22  33  46  65  90 122 163 200 227 261
#     4  10  20  30  46  64  93 124 160 189 232 272
#     4  10  16  26  46  62  92 118 158 180 224 274
#
# _framework density 16.057341999999998
#
# number of rings (size 3 to 8) (size 9 to 14) (size 15 to 20)
#    0.000    2.222    2.222    2.000    7.778    0.000 
#    0.000    0.000    0.000    0.000    0.000    0.000 
#    0.000    1.778    0.000    0.000    0.000    0.000 
#
# Total GULP energy -100202.982711 kJ/mol
# GULP energy per Si atom -5566.832373 kJ/mol
# Density = 1.602080 g / cm^3
# Si number density = 16.057342 Si / 1000 Ang^3
#
#
#
# Elastic Constant Matrix: (Units=GPa)
#
#
# Indices 1 2 3 4 5 6 
#
# 1 127.4440 27.3534 28.3475 0.0000 10.4516 0.0000
# 2 27.3534 33.1633 9.7192 0.0000 4.4441 0.0000
# 3 28.3475 9.7192 73.2625 0.0000 -1.6197 0.0000
# 4 0.0000 0.0000 0.0000 26.2660 0.0000 10.1153
# 5 10.4516 4.4441 -1.6197 0.0000 18.5760 0.0000
# 6 0.0000 0.0000 0.0000 10.1153 0.0000 9.3041
#
#
#
# Elastic Compliance Matrix: (Units=1/GPa)
#
#
# Indices 1 2 3 4 5 6 
#
# 1 0.010444 -0.007078 -0.003201 0.000000 -0.004462 0.000000
# 2 -0.007078 0.037367 -0.002333 0.000000 -0.005161 0.000000
# 3 -0.003201 -0.002333 0.015279 0.000000 0.003691 0.000000
# 4 0.000000 0.000000 0.000000 0.065493 0.000000 -0.071203
# 5 -0.004462 -0.005161 0.003691 0.000000 0.057900 0.000000
# 6 0.000000 0.000000 0.000000 -0.071203 0.000000 0.184891
#
#
# Mechanical properties :
#
#
# Convention : Reuss Voigt Hill
#
# Bulk Modulus (GPa) = 26.40809 40.52334 33.46572
# Shear Modulus (GPa) = 12.21842 22.05920 17.13881
#
# Velocity S-wave (km/s) = 2.76148 3.71047 3.27058
# Velocity P-wave (km/s) = 5.16232 6.60668 5.92865
#
# Compressibility (1/GPa) = 0.03786718
#
# Stress axis : x y z
#
# Youngs Moduli (GPa) = 95.75274 26.76151 65.44926
#
# Poissons Ratio (x) = 0.18942 0.20948
# Poissons Ratio (y) = 0.67774 0.15267
# Poissons Ratio (z) = 0.30646 0.06242
#
# Static dielectric constant tensor:
#      x y z
#    x 1.592080 0.000000 -0.018310 
#    y 0.000000 1.553630 0.000000 
#    z -0.018310 0.000000 1.576840 
# 
# From -- ./inp_files/7881.got.cif
#   From: 2010.05.17/outbox.cif.g08.bks.cpg/sg15_4_cif.got.tgz:7881.got - 2010.06.03 18:47:42.
