data_PCOD9254452
_publ_section_title
;
Structure prediction by ZEFSAII (Michael W. Deem and Ramdas Pophale) SiO2 
 PCOD9254452
Probable space group: C 2/C
;
_chemical_formula_sum "Si O2"
_cell_formula_units_Z 44
_cell_length_a 7.755837
_cell_length_b 26.630669
_cell_length_c 12.937702
_cell_angle_alpha 90.000000
_cell_angle_beta 131.911332
_cell_angle_gamma 90.000000
_cell_volume 1988.591437
_symmetry_space_group_name_H-M "C 2/C"
_symmetry_group_IT_number 15
_symmetry_cell_setting 'monoclinic'
loop_
_space_group_symop_operation_xyz
x,y,z
-x,y,1/2-z
-x,-y,-z
x,-y,1/2+z
1/2+x,1/2+y,z
1/2-x,1/2+y,1/2-z
1/2-x,1/2-y,-z
1/2+x,1/2-y,1/2+z
loop_
_atom_site_type_symbol
_atom_site_label
_atom_site_fract_x
_atom_site_fract_y
_atom_site_fract_z
Si Si1 0.370353 0.917956 0.053555
Si Si2 0.664055 0.457499 0.181573
Si Si3 0.500000 0.547411 0.250000
Si Si4 0.598414 0.640382 0.934362
Si Si5 0.620380 0.823888 0.141889
Si Si6 0.762867 0.775086 0.891183
O O1 0.260969 0.949201 0.105058
O O2 0.632603 0.939056 0.159378
O O3 0.413104 0.859096 0.097170
O O4 0.211855 0.923557 0.889352
O O5 0.594007 0.511196 0.196258
O O6 0.451796 0.418295 0.094798
O O7 0.808640 0.654729 0.942868
O O8 0.358161 0.665528 0.798939
O O9 0.648554 0.668142 0.061842
O O10 0.591501 0.764268 0.119362
O O11 0.500000 0.775474 0.750000
O O12 0.750000 0.750000 0.000000
#
# Coordination Sequence:
#
# PCOD9254452 Si02
#       6
#     8   8   4   8   8   8
#     4  10  22  38  59  87 114 155 194 246 302 358
#     4  10  21  39  61  81 119 156 196 239 308 356
#     4  12  22  40  64  86 114 154 208 252 294 356
#     4   9  17  32  56  84 113 156 198 230 282 355
#     4   9  16  33  56  81 117 155 188 237 293 341
#     4  10  16  30  55  88 118 150 199 237 279 346
#
# _framework density 22.126215999999999
#
# number of rings (size 3 to 8) (size 9 to 14) (size 15 to 20)
#    0.000    2.182    3.636    3.273    0.000    0.000 
#    6.545    0.909    4.000    2.182    0.000    0.000 
#    0.000    0.000    0.000    0.000    0.000    0.000 
#
# Total GULP energy -122578.990599 kJ/mol
# GULP energy per Si atom -5571.772300 kJ/mol
# Density = 2.207586 g / cm^3
# Si number density = 22.126216 Si / 1000 Ang^3
#
#
#
# Elastic Constant Matrix: (Units=GPa)
#
#
# Indices 1 2 3 4 5 6 
#
# 1 57.3898 22.0006 3.4368 0.0000 -0.8086 0.0000
# 2 22.0006 59.0296 49.3239 0.0000 3.9595 0.0000
# 3 3.4368 49.3239 142.2832 0.0000 3.0705 0.0000
# 4 0.0000 0.0000 0.0000 36.9558 0.0000 -7.5783
# 5 -0.8086 3.9595 3.0705 0.0000 14.7787 0.0000
# 6 0.0000 0.0000 0.0000 -7.5783 0.0000 -24.9945
#
#
#
# Elastic Compliance Matrix: (Units=1/GPa)
#
#
# Indices 1 2 3 4 5 6 
#
# 1 0.021455 -0.010884 0.003181 0.000000 0.003429 0.000000
# 2 -0.010884 0.029699 -0.009892 0.000000 -0.006497 0.000000
# 3 0.003181 -0.009892 0.010366 0.000000 0.000671 0.000000
# 4 0.000000 0.000000 0.000000 0.025475 0.000000 -0.007724
# 5 0.003429 -0.006497 0.000671 0.000000 0.069454 0.000000
# 6 0.000000 0.000000 0.000000 -0.007724 0.000000 -0.037667
#
#
# Mechanical properties :
#
#
# Convention : Reuss Voigt Hill
#
# Bulk Modulus (GPa) = 37.98130 45.35837 41.66983
# Shear Modulus (GPa) = 30.72186 17.61074 24.16630
#
# Velocity S-wave (km/s) = 3.73028 2.82427 3.30843
# Velocity P-wave (km/s) = 5.97966 5.58388 5.78515
#
# Compressibility (1/GPa) = 0.02632874
#
# Stress axis : x y z
#
# Youngs Moduli (GPa) = 46.60894 33.67127 96.46745
#
# Poissons Ratio (x) = 0.36649 -0.30686
# Poissons Ratio (y) = 0.50731 0.95428
# Poissons Ratio (z) = -0.14826 0.33309
#
# Static dielectric constant tensor:
#      x y z
#    x 1.919460 0.000000 -0.037910 
#    y 0.000000 1.909440 0.000000 
#    z -0.037910 0.000000 1.814350 
# 
# From -- ./inp_files/138810.got.cif
#   From: 2010.05.17/outbox.cif.g08.bks.cpg/sg15_70_cif.got.tgz:138810.got - 2010.06.03 18:47:42.
