data_PCOD9254631
_publ_section_title
;
Structure prediction by ZEFSAII (Michael W. Deem and Ramdas Pophale) SiO2 
 PCOD9254631
Probable space group: C 2/C
;
_chemical_formula_sum "Si O2"
_cell_formula_units_Z 48
_cell_length_a 22.802208
_cell_length_b 15.576153
_cell_length_c 10.957005
_cell_angle_alpha 90.000000
_cell_angle_beta 31.707695
_cell_angle_gamma 90.000000
_cell_volume 2045.373777
_symmetry_space_group_name_H-M "C 2/C"
_symmetry_group_IT_number 15
_symmetry_cell_setting 'monoclinic'
loop_
_space_group_symop_operation_xyz
x,y,z
-x,y,1/2-z
-x,-y,-z
x,-y,1/2+z
1/2+x,1/2+y,z
1/2-x,1/2+y,1/2-z
1/2-x,1/2-y,-z
1/2+x,1/2-y,1/2+z
loop_
_atom_site_type_symbol
_atom_site_label
_atom_site_fract_x
_atom_site_fract_y
_atom_site_fract_z
Si Si1 0.729010 0.154363 0.991250
Si Si2 0.614875 0.772851 0.478558
Si Si3 0.654413 0.571513 0.409313
Si Si4 0.122329 0.394142 0.262813
Si Si5 0.357773 0.509207 0.317322
Si Si6 0.402745 0.062671 0.059161
O O1 0.638870 0.112312 0.243125
O O2 0.750000 0.250000 0.000000
O O3 0.700482 0.167823 0.901045
O O4 0.827838 0.087221 0.827332
O O5 0.634681 0.672327 0.464232
O O6 0.619881 0.801225 0.329522
O O7 0.500000 0.792153 0.750000
O O8 0.589666 0.548365 0.398834
O O9 0.616373 0.508928 0.586797
O O10 0.791201 0.565644 0.173275
O O11 0.081673 0.462493 0.437455
O O12 0.028991 0.401709 0.322233
O O13 0.245747 0.429829 0.018602
#
# Coordination Sequence:
#
# PCOD9254631 Si02
#       6
#     8   8   8   8   8   8
#     4  10  16  32  57  79 110 146 195 235 283 345
#     4  12  21  33  57  89 114 155 202 244 279 355
#     4  10  22  38  58  84 120 154 200 238 295 349
#     4   9  19  31  54  84 117 144 184 235 300 342
#     4  10  21  39  58  86 117 157 191 240 301 355
#     4   9  17  33  50  84 116 144 175 240 290 348
#
# _framework density 23.467593999999998
#
# number of rings (size 3 to 8) (size 9 to 14) (size 15 to 20)
#    0.000    2.333    5.000    2.000    0.000    1.333 
#    0.000    0.833    0.000    0.000    0.000    0.000 
#    0.000    0.000    0.000    0.000    0.000    0.000 
#
# Total GULP energy -133615.351703 kJ/mol
# GULP energy per Si atom -5567.306321 kJ/mol
# Density = 2.341418 g / cm^3
# Si number density = 23.467594 Si / 1000 Ang^3
#
#
#
# Elastic Constant Matrix: (Units=GPa)
#
#
# Indices 1 2 3 4 5 6 
#
# 1 141.6964 24.9326 20.2503 0.0000 9.7296 0.0000
# 2 24.9326 81.8587 14.7211 0.0000 5.9085 0.0000
# 3 20.2503 14.7211 57.8174 0.0000 8.2379 0.0000
# 4 0.0000 0.0000 0.0000 7.7318 0.0000 5.4438
# 5 9.7296 5.9085 8.2379 0.0000 26.2525 0.0000
# 6 0.0000 0.0000 0.0000 5.4438 0.0000 43.3817
#
#
#
# Elastic Compliance Matrix: (Units=1/GPa)
#
#
# Indices 1 2 3 4 5 6 
#
# 1 0.007800 -0.001885 -0.001989 0.000000 -0.001842 0.000000
# 2 -0.001885 0.013354 -0.002524 0.000000 -0.001515 0.000000
# 3 -0.001989 -0.002524 0.019313 0.000000 -0.004755 0.000000
# 4 0.000000 0.000000 0.000000 0.141870 0.000000 -0.017803
# 5 -0.001842 -0.001515 -0.004755 0.000000 0.040607 0.000000
# 6 0.000000 0.000000 0.000000 -0.017803 0.000000 0.025285
#
#
# Mechanical properties :
#
#
# Convention : Reuss Voigt Hill
#
# Bulk Modulus (GPa) = 36.14104 44.57563 40.35834
# Shear Modulus (GPa) = 18.50149 30.23778 24.36963
#
# Velocity S-wave (km/s) = 2.81086 3.59345 3.22598
# Velocity P-wave (km/s) = 5.09592 6.02104 5.57770
#
# Compressibility (1/GPa) = 0.02766937
#
# Stress axis : x y z
#
# Youngs Moduli (GPa) = 128.20800 74.88659 51.77935
#
# Poissons Ratio (x) = 0.14116 0.10301
# Poissons Ratio (y) = 0.24166 0.13069
# Poissons Ratio (z) = 0.25506 0.18901
#
# Static dielectric constant tensor:
#      x y z
#    x 2.092800 0.000000 -0.006490 
#    y 0.000000 1.820530 0.000000 
#    z -0.006490 0.000000 2.054240 
# 
# From -- ./inp_files/123421.got.cif
#   From: 2010.05.17/outbox.cif.g08.bks.cpg/sg15_62_cif.got.tgz:123421.got - 2010.06.03 18:47:42.
