data_PCOD9254878
_publ_section_title
;
Structure prediction by ZEFSAII (Michael W. Deem and Ramdas Pophale) SiO2 
 PCOD9254878
Probable space group: C 2/C
;
_chemical_formula_sum "Si O2"
_cell_formula_units_Z 60
_cell_length_a 19.075559
_cell_length_b 6.983630
_cell_length_c 19.679026
_cell_angle_alpha 90.000000
_cell_angle_beta 71.769346
_cell_angle_gamma 90.000000
_cell_volume 2489.983451
_symmetry_space_group_name_H-M "C 2/C"
_symmetry_group_IT_number 15
_symmetry_cell_setting 'monoclinic'
loop_
_space_group_symop_operation_xyz
x,y,z
-x,y,1/2-z
-x,-y,-z
x,-y,1/2+z
1/2+x,1/2+y,z
1/2-x,1/2+y,1/2-z
1/2-x,1/2-y,-z
1/2+x,1/2-y,1/2+z
loop_
_atom_site_type_symbol
_atom_site_label
_atom_site_fract_x
_atom_site_fract_y
_atom_site_fract_z
Si Si1 0.632027 0.082988 0.832900
Si Si2 0.668760 0.492105 0.025512
Si Si3 0.618370 0.749814 0.939131
Si Si4 0.000000 0.166220 0.750000
Si Si5 0.504414 0.403699 0.102697
Si Si6 0.241880 0.725686 0.903870
Si Si7 0.466595 0.055804 0.913763
Si Si8 0.375124 0.019673 0.317787
O O1 0.695373 0.201244 0.850168
O O2 0.548310 0.141059 0.878470
O O3 0.641118 0.874027 0.866921
O O4 0.639069 0.079183 0.749896
O O5 0.581641 0.504508 0.065523
O O6 0.716409 0.461502 0.078812
O O7 0.681672 0.659923 0.967180
O O8 0.686026 0.297460 0.978827
O O9 0.564594 0.582285 0.926739
O O10 0.571827 0.884133 0.004759
O O11 0.015461 0.052655 0.813698
O O12 0.930622 0.305873 0.782567
O O13 0.522356 0.174589 0.092428
O O14 0.303765 0.884235 0.872202
O O15 0.415903 0.100963 0.863760
#
# Coordination Sequence:
#
# PCOD9254878 Si02
#       8
#     8   8   8   4   8   8   8   8
#     4  11  22  40  66  94 122 163 212 260 311 376
#     4  11  23  40  59  92 127 169 197 260 322 382
#     4  11  22  35  65  96 123 153 219 269 298 360
#     4  10  16  36  68  88 104 168 216 242 298 378
#     4  10  18  37  66  88 123 158 213 254 311 372
#     4  11  25  41  61  87 131 168 204 246 334 384
#     4  10  19  38  68  92 114 163 214 257 299 373
#     4  11  20  42  68  87 121 170 212 254 308 388
#
# _framework density 24.096544999999999
#
# number of rings (size 3 to 8) (size 9 to 14) (size 15 to 20)
#    0.000    1.333    6.667    3.600    1.867    1.600 
#    2.400    0.000    2.933    0.000    0.000    0.000 
#    0.000    0.000    0.000    0.000    0.000    0.000 
#
# Total GULP energy -167734.257457 kJ/mol
# GULP energy per Si atom -5591.141915 kJ/mol
# Density = 2.404170 g / cm^3
# Si number density = 24.096545 Si / 1000 Ang^3
#
#
#
# Elastic Constant Matrix: (Units=GPa)
#
#
# Indices 1 2 3 4 5 6 
#
# 1 129.0907 14.3308 49.6827 0.0000 29.5945 0.0001
# 2 14.3308 40.3679 7.2386 0.0000 4.4556 0.0002
# 3 49.6827 7.2386 125.5970 0.0000 36.6615 0.0001
# 4 0.0000 0.0000 0.0000 27.2314 0.0000 5.0069
# 5 29.5945 4.4556 36.6615 0.0000 55.8263 0.0000
# 6 0.0001 0.0002 0.0001 5.0069 0.0000 20.4712
#
#
#
# Elastic Compliance Matrix: (Units=1/GPa)
#
#
# Indices 1 2 3 4 5 6 
#
# 1 0.009850 -0.002642 -0.002822 0.000000 -0.003157 0.000000
# 2 -0.002642 0.025816 -0.000309 0.000000 -0.000457 0.000000
# 3 -0.002822 -0.000309 0.010704 0.000000 -0.005509 0.000000
# 4 0.000000 0.000000 0.000000 0.038451 0.000000 -0.009405
# 5 -0.003157 -0.000457 -0.005509 0.000000 0.023240 0.000000
# 6 0.000000 0.000000 0.000000 -0.009405 0.000000 0.051149
#
#
# Mechanical properties :
#
#
# Convention : Reuss Voigt Hill
#
# Bulk Modulus (GPa) = 28.71752 48.61778 38.66765
# Shear Modulus (GPa) = 27.41727 35.62601 31.52164
#
# Velocity S-wave (km/s) = 3.37680 3.84926 3.62074
# Velocity P-wave (km/s) = 5.21031 6.32264 5.79323
#
# Compressibility (1/GPa) = 0.03482195
#
# Stress axis : x y z
#
# Youngs Moduli (GPa) = 101.52403 38.73561 93.42074
#
# Poissons Ratio (x) = 0.10235 0.26368
# Poissons Ratio (y) = 0.26824 0.02891
# Poissons Ratio (z) = 0.28655 0.01199
#
# Static dielectric constant tensor:
#      x y z
#    x 1.960240 0.000000 0.018160 
#    y 0.000000 2.007680 0.000000 
#    z 0.018160 0.000000 1.933330 
# 
# From -- ./inp_files/247411.got.cif
#   From: 2010.05.17/outbox.cif.g08.bks.cpg/sg15_124_cif.got.tgz:247411.got - 2010.06.03 18:47:42.
