data_PCOD9254613
_publ_section_title
;
Structure prediction by ZEFSAII (Michael W. Deem and Ramdas Pophale) SiO2 
 PCOD9254613
Probable space group: C 2/C
;
_chemical_formula_sum "Si O2"
_cell_formula_units_Z 60
_cell_length_a 24.743916
_cell_length_b 12.860166
_cell_length_c 8.026990
_cell_angle_alpha 90.000000
_cell_angle_beta 78.268919
_cell_angle_gamma 90.000000
_cell_volume 2500.923433
_symmetry_space_group_name_H-M "C 2/C"
_symmetry_group_IT_number 15
_symmetry_cell_setting 'monoclinic'
loop_
_space_group_symop_operation_xyz
x,y,z
-x,y,1/2-z
-x,-y,-z
x,-y,1/2+z
1/2+x,1/2+y,z
1/2-x,1/2+y,1/2-z
1/2-x,1/2-y,-z
1/2+x,1/2-y,1/2+z
loop_
_atom_site_type_symbol
_atom_site_label
_atom_site_fract_x
_atom_site_fract_y
_atom_site_fract_z
Si Si1 0.000000 0.920059 0.250000
Si Si2 0.529118 0.761536 0.987847
Si Si3 0.905632 0.570015 0.270842
Si Si4 0.797799 0.319028 0.761406
Si Si5 0.086633 0.653338 0.856357
Si Si6 0.175117 0.194587 0.411651
Si Si7 0.641425 0.335151 0.490962
Si Si8 0.119802 0.970449 0.171143
O O1 0.012290 0.839758 0.390954
O O2 0.054454 0.987852 0.196124
O O3 0.551436 0.857339 0.858665
O O4 0.584287 0.727284 0.049584
O O5 0.472665 0.792573 0.110003
O O6 0.844385 0.591941 0.234689
O O7 0.909167 0.608026 0.457507
O O8 0.915236 0.447513 0.257976
O O9 0.733671 0.345385 0.807730
O O10 0.811742 0.244205 0.597123
O O11 0.810225 0.258670 0.927274
O O12 0.140132 0.728098 0.816218
O O13 0.136254 0.105033 0.508999
O O14 0.632442 0.406894 0.330122
O O15 0.650136 0.420418 0.627548
#
# Coordination Sequence:
#
# PCOD9254613 Si02
#       8
#     4   8   8   8   8   8   8   8
#     4  10  16  32  56  70 100 140 178 204 248 312
#     4  10  17  33  53  72 103 140 172 203 252 314
#     4  10  20  32  56  77 101 133 173 214 253 305
#     4   8  17  35  54  76 102 140 179 211 251 315
#     4  11  19  34  54  78 101 135 171 215 255 306
#     4   9  17  33  56  76 102 140 181 209 249 320
#     4   9  20  34  56  77 106 138 177 217 260 311
#     4  10  19  33  54  80 102 140 176 214 261 310
#
# _framework density 23.991136999999998
#
# number of rings (size 3 to 8) (size 9 to 14) (size 15 to 20)
#    0.000    2.400    2.667    2.000    0.000    3.200 
#    0.000    2.667    2.933    1.600    0.000    0.000 
#    0.000    0.000    0.000    0.000    0.000    0.000 
#
# Total GULP energy -167832.573575 kJ/mol
# GULP energy per Si atom -5594.419119 kJ/mol
# Density = 2.393653 g / cm^3
# Si number density = 23.991137 Si / 1000 Ang^3
#
#
#
# Elastic Constant Matrix: (Units=GPa)
#
#
# Indices 1 2 3 4 5 6 
#
# 1 105.2340 -1.3345 38.7709 0.0000 -9.5892 0.0000
# 2 -1.3345 55.3804 7.8112 0.0000 -0.4889 0.0000
# 3 38.7709 7.8112 67.0711 0.0000 -10.9059 0.0000
# 4 0.0000 0.0000 0.0000 32.5675 0.0000 0.3248
# 5 -9.5892 -0.4889 -10.9059 0.0000 40.2424 0.0000
# 6 0.0000 0.0000 0.0000 0.3248 0.0000 1.6497
#
#
#
# Elastic Compliance Matrix: (Units=1/GPa)
#
#
# Indices 1 2 3 4 5 6 
#
# 1 0.012206 0.001296 -0.007041 0.000000 0.001016 0.000000
# 2 0.001296 0.018502 -0.002947 0.000000 -0.000265 0.000000
# 3 -0.007041 -0.002947 0.019922 0.000000 0.003685 0.000000
# 4 0.000000 0.000000 0.000000 0.030766 0.000000 -0.006057
# 5 0.001016 -0.000265 0.003685 0.000000 0.026087 0.000000
# 6 0.000000 0.000000 0.000000 -0.006057 0.000000 0.607360
#
#
# Mechanical properties :
#
#
# Convention : Reuss Voigt Hill
#
# Bulk Modulus (GPa) = 30.07955 35.35340 32.71648
# Shear Modulus (GPa) = 6.72668 27.05443 16.89055
#
# Velocity S-wave (km/s) = 1.67628 3.36174 2.65624
# Velocity P-wave (km/s) = 4.03875 5.46227 4.80354
#
# Compressibility (1/GPa) = 0.03324518
#
# Stress axis : x y z
#
# Youngs Moduli (GPa) = 81.92752 54.04962 50.19475
#
# Poissons Ratio (x) = -0.07006 0.35344
# Poissons Ratio (y) = -0.10620 0.14793
# Poissons Ratio (z) = 0.57689 0.15929
#
# Static dielectric constant tensor:
#      x y z
#    x 1.884900 0.000000 0.079910 
#    y 0.000000 1.929290 0.000000 
#    z 0.079910 0.000000 1.998070 
# 
# From -- ./inp_files/117539.got.cif
#   From: 2010.05.17/outbox.cif.g08.bks.cpg/sg15_59_cif.got.tgz:117539.got - 2010.06.03 18:47:42.
