data_PCOD9254429
_publ_section_title
;
Structure prediction by ZEFSAII (Michael W. Deem and Ramdas Pophale) SiO2 
 PCOD9254429
Probable space group: C 2/C
;
_chemical_formula_sum "Si O2"
_cell_formula_units_Z 52
_cell_length_a 9.733197
_cell_length_b 16.795087
_cell_length_c 28.062571
_cell_angle_alpha 90.000000
_cell_angle_beta 27.362919
_cell_angle_gamma 90.000000
_cell_volume 2108.477509
_symmetry_space_group_name_H-M "C 2/C"
_symmetry_group_IT_number 15
_symmetry_cell_setting 'monoclinic'
loop_
_space_group_symop_operation_xyz
x,y,z
-x,y,1/2-z
-x,-y,-z
x,-y,1/2+z
1/2+x,1/2+y,z
1/2-x,1/2+y,1/2-z
1/2-x,1/2-y,-z
1/2+x,1/2-y,1/2+z
loop_
_atom_site_type_symbol
_atom_site_label
_atom_site_fract_x
_atom_site_fract_y
_atom_site_fract_z
Si Si1 0.983290 0.845777 0.155282
Si Si2 0.921442 0.547142 0.975436
Si Si3 0.000000 0.866256 0.250000
Si Si4 0.421331 0.011463 0.721371
Si Si5 0.307456 0.165495 0.078543
Si Si6 0.546462 0.906269 0.596459
Si Si7 0.331129 0.334260 0.097167
O O1 0.911483 0.817071 0.230426
O O2 0.884969 0.938769 0.186520
O O3 0.826167 0.817105 0.155663
O O4 0.332695 0.833585 0.040216
O O5 0.212434 0.582499 0.857274
O O6 0.796990 0.482249 0.977566
O O7 0.708733 0.615493 0.062657
O O8 0.000000 0.500000 0.000000
O O9 0.500000 0.983777 0.750000
O O10 0.657322 0.084437 0.638753
O O11 0.418367 0.941504 0.684255
O O12 0.307181 0.125440 0.131308
O O13 0.205528 0.255859 0.111252
O O14 0.816973 0.845879 0.522481
#
# Coordination Sequence:
#
# PCOD9254429 Si02
#       7
#     8   8   4   8   8   8   8
#     4   9  17  31  55  77 102 146 189 223 270 333
#     4   9  18  31  56  85 107 141 191 235 276 327
#     4  10  16  30  54  80 108 140 194 236 272 322
#     4  10  20  33  55  81 113 146 187 225 279 340
#     4   9  19  35  60  79 107 148 192 228 283 342
#     4  10  17  33  57  79 107 141 188 228 269 331
#     4  10  20  35  58  80 112 151 184 221 290 351
#
# _framework density 24.662344000000001
#
# number of rings (size 3 to 8) (size 9 to 14) (size 15 to 20)
#    0.000    2.462    1.538    3.231    0.000    0.000 
#    0.000    0.769   42.308    0.000    0.000    0.000 
#    0.000    0.000    0.000    0.000    0.000    0.000 
#
# Total GULP energy -145082.554546 kJ/mol
# GULP energy per Si atom -5580.098252 kJ/mol
# Density = 2.460621 g / cm^3
# Si number density = 24.662344 Si / 1000 Ang^3
#
#
#
# Elastic Constant Matrix: (Units=GPa)
#
#
# Indices 1 2 3 4 5 6 
#
# 1 56.0187 8.8562 29.2914 -0.1573 11.1701 0.0290
# 2 8.8562 88.1863 26.0614 -0.0828 17.2012 -0.0081
# 3 29.2914 26.0614 109.6025 -0.1163 16.5676 -0.0057
# 4 -0.1573 -0.0828 -0.1163 14.2307 0.0429 0.9855
# 5 11.1701 17.2012 16.5676 0.0429 43.3707 -0.0009
# 6 0.0290 -0.0081 -0.0057 0.9855 -0.0009 18.8414
#
#
#
# Elastic Compliance Matrix: (Units=1/GPa)
#
#
# Indices 1 2 3 4 5 6 
#
# 1 0.021242 0.000081 -0.005162 0.000207 -0.003531 -0.000045
# 2 0.000081 0.012873 -0.002449 0.000068 -0.004191 0.000001
# 3 -0.005162 -0.002449 0.011396 0.000027 -0.002052 0.000009
# 4 0.000207 0.000068 0.000027 0.070529 -0.000161 -0.003690
# 5 -0.003531 -0.004191 -0.002052 -0.000161 0.026413 0.000013
# 6 -0.000045 0.000001 0.000009 -0.003690 0.000013 0.053268
#
#
# Mechanical properties :
#
#
# Convention : Reuss Voigt Hill
#
# Bulk Modulus (GPa) = 32.83951 42.46953 37.65452
# Shear Modulus (GPa) = 22.63140 27.92847 25.27994
#
# Velocity S-wave (km/s) = 3.03256 3.36882 3.20510
# Velocity P-wave (km/s) = 5.06028 5.69119 5.38498
#
# Compressibility (1/GPa) = 0.03045112
#
# Stress axis : x y z
#
# Youngs Moduli (GPa) = 47.07559 77.68353 87.74895
#
# Poissons Ratio (x) = -0.00632 0.45299
# Poissons Ratio (y) = -0.00383 0.21490
# Poissons Ratio (z) = 0.24302 0.19025
#
# Static dielectric constant tensor:
#      x y z
#    x 1.975380 0.000000 0.001530 
#    y 0.000000 2.036160 0.000010 
#    z 0.001530 0.000010 2.032230 
# 
# From -- ./inp_files/311485.got.cif
#   From: 2010.05.17/outbox.cif.g08.bks.cpg/sg15_156_cif.got.tgz:311485.got - 2010.06.03 18:47:42.
