data_PCOD9254639
_publ_section_title
;
Structure prediction by ZEFSAII (Michael W. Deem and Ramdas Pophale) SiO2 
 PCOD9254639
Probable space group: C 2/C
;
_chemical_formula_sum "Si O2"
_cell_formula_units_Z 48
_cell_length_a 14.340106
_cell_length_b 31.564334
_cell_length_c 10.267997
_cell_angle_alpha 90.000000
_cell_angle_beta 150.144761
_cell_angle_gamma 90.000000
_cell_volume 2313.655226
_symmetry_space_group_name_H-M "C 2/C"
_symmetry_group_IT_number 15
_symmetry_cell_setting 'monoclinic'
loop_
_space_group_symop_operation_xyz
x,y,z
-x,y,1/2-z
-x,-y,-z
x,-y,1/2+z
1/2+x,1/2+y,z
1/2-x,1/2+y,1/2-z
1/2-x,1/2-y,-z
1/2+x,1/2-y,1/2+z
loop_
_atom_site_type_symbol
_atom_site_label
_atom_site_fract_x
_atom_site_fract_y
_atom_site_fract_z
Si Si1 0.372728 0.985026 0.221812
Si Si2 0.727482 0.929910 0.001441
Si Si3 0.743241 0.135125 0.299719
Si Si4 0.102207 0.863860 0.094235
Si Si5 0.368346 0.111945 0.719282
Si Si6 0.281428 0.200550 0.014078
O O1 0.500000 0.979765 0.250000
O O2 0.306858 0.937116 0.161721
O O3 0.500000 0.000000 0.500000
O O4 0.236522 0.022195 0.005324
O O5 0.500000 0.927759 0.750000
O O6 0.792356 0.902065 0.958424
O O7 0.820721 0.906310 0.237257
O O8 0.770685 0.177575 0.414398
O O9 0.878099 0.133963 0.338685
O O10 0.526647 0.126751 0.012773
O O11 0.189438 0.862461 0.056125
O O12 0.171869 0.823899 0.265897
O O13 0.500000 0.116543 0.750000
O O14 0.500000 0.193012 0.250000
O O15 0.250000 0.250000 0.000000
#
# Coordination Sequence:
#
# PCOD9254639 Si02
#       6
#     8   8   8   8   8   8
#     4  10  18  31  57  78 108 156 207 250 302 347
#     4  10  16  32  58  79 110 152 190 243 313 347
#     4  11  20  36  59  86 119 152 192 241 305 358
#     4  11  21  37  59  86 118 155 192 247 304 353
#     4  11  22  38  58  78 114 167 204 240 290 354
#     4  11  20  36  63 100 122 141 180 240 308 358
#
# _framework density 20.746393000000001
#
# number of rings (size 3 to 8) (size 9 to 14) (size 15 to 20)
#    0.000    1.333    5.000    5.000    0.000    0.667 
#    0.000    0.833   11.000    1.000    0.000    0.000 
#    0.000    0.000    0.000    0.000    0.000    0.000 
#
# Total GULP energy -133602.128679 kJ/mol
# GULP energy per Si atom -5566.755362 kJ/mol
# Density = 2.069917 g / cm^3
# Si number density = 20.746393 Si / 1000 Ang^3
#
#
#
# Elastic Constant Matrix: (Units=GPa)
#
#
# Indices 1 2 3 4 5 6 
#
# 1 149.6494 27.6173 11.0301 0.0000 18.8065 0.0000
# 2 27.6173 131.6459 9.1549 0.0000 -2.0806 0.0000
# 3 11.0301 9.1549 56.1925 0.0000 25.0323 0.0000
# 4 0.0000 0.0000 0.0000 8.0900 0.0000 12.2898
# 5 18.8065 -2.0806 25.0323 0.0000 39.0258 0.0000
# 6 0.0000 0.0000 0.0000 12.2898 0.0000 -3.5430
#
#
#
# Elastic Compliance Matrix: (Units=1/GPa)
#
#
# Indices 1 2 3 4 5 6 
#
# 1 0.007458 -0.001673 0.000629 0.000000 -0.004087 0.000000
# 2 -0.001673 0.008140 -0.002170 0.000000 0.002632 0.000000
# 3 0.000629 -0.002170 0.025499 0.000000 -0.016774 0.000000
# 4 0.000000 0.000000 0.000000 0.019716 0.000000 0.068390
# 5 -0.004087 0.002632 -0.016774 0.000000 0.038494 0.000000
# 6 0.000000 0.000000 0.000000 0.068390 0.000000 -0.045019
#
#
# Mechanical properties :
#
#
# Convention : Reuss Voigt Hill
#
# Bulk Modulus (GPa) = 28.84482 48.12137 38.48309
# Shear Modulus (GPa) = 69.18344 28.02692 48.60518
#
# Velocity S-wave (km/s) = 5.78097 3.67949 4.84553
# Velocity P-wave (km/s) = 7.64808 6.42627 7.06364
#
# Compressibility (1/GPa) = 0.03466827
#
# Stress axis : x y z
#
# Youngs Moduli (GPa) = 134.07955 122.85571 39.21777
#
# Poissons Ratio (x) = 0.20553 -0.02468
# Poissons Ratio (y) = 0.22431 0.08512
# Poissons Ratio (z) = -0.08436 0.26664
#
# Static dielectric constant tensor:
#      x y z
#    x 1.794710 0.000000 -0.018790 
#    y 0.000000 1.758050 0.000000 
#    z -0.018790 0.000000 1.764940 
# 
# From -- ./inp_files/101713.got.cif
#   From: 2010.05.17/outbox.cif.g08.bks.cpg/sg15_51_cif.got.tgz:101713.got - 2010.06.03 18:47:42.
