data_PCOD9254031
_publ_section_title
;
Structure prediction by ZEFSAII (Michael W. Deem and Ramdas Pophale) SiO2 
 PCOD9254031
Probable space group: C 2/C
;
_chemical_formula_sum "Si O2"
_cell_formula_units_Z 36
_cell_length_a 7.747781
_cell_length_b 11.718582
_cell_length_c 25.163418
_cell_angle_alpha 90.000000
_cell_angle_beta 50.638489
_cell_angle_gamma 90.000000
_cell_volume 1766.409080
_symmetry_space_group_name_H-M "C 2/C"
_symmetry_group_IT_number 15
_symmetry_cell_setting 'monoclinic'
loop_
_space_group_symop_operation_xyz
x,y,z
-x,y,1/2-z
-x,-y,-z
x,-y,1/2+z
1/2+x,1/2+y,z
1/2-x,1/2+y,1/2-z
1/2-x,1/2-y,-z
1/2+x,1/2-y,1/2+z
loop_
_atom_site_type_symbol
_atom_site_label
_atom_site_fract_x
_atom_site_fract_y
_atom_site_fract_z
Si Si1 0.577680 0.064802 0.623568
Si Si2 0.581380 0.321783 0.860634
Si Si3 0.410603 0.913163 0.562007
Si Si4 0.449944 0.692552 0.497279
Si Si5 0.500000 0.049405 0.250000
O O1 0.453296 0.187055 0.641591
O O2 0.828121 0.093841 0.553929
O O3 0.475385 0.970162 0.604563
O O4 0.551191 0.026625 0.688834
O O5 0.354409 0.389366 0.890039
O O6 0.618638 0.338863 0.917249
O O7 0.783780 0.370649 0.787360
O O8 0.517481 0.791513 0.524879
O O9 0.500000 0.000000 0.500000
O O10 0.250000 0.750000 0.500000
#
# Coordination Sequence:
#
# PCOD9254031 Si02
#       5
#     8   8   8   8   4
#     4  10  21  41  61  84 123 154 196 246 291 347
#     4  10  22  39  61  88 122 150 199 248 289 352
#     4  10  15  36  70  88 103 155 200 246 299 327
#     4   8  16  34  63  89 112 142 198 256 279 330
#     4  12  28  38  52  92 128 164 188 228 308 368
#
# _framework density 20.380331000000002
#
# number of rings (size 3 to 8) (size 9 to 14) (size 15 to 20)
#    0.000    2.667    6.667    0.000    0.000    7.111 
#    0.000    1.111    0.000    0.000    0.000    0.000 
#    0.000    0.000    0.000    0.000    0.000    0.000 
#
# Total GULP energy -100371.626403 kJ/mol
# GULP energy per Si atom -5576.201467 kJ/mol
# Density = 2.033394 g / cm^3
# Si number density = 20.380331 Si / 1000 Ang^3
#
#
#
# Elastic Constant Matrix: (Units=GPa)
#
#
# Indices 1 2 3 4 5 6 
#
# 1 57.6423 51.6658 24.1629 -0.0001 5.0995 0.0001
# 2 51.6658 111.3992 38.3464 -0.0001 9.0817 0.0001
# 3 24.1629 38.3464 98.2946 -0.0001 12.0813 0.0001
# 4 -0.0001 -0.0001 -0.0001 39.8456 0.0001 8.9550
# 5 5.0995 9.0817 12.0813 0.0001 41.6578 -0.0001
# 6 0.0001 0.0001 0.0001 8.9550 -0.0001 36.3266
#
#
#
# Elastic Compliance Matrix: (Units=1/GPa)
#
#
# Indices 1 2 3 4 5 6 
#
# 1 0.030120 -0.013185 -0.002240 0.000000 -0.000163 0.000000
# 2 -0.013185 0.016192 -0.002945 0.000000 -0.001062 0.000000
# 3 -0.002240 -0.002945 0.012195 0.000000 -0.002620 0.000000
# 4 0.000000 0.000000 0.000000 0.026569 0.000000 -0.006550
# 5 -0.000163 -0.001062 -0.002620 0.000000 0.025016 0.000000
# 6 0.000000 0.000000 0.000000 -0.006550 0.000000 0.029143
#
#
# Mechanical properties :
#
#
# Convention : Reuss Voigt Hill
#
# Bulk Modulus (GPa) = 45.94259 55.07627 50.50943
# Shear Modulus (GPa) = 27.28796 33.77674 30.53235
#
# Velocity S-wave (km/s) = 3.66312 4.07544 3.87477
# Velocity P-wave (km/s) = 6.36261 7.01630 6.69743
#
# Compressibility (1/GPa) = 0.02176629
#
# Stress axis : x y z
#
# Youngs Moduli (GPa) = 33.20093 61.75882 81.99879
#
# Poissons Ratio (x) = 0.81427 0.18371
# Poissons Ratio (y) = 0.43774 0.24150
# Poissons Ratio (z) = 0.07439 0.18189
#
# Static dielectric constant tensor:
#      x y z
#    x 1.769740 0.000000 -0.015750 
#    y 0.000000 1.758920 0.000000 
#    z -0.015750 0.000000 1.757340 
# 
# From -- ./inp_files/229537.got.cif
#   From: 2010.05.17/outbox.cif.g08.bks.cpg/sg15_115_cif.got.tgz:229537.got - 2010.06.03 18:47:42.
