data_PCOD9254815
_publ_section_title
;
Structure prediction by ZEFSAII (Michael W. Deem and Ramdas Pophale) SiO2 
 PCOD9254815
Probable space group: C 2/C
;
_chemical_formula_sum "Si O2"
_cell_formula_units_Z 56
_cell_length_a 17.168812
_cell_length_b 19.966702
_cell_length_c 8.966414
_cell_angle_alpha 90.000000
_cell_angle_beta 113.188165
_cell_angle_gamma 90.000000
_cell_volume 2825.421664
_symmetry_space_group_name_H-M "C 2/C"
_symmetry_group_IT_number 15
_symmetry_cell_setting 'monoclinic'
loop_
_space_group_symop_operation_xyz
x,y,z
-x,y,1/2-z
-x,-y,-z
x,-y,1/2+z
1/2+x,1/2+y,z
1/2-x,1/2+y,1/2-z
1/2-x,1/2-y,-z
1/2+x,1/2-y,1/2+z
loop_
_atom_site_type_symbol
_atom_site_label
_atom_site_fract_x
_atom_site_fract_y
_atom_site_fract_z
Si Si1 0.843375 0.829401 0.815447
Si Si2 0.777550 0.306226 0.286370
Si Si3 0.402771 0.877398 0.159594
Si Si4 0.507667 0.642622 0.592776
Si Si5 0.826701 0.071322 0.778382
Si Si6 0.879482 0.765762 0.529582
Si Si7 0.742901 0.441410 0.937104
O O1 0.808228 0.764271 0.877531
O O2 0.884429 0.794777 0.699761
O O3 0.778165 0.881389 0.693885
O O4 0.914879 0.869567 0.958189
O O5 0.855535 0.347817 0.272269
O O6 0.719471 0.361845 0.321853
O O7 0.713525 0.280773 0.107350
O O8 0.500000 0.896867 0.250000
O O9 0.398942 0.812489 0.049496
O O10 0.341885 0.935160 0.051303
O O11 0.500000 0.673215 0.750000
O O12 0.572358 0.580559 0.656749
O O13 0.554722 0.694346 0.520964
O O14 0.803811 0.068284 0.937939
O O15 0.789516 0.008457 0.664176
#
# Coordination Sequence:
#
# PCOD9254815 Si02
#       7
#     8   8   8   8   8   8   8
#     4  11  18  36  65  83 115 152 208 238 286 347
#     4   9  17  36  60  92 114 149 195 254 290 342
#     4  10  17  31  62  94 112 142 205 256 285 336
#     4  11  24  37  53  92 125 154 193 244 296 349
#     4  10  24  41  59  82 129 153 201 236 298 351
#     4  10  16  35  62  90 117 149 197 252 293 341
#     4  11  22  40  60  87 115 167 195 236 296 359
#
# _framework density 19.820050999999999
#
# number of rings (size 3 to 8) (size 9 to 14) (size 15 to 20)
#    0.000    1.714    5.714    3.000    2.000    0.571 
#    0.000    7.143    0.000    0.857    0.000    0.000 
#    0.000    0.000    0.000    0.000    0.000    0.000 
#
# Total GULP energy -156099.444770 kJ/mol
# GULP energy per Si atom -5574.980170 kJ/mol
# Density = 1.977494 g / cm^3
# Si number density = 19.820051 Si / 1000 Ang^3
#
#
#
# Elastic Constant Matrix: (Units=GPa)
#
#
# Indices 1 2 3 4 5 6 
#
# 1 67.3763 14.2083 36.4425 0.0000 35.7668 0.0000
# 2 14.2083 108.7996 28.6186 0.0000 18.1017 0.0000
# 3 36.4425 28.6186 58.3855 0.0000 32.6496 0.0000
# 4 0.0000 0.0000 0.0000 36.0703 0.0000 11.4938
# 5 35.7668 18.1017 32.6496 0.0000 38.4631 0.0000
# 6 0.0000 0.0000 0.0000 11.4938 0.0000 14.8719
#
#
#
# Elastic Compliance Matrix: (Units=1/GPa)
#
#
# Indices 1 2 3 4 5 6 
#
# 1 0.030657 0.001703 -0.006815 0.000000 -0.023524 0.000000
# 2 0.001703 0.010671 -0.004948 0.000000 -0.002405 0.000000
# 3 -0.006815 -0.004948 0.036094 0.000000 -0.021972 0.000000
# 4 0.000000 0.000000 0.000000 0.036782 0.000000 -0.028427
# 5 -0.023524 -0.002405 -0.021972 0.000000 0.067658 0.000000
# 6 0.000000 0.000000 0.000000 -0.028427 0.000000 0.089211
#
#
# Mechanical properties :
#
#
# Convention : Reuss Voigt Hill
#
# Bulk Modulus (GPa) = 17.45180 43.67782 30.56481
# Shear Modulus (GPa) = 16.11382 28.23385 22.17383
#
# Velocity S-wave (km/s) = 2.85442 3.77836 3.34841
# Velocity P-wave (km/s) = 4.43710 6.41247 5.51396
#
# Compressibility (1/GPa) = 0.05730067
#
# Stress axis : x y z
#
# Youngs Moduli (GPa) = 32.61914 93.71568 27.70557
#
# Poissons Ratio (x) = -0.15959 0.18881
# Poissons Ratio (y) = -0.05555 0.13710
# Poissons Ratio (z) = 0.22229 0.46375
#
# Static dielectric constant tensor:
#      x y z
#    x 1.750150 0.000000 0.002610 
#    y 0.000000 1.728210 0.000000 
#    z 0.002610 0.000000 1.712540 
# 
# From -- ./inp_files/50347.got.cif
#   From: 2010.05.17/outbox.cif.g08.bks.cpg/sg15_26_cif.got.tgz:50347.got - 2010.06.03 18:47:42.
