data_PCOD9254504
_publ_section_title
;
Structure prediction by ZEFSAII (Michael W. Deem and Ramdas Pophale) SiO2 
 PCOD9254504
Probable space group: C 2/C
;
_chemical_formula_sum "Si O2"
_cell_formula_units_Z 56
_cell_length_a 9.581976
_cell_length_b 10.549556
_cell_length_c 24.192928
_cell_angle_alpha 90.000000
_cell_angle_beta 75.927253
_cell_angle_gamma 90.000000
_cell_volume 2372.159886
_symmetry_space_group_name_H-M "C 2/C"
_symmetry_group_IT_number 15
_symmetry_cell_setting 'monoclinic'
loop_
_space_group_symop_operation_xyz
x,y,z
-x,y,1/2-z
-x,-y,-z
x,-y,1/2+z
1/2+x,1/2+y,z
1/2-x,1/2+y,1/2-z
1/2-x,1/2-y,-z
1/2+x,1/2-y,1/2+z
loop_
_atom_site_type_symbol
_atom_site_label
_atom_site_fract_x
_atom_site_fract_y
_atom_site_fract_z
Si Si1 0.353526 0.585154 0.788688
Si Si2 0.840502 0.442134 0.508522
Si Si3 0.857312 0.430424 0.900881
Si Si4 0.831854 0.447144 0.776563
Si Si5 0.850570 0.205298 0.284993
Si Si6 0.163968 0.156158 0.586854
Si Si7 0.873365 0.732969 0.101678
O O1 0.500000 0.641113 0.750000
O O2 0.252480 0.826845 0.756874
O O3 0.308334 0.646770 0.850230
O O4 0.391493 0.438468 0.801881
O O5 0.821805 0.453731 0.444545
O O6 0.736806 0.542337 0.548289
O O7 0.834832 0.313301 0.543931
O O8 0.000000 0.500000 0.500000
O O9 0.808077 0.452597 0.843782
O O10 0.789216 0.300264 0.932457
O O11 0.027787 0.387268 0.883901
O O12 0.761778 0.562144 0.748590
O O13 0.000000 0.440424 0.750000
O O14 0.507696 0.342543 0.407117
O O15 0.758496 0.256252 0.344945
O O16 0.000000 0.263742 0.250000
#
# Coordination Sequence:
#
# PCOD9254504 Si02
#       7
#     8   8   8   8   8   8   8
#     4   9  19  33  54  79 114 154 199 256 313 393
#     4  10  18  31  49  83 130 158 214 271 323 377
#     4   9  19  28  51  86 114 159 206 262 315 384
#     4  10  16  31  52  81 113 154 206 245 317 394
#     4   9  17  32  55  82 113 155 205 249 319 395
#     4  10  19  32  53  86 119 155 217 265 316 384
#     4   9  18  31  55  86 113 170 206 264 323 393
#
# _framework density 23.607178999999999
#
# number of rings (size 3 to 8) (size 9 to 14) (size 15 to 20)
#    1.714    0.857    2.857    0.429    2.000    1.714 
#    0.000    0.000    0.000    7.714    0.000    2.000 
#    0.000    0.000    0.000    0.000    0.000    0.286 
#
# Total GULP energy -156276.764673 kJ/mol
# GULP energy per Si atom -5581.313024 kJ/mol
# Density = 2.355345 g / cm^3
# Si number density = 23.607179 Si / 1000 Ang^3
#
#
#
# Elastic Constant Matrix: (Units=GPa)
#
#
# Indices 1 2 3 4 5 6 
#
# 1 127.1848 30.1816 66.5151 0.0000 -8.5314 0.0000
# 2 30.1816 66.0546 14.9548 0.0000 -6.1411 0.0000
# 3 66.5151 14.9548 140.9322 0.0000 2.4224 0.0000
# 4 0.0000 0.0000 0.0000 20.0181 0.0000 -0.1773
# 5 -8.5314 -6.1411 2.4224 0.0000 47.8966 0.0000
# 6 0.0000 0.0000 0.0000 -0.1773 0.0000 30.9555
#
#
#
# Elastic Compliance Matrix: (Units=1/GPa)
#
#
# Indices 1 2 3 4 5 6 
#
# 1 0.011581 -0.003974 -0.005075 0.000000 0.001810 0.000000
# 2 -0.003974 0.017084 0.000037 0.000000 0.001481 0.000000
# 3 -0.005075 0.000037 0.009511 0.000000 -0.001380 0.000000
# 4 0.000000 0.000000 0.000000 0.049957 0.000000 0.000286
# 5 0.001810 0.001481 -0.001380 0.000000 0.021460 0.000000
# 6 0.000000 0.000000 0.000000 0.000286 0.000000 0.032306
#
#
# Mechanical properties :
#
#
# Convention : Reuss Voigt Hill
#
# Bulk Modulus (GPa) = 49.62371 61.94164 55.78267
# Shear Modulus (GPa) = 30.00441 34.60872 32.30656
#
# Velocity S-wave (km/s) = 3.56896 3.83302 3.70335
# Velocity P-wave (km/s) = 6.16843 6.77384 6.47821
#
# Compressibility (1/GPa) = 0.02015166
#
# Stress axis : x y z
#
# Youngs Moduli (GPa) = 86.34464 58.53378 105.14380
#
# Poissons Ratio (x) = 0.23264 0.53365
# Poissons Ratio (y) = 0.34317 -0.00394
# Poissons Ratio (z) = 0.43824 -0.00219
#
# Static dielectric constant tensor:
#      x y z
#    x 1.941380 0.000000 -0.022120 
#    y 0.000000 2.053830 0.000000 
#    z -0.022120 0.000000 1.920960 
# 
# From -- ./inp_files/288649.got.cif
#   From: 2010.05.17/outbox.cif.g08.bks.cpg/sg15_145_cif.got.tgz:288649.got - 2010.06.03 18:47:42.
