data_PCOD9254817
_publ_section_title
;
Structure prediction by ZEFSAII (Michael W. Deem and Ramdas Pophale) SiO2 
 PCOD9254817
Probable space group: C 2/C
;
_chemical_formula_sum "Si O2"
_cell_formula_units_Z 48
_cell_length_a 20.566801
_cell_length_b 8.005679
_cell_length_c 14.035753
_cell_angle_alpha 90.000000
_cell_angle_beta 128.973027
_cell_angle_gamma 90.000000
_cell_volume 1796.671637
_symmetry_space_group_name_H-M "C 2/C"
_symmetry_group_IT_number 15
_symmetry_cell_setting 'monoclinic'
loop_
_space_group_symop_operation_xyz
x,y,z
-x,y,1/2-z
-x,-y,-z
x,-y,1/2+z
1/2+x,1/2+y,z
1/2-x,1/2+y,1/2-z
1/2-x,1/2-y,-z
1/2+x,1/2-y,1/2+z
loop_
_atom_site_type_symbol
_atom_site_label
_atom_site_fract_x
_atom_site_fract_y
_atom_site_fract_z
Si Si1 0.495176 0.603559 0.861121
Si Si2 0.738191 0.933500 0.034915
Si Si3 0.050793 0.426782 0.896116
Si Si4 0.228963 0.618024 0.853881
Si Si5 0.178066 0.250057 0.730189
Si Si6 0.539548 0.239001 0.679656
O O1 0.500000 0.581800 0.750000
O O2 0.565401 0.740224 0.951984
O O3 0.415304 0.710430 0.822064
O O4 0.487460 0.415378 0.890649
O O5 0.642335 0.982868 0.952572
O O6 0.773405 0.069276 0.994728
O O7 0.750000 0.750000 0.000000
O O8 0.774253 0.900244 0.170865
O O9 0.000000 0.403505 0.750000
O O10 0.003000 0.574938 0.905313
O O11 0.205049 0.434356 0.788806
O O12 0.295622 0.718545 0.853275
O O13 0.139581 0.713467 0.772898
O O14 0.500000 0.238916 0.750000
#
# Coordination Sequence:
#
# PCOD9254817 Si02
#       6
#     8   8   8   8   8   8
#     4  10  19  34  61  90 119 164 216 249 313 379
#     4  10  20  37  67  91 123 170 212 253 321 379
#     4  10  16  35  63  82 120 168 202 252 317 366
#     4  11  20  39  61  87 131 162 204 265 312 373
#     4  11  23  38  64  96 123 168 210 262 320 374
#     4  10  18  33  63  87 116 168 207 247 311 376
#
# _framework density 26.716066000000001
#
# number of rings (size 3 to 8) (size 9 to 14) (size 15 to 20)
#    0.000    1.667    5.000    4.000    0.000    0.000 
#    0.000    4.167   14.667   10.000    0.000    0.000 
#    0.000    0.000    0.000    0.000    0.000    0.000 
#
# Total GULP energy -134197.530087 kJ/mol
# GULP energy per Si atom -5591.563754 kJ/mol
# Density = 2.665526 g / cm^3
# Si number density = 26.716066 Si / 1000 Ang^3
#
#
#
# Elastic Constant Matrix: (Units=GPa)
#
#
# Indices 1 2 3 4 5 6 
#
# 1 117.4744 24.9346 25.7444 0.0000 -2.5059 0.0000
# 2 24.9346 230.7942 20.8223 0.0000 -20.6177 0.0000
# 3 25.7444 20.8223 49.4562 0.0000 -12.2170 0.0000
# 4 0.0000 0.0000 0.0000 32.8549 0.0000 -16.4336
# 5 -2.5059 -20.6177 -12.2170 0.0000 18.7898 0.0000
# 6 0.0000 0.0000 0.0000 -16.4336 0.0000 -19.6560
#
#
#
# Elastic Compliance Matrix: (Units=1/GPa)
#
#
# Indices 1 2 3 4 5 6 
#
# 1 0.009844 -0.000851 -0.005566 0.000000 -0.003240 0.000000
# 2 -0.000851 0.004908 -0.000383 0.000000 0.005023 0.000000
# 3 -0.005566 -0.000383 0.027391 0.000000 0.016647 0.000000
# 4 0.000000 0.000000 0.000000 0.021462 0.000000 -0.017943
# 5 -0.003240 0.005023 0.016647 0.000000 0.069124 0.000000
# 6 0.000000 0.000000 0.000000 -0.017943 0.000000 -0.035873
#
#
# Mechanical properties :
#
#
# Convention : Reuss Voigt Hill
#
# Bulk Modulus (GPa) = 35.03466 60.08082 47.55774
# Shear Modulus (GPa) = 41.67738 28.14598 34.91168
#
# Velocity S-wave (km/s) = 3.95398 3.24932 3.61885
# Velocity P-wave (km/s) = 5.82988 6.05103 5.94148
#
# Compressibility (1/GPa) = 0.02854316
#
# Stress axis : x y z
#
# Youngs Moduli (GPa) = 101.58658 203.74717 36.50851
#
# Poissons Ratio (x) = 0.17334 0.20322
# Poissons Ratio (y) = 0.08642 0.01397
# Poissons Ratio (z) = 0.56547 0.07797
#
# Static dielectric constant tensor:
#      x y z
#    x 1.669840 0.000000 0.441530 
#    y 0.000000 2.177880 0.000000 
#    z 0.441530 0.000000 1.585330 
# 
# From -- ./inp_files/213564.got.cif
#   From: 2010.05.17/outbox.cif.g08.bks.cpg/sg15_107_cif.got.tgz:213564.got - 2010.06.03 18:47:42.
