data_PCOD9254563
_publ_section_title
;
Structure prediction by ZEFSAII (Michael W. Deem and Ramdas Pophale) SiO2 
 PCOD9254563
Probable space group: C 2/C
;
_chemical_formula_sum "Si O2"
_cell_formula_units_Z 60
_cell_length_a 8.004535
_cell_length_b 17.403595
_cell_length_c 20.469781
_cell_angle_alpha 90.000000
_cell_angle_beta 119.717902
_cell_angle_gamma 90.000000
_cell_volume 2476.546160
_symmetry_space_group_name_H-M "C 2/C"
_symmetry_group_IT_number 15
_symmetry_cell_setting 'monoclinic'
loop_
_space_group_symop_operation_xyz
x,y,z
-x,y,1/2-z
-x,-y,-z
x,-y,1/2+z
1/2+x,1/2+y,z
1/2-x,1/2+y,1/2-z
1/2-x,1/2-y,-z
1/2+x,1/2-y,1/2+z
loop_
_atom_site_type_symbol
_atom_site_label
_atom_site_fract_x
_atom_site_fract_y
_atom_site_fract_z
Si Si1 0.150166 0.170088 0.719469
Si Si2 0.638547 0.926227 0.153289
Si Si3 0.479898 0.410187 0.602561
Si Si4 0.000000 0.958595 0.750000
Si Si5 0.082131 0.448803 0.839419
Si Si6 0.368855 0.579333 0.574956
Si Si7 0.426218 0.294398 0.973942
Si Si8 0.992256 0.702375 0.389903
O O1 0.340902 0.143229 0.792495
O O2 0.000000 0.180850 0.750000
O O3 0.055282 0.105095 0.654096
O O4 0.156330 0.246812 0.679193
O O5 0.689719 0.906869 0.089084
O O6 0.812129 0.985321 0.209431
O O7 0.445671 0.971088 0.129623
O O8 0.482444 0.408803 0.681291
O O9 0.698938 0.427298 0.625733
O O10 0.370131 0.488444 0.561131
O O11 0.442845 0.331297 0.556896
O O12 0.979844 0.384859 0.864899
O O13 0.000000 0.451101 0.750000
O O14 0.380523 0.635116 0.515793
O O15 0.210113 0.271255 0.909818
O O16 0.513816 0.227495 0.035943
#
# Coordination Sequence:
#
# PCOD9254563 Si02
#       8
#     8   8   8   4   8   8   8   8
#     4   9  14  28  49  74 102 135 173 214 262 309
#     4  10  17  30  52  81 104 134 175 223 271 314
#     4  10  18  30  51  79 107 132 176 223 271 308
#     4  10  16  32  50  76 102 136 172 224 272 312
#     4  11  19  30  49  85 112 133 169 231 278 308
#     4   9  16  30  52  75 102 140 177 221 259 315
#     4   9  18  32  49  75 108 140 186 217 255 312
#     4   9  19  30  46  75 113 137 173 223 258 311
#
# _framework density 24.227288000000001
#
# number of rings (size 3 to 8) (size 9 to 14) (size 15 to 20)
#    0.000    2.400    4.667    0.800    0.000    0.000 
#    0.000    2.667    0.000    3.200    8.667    3.733 
#    0.000    0.000    0.000    0.000    0.000    0.000 
#
# Total GULP energy -167568.593204 kJ/mol
# GULP energy per Si atom -5585.619773 kJ/mol
# Density = 2.417215 g / cm^3
# Si number density = 24.227288 Si / 1000 Ang^3
#
#
#
# Elastic Constant Matrix: (Units=GPa)
#
#
# Indices 1 2 3 4 5 6 
#
# 1 38.3958 13.0339 19.6666 0.0000 -10.8037 0.0000
# 2 13.0339 73.5510 38.9772 0.0000 -13.4531 0.0000
# 3 19.6666 38.9772 106.3048 0.0000 -32.2936 0.0000
# 4 0.0000 0.0000 0.0000 13.5334 0.0000 0.6049
# 5 -10.8037 -13.4531 -32.2936 0.0000 18.3540 0.0000
# 6 0.0000 0.0000 0.0000 0.6049 0.0000 10.8974
#
#
#
# Elastic Compliance Matrix: (Units=1/GPa)
#
#
# Indices 1 2 3 4 5 6 
#
# 1 0.031627 -0.002635 0.000395 0.000000 0.017380 0.000000
# 2 -0.002635 0.017181 -0.005280 0.000000 0.001753 0.000000
# 3 0.000395 -0.005280 0.021836 0.000000 0.034783 0.000000
# 4 0.000000 0.000000 0.000000 0.074075 0.000000 -0.004112
# 5 0.017380 0.001753 0.034783 0.000000 0.127199 0.000000
# 6 0.000000 0.000000 0.000000 -0.004112 0.000000 0.091993
#
#
# Mechanical properties :
#
#
# Convention : Reuss Voigt Hill
#
# Bulk Modulus (GPa) = 17.98397 40.17854 29.08126
# Shear Modulus (GPa) = 12.57901 18.32854 15.45378
#
# Velocity S-wave (km/s) = 2.28109 2.75348 2.52834
# Velocity P-wave (km/s) = 3.79169 5.17000 4.53353
#
# Compressibility (1/GPa) = 0.05560508
#
# Stress axis : x y z
#
# Youngs Moduli (GPa) = 31.61851 58.20229 45.79557
#
# Poissons Ratio (x) = 0.15335 -0.01807
# Poissons Ratio (y) = 0.08331 0.24178
# Poissons Ratio (z) = -0.01248 0.30728
#
# Static dielectric constant tensor:
#      x y z
#    x 1.955230 0.000000 -0.000700 
#    y 0.000000 2.007410 0.000000 
#    z -0.000700 0.000000 1.973910 
# 
# From -- ./inp_files/232742.got.cif
#   From: 2010.05.17/outbox.cif.g08.bks.cpg/sg15_117_cif.got.tgz:232742.got - 2010.06.03 18:47:42.
