data_PCOD9254159
_publ_section_title
;
Structure prediction by ZEFSAII (Michael W. Deem and Ramdas Pophale) SiO2 
 PCOD9254159
Probable space group: C 2/C
;
_chemical_formula_sum "Si O2"
_cell_formula_units_Z 56
_cell_length_a 22.998345
_cell_length_b 6.557877
_cell_length_c 19.484793
_cell_angle_alpha 90.000000
_cell_angle_beta 44.653840
_cell_angle_gamma 90.000000
_cell_volume 2065.384369
_symmetry_space_group_name_H-M "C 2/C"
_symmetry_group_IT_number 15
_symmetry_cell_setting 'monoclinic'
loop_
_space_group_symop_operation_xyz
x,y,z
-x,y,1/2-z
-x,-y,-z
x,-y,1/2+z
1/2+x,1/2+y,z
1/2-x,1/2+y,1/2-z
1/2-x,1/2-y,-z
1/2+x,1/2-y,1/2+z
loop_
_atom_site_type_symbol
_atom_site_label
_atom_site_fract_x
_atom_site_fract_y
_atom_site_fract_z
Si Si1 0.828622 0.082476 0.961594
Si Si2 0.776022 0.473611 0.073151
Si Si3 0.184571 0.475760 0.751088
Si Si4 0.012019 0.050788 0.608622
Si Si5 0.341739 0.503916 0.699735
Si Si6 0.417639 0.103815 0.542344
Si Si7 0.423172 0.113642 0.280220
O O1 0.766333 0.966873 0.963097
O O2 0.871044 0.262321 0.880105
O O3 0.906969 0.955524 0.923135
O O4 0.782874 0.224911 0.056557
O O5 0.714891 0.542667 0.185278
O O6 0.867471 0.519294 0.025063
O O7 0.282186 0.484520 0.683258
O O8 0.153120 0.252766 0.800651
O O9 0.146900 0.623483 0.841032
O O10 0.137489 0.509964 0.718946
O O11 0.935598 0.936102 0.638708
O O12 0.968835 0.207597 0.698293
O O13 0.053837 0.187443 0.515140
O O14 0.500000 0.000000 0.500000
O O15 0.500000 0.994692 0.250000
#
# Coordination Sequence:
#
# PCOD9254159 Si02
#       7
#     8   8   8   8   8   8   8
#     4   9  15  26  41  66  97 117 144 195 250 278
#     4   9  17  24  41  68  94 118 144 198 245 273
#     4  10  19  30  48  72  95 123 157 201 240 285
#     4   9  16  26  44  68  93 117 155 199 235 275
#     4  10  18  30  45  73  97 122 160 196 240 287
#     4  10  16  27  43  66  92 121 159 188 227 282
#     4   9  15  25  43  68  91 116 155 200 232 270
#
# _framework density 27.113596000000001
#
# number of rings (size 3 to 8) (size 9 to 14) (size 15 to 20)
#    0.000    2.571    5.714    0.000    0.000    0.000 
#    0.000    0.000    0.000    7.714    7.429   21.000 
#    0.000    0.000    0.000    0.000    0.000    0.000 
#
# Total GULP energy -156264.655485 kJ/mol
# GULP energy per Si atom -5580.880553 kJ/mol
# Density = 2.705188 g / cm^3
# Si number density = 27.113596 Si / 1000 Ang^3
#
#
#
# Elastic Constant Matrix: (Units=GPa)
#
#
# Indices 1 2 3 4 5 6 
#
# 1 331.2972 50.2440 42.4926 -0.0384 -56.4951 0.0537
# 2 50.2440 25.7043 9.5063 -0.0088 -6.8056 0.0815
# 3 42.4926 9.5063 92.9617 0.0002 -5.0362 0.0556
# 4 -0.0384 -0.0088 0.0002 18.6456 0.0182 7.0936
# 5 -56.4951 -6.8056 -5.0362 0.0182 56.9912 -0.0798
# 6 0.0537 0.0815 0.0556 7.0936 -0.0798 29.0571
#
#
#
# Elastic Compliance Matrix: (Units=1/GPa)
#
#
# Indices 1 2 3 4 5 6 
#
# 1 0.005157 -0.008560 -0.001267 -0.000009 0.003979 0.000030
# 2 -0.008560 0.055813 -0.001903 0.000071 -0.001989 -0.000160
# 3 -0.001267 -0.001903 0.011505 0.000003 -0.000466 -0.000016
# 4 -0.000009 0.000071 0.000003 0.059123 -0.000039 -0.014434
# 5 0.003979 -0.001989 -0.000466 -0.000039 0.021212 0.000067
# 6 0.000030 -0.000160 -0.000016 -0.014434 0.000067 0.037939
#
#
# Mechanical properties :
#
#
# Convention : Reuss Voigt Hill
#
# Bulk Modulus (GPa) = 20.40052 72.71655 46.55854
# Shear Modulus (GPa) = 21.68757 44.12015 32.90386
#
# Velocity S-wave (km/s) = 2.83128 4.03827 3.48739
# Velocity P-wave (km/s) = 4.26950 6.97288 5.78142
#
# Compressibility (1/GPa) = 0.04901836
#
# Stress axis : x y z
#
# Youngs Moduli (GPa) = 193.89357 17.91701 86.91559
#
# Poissons Ratio (x) = 0.15336 0.11009
# Poissons Ratio (y) = 1.65964 0.16536
# Poissons Ratio (z) = 0.24560 0.03409
#
# Static dielectric constant tensor:
#      x y z
#    x 2.181480 -0.000100 0.032190 
#    y -0.000100 2.311420 -0.000040 
#    z 0.032190 -0.000040 2.184010 
# 
# From -- ./inp_files/252235.got.cif
#   From: 2010.05.17/outbox.cif.g08.bks.cpg/sg15_127_cif.got.tgz:252235.got - 2010.06.03 18:47:42.
