data_PCOD9254789
_publ_section_title
;
Structure prediction by ZEFSAII (Michael W. Deem and Ramdas Pophale) SiO2 
 PCOD9254789
Probable space group: C 2/C
;
_chemical_formula_sum "Si O2"
_cell_formula_units_Z 44
_cell_length_a 12.970243
_cell_length_b 13.177454
_cell_length_c 10.957217
_cell_angle_alpha 90.000000
_cell_angle_beta 73.665835
_cell_angle_gamma 90.000000
_cell_volume 1797.161944
_symmetry_space_group_name_H-M "C 2/C"
_symmetry_group_IT_number 15
_symmetry_cell_setting 'monoclinic'
loop_
_space_group_symop_operation_xyz
x,y,z
-x,y,1/2-z
-x,-y,-z
x,-y,1/2+z
1/2+x,1/2+y,z
1/2-x,1/2+y,1/2-z
1/2-x,1/2-y,-z
1/2+x,1/2-y,1/2+z
loop_
_atom_site_type_symbol
_atom_site_label
_atom_site_fract_x
_atom_site_fract_y
_atom_site_fract_z
Si Si1 0.929976 0.478719 0.148989
Si Si2 0.566023 0.191886 0.387653
Si Si3 0.000000 0.859165 0.250000
Si Si4 0.025056 0.838562 0.600358
Si Si5 0.638508 0.466966 0.001269
Si Si6 0.825133 0.652674 0.503188
O O1 0.853747 0.385461 0.131891
O O2 0.000000 0.464503 0.250000
O O3 0.872781 0.590194 0.169123
O O4 0.000000 0.500000 0.000000
O O5 0.581803 0.291973 0.303010
O O6 0.558567 0.231366 0.529017
O O7 0.439015 0.172539 0.403443
O O8 0.924575 0.925857 0.359227
O O9 0.000000 0.828392 0.750000
O O10 0.919597 0.897737 0.581663
O O11 0.116257 0.914927 0.520281
O O12 0.762064 0.440915 0.966658
O O13 0.750000 0.750000 0.500000
#
# Coordination Sequence:
#
# PCOD9254789 Si02
#       6
#     8   8   4   8   8   8
#     4  10  23  44  68  97 135 182 226 283 351 418
#     4  10  21  39  69  89 131 179 219 267 347 404
#     4  10  16  34  64  86 128 174 216 258 346 392
#     4  10  20  37  63  93 134 175 225 268 347 407
#     4  10  21  38  61  98 128 174 219 283 329 404
#     4  11  21  42  65  99 126 172 233 277 335 409
#
# _framework density 24.483046000000002
#
# number of rings (size 3 to 8) (size 9 to 14) (size 15 to 20)
#    0.000    1.818    5.455    0.000    0.000    2.909 
#    6.545    2.727    0.000    0.000    0.000    0.000 
#    0.000    0.000    0.000    0.000    0.000    0.000 
#
# Total GULP energy -122558.184399 kJ/mol
# GULP energy per Si atom -5570.826564 kJ/mol
# Density = 2.442732 g / cm^3
# Si number density = 24.483046 Si / 1000 Ang^3
#
#
#
# Elastic Constant Matrix: (Units=GPa)
#
#
# Indices 1 2 3 4 5 6 
#
# 1 62.5677 26.1594 22.2588 0.0000 13.8691 0.0000
# 2 26.1594 121.8240 44.0833 0.0000 22.3997 0.0000
# 3 22.2588 44.0833 160.7004 0.0000 27.7885 0.0000
# 4 0.0000 0.0000 0.0000 43.3511 0.0000 8.0554
# 5 13.8691 22.3997 27.7885 0.0000 24.8191 0.0000
# 6 0.0000 0.0000 0.0000 8.0554 0.0000 31.2578
#
#
#
# Elastic Compliance Matrix: (Units=1/GPa)
#
#
# Indices 1 2 3 4 5 6 
#
# 1 0.018922 -0.002423 -0.000627 0.000000 -0.007684 0.000000
# 2 -0.002423 0.010430 -0.001404 0.000000 -0.006487 0.000000
# 3 -0.000627 -0.001404 0.007955 0.000000 -0.007290 0.000000
# 4 0.000000 0.000000 0.000000 0.024228 0.000000 -0.006244
# 5 -0.007684 -0.006487 -0.007290 0.000000 0.058602 0.000000
# 6 0.000000 0.000000 0.000000 -0.006244 0.000000 0.033601
#
#
# Mechanical properties :
#
#
# Convention : Reuss Voigt Hill
#
# Bulk Modulus (GPa) = 35.21290 58.89946 47.05618
# Shear Modulus (GPa) = 29.05067 36.72497 32.88782
#
# Velocity S-wave (km/s) = 3.44839 3.87721 3.66907
# Velocity P-wave (km/s) = 5.50172 6.64478 6.10009
#
# Compressibility (1/GPa) = 0.02839868
#
# Stress axis : x y z
#
# Youngs Moduli (GPa) = 52.84736 95.88071 125.70334
#
# Poissons Ratio (x) = 0.23234 0.07887
# Poissons Ratio (y) = 0.12806 0.17644
# Poissons Ratio (z) = 0.03316 0.13458
#
# Static dielectric constant tensor:
#      x y z
#    x 1.999610 0.000000 0.053930 
#    y 0.000000 2.183580 0.000000 
#    z 0.053930 0.000000 2.051860 
# 
# From -- ./inp_files/95698.got.cif
#   From: 2010.05.17/outbox.cif.g08.bks.cpg/sg15_48_cif.got.tgz:95698.got - 2010.06.03 18:47:42.
