data_PCOD9254889
_publ_section_title
;
Structure prediction by ZEFSAII (Michael W. Deem and Ramdas Pophale) SiO2 
 PCOD9254889
Probable space group: C 2/C
;
_chemical_formula_sum "Si O2"
_cell_formula_units_Z 48
_cell_length_a 23.340980
_cell_length_b 10.767406
_cell_length_c 9.371111
_cell_angle_alpha 90.000000
_cell_angle_beta 131.968041
_cell_angle_gamma 90.000000
_cell_volume 1751.107112
_symmetry_space_group_name_H-M "C 2/C"
_symmetry_group_IT_number 15
_symmetry_cell_setting 'monoclinic'
loop_
_space_group_symop_operation_xyz
x,y,z
-x,y,1/2-z
-x,-y,-z
x,-y,1/2+z
1/2+x,1/2+y,z
1/2-x,1/2+y,1/2-z
1/2-x,1/2-y,-z
1/2+x,1/2-y,1/2+z
loop_
_atom_site_type_symbol
_atom_site_label
_atom_site_fract_x
_atom_site_fract_y
_atom_site_fract_z
Si Si1 0.603635 0.480657 0.730840
Si Si2 0.232948 0.261079 0.138756
Si Si3 0.237288 0.387960 0.553141
Si Si4 0.564056 0.237598 0.477142
Si Si5 0.064866 0.600780 0.766094
Si Si6 0.894000 0.849277 0.491837
O O1 0.695948 0.474744 0.891776
O O2 0.583757 0.364219 0.596554
O O3 0.576242 0.606179 0.611463
O O4 0.580247 0.450632 0.850669
O O5 0.248750 0.135605 0.255845
O O6 0.302174 0.343829 0.318825
O O7 0.250000 0.250000 0.000000
O O8 0.146091 0.298267 0.038470
O O9 0.250000 0.250000 0.500000
O O10 0.152615 0.442830 0.389253
O O11 0.500000 0.251488 0.250000
O O12 0.540462 0.145047 0.567812
O O13 0.000000 0.529482 0.750000
O O14 0.080207 0.720146 0.896847
#
# Coordination Sequence:
#
# PCOD9254889 Si02
#       6
#     8   8   8   8   8   8
#     4  10  20  35  54  77 108 143 172 221 268 313
#     4  10  20  34  56  77 102 139 186 222 252 312
#     4  10  16  38  56  69 102 143 180 218 260 304
#     4  10  21  35  52  79 111 140 174 221 268 309
#     4  10  20  35  55  78 107 141 179 217 264 317
#     4  10  21  35  53  79 109 138 179 217 265 316
#
# _framework density 27.411228000000001
#
# number of rings (size 3 to 8) (size 9 to 14) (size 15 to 20)
#    0.000    2.000    6.667    0.000    9.333    0.667 
#    0.000    3.333    0.000    1.000    0.000    4.667 
#    0.000    0.000    0.000    0.000    0.000    0.000 
#
# Total GULP energy -134302.994988 kJ/mol
# GULP energy per Si atom -5595.958125 kJ/mol
# Density = 2.734884 g / cm^3
# Si number density = 27.411228 Si / 1000 Ang^3
#
#
#
# Elastic Constant Matrix: (Units=GPa)
#
#
# Indices 1 2 3 4 5 6 
#
# 1 210.4976 3.8962 89.2062 0.0000 22.1386 0.0000
# 2 3.8962 61.0555 22.8129 0.0000 -7.6085 0.0000
# 3 89.2062 22.8129 201.5250 0.0000 -1.7256 0.0000
# 4 0.0000 0.0000 0.0000 31.5583 0.0000 -18.4649
# 5 22.1386 -7.6085 -1.7256 0.0000 64.6894 0.0000
# 6 0.0000 0.0000 0.0000 -18.4649 0.0000 18.5652
#
#
#
# Elastic Compliance Matrix: (Units=1/GPa)
#
#
# Indices 1 2 3 4 5 6 
#
# 1 0.006147 0.000382 -0.002783 0.000000 -0.002133 0.000000
# 2 0.000382 0.017378 -0.002120 0.000000 0.001857 0.000000
# 3 -0.002783 -0.002120 0.006441 0.000000 0.000875 0.000000
# 4 0.000000 0.000000 0.000000 0.075797 0.000000 0.075387
# 5 -0.002133 0.001857 0.000875 0.000000 0.016430 0.000000
# 6 0.000000 0.000000 0.000000 0.075387 0.000000 0.128844
#
#
# Mechanical properties :
#
#
# Convention : Reuss Voigt Hill
#
# Bulk Modulus (GPa) = 47.79205 78.32318 63.05761
# Shear Modulus (GPa) = 18.72278 46.77346 32.74812
#
# Velocity S-wave (km/s) = 2.61633 4.13529 3.46019
# Velocity P-wave (km/s) = 5.15751 7.17191 6.24645
#
# Compressibility (1/GPa) = 0.02092398
#
# Stress axis : x y z
#
# Youngs Moduli (GPa) = 162.67777 57.54478 155.24680
#
# Poissons Ratio (x) = -0.02196 0.43198
# Poissons Ratio (y) = -0.06207 0.32915
# Poissons Ratio (z) = 0.45265 0.12201
#
# Static dielectric constant tensor:
#      x y z
#    x 2.213200 0.000000 0.062820 
#    y 0.000000 2.226060 0.000000 
#    z 0.062820 0.000000 2.114990 
# 
# From -- ./inp_files/62594.got.cif
#   From: 2010.05.17/outbox.cif.g08.bks.cpg/sg15_32_cif.got.tgz:62594.got - 2010.06.03 18:47:42.
