data_PCOD9254892
_publ_section_title
;
Structure prediction by ZEFSAII (Michael W. Deem and Ramdas Pophale) SiO2 
 PCOD9254892
Probable space group: C 2/C
;
_chemical_formula_sum "Si O2"
_cell_formula_units_Z 44
_cell_length_a 14.498011
_cell_length_b 9.547848
_cell_length_c 19.451369
_cell_angle_alpha 90.000000
_cell_angle_beta 55.541743
_cell_angle_gamma 90.000000
_cell_volume 2220.113101
_symmetry_space_group_name_H-M "C 2/C"
_symmetry_group_IT_number 15
_symmetry_cell_setting 'monoclinic'
loop_
_space_group_symop_operation_xyz
x,y,z
-x,y,1/2-z
-x,-y,-z
x,-y,1/2+z
1/2+x,1/2+y,z
1/2-x,1/2+y,1/2-z
1/2-x,1/2-y,-z
1/2+x,1/2-y,1/2+z
loop_
_atom_site_type_symbol
_atom_site_label
_atom_site_fract_x
_atom_site_fract_y
_atom_site_fract_z
Si Si1 0.153623 0.145638 0.653139
Si Si2 0.943222 0.487053 0.637634
Si Si3 0.678088 0.474986 0.773158
Si Si4 0.000986 0.831411 0.414818
Si Si5 0.500000 0.104647 0.250000
Si Si6 0.609623 0.749855 0.409845
O O1 0.138669 0.015260 0.711920
O O2 0.101271 0.284370 0.711336
O O3 0.284291 0.182306 0.595056
O O4 0.088948 0.133464 0.608062
O O5 0.811451 0.492058 0.712487
O O6 0.972617 0.334205 0.597418
O O7 0.965991 0.619345 0.580841
O O8 0.011141 0.490777 0.679498
O O9 0.613790 0.588238 0.847368
O O10 0.647353 0.330161 0.824231
O O11 0.949542 0.853007 0.511637
#
# Coordination Sequence:
#
# PCOD9254892 Si02
#       6
#     8   8   8   8   4   8
#     4  10  19  37  61  80 107 153 193 215 265 348
#     4  10  20  36  59  80 108 152 191 222 270 343
#     4  11  19  35  58  84 110 146 191 229 269 330
#     4  11  21  38  59  82 118 145 186 228 283 332
#     4  10  16  38  58  78 102 152 200 218 252 342
#     4  11  22  34  57  92 114 140 179 246 285 311
#
# _framework density 19.818809999999999
#
# number of rings (size 3 to 8) (size 9 to 14) (size 15 to 20)
#    0.000    1.455    5.455    2.727    0.000    0.000 
#    3.273    0.000    0.000    1.091    0.000    0.000 
#    0.000    0.000    0.000    0.000    0.000    0.000 
#
# Total GULP energy -122557.195623 kJ/mol
# GULP energy per Si atom -5570.781619 kJ/mol
# Density = 1.977370 g / cm^3
# Si number density = 19.818810 Si / 1000 Ang^3
#
#
#
# Elastic Constant Matrix: (Units=GPa)
#
#
# Indices 1 2 3 4 5 6 
#
# 1 50.7118 27.7655 15.4896 0.0000 10.1250 0.0000
# 2 27.7655 61.8038 14.9006 0.0000 18.1011 0.0000
# 3 15.4896 14.9006 70.7619 0.0000 12.0276 0.0000
# 4 0.0000 0.0000 0.0000 31.7639 0.0000 -1.2155
# 5 10.1250 18.1011 12.0276 0.0000 20.7321 0.0000
# 6 0.0000 0.0000 0.0000 -1.2155 0.0000 23.9188
#
#
#
# Elastic Compliance Matrix: (Units=1/GPa)
#
#
# Indices 1 2 3 4 5 6 
#
# 1 0.027013 -0.010796 -0.003328 0.000000 -0.001836 0.000000
# 2 -0.010796 0.026198 -0.000179 0.000000 -0.017497 0.000000
# 3 -0.003328 -0.000179 0.016192 0.000000 -0.007612 0.000000
# 4 0.000000 0.000000 0.000000 0.031544 0.000000 0.001603
# 5 -0.001836 -0.017497 -0.007612 0.000000 0.068824 0.000000
# 6 0.000000 0.000000 0.000000 0.001603 0.000000 0.041890
#
#
# Mechanical properties :
#
#
# Convention : Reuss Voigt Hill
#
# Bulk Modulus (GPa) = 24.51130 33.28767 28.89948
# Shear Modulus (GPa) = 19.69554 23.62442 21.65998
#
# Velocity S-wave (km/s) = 3.15585 3.45631 3.30949
# Velocity P-wave (km/s) = 5.06692 5.72368 5.40529
#
# Compressibility (1/GPa) = 0.04079751
#
# Stress axis : x y z
#
# Youngs Moduli (GPa) = 37.01913 38.17088 61.75923
#
# Poissons Ratio (x) = 0.41208 0.20552
# Poissons Ratio (y) = 0.39964 0.01108
# Poissons Ratio (z) = 0.12319 0.00685
#
# Static dielectric constant tensor:
#      x y z
#    x 1.730670 0.000000 -0.001440 
#    y 0.000000 1.699560 0.000000 
#    z -0.001440 0.000000 1.771440 
# 
# From -- ./inp_files/202537.got.cif
#   From: 2010.05.17/outbox.cif.g08.bks.cpg/sg15_102_cif.got.tgz:202537.got - 2010.06.03 18:47:42.
