data_PCOD9254917
_publ_section_title
;
Structure prediction by ZEFSAII (Michael W. Deem and Ramdas Pophale) SiO2 
 PCOD9254917
Probable space group: C 2/C
;
_chemical_formula_sum "Si O2"
_cell_formula_units_Z 44
_cell_length_a 9.474398
_cell_length_b 21.083558
_cell_length_c 10.388546
_cell_angle_alpha 90.000000
_cell_angle_beta 105.431628
_cell_angle_gamma 90.000000
_cell_volume 2000.341761
_symmetry_space_group_name_H-M "C 2/C"
_symmetry_group_IT_number 15
_symmetry_cell_setting 'monoclinic'
loop_
_space_group_symop_operation_xyz
x,y,z
-x,y,1/2-z
-x,-y,-z
x,-y,1/2+z
1/2+x,1/2+y,z
1/2-x,1/2+y,1/2-z
1/2-x,1/2-y,-z
1/2+x,1/2-y,1/2+z
loop_
_atom_site_type_symbol
_atom_site_label
_atom_site_fract_x
_atom_site_fract_y
_atom_site_fract_z
Si Si1 0.808372 0.336776 0.917118
Si Si2 0.850758 0.917412 0.996565
Si Si3 0.143602 0.688055 0.497053
Si Si4 0.000000 0.845900 0.250000
Si Si5 0.274206 0.206793 0.694893
Si Si6 0.110090 0.950092 0.887603
O O1 0.707319 0.280735 0.834859
O O2 0.737648 0.404675 0.867299
O O3 0.805370 0.331310 0.072324
O O4 0.974131 0.320021 0.918932
O O5 0.719655 0.869714 0.936813
O O6 0.894571 0.890444 0.145427
O O7 0.826953 0.992293 0.011314
O O8 0.994850 0.910223 0.944966
O O9 0.250000 0.750000 0.500000
O O10 0.144314 0.686359 0.654762
O O11 0.103026 0.804567 0.185275
O O12 0.000000 0.974867 0.750000
#
# Coordination Sequence:
#
# PCOD9254917 Si02
#       6
#     8   8   8   4   8   8
#     4  11  23  39  63  96 126 164 214 271 315 373
#     4  10  22  41  64  90 128 168 215 252 329 377
#     4  11  25  41  63  95 129 170 209 268 328 383
#     4  10  16  40  62  86 120 172 202 254 314 386
#     4  10  22  37  63  88 130 160 209 257 324 381
#     4  11  24  41  66  93 128 170 221 265 310 386
#
# _framework density 21.996241000000001
#
# number of rings (size 3 to 8) (size 9 to 14) (size 15 to 20)
#    0.000    1.455    2.727    2.727    5.091    0.727 
#    0.000    0.000    0.000    0.000    0.000    0.000 
#    0.000    0.000    0.000    0.000    0.000    0.000 
#
# Total GULP energy -122599.670418 kJ/mol
# GULP energy per Si atom -5572.712292 kJ/mol
# Density = 2.194618 g / cm^3
# Si number density = 21.996241 Si / 1000 Ang^3
#
#
#
# Elastic Constant Matrix: (Units=GPa)
#
#
# Indices 1 2 3 4 5 6 
#
# 1 118.5104 51.7872 10.1952 0.0000 1.9737 0.0000
# 2 51.7872 77.6008 6.8909 0.0000 3.3675 0.0000
# 3 10.1952 6.8909 36.5906 0.0000 -9.8225 0.0000
# 4 0.0000 0.0000 0.0000 21.9642 0.0000 -5.9915
# 5 1.9737 3.3675 -9.8225 0.0000 28.4309 0.0000
# 6 0.0000 0.0000 0.0000 -5.9915 0.0000 27.9165
#
#
#
# Elastic Compliance Matrix: (Units=1/GPa)
#
#
# Indices 1 2 3 4 5 6 
#
# 1 0.012046 -0.007831 -0.002047 0.000000 -0.000616 0.000000
# 2 -0.007831 0.018380 -0.001894 0.000000 -0.002288 0.000000
# 3 -0.002047 -0.001894 0.031253 0.000000 0.011164 0.000000
# 4 0.000000 0.000000 0.000000 0.048360 0.000000 0.010379
# 5 -0.000616 -0.002288 0.011164 0.000000 0.039344 0.000000
# 6 0.000000 0.000000 0.000000 0.010379 0.000000 0.038049
#
#
# Mechanical properties :
#
#
# Convention : Reuss Voigt Hill
#
# Bulk Modulus (GPa) = 26.22150 41.16093 33.69122
# Shear Modulus (GPa) = 22.35269 26.58422 24.46846
#
# Velocity S-wave (km/s) = 3.19126 3.48024 3.33887
# Velocity P-wave (km/s) = 5.05229 5.90785 5.49674
#
# Compressibility (1/GPa) = 0.03813664
#
# Stress axis : x y z
#
# Youngs Moduli (GPa) = 83.01293 54.40790 31.99658
#
# Poissons Ratio (x) = 0.42605 0.06550
# Poissons Ratio (y) = 0.65004 0.06059
# Poissons Ratio (z) = 0.16994 0.10303
#
# Static dielectric constant tensor:
#      x y z
#    x 1.870440 0.000000 0.022640 
#    y 0.000000 1.837440 0.000000 
#    z 0.022640 0.000000 1.890110 
# 
# From -- ./inp_files/78302.got.cif
#   From: 2010.05.17/outbox.cif.g08.bks.cpg/sg15_40_cif.got.tgz:78302.got - 2010.06.03 18:47:42.
