data_PCOD9254703
_publ_section_title
;
Structure prediction by ZEFSAII (Michael W. Deem and Ramdas Pophale) SiO2 
 PCOD9254703
Probable space group: C 2/C
;
_chemical_formula_sum "Si O2"
_cell_formula_units_Z 28
_cell_length_a 7.770318
_cell_length_b 20.295007
_cell_length_c 9.671526
_cell_angle_alpha 90.000000
_cell_angle_beta 135.028649
_cell_angle_gamma 90.000000
_cell_volume 1077.930448
_symmetry_space_group_name_H-M "C 2/C"
_symmetry_group_IT_number 15
_symmetry_cell_setting 'monoclinic'
loop_
_space_group_symop_operation_xyz
x,y,z
-x,y,1/2-z
-x,-y,-z
x,-y,1/2+z
1/2+x,1/2+y,z
1/2-x,1/2+y,1/2-z
1/2-x,1/2-y,-z
1/2+x,1/2-y,1/2+z
loop_
_atom_site_type_symbol
_atom_site_label
_atom_site_fract_x
_atom_site_fract_y
_atom_site_fract_z
Si Si1 0.859533 0.618165 0.355255
Si Si2 0.741343 0.244306 0.852119
Si Si3 0.335285 0.400239 0.444313
Si Si4 0.000000 0.517321 0.250000
O O1 0.879986 0.696683 0.351320
O O2 0.786149 0.608707 0.472479
O O3 0.054498 0.566979 0.408489
O O4 0.619740 0.598468 0.132222
O O5 0.448527 0.256544 0.612399
O O6 0.773031 0.167419 0.829575
O O7 0.213845 0.467231 0.326012
#
# Coordination Sequence:
#
# PCOD9254703 Si02
#       4
#     8   8   8   4
#     4  10  21  36  54  85 113 135 184 229 264 318
#     4  10  16  33  60  78  97 141 196 218 243 317
#     4  10  20  36  59  79 104 150 188 212 258 339
#     4  12  22  34  56  86 114 142 166 234 288 302
#
# _framework density 25.975705000000001
#
# number of rings (size 3 to 8) (size 9 to 14) (size 15 to 20)
#    0.000    1.714    7.143    1.714    0.000    0.000 
#    0.000    1.429    0.000    3.429    0.000    0.000 
#    0.000    0.000    0.000    0.000    0.000    0.000 
#
# Total GULP energy -78075.658008 kJ/mol
# GULP energy per Si atom -5576.832715 kJ/mol
# Density = 2.591658 g / cm^3
# Si number density = 25.975705 Si / 1000 Ang^3
#
#
#
# Elastic Constant Matrix: (Units=GPa)
#
#
# Indices 1 2 3 4 5 6 
#
# 1 47.8220 40.2092 -1.3536 0.0000 -16.1158 0.0000
# 2 40.2092 276.8950 30.2243 0.0000 -12.4959 0.0000
# 3 -1.3536 30.2243 108.8644 0.0000 11.3156 0.0000
# 4 0.0000 0.0000 0.0000 21.8802 0.0000 -26.3911
# 5 -16.1158 -12.4959 11.3156 0.0000 12.1921 0.0000
# 6 0.0000 0.0000 0.0000 -26.3911 0.0000 17.1048
#
#
#
# Elastic Compliance Matrix: (Units=1/GPa)
#
#
# Indices 1 2 3 4 5 6 
#
# 1 0.042852 -0.003116 -0.004602 0.000000 0.057720 0.000000
# 2 -0.003116 0.004287 -0.001392 0.000000 0.001567 0.000000
# 3 -0.004602 -0.001392 0.011395 0.000000 -0.018085 0.000000
# 4 0.000000 0.000000 0.000000 -0.053082 0.000000 -0.081901
# 5 0.057720 0.001567 -0.018085 0.000000 0.176707 0.000000
# 6 0.000000 0.000000 0.000000 -0.081901 0.000000 -0.067902
#
#
# Mechanical properties :
#
#
# Convention : Reuss Voigt Hill
#
# Bulk Modulus (GPa) = 24.80481 63.52681 44.16581
# Shear Modulus (GPa) = 34.26718 34.53551 34.40134
#
# Velocity S-wave (km/s) = 3.63602 3.65023 3.64313
# Velocity P-wave (km/s) = 5.21512 6.50191 5.89374
#
# Compressibility (1/GPa) = 0.04031477
#
# Stress axis : x y z
#
# Youngs Moduli (GPa) = 23.33634 233.28990 87.76033
#
# Poissons Ratio (x) = 0.72682 0.40386
# Poissons Ratio (y) = 0.07271 0.12213
# Poissons Ratio (z) = 0.10739 0.32466
#
# Static dielectric constant tensor:
#      x y z
#    x 1.992630 0.000000 0.043580 
#    y 0.000000 1.989460 0.000000 
#    z 0.043580 0.000000 2.390040 
# 
# From -- ./inp_files/78079.got.cif
#   From: 2010.05.17/outbox.cif.g08.bks.cpg/sg15_40_cif.got.tgz:78079.got - 2010.06.03 18:47:42.
