data_PCOD9254875
_publ_section_title
;
Structure prediction by ZEFSAII (Michael W. Deem and Ramdas Pophale) SiO2 
 PCOD9254875
Probable space group: C 2/C
;
_chemical_formula_sum "Si O2"
_cell_formula_units_Z 56
_cell_length_a 11.506188
_cell_length_b 9.039878
_cell_length_c 25.903099
_cell_angle_alpha 90.000000
_cell_angle_beta 69.451879
_cell_angle_gamma 90.000000
_cell_volume 2522.881411
_symmetry_space_group_name_H-M "C 2/C"
_symmetry_group_IT_number 15
_symmetry_cell_setting 'monoclinic'
loop_
_space_group_symop_operation_xyz
x,y,z
-x,y,1/2-z
-x,-y,-z
x,-y,1/2+z
1/2+x,1/2+y,z
1/2-x,1/2+y,1/2-z
1/2-x,1/2-y,-z
1/2+x,1/2-y,1/2+z
loop_
_atom_site_type_symbol
_atom_site_label
_atom_site_fract_x
_atom_site_fract_y
_atom_site_fract_z
Si Si1 0.923612 0.438085 0.414597
Si Si2 0.550811 0.673832 0.438510
Si Si3 0.307417 0.588180 0.625205
Si Si4 0.191065 0.171667 0.634270
Si Si5 0.329666 0.912016 0.659166
Si Si6 0.393202 0.244042 0.461714
Si Si7 0.857356 0.584243 0.272842
O O1 0.941674 0.273969 0.433054
O O2 0.797051 0.441819 0.402219
O O3 0.922938 0.568951 0.456776
O O4 0.044438 0.489281 0.363200
O O5 0.579898 0.520699 0.406067
O O6 0.675213 0.766686 0.404951
O O7 0.461023 0.327229 0.497876
O O8 0.340363 0.759607 0.625945
O O9 0.237821 0.532945 0.687748
O O10 0.105941 0.195681 0.597240
O O11 0.145786 0.274928 0.688175
O O12 0.219250 0.008859 0.651354
O O13 0.313775 0.878363 0.722006
O O14 0.250000 0.250000 0.500000
O O15 0.000000 0.530435 0.250000
#
# Coordination Sequence:
#
# PCOD9254875 Si02
#       7
#     8   8   8   8   8   8   8
#     4  11  20  40  63  88 117 164 201 242 309 360
#     4   9  20  36  65  88 119 162 202 247 302 356
#     4  11  22  42  60  90 124 152 204 260 289 364
#     4   9  19  35  58  88 121 159 197 248 300 357
#     4  11  23  38  61  91 121 158 202 249 305 360
#     4  10  16  36  66  86 119 164 200 245 304 358
#     4  11  19  39  63  84 120 162 197 245 308 353
#
# _framework density 22.196843000000001
#
# number of rings (size 3 to 8) (size 9 to 14) (size 15 to 20)
#    0.000    1.714    5.714    1.286    0.000    0.000 
#    5.143    2.143    0.000    0.000    0.000    0.000 
#    0.000    0.000    0.000    0.000    0.000    0.000 
#
# Total GULP energy -156360.760418 kJ/mol
# GULP energy per Si atom -5584.312872 kJ/mol
# Density = 2.214632 g / cm^3
# Si number density = 22.196843 Si / 1000 Ang^3
#
#
#
# Elastic Constant Matrix: (Units=GPa)
#
#
# Indices 1 2 3 4 5 6 
#
# 1 52.1244 51.1555 16.0048 0.0000 11.6062 0.0000
# 2 51.1555 135.4886 41.1746 0.0000 18.4563 0.0000
# 3 16.0048 41.1746 97.3632 0.0000 20.3504 0.0000
# 4 0.0000 0.0000 0.0000 29.2834 0.0000 -1.8320
# 5 11.6062 18.4563 20.3504 0.0000 29.1870 0.0000
# 6 0.0000 0.0000 0.0000 -1.8320 0.0000 35.2102
#
#
#
# Elastic Compliance Matrix: (Units=1/GPa)
#
#
# Indices 1 2 3 4 5 6 
#
# 1 0.031303 -0.011274 0.000859 0.000000 -0.005917 0.000000
# 2 -0.011274 0.012818 -0.003290 0.000000 -0.001329 0.000000
# 3 0.000859 -0.003290 0.013061 0.000000 -0.007368 0.000000
# 4 0.000000 0.000000 0.000000 0.034261 0.000000 0.001783
# 5 -0.005917 -0.001329 -0.007368 0.000000 0.042592 0.000000
# 6 0.000000 0.000000 0.000000 0.001783 0.000000 0.028494
#
#
# Mechanical properties :
#
#
# Convention : Reuss Voigt Hill
#
# Bulk Modulus (GPa) = 33.58820 55.73844 44.66332
# Shear Modulus (GPa) = 25.01732 30.51223 27.76477
#
# Velocity S-wave (km/s) = 3.36082 3.71161 3.54056
# Velocity P-wave (km/s) = 5.49773 6.59800 6.07283
#
# Compressibility (1/GPa) = 0.02977236
#
# Stress axis : x y z
#
# Youngs Moduli (GPa) = 31.94591 78.01546 76.56461
#
# Poissons Ratio (x) = 0.87953 -0.06575
# Poissons Ratio (y) = 0.36015 0.25188
# Poissons Ratio (z) = -0.02744 0.25665
#
# Static dielectric constant tensor:
#      x y z
#    x 1.833530 0.000000 -0.004980 
#    y 0.000000 1.861920 0.000000 
#    z -0.004980 0.000000 1.947940 
# 
# From -- ./inp_files/310203.got.cif
#   From: 2010.05.17/outbox.cif.g08.bks.cpg/sg15_156_cif.got.tgz:310203.got - 2010.06.03 18:47:42.
