data_PCOD9254383
_publ_section_title
;
Structure prediction by ZEFSAII (Michael W. Deem and Ramdas Pophale) SiO2 
 PCOD9254383
Probable space group: C 2/C
;
_chemical_formula_sum "Si O2"
_cell_formula_units_Z 60
_cell_length_a 17.255940
_cell_length_b 11.092792
_cell_length_c 15.452482
_cell_angle_alpha 90.000000
_cell_angle_beta 61.934544
_cell_angle_gamma 90.000000
_cell_volume 2610.048003
_symmetry_space_group_name_H-M "C 2/C"
_symmetry_group_IT_number 15
_symmetry_cell_setting 'monoclinic'
loop_
_space_group_symop_operation_xyz
x,y,z
-x,y,1/2-z
-x,-y,-z
x,-y,1/2+z
1/2+x,1/2+y,z
1/2-x,1/2+y,1/2-z
1/2-x,1/2-y,-z
1/2+x,1/2-y,1/2+z
loop_
_atom_site_type_symbol
_atom_site_label
_atom_site_fract_x
_atom_site_fract_y
_atom_site_fract_z
Si Si1 0.534101 0.979756 0.632660
Si Si2 0.772928 0.162324 0.565738
Si Si3 0.542398 0.764691 0.043729
Si Si4 0.712132 0.903518 0.601824
Si Si5 0.355873 0.754947 0.092364
Si Si6 0.180203 0.849383 0.710702
Si Si7 0.000000 0.140122 0.250000
Si Si8 0.153201 0.475541 0.828016
O O1 0.500000 0.007099 0.750000
O O2 0.562434 0.098654 0.564230
O O3 0.619947 0.896104 0.598174
O O4 0.448428 0.936322 0.625125
O O5 0.750000 0.250000 0.500000
O O6 0.873238 0.193507 0.535830
O O7 0.762313 0.024227 0.545808
O O8 0.698650 0.211330 0.670974
O O9 0.460122 0.749586 0.022426
O O10 0.512207 0.712334 0.153830
O O11 0.683621 0.943400 0.714365
O O12 0.778228 0.790728 0.570995
O O13 0.342854 0.659436 0.177128
O O14 0.343636 0.888376 0.138210
O O15 0.097830 0.914277 0.708972
O O16 0.274695 0.909277 0.651630
#
# Coordination Sequence:
#
# PCOD9254383 Si02
#       8
#     8   8   8   8   8   8   4   8
#     4   9  15  28  50  73  96 129 179 215 249 298
#     4  12  20  30  52  86 106 128 171 228 262 301
#     4  10  18  29  51  79 103 134 168 216 260 301
#     4  10  18  31  53  79 105 133 174 220 266 308
#     4   9  19  34  53  75 104 142 172 211 262 318
#     4  10  19  32  53  78 105 132 173 217 262 309
#     4  10  16  30  50  76 104 132 168 204 262 314
#     4   9  18  33  54  75 101 137 177 219 253 314
#
# _framework density 22.988083
#
# number of rings (size 3 to 8) (size 9 to 14) (size 15 to 20)
#    0.000    2.133    4.667    0.000    0.000    0.533 
#    0.000    2.667    7.333    0.800    0.000    0.000 
#    0.000    0.000    0.000    0.000    0.000    0.000 
#
# Total GULP energy -167051.001239 kJ/mol
# GULP energy per Si atom -5568.366708 kJ/mol
# Density = 2.293576 g / cm^3
# Si number density = 22.988083 Si / 1000 Ang^3
#
#
#
# Elastic Constant Matrix: (Units=GPa)
#
#
# Indices 1 2 3 4 5 6 
#
# 1 258.8292 72.7822 29.3795 0.0000 -19.0426 0.0000
# 2 72.7822 49.2482 8.0590 0.0000 -16.2153 0.0000
# 3 29.3795 8.0590 59.1352 0.0000 -7.2564 0.0000
# 4 0.0000 0.0000 0.0000 19.8271 0.0000 -5.9378
# 5 -19.0426 -16.2153 -7.2564 0.0000 32.1748 0.0000
# 6 0.0000 0.0000 0.0000 -5.9378 0.0000 36.1724
#
#
#
# Elastic Compliance Matrix: (Units=1/GPa)
#
#
# Indices 1 2 3 4 5 6 
#
# 1 0.006921 -0.010408 -0.002223 0.000000 -0.001651 0.000000
# 2 -0.010408 0.040199 0.001463 0.000000 0.014429 0.000000
# 3 -0.002223 0.001463 0.018249 0.000000 0.003538 0.000000
# 4 0.000000 0.000000 0.000000 0.053044 0.000000 0.008707
# 5 -0.001651 0.014429 0.003538 0.000000 0.038173 0.000000
# 6 0.000000 0.000000 0.000000 0.008707 0.000000 0.029075
#
#
# Mechanical properties :
#
#
# Convention : Reuss Voigt Hill
#
# Bulk Modulus (GPa) = 23.23740 65.29488 44.26614
# Shear Modulus (GPa) = 22.48797 34.76765 28.62781
#
# Velocity S-wave (km/s) = 3.13108 3.89320 3.53276
# Velocity P-wave (km/s) = 4.81684 6.97674 5.99487
#
# Compressibility (1/GPa) = 0.04303407
#
# Stress axis : x y z
#
# Youngs Moduli (GPa) = 144.48325 24.87633 54.79639
#
# Poissons Ratio (x) = 0.25892 0.12179
# Poissons Ratio (y) = 1.50383 -0.08019
# Poissons Ratio (z) = 0.32114 -0.03640
#
# Static dielectric constant tensor:
#      x y z
#    x 1.939300 0.000000 -0.003800 
#    y 0.000000 1.866110 0.000000 
#    z -0.003800 0.000000 2.032960 
# 
# From -- ./inp_files/204437.got.cif
#   From: 2010.05.17/outbox.cif.g08.bks.cpg/sg15_103_cif.got.tgz:204437.got - 2010.06.03 18:47:42.
