data_PCOD9254755
_publ_section_title
;
Structure prediction by ZEFSAII (Michael W. Deem and Ramdas Pophale) SiO2 
 PCOD9254755
Probable space group: C 2/C
;
_chemical_formula_sum "Si O2"
_cell_formula_units_Z 48
_cell_length_a 15.963923
_cell_length_b 9.533988
_cell_length_c 14.680218
_cell_angle_alpha 90.000000
_cell_angle_beta 51.821883
_cell_angle_gamma 90.000000
_cell_volume 1756.388856
_symmetry_space_group_name_H-M "C 2/C"
_symmetry_group_IT_number 15
_symmetry_cell_setting 'monoclinic'
loop_
_space_group_symop_operation_xyz
x,y,z
-x,y,1/2-z
-x,-y,-z
x,-y,1/2+z
1/2+x,1/2+y,z
1/2-x,1/2+y,1/2-z
1/2-x,1/2-y,-z
1/2+x,1/2-y,1/2+z
loop_
_atom_site_type_symbol
_atom_site_label
_atom_site_fract_x
_atom_site_fract_y
_atom_site_fract_z
Si Si1 0.074426 0.007644 0.042010
Si Si2 0.413766 0.302830 0.219994
Si Si3 0.102411 0.272680 0.236015
Si Si4 0.447913 0.811542 0.495541
Si Si5 0.695074 0.060150 0.141518
Si Si6 0.735709 0.025448 0.329168
O O1 0.104347 0.172273 0.015650
O O2 0.186873 0.929368 0.977435
O O3 0.996706 0.930778 0.163702
O O4 0.000000 0.000000 0.000000
O O5 0.449631 0.225202 0.101827
O O6 0.298915 0.380657 0.291294
O O7 0.388172 0.186115 0.313348
O O8 0.143712 0.409996 0.156951
O O9 0.187802 0.151212 0.188376
O O10 0.000000 0.222157 0.250000
O O11 0.058089 0.318447 0.366084
O O12 0.373806 0.949089 0.542535
O O13 0.719572 0.053586 0.233328
#
# Coordination Sequence:
#
# PCOD9254755 Si02
#       6
#     8   8   8   8   8   8
#     4  10  16  34  58  91 125 163 207 274 327 366
#     4  10  20  33  65  96 125 160 220 283 322 377
#     4  12  26  42  63  97 138 177 220 271 330 395
#     4  10  20  36  65  92 131 169 216 269 327 388
#     4  11  21  38  63  94 131 168 220 278 326 384
#     4  11  19  38  64  94 120 172 222 266 320 391
#
# _framework density 27.328800000000001
#
# number of rings (size 3 to 8) (size 9 to 14) (size 15 to 20)
#    0.000    1.333    6.667    2.000    0.000    4.667 
#    0.000    0.833    0.000    2.000    0.000    0.000 
#    0.000    0.000    0.000    0.000    0.000    0.000 
#
# Total GULP energy -134195.561799 kJ/mol
# GULP energy per Si atom -5591.481742 kJ/mol
# Density = 2.726660 g / cm^3
# Si number density = 27.328800 Si / 1000 Ang^3
#
#
#
# Elastic Constant Matrix: (Units=GPa)
#
#
# Indices 1 2 3 4 5 6 
#
# 1 60.8948 10.7630 19.5435 0.0000 0.2992 0.0000
# 2 10.7630 102.9004 15.2266 0.0000 -12.4522 0.0000
# 3 19.5435 15.2266 92.5157 0.0000 -9.1017 0.0000
# 4 0.0000 0.0000 0.0000 39.5481 0.0000 -12.0047
# 5 0.2992 -12.4522 -9.1017 0.0000 47.9036 0.0000
# 6 0.0000 0.0000 0.0000 -12.0047 0.0000 18.0671
#
#
#
# Elastic Compliance Matrix: (Units=1/GPa)
#
#
# Indices 1 2 3 4 5 6 
#
# 1 0.017858 -0.001472 -0.003647 0.000000 -0.001187 0.000000
# 2 -0.001472 0.010342 -0.001147 0.000000 0.002480 0.000000
# 3 -0.003647 -0.001147 0.011965 0.000000 0.001998 0.000000
# 4 0.000000 0.000000 0.000000 0.031674 0.000000 0.021046
# 5 -0.001187 0.002480 0.001998 0.000000 0.021907 0.000000
# 6 0.000000 0.000000 0.000000 0.021046 0.000000 0.069333
#
#
# Mechanical properties :
#
#
# Convention : Reuss Voigt Hill
#
# Bulk Modulus (GPa) = 36.18914 38.59746 37.39330
# Shear Modulus (GPa) = 27.05306 35.15560 31.10433
#
# Velocity S-wave (km/s) = 3.14970 3.59052 3.37731
# Velocity P-wave (km/s) = 5.14765 5.59850 5.37780
#
# Compressibility (1/GPa) = 0.02763260
#
# Stress axis : x y z
#
# Youngs Moduli (GPa) = 55.99665 96.69396 83.57875
#
# Poissons Ratio (x) = 0.14232 0.30481
# Poissons Ratio (y) = 0.08242 0.09588
# Poissons Ratio (z) = 0.20422 0.11093
#
# Static dielectric constant tensor:
#      x y z
#    x 1.892320 0.000000 0.032830 
#    y 0.000000 2.179460 0.000000 
#    z 0.032830 0.000000 2.186390 
# 
# From -- ./inp_files/251769.got.cif
#   From: 2010.05.17/outbox.cif.g08.bks.cpg/sg15_126_cif.got.tgz:251769.got - 2010.06.03 18:47:42.
