data_PCOD9254902
_publ_section_title
;
Structure prediction by ZEFSAII (Michael W. Deem and Ramdas Pophale) SiO2 
 PCOD9254902
Probable space group: C 2/C
;
_chemical_formula_sum "Si O2"
_cell_formula_units_Z 36
_cell_length_a 14.693929
_cell_length_b 13.556648
_cell_length_c 11.094262
_cell_angle_alpha 90.000000
_cell_angle_beta 39.776684
_cell_angle_gamma 90.000000
_cell_volume 1413.939653
_symmetry_space_group_name_H-M "C 2/C"
_symmetry_group_IT_number 15
_symmetry_cell_setting 'monoclinic'
loop_
_space_group_symop_operation_xyz
x,y,z
-x,y,1/2-z
-x,-y,-z
x,-y,1/2+z
1/2+x,1/2+y,z
1/2-x,1/2+y,1/2-z
1/2-x,1/2-y,-z
1/2+x,1/2-y,1/2+z
loop_
_atom_site_type_symbol
_atom_site_label
_atom_site_fract_x
_atom_site_fract_y
_atom_site_fract_z
Si Si1 0.667811 0.147743 0.604612
Si Si2 0.318852 0.327968 0.180318
Si Si3 0.724365 0.446366 0.031147
Si Si4 0.610975 0.669467 0.443097
Si Si5 0.000000 0.671804 0.250000
O O1 0.500000 0.151587 0.750000
O O2 0.750000 0.250000 0.500000
O O3 0.705653 0.123486 0.705826
O O4 0.746748 0.057389 0.458565
O O5 0.318682 0.381170 0.309888
O O6 0.484396 0.336469 0.974659
O O7 0.260242 0.215866 0.248592
O O8 0.627463 0.425037 0.012996
O O9 0.873972 0.399117 0.839606
O O10 0.556054 0.757126 0.588060
#
# Coordination Sequence:
#
# PCOD9254902 Si02
#       5
#     8   8   8   8   4
#     4  12  29  49  64  93 139 182 225 273 325 397
#     4  11  23  40  71  99 130 181 211 280 337 384
#     4  11  22  40  70 100 133 166 227 270 326 397
#     4  11  19  39  69 107 132 162 224 274 333 394
#     4  10  16  38  64 100 134 156 208 286 318 382
#
# _framework density 25.460775999999999
#
# number of rings (size 3 to 8) (size 9 to 14) (size 15 to 20)
#    0.000    0.889    5.556    2.667    0.000    5.333 
#    0.000    0.000    0.000    0.000    0.000    0.000 
#    0.000    0.000    0.000    0.000    0.000    0.000 
#
# Total GULP energy -100621.215436 kJ/mol
# GULP energy per Si atom -5590.067524 kJ/mol
# Density = 2.540283 g / cm^3
# Si number density = 25.460776 Si / 1000 Ang^3
#
#
#
# Elastic Constant Matrix: (Units=GPa)
#
#
# Indices 1 2 3 4 5 6 
#
# 1 153.3936 22.9778 41.3404 0.0000 -50.6892 0.0000
# 2 22.9778 155.7140 32.4669 0.0000 -23.3486 0.0000
# 3 41.3404 32.4669 73.1570 0.0000 -42.8713 0.0000
# 4 0.0000 0.0000 0.0000 29.0414 0.0000 -3.9520
# 5 -50.6892 -23.3486 -42.8713 0.0000 54.7144 0.0000
# 6 0.0000 0.0000 0.0000 -3.9520 0.0000 26.7018
#
#
#
# Elastic Compliance Matrix: (Units=1/GPa)
#
#
# Indices 1 2 3 4 5 6 
#
# 1 0.009402 -0.000051 -0.000367 0.000000 0.008400 0.000000
# 2 -0.000051 0.007109 -0.002544 0.000000 0.000993 0.000000
# 3 -0.000367 -0.002544 0.026201 0.000000 0.019104 0.000000
# 4 0.000000 0.000000 0.000000 0.035141 0.000000 0.005201
# 5 0.008400 0.000993 0.019104 0.000000 0.041452 0.000000
# 6 0.000000 0.000000 0.000000 0.005201 0.000000 0.038220
#
#
# Mechanical properties :
#
#
# Convention : Reuss Voigt Hill
#
# Bulk Modulus (GPa) = 27.18407 63.98163 45.58285
# Shear Modulus (GPa) = 28.45550 41.12348 34.78949
#
# Velocity S-wave (km/s) = 3.34671 4.02328 3.70049
# Velocity P-wave (km/s) = 5.06300 6.83860 6.01666
#
# Compressibility (1/GPa) = 0.03678625
#
# Stress axis : x y z
#
# Youngs Moduli (GPa) = 106.36272 140.66836 38.16630
#
# Poissons Ratio (x) = 0.00720 0.01402
# Poissons Ratio (y) = 0.00544 0.09711
# Poissons Ratio (z) = 0.03907 0.35790
#
# Static dielectric constant tensor:
#      x y z
#    x 2.149120 0.000000 0.035230 
#    y 0.000000 2.025750 0.000000 
#    z 0.035230 0.000000 2.097780 
# 
# From -- ./inp_files/152393.got.cif
#   From: 2010.05.17/outbox.cif.g08.bks.cpg/sg15_77_cif.got.tgz:152393.got - 2010.06.03 18:47:42.
