data_PCOD9254232
_publ_section_title
;
Structure prediction by ZEFSAII (Michael W. Deem and Ramdas Pophale) SiO2 
 PCOD9254232
Probable space group: C 2/C
;
_chemical_formula_sum "Si O2"
_cell_formula_units_Z 44
_cell_length_a 17.384039
_cell_length_b 24.466517
_cell_length_c 8.053226
_cell_angle_alpha 90.000000
_cell_angle_beta 146.587733
_cell_angle_gamma 90.000000
_cell_volume 1886.148289
_symmetry_space_group_name_H-M "C 2/C"
_symmetry_group_IT_number 15
_symmetry_cell_setting 'monoclinic'
loop_
_space_group_symop_operation_xyz
x,y,z
-x,y,1/2-z
-x,-y,-z
x,-y,1/2+z
1/2+x,1/2+y,z
1/2-x,1/2+y,1/2-z
1/2-x,1/2-y,-z
1/2+x,1/2-y,1/2+z
loop_
_atom_site_type_symbol
_atom_site_label
_atom_site_fract_x
_atom_site_fract_y
_atom_site_fract_z
Si Si1 0.024030 0.664207 0.019571
Si Si2 0.500000 0.360504 0.250000
Si Si3 0.789111 0.580801 0.306443
Si Si4 0.153714 0.529630 0.447531
Si Si5 0.717233 0.136570 0.694319
Si Si6 0.886266 0.780176 0.327409
O O1 0.114457 0.633840 0.042768
O O2 0.117874 0.652391 0.356193
O O3 0.015570 0.728290 0.968315
O O4 0.872907 0.642630 0.802390
O O5 0.632018 0.398198 0.529151
O O6 0.453231 0.321384 0.315753
O O7 0.830048 0.547619 0.212572
O O8 0.816889 0.534487 0.490817
O O9 0.252095 0.573104 0.722998
O O10 0.000000 0.538587 0.250000
O O11 0.837125 0.181833 0.891486
O O12 0.750000 0.750000 0.000000
#
# Coordination Sequence:
#
# PCOD9254232 Si02
#       6
#     8   4   8   8   8   8
#     4   9  16  28  46  78 103 130 173 227 275 311
#     4  12  20  32  50  84 120 136 172 224 286 338
#     4  11  23  34  54  82 114 144 182 222 273 322
#     4  11  20  38  56  77 108 147 190 230 259 314
#     4   9  15  28  47  70 102 130 176 220 268 305
#     4  10  16  28  48  75 113 136 165 226 290 316
#
# _framework density 23.327964000000001
#
# number of rings (size 3 to 8) (size 9 to 14) (size 15 to 20)
#    0.000    1.818    9.091    2.727    0.000    0.727 
#    0.000    0.000    0.000    0.000    0.000    5.091 
#    0.000    0.000    0.000    0.000    0.000    0.000 
#
# Total GULP energy -122871.367387 kJ/mol
# GULP energy per Si atom -5585.062154 kJ/mol
# Density = 2.327487 g / cm^3
# Si number density = 23.327964 Si / 1000 Ang^3
#
#
#
# Elastic Constant Matrix: (Units=GPa)
#
#
# Indices 1 2 3 4 5 6 
#
# 1 84.5394 20.7028 21.3478 0.0000 15.5127 0.0000
# 2 20.7028 157.3728 21.4155 0.0000 15.3327 0.0000
# 3 21.3478 21.4155 55.2512 0.0000 21.9565 0.0000
# 4 0.0000 0.0000 0.0000 -190.7181 0.0000 -259.9487
# 5 15.5127 15.3327 21.9565 0.0000 27.0293 0.0000
# 6 0.0000 0.0000 0.0000 -259.9487 0.0000 -312.7985
#
#
#
# Elastic Compliance Matrix: (Units=1/GPa)
#
#
# Indices 1 2 3 4 5 6 
#
# 1 0.013711 -0.000918 -0.002985 0.000000 -0.004923 0.000000
# 2 -0.000918 0.006886 -0.001435 0.000000 -0.002214 0.000000
# 3 -0.002985 -0.001435 0.027768 0.000000 -0.020030 0.000000
# 4 0.000000 0.000000 0.000000 0.039510 0.000000 -0.032834
# 5 -0.004923 -0.002214 -0.020030 0.000000 0.057349 0.000000
# 6 0.000000 0.000000 0.000000 -0.032834 0.000000 0.024090
#
#
# Mechanical properties :
#
#
# Convention : Reuss Voigt Hill
#
# Bulk Modulus (GPa) = 26.53236 47.12172 36.82704
# Shear Modulus (GPa) = 25.96699 -79.71764 -26.87532
#
# Velocity S-wave (km/s) = 3.33998 -5.85207 -3.39789
# Velocity P-wave (km/s) = 5.12565 5.04171 0.65323
#
# Compressibility (1/GPa) = 0.03768982
#
# Stress axis : x y z
#
# Youngs Moduli (GPa) = 72.93515 145.22196 36.01227
#
# Poissons Ratio (x) = 0.13328 0.10751
# Poissons Ratio (y) = 0.06694 0.05166
# Poissons Ratio (z) = 0.21774 0.20833
#
# Static dielectric constant tensor:
#      x y z
#    x 1.945910 0.000000 -0.087990 
#    y 0.000000 1.903410 0.000000 
#    z -0.087990 0.000000 1.974380 
# 
# From -- ./inp_files/114159.got.cif
#   From: 2010.05.17/outbox.cif.g08.bks.cpg/sg15_58_cif.got.tgz:114159.got - 2010.06.03 18:47:42.
