data_PCOD9254612
_publ_section_title
;
Structure prediction by ZEFSAII (Michael W. Deem and Ramdas Pophale) SiO2 
 PCOD9254612
Probable space group: C 2/C
;
_chemical_formula_sum "Si O2"
_cell_formula_units_Z 60
_cell_length_a 17.571051
_cell_length_b 11.702893
_cell_length_c 29.744765
_cell_angle_alpha 90.000000
_cell_angle_beta 152.048650
_cell_angle_gamma 90.000000
_cell_volume 2866.926492
_symmetry_space_group_name_H-M "C 2/C"
_symmetry_group_IT_number 15
_symmetry_cell_setting 'monoclinic'
loop_
_space_group_symop_operation_xyz
x,y,z
-x,y,1/2-z
-x,-y,-z
x,-y,1/2+z
1/2+x,1/2+y,z
1/2-x,1/2+y,1/2-z
1/2-x,1/2-y,-z
1/2+x,1/2-y,1/2+z
loop_
_atom_site_type_symbol
_atom_site_label
_atom_site_fract_x
_atom_site_fract_y
_atom_site_fract_z
Si Si1 0.721176 0.485013 0.657226
Si Si2 0.969461 0.731449 0.649544
Si Si3 0.885040 0.171934 0.547427
Si Si4 0.500000 0.910960 0.250000
Si Si5 0.245591 0.123911 0.753451
Si Si6 0.271912 0.561153 0.027411
Si Si7 0.024120 0.581927 0.971190
Si Si8 0.491550 0.687169 0.502030
O O1 0.893746 0.504712 0.724900
O O2 0.725514 0.509984 0.712304
O O3 0.619255 0.587953 0.580752
O O4 0.638451 0.368468 0.599683
O O5 0.931604 0.678366 0.678130
O O6 0.852323 0.652685 0.558354
O O7 0.925765 0.863356 0.621907
O O8 0.149639 0.705676 0.725298
O O9 0.750000 0.250000 0.500000
O O10 0.911198 0.207953 0.509093
O O11 0.063854 0.172784 0.664208
O O12 0.820381 0.041501 0.519877
O O13 0.360273 0.099042 0.855815
O O14 0.167692 0.526668 0.016382
O O15 0.065261 0.705014 0.014711
O O16 0.000000 0.500000 0.000000
#
# Coordination Sequence:
#
# PCOD9254612 Si02
#       8
#     8   8   8   4   8   8   8   8
#     4   9  19  37  62  94 123 160 213 270 327 386
#     4   9  19  37  62  94 123 160 213 270 327 386
#     4  11  23  44  63  94 132 178 217 270 337 409
#     4  10  16  32  56 100 128 152 210 272 322 378
#     4   9  22  41  61  94 127 170 218 268 335 400
#     4  10  21  40  65  89 125 170 212 268 330 398
#     4  11  23  44  63  94 132 178 217 270 337 409
#     4  10  21  40  65  89 125 170 212 268 330 398
#
# _framework density 20.928335000000001
#
# number of rings (size 3 to 8) (size 9 to 14) (size 15 to 20)
#    0.000    2.133    0.000    2.400    0.000    8.533 
#   28.800    1.333    0.000    0.000    0.000    0.000 
#    0.000    0.000    0.000    0.000    0.000    0.000 
#
# Total GULP energy -167309.854293 kJ/mol
# GULP energy per Si atom -5576.995143 kJ/mol
# Density = 2.088070 g / cm^3
# Si number density = 20.928335 Si / 1000 Ang^3
#
#
#
# Elastic Constant Matrix: (Units=GPa)
#
#
# Indices 1 2 3 4 5 6 
#
# 1 69.9295 -10.7636 29.0611 0.0000 4.1343 0.0000
# 2 -10.7636 38.6322 12.1336 0.0000 5.4678 0.0000
# 3 29.0611 12.1336 63.5325 0.0002 11.8809 -0.0002
# 4 0.0000 0.0000 0.0002 17.5668 0.0000 -12.1741
# 5 4.1343 5.4678 11.8809 0.0000 36.6397 0.0000
# 6 0.0000 0.0000 -0.0002 -12.1741 0.0000 -30.0001
#
#
#
# Elastic Compliance Matrix: (Units=1/GPa)
#
#
# Indices 1 2 3 4 5 6 
#
# 1 0.020281 0.009118 -0.011003 0.000000 -0.000081 0.000000
# 2 0.009118 0.031864 -0.009767 0.000000 -0.002617 0.000000
# 3 -0.011003 -0.009767 0.023562 0.000000 -0.004941 0.000000
# 4 0.000000 0.000000 0.000000 0.044430 0.000000 -0.018030
# 5 -0.000081 -0.002617 -0.004941 0.000000 0.029295 0.000000
# 6 0.000000 0.000000 0.000000 -0.018030 0.000000 -0.026017
#
#
# Mechanical properties :
#
#
# Convention : Reuss Voigt Hill
#
# Bulk Modulus (GPa) = 19.08281 25.88404 22.48342
# Shear Modulus (GPa) = 30.45303 14.28550 22.36927
#
# Velocity S-wave (km/s) = 3.81873 2.61548 3.27288
# Velocity P-wave (km/s) = 5.34617 4.63851 5.00486
#
# Compressibility (1/GPa) = 0.05240319
#
# Stress axis : x y z
#
# Youngs Moduli (GPa) = 49.30705 31.38378 42.44045
#
# Poissons Ratio (x) = -0.28616 0.46698
# Poissons Ratio (y) = -0.44959 0.41451
# Poissons Ratio (z) = 0.54254 0.30652
#
# Static dielectric constant tensor:
#      x y z
#    x 0.630960 0.000000 0.157540 
#    y 0.000000 1.776320 0.000000 
#    z 0.157540 0.000000 1.794940 
# 
# From -- ./inp_files/316076.got.cif
#   From: 2010.05.17/outbox.cif.g08.bks.cpg/sg15_159_cif.got.tgz:316076.got - 2010.06.03 18:47:42.
