data_PCOD9254217
_publ_section_title
;
Structure prediction by ZEFSAII (Michael W. Deem and Ramdas Pophale) SiO2 
 PCOD9254217
Probable space group: C 2/C
;
_chemical_formula_sum "Si O2"
_cell_formula_units_Z 40
_cell_length_a 25.032250
_cell_length_b 7.876521
_cell_length_c 8.259508
_cell_angle_alpha 90.000000
_cell_angle_beta 101.153555
_cell_angle_gamma 90.000000
_cell_volume 1597.744068
_symmetry_space_group_name_H-M "C 2/C"
_symmetry_group_IT_number 15
_symmetry_cell_setting 'monoclinic'
loop_
_space_group_symop_operation_xyz
x,y,z
-x,y,1/2-z
-x,-y,-z
x,-y,1/2+z
1/2+x,1/2+y,z
1/2-x,1/2+y,1/2-z
1/2-x,1/2-y,-z
1/2+x,1/2-y,1/2+z
loop_
_atom_site_type_symbol
_atom_site_label
_atom_site_fract_x
_atom_site_fract_y
_atom_site_fract_z
Si Si1 0.324835 0.868091 0.740266
Si Si2 0.558019 0.245903 0.244940
Si Si3 0.945116 0.882088 0.625995
Si Si4 0.167704 0.788144 0.925969
Si Si5 0.279806 0.473052 0.272634
O O1 0.386069 0.860649 0.710077
O O2 0.329417 0.861015 0.940150
O O3 0.293768 0.693346 0.674749
O O4 0.280769 0.015076 0.689167
O O5 0.500000 0.158908 0.250000
O O6 0.560555 0.414070 0.358996
O O7 0.555281 0.318979 0.059366
O O8 0.892463 0.798928 0.678745
O O9 0.000000 0.834680 0.750000
O O10 0.175874 0.943238 0.061822
O O11 0.209531 0.855432 0.817976
#
# Coordination Sequence:
#
# PCOD9254217 Si02
#       5
#     8   8   8   8   8
#     4   9  20  32  53  73 107 138 169 206 260 304
#     4  10  18  29  46  74 102 132 166 215 255 299
#     4  10  16  28  46  69 102 132 162 209 263 296
#     4   9  18  32  49  74 104 135 168 211 251 310
#     4  10  19  34  50  73 107 137 168 211 255 309
#
# _framework density 25.035301
#
# number of rings (size 3 to 8) (size 9 to 14) (size 15 to 20)
#    1.200    1.200    2.000    3.000    0.000    0.800 
#    0.000    0.000    0.000    0.000    0.000    4.200 
#    0.000    6.400    0.000    0.000    0.000    0.000 
#
# Total GULP energy -111418.202465 kJ/mol
# GULP energy per Si atom -5570.910123 kJ/mol
# Density = 2.497832 g / cm^3
# Si number density = 25.035301 Si / 1000 Ang^3
#
#
#
# Elastic Constant Matrix: (Units=GPa)
#
#
# Indices 1 2 3 4 5 6 
#
# 1 178.3804 -2.1041 17.6948 0.0000 26.8178 0.0000
# 2 -2.1041 77.5977 12.9475 0.0000 8.6815 0.0000
# 3 17.6948 12.9475 56.8618 0.0000 9.8655 0.0000
# 4 0.0000 0.0000 0.0000 17.4003 0.0000 1.3484
# 5 26.8178 8.6815 9.8655 0.0000 51.0522 0.0000
# 6 0.0000 0.0000 0.0000 1.3484 0.0000 14.6359
#
#
#
# Elastic Compliance Matrix: (Units=1/GPa)
#
#
# Indices 1 2 3 4 5 6 
#
# 1 0.006239 0.000780 -0.001580 0.000000 -0.003104 0.000000
# 2 0.000780 0.013646 -0.002976 0.000000 -0.002155 0.000000
# 3 -0.001580 -0.002976 0.019167 0.000000 -0.002368 0.000000
# 4 0.000000 0.000000 0.000000 0.057883 0.000000 -0.005333
# 5 -0.003104 -0.002155 -0.002368 0.000000 0.022043 0.000000
# 6 0.000000 0.000000 0.000000 -0.005333 0.000000 0.068816
#
#
# Mechanical properties :
#
#
# Convention : Reuss Voigt Hill
#
# Bulk Modulus (GPa) = 31.74735 41.10182 36.42458
# Shear Modulus (GPa) = 24.29006 35.57114 29.93060
#
# Velocity S-wave (km/s) = 3.11823 3.77349 3.46140
# Velocity P-wave (km/s) = 5.06686 5.95305 5.52774
#
# Compressibility (1/GPa) = 0.03149869
#
# Stress axis : x y z
#
# Youngs Moduli (GPa) = 160.28980 73.28251 52.17370
#
# Poissons Ratio (x) = -0.05717 0.08246
# Poissons Ratio (y) = -0.12506 0.15527
# Poissons Ratio (z) = 0.25333 0.21809
#
# Static dielectric constant tensor:
#      x y z
#    x 2.082150 0.000000 -0.050760 
#    y 0.000000 2.702850 0.000000 
#    z -0.050760 0.000000 1.964970 
# 
# From -- ./inp_files/54228.got.cif
#   From: 2010.05.17/outbox.cif.g08.bks.cpg/sg15_28_cif.got.tgz:54228.got - 2010.06.03 18:47:42.
