data_PCOD9254661
_publ_section_title
;
Structure prediction by ZEFSAII (Michael W. Deem and Ramdas Pophale) SiO2 
 PCOD9254661
Probable space group: C 2/C
;
_chemical_formula_sum "Si O2"
_cell_formula_units_Z 44
_cell_length_a 27.553118
_cell_length_b 12.119324
_cell_length_c 13.796689
_cell_angle_alpha 90.000000
_cell_angle_beta 147.513028
_cell_angle_gamma 90.000000
_cell_volume 2474.488847
_symmetry_space_group_name_H-M "C 2/C"
_symmetry_group_IT_number 15
_symmetry_cell_setting 'monoclinic'
loop_
_space_group_symop_operation_xyz
x,y,z
-x,y,1/2-z
-x,-y,-z
x,-y,1/2+z
1/2+x,1/2+y,z
1/2-x,1/2+y,1/2-z
1/2-x,1/2-y,-z
1/2+x,1/2-y,1/2+z
loop_
_atom_site_type_symbol
_atom_site_label
_atom_site_fract_x
_atom_site_fract_y
_atom_site_fract_z
Si Si1 0.896538 0.244642 0.258483
Si Si2 0.000000 0.265228 0.250000
Si Si3 0.254473 0.919056 0.931021
Si Si4 0.494079 0.898573 0.566132
Si Si5 0.696061 0.136953 0.391689
Si Si6 0.639389 0.935442 0.580839
O O1 0.947460 0.203341 0.247383
O O2 0.833218 0.153684 0.198897
O O3 0.960834 0.294391 0.448771
O O4 0.835012 0.347831 0.117614
O O5 0.068449 0.345397 0.422080
O O6 0.282453 0.938788 0.867393
O O7 0.247443 0.036082 0.970275
O O8 0.595671 0.872525 0.771880
O O9 0.500000 0.000000 0.500000
O O10 0.416547 0.949199 0.504972
O O11 0.750000 0.250000 0.500000
O O12 0.676610 0.107656 0.246281
#
# Coordination Sequence:
#
# PCOD9254661 Si02
#       6
#     8   4   8   8   8   8
#     4  10  18  33  60  86 112 148 204 244 285 348
#     4  10  16  32  60  84 108 156 198 240 288 356
#     4  10  21  35  55  91 117 149 196 254 293 347
#     4  10  16  35  58  81 112 156 199 240 287 357
#     4  11  22  38  56  87 124 154 195 253 303 355
#     4  10  19  35  60  86 114 153 207 242 294 349
#
# _framework density 17.78145
#
# number of rings (size 3 to 8) (size 9 to 14) (size 15 to 20)
#    0.000    1.818    7.273    1.091    0.000    1.455 
#    3.273    0.909    0.000    2.182    0.000    0.000 
#    0.000    0.000    0.000    0.000    0.000    0.000 
#
# Total GULP energy -122574.138348 kJ/mol
# GULP energy per Si atom -5571.551743 kJ/mol
# Density = 1.774098 g / cm^3
# Si number density = 17.781450 Si / 1000 Ang^3
#
#
#
# Elastic Constant Matrix: (Units=GPa)
#
#
# Indices 1 2 3 4 5 6 
#
# 1 130.0109 43.6045 22.2842 0.0000 5.9031 0.0000
# 2 43.6045 94.0848 36.6390 0.0000 7.9651 0.0000
# 3 22.2842 36.6390 52.1034 0.0000 1.7086 0.0000
# 4 0.0000 0.0000 0.0000 28.4939 0.0000 10.5997
# 5 5.9031 7.9651 1.7086 0.0000 25.7821 0.0000
# 6 0.0000 0.0000 0.0000 10.5997 0.0000 22.6913
#
#
#
# Elastic Compliance Matrix: (Units=1/GPa)
#
#
# Indices 1 2 3 4 5 6 
#
# 1 0.009189 -0.003670 -0.001321 0.000000 -0.000883 0.000000
# 2 -0.003670 0.016494 -0.009911 0.000000 -0.003599 0.000000
# 3 -0.001321 -0.009911 0.026674 0.000000 0.001597 0.000000
# 4 0.000000 0.000000 0.000000 0.042476 0.000000 -0.019842
# 5 -0.000883 -0.003599 0.001597 0.000000 0.039995 0.000000
# 6 0.000000 0.000000 0.000000 -0.019842 0.000000 0.053338
#
#
# Mechanical properties :
#
#
# Convention : Reuss Voigt Hill
#
# Bulk Modulus (GPa) = 44.33655 53.47271 48.90463
# Shear Modulus (GPa) = 22.17427 26.97155 24.57291
#
# Velocity S-wave (km/s) = 3.53518 3.89888 3.72148
# Velocity P-wave (km/s) = 6.45381 7.09971 6.78445
#
# Compressibility (1/GPa) = 0.02255475
#
# Stress axis : x y z
#
# Youngs Moduli (GPa) = 108.82734 60.62943 37.48923
#
# Poissons Ratio (x) = 0.22249 0.04951
# Poissons Ratio (y) = 0.39936 0.37155
# Poissons Ratio (z) = 0.14371 0.60089
#
# Static dielectric constant tensor:
#      x y z
#    x 1.628050 0.000000 0.020820 
#    y 0.000000 1.583040 0.000000 
#    z 0.020820 0.000000 1.633590 
# 
# From -- ./inp_files/159458.got.cif
#   From: 2010.05.17/outbox.cif.g08.bks.cpg/sg15_80_cif.got.tgz:159458.got - 2010.06.03 18:47:42.
