data_PCOD9254525
_publ_section_title
;
Structure prediction by ZEFSAII (Michael W. Deem and Ramdas Pophale) SiO2 
 PCOD9254525
Probable space group: C 2/C
;
_chemical_formula_sum "Si O2"
_cell_formula_units_Z 44
_cell_length_a 26.468680
_cell_length_b 6.869390
_cell_length_c 17.452802
_cell_angle_alpha 90.000000
_cell_angle_beta 38.939913
_cell_angle_gamma 90.000000
_cell_volume 1994.455648
_symmetry_space_group_name_H-M "C 2/C"
_symmetry_group_IT_number 15
_symmetry_cell_setting 'monoclinic'
loop_
_space_group_symop_operation_xyz
x,y,z
-x,y,1/2-z
-x,-y,-z
x,-y,1/2+z
1/2+x,1/2+y,z
1/2-x,1/2+y,1/2-z
1/2-x,1/2-y,-z
1/2+x,1/2-y,1/2+z
loop_
_atom_site_type_symbol
_atom_site_label
_atom_site_fract_x
_atom_site_fract_y
_atom_site_fract_z
Si Si1 0.000000 0.654288 0.250000
Si Si2 0.847206 0.622027 0.694289
Si Si3 0.600908 0.656647 0.504113
Si Si4 0.760788 0.868318 0.388633
Si Si5 0.157602 0.499295 0.131643
Si Si6 0.330909 0.313386 0.153677
O O1 0.073554 0.521815 0.189010
O O2 0.969465 0.786964 0.355920
O O3 0.906539 0.741736 0.569936
O O4 0.854424 0.621829 0.777072
O O5 0.756034 0.685188 0.783431
O O6 0.854621 0.400992 0.652381
O O7 0.683593 0.746957 0.444709
O O8 0.612448 0.430830 0.470465
O O9 0.814330 0.713920 0.371943
O O10 0.725103 0.033670 0.486387
O O11 0.814080 0.927966 0.253272
#
# Coordination Sequence:
#
# PCOD9254525 Si02
#       6
#     4   8   8   8   8   8
#     4  10  22  34  54  72 110 152 178 200 272 324
#     4  10  18  31  58  81 108 131 175 223 268 298
#     4  10  19  35  54  80 107 139 174 220 264 314
#     4   8  16  29  53  75 107 128 174 220 258 297
#     4   9  16  32  50  79 103 145 170 215 260 313
#     4  10  16  31  55  85 102 133 174 223 260 312
#
# _framework density 22.061159
#
# number of rings (size 3 to 8) (size 9 to 14) (size 15 to 20)
#    0.000    2.545    5.455    0.000    0.000    0.727 
#    0.000    5.455    0.000    0.000    0.000    0.000 
#    0.000    0.000    0.000    0.000    0.000    0.000 
#
# Total GULP energy -122689.596833 kJ/mol
# GULP energy per Si atom -5576.799856 kJ/mol
# Density = 2.201095 g / cm^3
# Si number density = 22.061159 Si / 1000 Ang^3
#
#
#
# Elastic Constant Matrix: (Units=GPa)
#
#
# Indices 1 2 3 4 5 6 
#
# 1 63.3407 -6.9146 6.6445 -0.6931 13.3263 -0.3215
# 2 -6.9146 49.9155 6.4904 -0.7044 4.6317 -0.3066
# 3 6.6445 6.4904 89.3908 -0.7630 16.8700 -0.3536
# 4 -0.6931 -0.7044 -0.7630 -175.1378 0.1452 -70.6578
# 5 13.3263 4.6317 16.8700 0.1452 19.5408 0.0696
# 6 -0.3215 -0.3066 -0.3536 -70.6578 0.0696 -25.3695
#
#
#
# Elastic Compliance Matrix: (Units=1/GPa)
#
#
# Indices 1 2 3 4 5 6 
#
# 1 0.019258 0.003915 0.001119 -0.000252 -0.015027 0.000354
# 2 0.003915 0.021314 -0.000457 -0.000196 -0.007327 0.000224
# 3 0.001119 -0.000457 0.013451 -0.000173 -0.012268 0.000251
# 4 -0.000252 -0.000196 -0.000173 0.046187 0.000482 -0.128628
# 5 -0.015027 -0.007327 -0.012268 0.000482 0.073750 -0.000691
# 6 0.000354 0.000224 0.000251 -0.128628 -0.000691 0.318818
#
#
# Mechanical properties :
#
#
# Convention : Reuss Voigt Hill
#
# Bulk Modulus (GPa) = 15.82773 23.89862 19.86317
# Shear Modulus (GPa) = 9.90721 -23.09819 -6.59549
#
# Velocity S-wave (km/s) = 2.12145 -3.23926 -1.73093
# Velocity P-wave (km/s) = 3.63191 1.77031 2.24241
#
# Compressibility (1/GPa) = 0.06318026
#
# Stress axis : x y z
#
# Youngs Moduli (GPa) = 51.92565 46.91731 74.34116
#
# Poissons Ratio (x) = -0.18369 -0.08322
# Poissons Ratio (y) = -0.20330 0.03394
# Poissons Ratio (z) = -0.05813 0.02142
#
# Static dielectric constant tensor:
#      x y z
#    x 1.831030 0.000000 0.050040 
#    y 0.000000 1.852120 0.000010 
#    z 0.050040 0.000010 1.853450 
# 
# From -- ./inp_files/213587.got.cif
#   From: 2010.05.17/outbox.cif.g08.bks.cpg/sg15_107_cif.got.tgz:213587.got - 2010.06.03 18:47:42.
