data_PCOD9254985
_publ_section_title
;
Structure prediction by ZEFSAII (Michael W. Deem and Ramdas Pophale) SiO2 
 PCOD9254985
Probable space group: C 2/C
;
_chemical_formula_sum "Si O2"
_cell_formula_units_Z 60
_cell_length_a 15.980357
_cell_length_b 29.861204
_cell_length_c 9.305521
_cell_angle_alpha 90.000000
_cell_angle_beta 56.526682
_cell_angle_gamma 90.000000
_cell_volume 3704.033204
_symmetry_space_group_name_H-M "C 2/C"
_symmetry_group_IT_number 15
_symmetry_cell_setting 'monoclinic'
loop_
_space_group_symop_operation_xyz
x,y,z
-x,y,1/2-z
-x,-y,-z
x,-y,1/2+z
1/2+x,1/2+y,z
1/2-x,1/2+y,1/2-z
1/2-x,1/2-y,-z
1/2+x,1/2-y,1/2+z
loop_
_atom_site_type_symbol
_atom_site_label
_atom_site_fract_x
_atom_site_fract_y
_atom_site_fract_z
Si Si1 0.309510 0.755094 0.796949
Si Si2 0.771975 0.706296 0.882424
Si Si3 0.000000 0.706805 0.250000
Si Si4 0.455603 0.161002 0.576751
Si Si5 0.310601 0.058461 0.183216
Si Si6 0.695546 0.841878 0.882064
Si Si7 0.446158 0.057848 0.576979
Si Si8 0.157662 0.495855 0.583900
O O1 0.289786 0.715030 0.704060
O O2 0.423810 0.762913 0.733236
O O3 0.276392 0.801062 0.749139
O O4 0.250000 0.750000 0.000000
O O5 0.886277 0.696736 0.724365
O O6 0.750000 0.750000 0.000000
O O7 0.754133 0.666164 0.010983
O O8 0.948980 0.674768 0.415712
O O9 0.573019 0.161434 0.510545
O O10 0.418449 0.109840 0.628196
O O11 0.280063 0.109665 0.201328
O O12 0.285395 0.035724 0.357778
O O13 0.433241 0.057384 0.052607
O O14 0.278081 0.028222 0.079425
O O15 0.407113 0.028200 0.748018
O O16 0.402195 0.036176 0.471908
#
# Coordination Sequence:
#
# PCOD9254985 Si02
#       8
#     8   8   4   8   8   8   8   8
#     4  10  19  33  48  67  91 115 154 200 234 281
#     4  10  19  32  46  63  87 113 148 199 237 275
#     4  10  20  32  48  70  86 118 154 204 232 270
#     4  10  19  29  47  64  88 118 163 199 227 266
#     4  10  17  27  37  55  83 113 157 189 229 253
#     4   9  20  30  46  64  88 121 158 200 225 267
#     4  10  18  25  39  54  84 114 157 194 229 253
#     4  10  18  25  35  55  81 118 150 198 226 256
#
# _framework density 16.198560000000001
#
# number of rings (size 3 to 8) (size 9 to 14) (size 15 to 20)
#    0.000    2.133    1.333    4.400    5.600    2.133 
#    0.000    0.000    0.000    0.000    0.000    0.000 
#    0.000    0.000    0.000    0.000    0.000   86.667 
#
# Total GULP energy -167013.623120 kJ/mol
# GULP energy per Si atom -5567.120771 kJ/mol
# Density = 1.616169 g / cm^3
# Si number density = 16.198560 Si / 1000 Ang^3
#
#
#
# Elastic Constant Matrix: (Units=GPa)
#
#
# Indices 1 2 3 4 5 6 
#
# 1 42.7458 32.5757 21.4557 0.0000 26.9152 0.0000
# 2 32.5757 96.0762 40.7178 0.0000 12.6223 0.0000
# 3 21.4557 40.7178 81.5715 0.0000 30.1802 0.0000
# 4 0.0000 0.0000 0.0000 19.4429 0.0000 5.3294
# 5 26.9152 12.6223 30.1802 0.0000 29.5926 0.0000
# 6 0.0000 0.0000 0.0000 5.3294 0.0000 21.4404
#
#
#
# Elastic Compliance Matrix: (Units=1/GPa)
#
#
# Indices 1 2 3 4 5 6 
#
# 1 0.103334 -0.033402 0.030505 0.000000 -0.110849 0.000000
# 2 -0.033402 0.024055 -0.017129 0.000000 0.037588 0.000000
# 3 0.030505 -0.017129 0.032678 0.000000 -0.053766 0.000000
# 4 0.000000 0.000000 0.000000 0.055193 0.000000 -0.013719
# 5 -0.110849 0.037588 -0.053766 0.000000 0.173413 0.000000
# 6 0.000000 0.000000 0.000000 -0.013719 0.000000 0.050051
#
#
# Mechanical properties :
#
#
# Convention : Reuss Voigt Hill
#
# Bulk Modulus (GPa) = 8.33219 45.54353 26.93786
# Shear Modulus (GPa) = 9.63802 22.47147 16.05474
#
# Velocity S-wave (km/s) = 2.44189 3.72862 3.15162
# Velocity P-wave (km/s) = 3.62014 6.83474 5.46896
#
# Compressibility (1/GPa) = 0.12001643
#
# Stress axis : x y z
#
# Youngs Moduli (GPa) = 9.67738 41.57209 30.60154
#
# Poissons Ratio (x) = 1.38858 -0.93351
# Poissons Ratio (y) = 0.32324 0.52416
# Poissons Ratio (z) = -0.29521 0.71207
#
# Static dielectric constant tensor:
#      x y z
#    x 1.556480 0.000000 0.031280 
#    y 0.000000 1.580460 0.000000 
#    z 0.031280 0.000000 1.581020 
# 
# From -- ./inp_files/52027.got.cif
#   From: 2010.05.17/outbox.cif.g08.bks.cpg/sg15_27_cif.got.tgz:52027.got - 2010.06.03 18:47:42.
