data_PCOD9254315
_publ_section_title
;
Structure prediction by ZEFSAII (Michael W. Deem and Ramdas Pophale) SiO2 
 PCOD9254315
Probable space group: C 2/C
;
_chemical_formula_sum "Si O2"
_cell_formula_units_Z 40
_cell_length_a 8.560429
_cell_length_b 18.504371
_cell_length_c 10.983602
_cell_angle_alpha 90.000000
_cell_angle_beta 89.734767
_cell_angle_gamma 90.000000
_cell_volume 1739.842722
_symmetry_space_group_name_H-M "C 2/C"
_symmetry_group_IT_number 15
_symmetry_cell_setting 'monoclinic'
loop_
_space_group_symop_operation_xyz
x,y,z
-x,y,1/2-z
-x,-y,-z
x,-y,1/2+z
1/2+x,1/2+y,z
1/2-x,1/2+y,1/2-z
1/2-x,1/2-y,-z
1/2+x,1/2-y,1/2+z
loop_
_atom_site_type_symbol
_atom_site_label
_atom_site_fract_x
_atom_site_fract_y
_atom_site_fract_z
Si Si1 0.130213 0.230157 0.609661
Si Si2 0.759601 0.132955 0.204693
Si Si3 0.414859 0.314831 0.919415
Si Si4 0.601157 0.991506 0.123329
Si Si5 0.669820 0.161378 0.688381
O O1 0.250000 0.250000 0.500000
O O2 0.127551 0.308369 0.672839
O O3 0.210586 0.176066 0.703336
O O4 0.973378 0.194257 0.557649
O O5 0.792431 0.133308 0.350081
O O6 0.920717 0.163733 0.146269
O O7 0.718332 0.058153 0.141897
O O8 0.353984 0.234508 0.887867
O O9 0.500000 0.994981 0.250000
O O10 0.688921 0.914309 0.120333
O O11 0.500000 0.000000 0.000000
O O12 0.500000 0.154497 0.750000
#
# Coordination Sequence:
#
# PCOD9254315 Si02
#       5
#     8   8   8   8   8
#     4   9  14  25  55  82 107 140 204 248 270 326
#     4   9  17  31  51  86 116 143 190 253 290 331
#     4   9  15  29  58  83 108 144 201 250 283 325
#     4  11  25  37  57  85 125 156 194 239 301 352
#     4  10  16  29  50  89 105 145 198 245 270 332
#
# _framework density 22.990583999999998
#
# number of rings (size 3 to 8) (size 9 to 14) (size 15 to 20)
#    0.000    2.400    6.000    1.200    8.400    0.000 
#    0.000    1.000    0.000   10.800    5.200    0.000 
#    0.000    0.000    0.000    0.000    0.000    0.000 
#
# Total GULP energy -111466.503800 kJ/mol
# GULP energy per Si atom -5573.325190 kJ/mol
# Density = 2.293826 g / cm^3
# Si number density = 22.990584 Si / 1000 Ang^3
#
#
#
# Elastic Constant Matrix: (Units=GPa)
#
#
# Indices 1 2 3 4 5 6 
#
# 1 66.9942 50.3506 68.9946 0.0000 13.7808 0.0000
# 2 50.3506 163.0084 70.8538 0.0000 47.3400 0.0000
# 3 68.9946 70.8538 181.4558 0.0000 54.6465 0.0000
# 4 0.0000 0.0000 0.0000 16.6435 0.0000 17.0860
# 5 13.7808 47.3400 54.6465 0.0000 68.9825 0.0000
# 6 0.0000 0.0000 0.0000 17.0860 0.0000 11.1421
#
#
#
# Elastic Compliance Matrix: (Units=1/GPa)
#
#
# Indices 1 2 3 4 5 6 
#
# 1 0.029471 -0.006467 -0.010827 0.000000 0.007127 0.000000
# 2 -0.006467 0.009584 0.000405 0.000000 -0.005606 0.000000
# 3 -0.010827 0.000405 0.011691 0.000000 -0.007376 0.000000
# 4 0.000000 0.000000 0.000000 -0.104634 0.000000 0.160452
# 5 0.007127 -0.005606 -0.007376 0.000000 0.022763 0.000000
# 6 0.000000 0.000000 0.000000 0.160452 0.000000 -0.156297
#
#
# Mechanical properties :
#
#
# Convention : Reuss Voigt Hill
#
# Bulk Modulus (GPa) = 58.93389 87.98404 73.45897
# Shear Modulus (GPa) = -33.78686 34.10426 0.15870
#
# Velocity S-wave (km/s) = -3.83769 3.85567 0.26302
# Velocity P-wave (km/s) = 2.46017 7.62721 5.66687
#
# Compressibility (1/GPa) = 0.01696817
#
# Stress axis : x y z
#
# Youngs Moduli (GPa) = 33.93136 104.33686 85.53520
#
# Poissons Ratio (x) = 0.67474 0.92610
# Poissons Ratio (y) = 0.21943 -0.03462
# Poissons Ratio (z) = 0.36738 -0.04224
#
# Static dielectric constant tensor:
#      x y z
#    x 1.967400 0.000000 -0.344370 
#    y 0.000000 1.855570 0.000000 
#    z -0.344370 0.000000 2.555320 
# 
# From -- ./inp_files/76933.got.cif
#   From: 2010.05.17/outbox.cif.g08.bks.cpg/sg15_39_cif.got.tgz:76933.got - 2010.06.03 18:47:42.
