data_PCOD9254725
_publ_section_title
;
Structure prediction by ZEFSAII (Michael W. Deem and Ramdas Pophale) SiO2 
 PCOD9254725
Probable space group: C 2/C
;
_chemical_formula_sum "Si O2"
_cell_formula_units_Z 52
_cell_length_a 11.784381
_cell_length_b 28.028971
_cell_length_c 8.409049
_cell_angle_alpha 90.000000
_cell_angle_beta 92.605642
_cell_angle_gamma 90.000000
_cell_volume 2774.671430
_symmetry_space_group_name_H-M "C 2/C"
_symmetry_group_IT_number 15
_symmetry_cell_setting 'monoclinic'
loop_
_space_group_symop_operation_xyz
x,y,z
-x,y,1/2-z
-x,-y,-z
x,-y,1/2+z
1/2+x,1/2+y,z
1/2-x,1/2+y,1/2-z
1/2-x,1/2-y,-z
1/2+x,1/2-y,1/2+z
loop_
_atom_site_type_symbol
_atom_site_label
_atom_site_fract_x
_atom_site_fract_y
_atom_site_fract_z
Si Si1 0.759387 0.805115 0.543635
Si Si2 0.865377 0.946248 0.224854
Si Si3 0.327395 0.336857 0.884382
Si Si4 0.500000 0.596681 0.250000
Si Si5 0.371046 0.116828 0.295242
Si Si6 0.707928 0.459573 0.924811
Si Si7 0.368896 0.664774 0.720078
O O1 0.750000 0.750000 0.500000
O O2 0.828357 0.808544 0.715581
O O3 0.651738 0.838824 0.583568
O O4 0.812143 0.827090 0.387037
O O5 0.806873 0.951723 0.390917
O O6 0.856542 0.891216 0.179821
O O7 0.000000 0.957498 0.250000
O O8 0.805115 0.984430 0.108550
O O9 0.439070 0.369940 0.875699
O O10 0.213303 0.368328 0.854481
O O11 0.325820 0.310806 0.053838
O O12 0.400798 0.565583 0.166168
O O13 0.500000 0.112666 0.250000
O O14 0.317036 0.068726 0.365830
O O15 0.500000 0.677500 0.750000
#
# Coordination Sequence:
#
# PCOD9254725 Si02
#       7
#     8   8   8   4   8   8   8
#     4  10  22  40  63  88 121 156 207 260 310 363
#     4  11  21  31  54  93 123 156 192 252 317 380
#     4   9  20  35  64  84 122 158 198 245 313 358
#     4  10  16  34  54  90 120 160 182 248 308 374
#     4   9  21  43  60  77 124 170 207 254 298 356
#     4  11  21  32  57  85 125 159 199 248 313 367
#     4  11  21  37  63  94 126 155 195 254 322 377
#
# _framework density 18.740956000000001
#
# number of rings (size 3 to 8) (size 9 to 14) (size 15 to 20)
#    0.923    0.923    2.308    3.231    4.308    1.231 
#    0.000    1.538    3.385    0.000    0.000    0.000 
#    0.000    0.000    0.000    0.000    0.000    0.000 
#
# Total GULP energy -144736.716315 kJ/mol
# GULP energy per Si atom -5566.796781 kJ/mol
# Density = 1.869830 g / cm^3
# Si number density = 18.740956 Si / 1000 Ang^3
#
#
#
# Elastic Constant Matrix: (Units=GPa)
#
#
# Indices 1 2 3 4 5 6 
#
# 1 101.4060 22.3521 37.5689 0.0000 -30.4994 0.0000
# 2 22.3521 77.0487 16.8311 0.0000 -6.9259 0.0000
# 3 37.5689 16.8311 144.3443 0.0000 -7.2726 0.0000
# 4 0.0000 0.0000 0.0000 54.8670 0.0000 -2.3436
# 5 -30.4994 -6.9259 -7.2726 0.0000 26.4598 0.0000
# 6 0.0000 0.0000 0.0000 -2.3436 0.0000 -3.6707
#
#
#
# Elastic Compliance Matrix: (Units=1/GPa)
#
#
# Indices 1 2 3 4 5 6 
#
# 1 0.017085 -0.002622 -0.003228 0.000000 0.018120 0.000000
# 2 -0.002622 0.013977 -0.000928 0.000000 0.000380 0.000000
# 3 -0.003228 -0.000928 0.007784 0.000000 -0.001824 0.000000
# 4 0.000000 0.000000 0.000000 0.017742 0.000000 -0.011328
# 5 0.018120 0.000380 -0.001824 0.000000 0.058277 0.000000
# 6 0.000000 0.000000 0.000000 -0.011328 0.000000 -0.265195
#
#
# Mechanical properties :
#
#
# Convention : Reuss Voigt Hill
#
# Bulk Modulus (GPa) = 39.54302 52.92256 46.23279
# Shear Modulus (GPa) = -38.95823 31.93436 -3.51193
#
# Velocity S-wave (km/s) = -4.56430 4.13242 -1.37040
# Velocity P-wave (km/s) = 2.57518 7.14629 4.71370
#
# Compressibility (1/GPa) = 0.02528891
#
# Stress axis : x y z
#
# Youngs Moduli (GPa) = 58.53046 71.54866 128.46287
#
# Poissons Ratio (x) = 0.18764 0.41469
# Poissons Ratio (y) = 0.15350 0.11921
# Poissons Ratio (z) = 0.18894 0.06640
#
# Static dielectric constant tensor:
#      x y z
#    x 1.628880 0.000000 0.006670 
#    y 0.000000 1.715680 0.000000 
#    z 0.006670 0.000000 1.671300 
# 
# From -- ./inp_files/34789.got.cif
#   From: 2010.05.17/outbox.cif.g08.bks.cpg/sg15_18_cif.got.tgz:34789.got - 2010.06.03 18:47:42.
