data_PCOD9254337
_publ_section_title
;
Structure prediction by ZEFSAII (Michael W. Deem and Ramdas Pophale) SiO2 
 PCOD9254337
Probable space group: C 2/C
;
_chemical_formula_sum "Si O2"
_cell_formula_units_Z 56
_cell_length_a 10.834070
_cell_length_b 12.326488
_cell_length_c 24.185106
_cell_angle_alpha 90.000000
_cell_angle_beta 118.535303
_cell_angle_gamma 90.000000
_cell_volume 2837.475350
_symmetry_space_group_name_H-M "C 2/C"
_symmetry_group_IT_number 15
_symmetry_cell_setting 'monoclinic'
loop_
_space_group_symop_operation_xyz
x,y,z
-x,y,1/2-z
-x,-y,-z
x,-y,1/2+z
1/2+x,1/2+y,z
1/2-x,1/2+y,1/2-z
1/2-x,1/2-y,-z
1/2+x,1/2-y,1/2+z
loop_
_atom_site_type_symbol
_atom_site_label
_atom_site_fract_x
_atom_site_fract_y
_atom_site_fract_z
Si Si1 0.052341 0.421957 0.058757
Si Si2 0.051916 0.122729 0.136261
Si Si3 0.794353 0.216348 0.860375
Si Si4 0.898340 0.792645 0.503548
Si Si5 0.493689 0.137884 0.834706
Si Si6 0.196449 0.959100 0.839614
Si Si7 0.277102 0.455152 0.274521
O O1 0.211015 0.453657 0.107322
O O2 0.011130 0.304182 0.028588
O O3 0.976108 0.428205 0.102440
O O4 0.000000 0.500000 0.000000
O O5 0.971094 0.121719 0.060234
O O6 0.075412 0.248053 0.159192
O O7 0.938944 0.074129 0.154913
O O8 0.189686 0.050494 0.174579
O O9 0.634553 0.175067 0.835311
O O10 0.785945 0.346497 0.853311
O O11 0.843770 0.152165 0.816763
O O12 0.869031 0.182646 0.933506
O O13 0.750000 0.750000 0.500000
O O14 0.383838 0.072202 0.774826
O O15 0.166779 0.006221 0.772922
#
# Coordination Sequence:
#
# PCOD9254337 Si02
#       7
#     8   8   8   8   8   8   8
#     4  10  16  29  58  93 110 136 184 235 280 333
#     4  10  20  37  59  82 112 146 191 239 277 336
#     4  11  20  36  59  84 116 142 189 242 279 332
#     4  11  18  35  61  92 110 142 189 244 284 325
#     4   9  20  35  57  82 112 142 190 240 275 329
#     4  10  20  35  59  84 111 150 191 234 275 336
#     4  11  22  32  52  85 114 151 187 230 290 328
#
# _framework density 19.735854
#
# number of rings (size 3 to 8) (size 9 to 14) (size 15 to 20)
#    0.000    1.714    5.714    1.714    0.000    2.857 
#    0.000    0.000    0.000   38.571    0.000    0.000 
#    0.000    0.000    0.000    0.000    0.000    0.000 
#
# Total GULP energy -155972.386459 kJ/mol
# GULP energy per Si atom -5570.442374 kJ/mol
# Density = 1.969093 g / cm^3
# Si number density = 19.735854 Si / 1000 Ang^3
#
#
#
# Elastic Constant Matrix: (Units=GPa)
#
#
# Indices 1 2 3 4 5 6 
#
# 1 25.3643 27.7615 23.4354 0.0000 0.3046 0.0000
# 2 27.7615 70.2487 49.6684 0.0000 5.7074 0.0000
# 3 23.4354 49.6684 171.8927 0.0000 -0.3379 0.0000
# 4 0.0000 0.0000 0.0000 55.6431 0.0000 0.1660
# 5 0.3046 5.7074 -0.3379 0.0000 27.0302 0.0000
# 6 0.0000 0.0000 0.0000 0.1660 0.0000 37.3889
#
#
#
# Elastic Compliance Matrix: (Units=1/GPa)
#
#
# Indices 1 2 3 4 5 6 
#
# 1 0.070618 -0.027025 -0.001809 0.000000 0.004888 0.000000
# 2 -0.027025 0.028641 -0.004603 0.000000 -0.005800 0.000000
# 3 -0.001809 -0.004603 0.007396 0.000000 0.001085 0.000000
# 4 0.000000 0.000000 0.000000 0.017972 0.000000 -0.000080
# 5 0.004888 -0.005800 0.001085 0.000000 0.038179 0.000000
# 6 0.000000 0.000000 0.000000 -0.000080 0.000000 0.026746
#
#
# Mechanical properties :
#
#
# Convention : Reuss Voigt Hill
#
# Bulk Modulus (GPa) = 25.13790 52.13737 38.63763
# Shear Modulus (GPa) = 18.54002 35.12178 26.83090
#
# Velocity S-wave (km/s) = 3.06830 4.22310 3.69114
# Velocity P-wave (km/s) = 5.03165 7.08903 6.14702
#
# Compressibility (1/GPa) = 0.03978058
#
# Stress axis : x y z
#
# Youngs Moduli (GPa) = 14.16069 34.91527 135.20278
#
# Poissons Ratio (x) = 0.94360 0.24462
# Poissons Ratio (y) = 0.38270 0.62228
# Poissons Ratio (z) = 0.02562 0.16070
#
# Static dielectric constant tensor:
#      x y z
#    x 1.727520 0.000000 -0.006830 
#    y 0.000000 1.747730 0.000000 
#    z -0.006830 0.000000 1.755700 
# 
# From -- ./inp_files/292072.got.cif
#   From: 2010.05.17/outbox.cif.g08.bks.cpg/sg15_147_cif.got.tgz:292072.got - 2010.06.03 18:47:42.
