data_PCOD9254052
_publ_section_title
;
Structure prediction by ZEFSAII (Michael W. Deem and Ramdas Pophale) SiO2 
 PCOD9254052
Probable space group: C 2/C
;
_chemical_formula_sum "Si O2"
_cell_formula_units_Z 48
_cell_length_a 12.776723
_cell_length_b 31.096287
_cell_length_c 6.760832
_cell_angle_alpha 90.000000
_cell_angle_beta 130.390932
_cell_angle_gamma 90.000000
_cell_volume 2045.871734
_symmetry_space_group_name_H-M "C 2/C"
_symmetry_group_IT_number 15
_symmetry_cell_setting 'monoclinic'
loop_
_space_group_symop_operation_xyz
x,y,z
-x,y,1/2-z
-x,-y,-z
x,-y,1/2+z
1/2+x,1/2+y,z
1/2-x,1/2+y,1/2-z
1/2-x,1/2-y,-z
1/2+x,1/2-y,1/2+z
loop_
_atom_site_type_symbol
_atom_site_label
_atom_site_fract_x
_atom_site_fract_y
_atom_site_fract_z
Si Si1 0.371017 0.055865 0.831922
Si Si2 0.820925 0.462845 0.728524
Si Si3 0.754252 0.767267 0.231719
Si Si4 0.852574 0.358459 0.463677
Si Si5 0.635998 0.612062 0.031624
Si Si6 0.954076 0.198286 0.458998
O O1 0.290036 0.013355 0.665228
O O2 0.531231 0.045033 0.989604
O O3 0.344311 0.053014 0.034995
O O4 0.340842 0.106304 0.772423
O O5 0.713496 0.430754 0.696897
O O6 0.908598 0.782253 0.467146
O O7 0.750000 0.750000 0.000000
O O8 0.663184 0.810232 0.132652
O O9 0.677367 0.727983 0.241356
O O10 0.736804 0.365291 0.492574
O O11 0.000000 0.363548 0.750000
O O12 0.500000 0.597512 0.750000
O O13 0.588279 0.648726 0.126018
O O14 0.000000 0.198397 0.750000
#
# Coordination Sequence:
#
# PCOD9254052 Si02
#       6
#     8   8   8   8   8   8
#     4   9  17  29  46  65  83 118 153 190 218 263
#     4   9  17  30  45  63  87 114 155 187 224 259
#     4  10  16  23  35  55  84 113 146 171 212 269
#     4  11  16  25  39  59  82 117 147 173 220 267
#     4  10  16  27  39  58  87 113 144 178 223 262
#     4   9  16  23  33  54  80 115 140 174 209 265
#
# _framework density 23.461881999999999
#
# number of rings (size 3 to 8) (size 9 to 14) (size 15 to 20)
#    0.000    2.333    8.333    1.500    0.000    0.000 
#    0.000    3.333    0.000    0.000    0.000    0.000 
#    0.000    1.333    0.000    2.333    0.000    0.333 
#
# Total GULP energy -133862.059599 kJ/mol
# GULP energy per Si atom -5577.585817 kJ/mol
# Density = 2.340848 g / cm^3
# Si number density = 23.461882 Si / 1000 Ang^3
#
#
#
# Elastic Constant Matrix: (Units=GPa)
#
#
# Indices 1 2 3 4 5 6 
#
# 1 64.3236 20.4854 30.8834 0.0000 16.0237 0.0000
# 2 20.4854 219.7451 48.6396 0.0000 21.2054 0.0000
# 3 30.8834 48.6396 76.8476 0.0000 27.2366 0.0000
# 4 0.0000 0.0000 0.0000 43.4724 0.0000 16.1812
# 5 16.0237 21.2054 27.2366 0.0000 32.8086 0.0000
# 6 0.0000 0.0000 0.0000 16.1812 0.0000 29.2127
#
#
#
# Elastic Compliance Matrix: (Units=1/GPa)
#
#
# Indices 1 2 3 4 5 6 
#
# 1 0.019686 -0.000007 -0.006377 0.000000 -0.004316 0.000000
# 2 -0.000007 0.005311 -0.003037 0.000000 -0.000908 0.000000
# 3 -0.006377 -0.003037 0.022243 0.000000 -0.013388 0.000000
# 4 0.000000 0.000000 0.000000 0.028977 0.000000 -0.016051
# 5 -0.004316 -0.000908 -0.013388 0.000000 0.044289 0.000000
# 6 0.000000 0.000000 0.000000 -0.016051 0.000000 0.043122
#
#
# Mechanical properties :
#
#
# Convention : Reuss Voigt Hill
#
# Bulk Modulus (GPa) = 35.21470 62.32589 48.77030
# Shear Modulus (GPa) = 26.05035 38.49259 32.27147
#
# Velocity S-wave (km/s) = 3.33577 4.05488 3.71278
# Velocity P-wave (km/s) = 5.46611 6.96744 6.26193
#
# Compressibility (1/GPa) = 0.02839723
#
# Stress axis : x y z
#
# Youngs Moduli (GPa) = 50.79862 188.27982 44.95870
#
# Poissons Ratio (x) = 0.00135 0.28670
# Poissons Ratio (y) = 0.00036 0.13654
# Poissons Ratio (z) = 0.32395 0.57179
#
# Static dielectric constant tensor:
#      x y z
#    x 1.978590 0.000000 -0.071260 
#    y 0.000000 1.988940 0.000000 
#    z -0.071260 0.000000 1.934880 
# 
# From -- ./inp_files/101476.got.cif
#   From: 2010.05.17/outbox.cif.g08.bks.cpg/sg15_51_cif.got.tgz:101476.got - 2010.06.03 18:47:42.
