data_PCOD9254065
_publ_section_title
;
Structure prediction by ZEFSAII (Michael W. Deem and Ramdas Pophale) SiO2 
 PCOD9254065
Probable space group: C 2/C
;
_chemical_formula_sum "Si O2"
_cell_formula_units_Z 48
_cell_length_a 22.392584
_cell_length_b 7.933020
_cell_length_c 17.448296
_cell_angle_alpha 90.000000
_cell_angle_beta 37.164370
_cell_angle_gamma 90.000000
_cell_volume 1872.437169
_symmetry_space_group_name_H-M "C 2/C"
_symmetry_group_IT_number 15
_symmetry_cell_setting 'monoclinic'
loop_
_space_group_symop_operation_xyz
x,y,z
-x,y,1/2-z
-x,-y,-z
x,-y,1/2+z
1/2+x,1/2+y,z
1/2-x,1/2+y,1/2-z
1/2-x,1/2-y,-z
1/2+x,1/2-y,1/2+z
loop_
_atom_site_type_symbol
_atom_site_label
_atom_site_fract_x
_atom_site_fract_y
_atom_site_fract_z
Si Si1 0.401979 0.069361 0.310146
Si Si2 0.392801 0.506174 0.767882
Si Si3 0.013564 0.676042 0.897886
Si Si4 0.461604 0.350004 0.482809
Si Si5 0.811256 0.648318 0.043528
Si Si6 0.304835 0.461383 0.522222
O O1 0.500000 0.145638 0.250000
O O2 0.439651 0.973408 0.196886
O O3 0.364985 0.934776 0.414517
O O4 0.294648 0.140495 0.395460
O O5 0.460846 0.342540 0.679830
O O6 0.449202 0.658307 0.669018
O O7 0.286521 0.458882 0.840868
O O8 0.374313 0.534879 0.876125
O O9 0.053646 0.700510 0.942156
O O10 0.895641 0.656775 0.020818
O O11 0.500000 0.500000 0.500000
O O12 0.364733 0.390898 0.533036
O O13 0.779937 0.841270 0.060647
#
# Coordination Sequence:
#
# PCOD9254065 Si02
#       6
#     8   8   8   8   8   8
#     4   9  17  26  44  66  91 116 146 183 220 266
#     4  10  17  26  39  60  90 117 142 178 220 266
#     4  10  17  27  39  64  94 116 143 181 224 269
#     4  10  20  25  38  62  98 121 139 178 224 275
#     4  10  16  24  40  63  86 119 145 177 224 262
#     4  11  16  26  41  62  88 121 146 177 223 264
#
# _framework density 25.635038999999999
#
# number of rings (size 3 to 8) (size 9 to 14) (size 15 to 20)
#    0.000    2.000    6.667    1.500    0.000    0.000 
#    0.000    0.000    0.000    0.000    0.000   64.167 
#    0.000   98.667    0.000    0.000    0.000    0.000 
#
# Total GULP energy -134327.960982 kJ/mol
# GULP energy per Si atom -5596.998374 kJ/mol
# Density = 2.557669 g / cm^3
# Si number density = 25.635039 Si / 1000 Ang^3
#
#
#
# Elastic Constant Matrix: (Units=GPa)
#
#
# Indices 1 2 3 4 5 6 
#
# 1 230.0963 43.8408 78.0848 -0.0009 -27.1946 0.0004
# 2 43.8408 95.6446 34.6190 -0.0006 -11.8784 0.0005
# 3 78.0848 34.6190 97.7287 -0.0001 -22.2737 0.0004
# 4 -0.0009 -0.0006 -0.0001 26.4145 0.0002 0.0903
# 5 -27.1946 -11.8784 -22.2737 0.0002 47.4639 -0.0001
# 6 0.0004 0.0005 0.0004 0.0903 -0.0001 39.8895
#
#
#
# Elastic Compliance Matrix: (Units=1/GPa)
#
#
# Indices 1 2 3 4 5 6 
#
# 1 0.006142 -0.001132 -0.004221 0.000000 0.001255 0.000000
# 2 -0.001132 0.012256 -0.003231 0.000000 0.000902 0.000000
# 3 -0.004221 -0.003231 0.015692 0.000000 0.004137 0.000000
# 4 0.000000 0.000000 0.000000 0.037858 0.000000 -0.000086
# 5 0.001255 0.000902 0.004137 0.000000 0.023955 0.000000
# 6 0.000000 0.000000 0.000000 -0.000086 0.000000 0.025069
#
#
# Mechanical properties :
#
#
# Convention : Reuss Voigt Hill
#
# Bulk Modulus (GPa) = 59.09291 81.83986 70.46638
# Shear Modulus (GPa) = 34.77484 40.54860 37.66172
#
# Velocity S-wave (km/s) = 3.68711 3.98146 3.83711
# Velocity P-wave (km/s) = 6.42091 7.28905 6.86871
#
# Compressibility (1/GPa) = 0.01692251
#
# Stress axis : x y z
#
# Youngs Moduli (GPa) = 162.80448 81.59334 63.72569
#
# Poissons Ratio (x) = 0.09235 0.26896
# Poissons Ratio (y) = 0.18428 0.20593
# Poissons Ratio (z) = 0.68714 0.26367
#
# Static dielectric constant tensor:
#      x y z
#    x 2.002340 0.000000 -0.002070 
#    y 0.000000 2.163390 0.000000 
#    z -0.002070 0.000000 2.015390 
# 
# From -- ./inp_files/214747.got.cif
#   From: 2010.05.17/outbox.cif.g08.bks.cpg/sg15_108_cif.got.tgz:214747.got - 2010.06.03 18:47:42.
