data_PCOD9254866
_publ_section_title
;
Structure prediction by ZEFSAII (Michael W. Deem and Ramdas Pophale) SiO2 
 PCOD9254866
Probable space group: C 2/C
;
_chemical_formula_sum "Si O2"
_cell_formula_units_Z 60
_cell_length_a 14.685169
_cell_length_b 12.070516
_cell_length_c 15.618852
_cell_angle_alpha 90.000000
_cell_angle_beta 91.841324
_cell_angle_gamma 90.000000
_cell_volume 2767.130153
_symmetry_space_group_name_H-M "C 2/C"
_symmetry_group_IT_number 15
_symmetry_cell_setting 'monoclinic'
loop_
_space_group_symop_operation_xyz
x,y,z
-x,y,1/2-z
-x,-y,-z
x,-y,1/2+z
1/2+x,1/2+y,z
1/2-x,1/2+y,1/2-z
1/2-x,1/2-y,-z
1/2+x,1/2-y,1/2+z
loop_
_atom_site_type_symbol
_atom_site_label
_atom_site_fract_x
_atom_site_fract_y
_atom_site_fract_z
Si Si1 0.184967 0.517721 0.076758
Si Si2 0.554400 0.295786 0.935518
Si Si3 0.407239 0.327305 0.804606
Si Si4 0.818019 0.586338 0.610394
Si Si5 0.362157 0.266996 0.382931
Si Si6 0.397661 0.086717 0.779111
Si Si7 0.500000 0.665104 0.750000
Si Si8 0.864002 0.006232 0.171600
O O1 0.182510 0.648172 0.099002
O O2 0.102288 0.465924 0.127231
O O3 0.270684 0.463834 0.128309
O O4 0.183687 0.511146 0.974702
O O5 0.450726 0.313764 0.899996
O O6 0.605339 0.183322 0.904381
O O7 0.606393 0.399024 0.894518
O O8 0.570786 0.294985 0.036457
O O9 0.500000 0.330753 0.750000
O O10 0.358845 0.211941 0.783327
O O11 0.355066 0.432207 0.764252
O O12 0.720546 0.645984 0.617782
O O13 0.844067 0.528468 0.700257
O O14 0.424037 0.268629 0.300504
O O15 0.500000 0.093168 0.750000
O O16 0.557891 0.584217 0.813847
#
# Coordination Sequence:
#
# PCOD9254866 Si02
#       8
#     8   8   8   8   8   8   4   8
#     4  11  23  37  61  87 118 160 198 235 298 362
#     4  10  16  36  64  82 103 154 200 234 275 345
#     4   9  16  33  59  83 107 140 198 244 271 332
#     4  11  19  40  63  85 113 157 203 241 282 357
#     4  11  23  39  57  85 126 154 189 244 300 352
#     4  11  21  36  59  87 115 146 194 251 294 337
#     4  12  26  36  56  94 126 152 194 250 306 342
#     4  11  18  37  60  84 111 153 198 235 286 346
#
# _framework density 21.683115000000001
#
# number of rings (size 3 to 8) (size 9 to 14) (size 15 to 20)
#    0.000    1.333    8.667    1.600    0.933    1.067 
#    0.000    0.000    0.000    0.000    0.000    6.533 
#    0.000    0.000    0.000    0.000    0.000    0.000 
#
# Total GULP energy -167291.029076 kJ/mol
# GULP energy per Si atom -5576.367636 kJ/mol
# Density = 2.163376 g / cm^3
# Si number density = 21.683115 Si / 1000 Ang^3
#
#
#
# Elastic Constant Matrix: (Units=GPa)
#
#
# Indices 1 2 3 4 5 6 
#
# 1 54.0957 -1.1136 31.2593 0.0000 6.1697 0.0000
# 2 -1.1136 9.3996 1.3713 0.0000 -0.0052 0.0000
# 3 31.2593 1.3713 91.3265 0.0000 6.5932 0.0000
# 4 0.0000 0.0000 0.0000 20.8862 0.0000 -4.0150
# 5 6.1697 -0.0052 6.5932 0.0000 31.1733 0.0000
# 6 0.0000 0.0000 0.0000 -4.0150 0.0000 13.4151
#
#
#
# Elastic Compliance Matrix: (Units=1/GPa)
#
#
# Indices 1 2 3 4 5 6 
#
# 1 0.023455 0.003926 -0.007872 0.000000 -0.002976 0.000000
# 2 0.003926 0.107282 -0.002945 0.000000 -0.000136 0.000000
# 3 -0.007872 -0.002945 0.013787 0.000000 -0.001358 0.000000
# 4 0.000000 0.000000 0.000000 0.050801 0.000000 0.015204
# 5 -0.002976 -0.000136 -0.001358 0.000000 0.032955 0.000000
# 6 0.000000 0.000000 0.000000 0.015204 0.000000 0.079094
#
#
# Mechanical properties :
#
#
# Convention : Reuss Voigt Hill
#
# Bulk Modulus (GPa) = 7.64872 24.20618 15.92745
# Shear Modulus (GPa) = 13.70854 21.31525 17.51189
#
# Velocity S-wave (km/s) = 2.51713 3.13874 2.84496
# Velocity P-wave (km/s) = 3.46166 4.93188 4.26066
#
# Compressibility (1/GPa) = 0.13074079
#
# Stress axis : x y z
#
# Youngs Moduli (GPa) = 42.63473 9.32124 72.53459
#
# Poissons Ratio (x) = -0.03659 0.57101
# Poissons Ratio (y) = -0.16737 0.21359
# Poissons Ratio (z) = 0.33563 0.02745
#
# Static dielectric constant tensor:
#      x y z
#    x 1.875420 0.000000 0.025270 
#    y 0.000000 1.815170 0.000000 
#    z 0.025270 0.000000 1.863100 
# 
# From -- ./inp_files/160936.got.cif
#   From: 2010.05.17/outbox.cif.g08.bks.cpg/sg15_81_cif.got.tgz:160936.got - 2010.06.03 18:47:42.
