data_PCOD9254705
_publ_section_title
;
Structure prediction by ZEFSAII (Michael W. Deem and Ramdas Pophale) SiO2 
 PCOD9254705
Probable space group: C 2/C
;
_chemical_formula_sum "Si O2"
_cell_formula_units_Z 56
_cell_length_a 7.789301
_cell_length_b 14.924894
_cell_length_c 25.174178
_cell_angle_alpha 90.000000
_cell_angle_beta 45.211483
_cell_angle_gamma 90.000000
_cell_volume 2077.050968
_symmetry_space_group_name_H-M "C 2/C"
_symmetry_group_IT_number 15
_symmetry_cell_setting 'monoclinic'
loop_
_space_group_symop_operation_xyz
x,y,z
-x,y,1/2-z
-x,-y,-z
x,-y,1/2+z
1/2+x,1/2+y,z
1/2-x,1/2+y,1/2-z
1/2-x,1/2-y,-z
1/2+x,1/2-y,1/2+z
loop_
_atom_site_type_symbol
_atom_site_label
_atom_site_fract_x
_atom_site_fract_y
_atom_site_fract_z
Si Si1 0.760204 0.729773 0.070982
Si Si2 0.667483 0.061309 0.797810
Si Si3 0.286911 0.647208 0.195909
Si Si4 0.802763 0.938489 0.513468
Si Si5 0.149473 0.057500 0.848986
Si Si6 0.863725 0.357037 0.660461
Si Si7 0.447489 0.880603 0.441077
O O1 0.480263 0.703231 0.120949
O O2 0.791897 0.699355 0.124395
O O3 0.765156 0.829350 0.046528
O O4 0.943822 0.670956 0.996696
O O5 0.397911 0.059284 0.829393
O O6 0.820449 0.098838 0.715777
O O7 0.664185 0.117766 0.851956
O O8 0.717837 0.960287 0.807791
O O9 0.382342 0.546745 0.161372
O O10 0.266971 0.685539 0.260178
O O11 0.000000 0.640828 0.250000
O O12 0.651399 0.873872 0.585644
O O13 0.936278 0.904308 0.431519
O O14 0.613751 0.015579 0.536193
O O15 0.000000 0.000000 0.500000
#
# Coordination Sequence:
#
# PCOD9254705 Si02
#       7
#     8   8   8   8   8   8   8
#     4  11  24  39  59  88 130 169 202 253 331 382
#     4   9  18  34  63  87 119 153 218 257 306 359
#     4  11  19  38  65  87 117 161 206 251 312 390
#     4  11  18  35  66  90 118 162 213 260 308 363
#     4  10  16  33  61  92 113 152 206 263 300 360
#     4  10  21  36  60  95 118 151 215 261 302 369
#     4  10  22  39  60  81 128 173 199 252 328 384
#
# _framework density 26.961303999999998
#
# number of rings (size 3 to 8) (size 9 to 14) (size 15 to 20)
#    0.000    1.714    7.143    0.429    0.000    2.286 
#    5.143    0.714    6.286    1.714    0.000    0.000 
#    0.000    0.000    0.000    0.000    0.000    0.000 
#
# Total GULP energy -156106.408491 kJ/mol
# GULP energy per Si atom -5575.228875 kJ/mol
# Density = 2.689994 g / cm^3
# Si number density = 26.961304 Si / 1000 Ang^3
#
#
#
# Elastic Constant Matrix: (Units=GPa)
#
#
# Indices 1 2 3 4 5 6 
#
# 1 59.6985 8.6348 41.0440 -0.0014 -7.6856 0.0009
# 2 8.6348 55.8675 5.7802 0.0015 -4.4079 -0.0004
# 3 41.0440 5.7802 236.0879 0.0029 9.9014 -0.0001
# 4 -0.0014 0.0015 0.0029 -3.2034 0.0007 14.0870
# 5 -7.6856 -4.4079 9.9014 0.0007 46.0206 -0.0005
# 6 0.0009 -0.0004 -0.0001 14.0870 -0.0005 22.2556
#
#
#
# Elastic Compliance Matrix: (Units=1/GPa)
#
#
# Indices 1 2 3 4 5 6 
#
# 1 0.020073 -0.002424 -0.003594 -0.000004 0.003893 0.000002
# 2 -0.002424 0.018392 -0.000087 0.000003 0.001375 -0.000002
# 3 -0.003594 -0.000087 0.004933 0.000002 -0.001670 -0.000001
# 4 -0.000004 0.000003 0.000002 -0.082508 0.000001 0.052225
# 5 0.003893 0.001375 -0.001670 0.000001 0.022871 0.000000
# 6 0.000002 -0.000002 -0.000001 0.052225 0.000000 0.011876
#
#
# Mechanical properties :
#
#
# Convention : Reuss Voigt Hill
#
# Bulk Modulus (GPa) = 32.06177 51.39687 41.72932
# Shear Modulus (GPa) = 274.12008 32.76089 153.44049
#
# Velocity S-wave (km/s) = 10.09418 3.48962 7.55215
# Velocity P-wave (km/s) = 12.15624 5.94485 9.56858
#
# Compressibility (1/GPa) = 0.03118980
#
# Stress axis : x y z
#
# Youngs Moduli (GPa) = 49.81724 54.37275 202.73171
#
# Poissons Ratio (x) = 0.13177 0.72856
# Poissons Ratio (y) = 0.12073 0.01756
# Poissons Ratio (z) = 0.17903 0.00471
#
# Static dielectric constant tensor:
#      x y z
#    x 2.332070 0.000000 0.033000 
#    y 0.000000 2.145150 0.000000 
#    z 0.033000 0.000000 2.127780 
# 
# From -- ./inp_files/265448.got.cif
#   From: 2010.05.17/outbox.cif.g08.bks.cpg/sg15_133_cif.got.tgz:265448.got - 2010.06.03 18:47:42.
