data_PCOD9254176
_publ_section_title
;
Structure prediction by ZEFSAII (Michael W. Deem and Ramdas Pophale) SiO2 
 PCOD9254176
Probable space group: C 2/C
;
_chemical_formula_sum "Si O2"
_cell_formula_units_Z 48
_cell_length_a 20.742500
_cell_length_b 17.119226
_cell_length_c 5.043359
_cell_angle_alpha 90.000000
_cell_angle_beta 96.126365
_cell_angle_gamma 90.000000
_cell_volume 1780.646525
_symmetry_space_group_name_H-M "C 2/C"
_symmetry_group_IT_number 15
_symmetry_cell_setting 'monoclinic'
loop_
_space_group_symop_operation_xyz
x,y,z
-x,y,1/2-z
-x,-y,-z
x,-y,1/2+z
1/2+x,1/2+y,z
1/2-x,1/2+y,1/2-z
1/2-x,1/2-y,-z
1/2+x,1/2-y,1/2+z
loop_
_atom_site_type_symbol
_atom_site_label
_atom_site_fract_x
_atom_site_fract_y
_atom_site_fract_z
Si Si1 0.415150 0.315861 0.644261
Si Si2 0.737364 0.542787 0.984633
Si Si3 0.422219 0.949728 0.754970
Si Si4 0.284338 0.310344 0.324111
Si Si5 0.419849 0.543007 0.527729
Si Si6 0.603055 0.226868 0.369396
O O1 0.342715 0.345049 0.533043
O O2 0.439180 0.382238 0.860761
O O3 0.435363 0.279503 0.368619
O O4 0.417482 0.241193 0.839506
O O5 0.758704 0.474769 0.790825
O O6 0.754369 0.622182 0.840093
O O7 0.658450 0.544955 0.974099
O O8 0.500000 0.941689 0.750000
O O9 0.396571 0.862720 0.708258
O O10 0.403606 0.011582 0.522554
O O11 0.250000 0.250000 0.500000
O O12 0.325065 0.263014 0.123308
O O13 0.439673 0.529014 0.841951
#
# Coordination Sequence:
#
# PCOD9254176 Si02
#       6
#     8   8   8   8   8   8
#     4  10  19  33  50  78 108 145 182 228 284 331
#     4  10  19  32  49  70  98 133 187 238 264 308
#     4  10  21  40  67  91 113 148 191 240 301 364
#     4  10  22  36  53  75 109 157 188 231 287 343
#     4  10  16  27  48  71 101 134 175 226 263 302
#     4  10  21  36  54  81 113 140 183 234 283 340
#
# _framework density 26.956502
#
# number of rings (size 3 to 8) (size 9 to 14) (size 15 to 20)
#    1.000    1.000    1.667    5.000    0.000    0.667 
#    0.000    1.667    0.000    0.000    0.000    0.000 
#    0.000   22.667    0.000    0.000    0.000    0.000 
#
# Total GULP energy -134200.041987 kJ/mol
# GULP energy per Si atom -5591.668416 kJ/mol
# Density = 2.689515 g / cm^3
# Si number density = 26.956502 Si / 1000 Ang^3
#
#
#
# Elastic Constant Matrix: (Units=GPa)
#
#
# Indices 1 2 3 4 5 6 
#
# 1 63.6881 1.8618 15.9093 0.0000 4.9979 0.0000
# 2 1.8618 142.4140 16.8447 0.0000 9.7330 0.0000
# 3 15.9093 16.8447 142.6626 0.0000 -3.5821 0.0000
# 4 0.0000 0.0000 0.0000 10.8051 0.0000 27.0769
# 5 4.9979 9.7330 -3.5821 0.0000 29.7299 0.0000
# 6 0.0000 0.0000 0.0000 27.0769 0.0000 2.4565
#
#
#
# Elastic Compliance Matrix: (Units=1/GPa)
#
#
# Indices 1 2 3 4 5 6 
#
# 1 0.016419 0.000224 -0.001934 0.000000 -0.003066 0.000000
# 2 0.000224 0.007305 -0.000951 0.000000 -0.002544 0.000000
# 3 -0.001934 -0.000951 0.007376 0.000000 0.001525 0.000000
# 4 0.000000 0.000000 0.000000 -0.003476 0.000000 0.038319
# 5 -0.003066 -0.002544 0.001525 0.000000 0.035168 0.000000
# 6 0.000000 0.000000 0.000000 0.038319 0.000000 -0.015291
#
#
# Mechanical properties :
#
#
# Convention : Reuss Voigt Hill
#
# Bulk Modulus (GPa) = 38.79593 46.44401 42.61997
# Shear Modulus (GPa) = 81.41153 29.54158 55.47656
#
# Velocity S-wave (km/s) = 5.50151 3.31403 4.54144
# Velocity P-wave (km/s) = 7.40127 5.64892 6.58366
#
# Compressibility (1/GPa) = 0.02577590
#
# Stress axis : x y z
#
# Youngs Moduli (GPa) = 60.90568 136.88802 135.57674
#
# Poissons Ratio (x) = -0.03063 0.26226
# Poissons Ratio (y) = -0.01363 0.12898
# Poissons Ratio (z) = 0.11782 0.13023
#
# Static dielectric constant tensor:
#      x y z
#    x 2.524390 0.000000 0.056650 
#    y 0.000000 2.101060 0.000000 
#    z 0.056650 0.000000 2.029060 
# 
# From -- ./inp_files/18142.got.cif
#   From: 2010.05.17/outbox.cif.g08.bks.cpg/sg15_10_cif.got.tgz:18142.got - 2010.06.03 18:47:42.
