data_PCOD9254674
_publ_section_title
;
Structure prediction by ZEFSAII (Michael W. Deem and Ramdas Pophale) SiO2 
 PCOD9254674
Probable space group: C 2/C
;
_chemical_formula_sum "Si O2"
_cell_formula_units_Z 44
_cell_length_a 12.264854
_cell_length_b 10.493098
_cell_length_c 14.942757
_cell_angle_alpha 90.000000
_cell_angle_beta 59.083750
_cell_angle_gamma 90.000000
_cell_volume 1649.845378
_symmetry_space_group_name_H-M "C 2/C"
_symmetry_group_IT_number 15
_symmetry_cell_setting 'monoclinic'
loop_
_space_group_symop_operation_xyz
x,y,z
-x,y,1/2-z
-x,-y,-z
x,-y,1/2+z
1/2+x,1/2+y,z
1/2-x,1/2+y,1/2-z
1/2-x,1/2-y,-z
1/2+x,1/2-y,1/2+z
loop_
_atom_site_type_symbol
_atom_site_label
_atom_site_fract_x
_atom_site_fract_y
_atom_site_fract_z
Si Si1 0.009810 0.001948 0.854161
Si Si2 0.500000 0.938852 0.750000
Si Si3 0.748406 0.048227 0.044920
Si Si4 0.097732 0.724643 0.380893
Si Si5 0.128146 0.247256 0.249891
Si Si6 0.649569 0.817793 0.420869
O O1 0.000000 0.020364 0.750000
O O2 0.068714 0.130131 0.866697
O O3 0.881607 0.980098 0.966518
O O4 0.094866 0.877269 0.823815
O O5 0.371695 0.002912 0.847264
O O6 0.443407 0.854908 0.690977
O O7 0.781262 0.188195 0.073417
O O8 0.700908 0.075297 0.964687
O O9 0.241653 0.713799 0.353149
O O10 0.999464 0.688470 0.498350
O O11 0.166015 0.347363 0.310300
O O12 0.000000 0.269581 0.250000
#
# Coordination Sequence:
#
# PCOD9254674 Si02
#       6
#     8   4   8   8   8   8
#     4  10  20  35  60  91 119 154 201 247 293 351
#     4  10  16  32  62  94 114 144 194 254 308 336
#     4   9  17  31  61  95 113 145 195 262 291 340
#     4  10  19  35  61  85 118 153 194 250 292 348
#     4  11  23  37  57  86 123 165 195 234 295 374
#     4   9  18  33  57  88 114 150 193 244 301 341
#
# _framework density 26.669166000000001
#
# number of rings (size 3 to 8) (size 9 to 14) (size 15 to 20)
#    0.000    2.182    2.727    2.182    0.000    3.636 
#    0.000    0.000    2.000   27.273    0.000    0.000 
#    0.000    0.000    0.000    0.000    0.000    0.000 
#
# Total GULP energy -123065.203857 kJ/mol
# GULP energy per Si atom -5593.872903 kJ/mol
# Density = 2.660847 g / cm^3
# Si number density = 26.669166 Si / 1000 Ang^3
#
#
#
# Elastic Constant Matrix: (Units=GPa)
#
#
# Indices 1 2 3 4 5 6 
#
# 1 124.2925 13.5876 29.7709 0.0000 -15.6568 0.0000
# 2 13.5876 51.0242 13.4965 0.0000 -9.9108 0.0000
# 3 29.7709 13.4965 136.9485 0.0000 -43.2746 0.0000
# 4 0.0000 0.0000 0.0000 22.4548 0.0000 1.3389
# 5 -15.6568 -9.9108 -43.2746 0.0000 70.9015 0.0000
# 6 0.0000 0.0000 0.0000 1.3389 0.0000 19.2762
#
#
#
# Elastic Compliance Matrix: (Units=1/GPa)
#
#
# Indices 1 2 3 4 5 6 
#
# 1 0.008689 -0.001775 -0.001469 0.000000 0.000774 0.000000
# 2 -0.001775 0.020714 -0.001071 0.000000 0.001850 0.000000
# 3 -0.001469 -0.001071 0.009388 0.000000 0.005256 0.000000
# 4 0.000000 0.000000 0.000000 0.044719 0.000000 -0.003106
# 5 0.000774 0.001850 0.005256 0.000000 0.017741 0.000000
# 6 0.000000 0.000000 0.000000 -0.003106 0.000000 0.052093
#
#
# Mechanical properties :
#
#
# Convention : Reuss Voigt Hill
#
# Bulk Modulus (GPa) = 33.15671 47.33059 40.24365
# Shear Modulus (GPa) = 29.06502 39.55385 34.30943
#
# Velocity S-wave (km/s) = 3.30485 3.85532 3.59065
# Velocity P-wave (km/s) = 5.19830 6.13220 5.68446
#
# Compressibility (1/GPa) = 0.03015980
#
# Stress axis : x y z
#
# Youngs Moduli (GPa) = 115.08798 48.27697 106.52213
#
# Poissons Ratio (x) = 0.08569 0.15653
# Poissons Ratio (y) = 0.20427 0.11409
# Poissons Ratio (z) = 0.16912 0.05171
#
# Static dielectric constant tensor:
#      x y z
#    x 2.094410 0.000000 -0.002650 
#    y 0.000000 2.155270 0.000000 
#    z -0.002650 0.000000 2.062830 
# 
# From -- ./inp_files/197647.got.cif
#   From: 2010.05.17/outbox.cif.g08.bks.cpg/sg15_99_cif.got.tgz:197647.got - 2010.06.03 18:47:42.
