data_PCOD9254771
_publ_section_title
;
Structure prediction by ZEFSAII (Michael W. Deem and Ramdas Pophale) SiO2 
 PCOD9254771
Probable space group: C 2/C
;
_chemical_formula_sum "Si O2"
_cell_formula_units_Z 48
_cell_length_a 7.301889
_cell_length_b 19.470586
_cell_length_c 18.469249
_cell_angle_alpha 90.000000
_cell_angle_beta 61.347132
_cell_angle_gamma 90.000000
_cell_volume 2304.256674
_symmetry_space_group_name_H-M "C 2/C"
_symmetry_group_IT_number 15
_symmetry_cell_setting 'monoclinic'
loop_
_space_group_symop_operation_xyz
x,y,z
-x,y,1/2-z
-x,-y,-z
x,-y,1/2+z
1/2+x,1/2+y,z
1/2-x,1/2+y,1/2-z
1/2-x,1/2-y,-z
1/2+x,1/2-y,1/2+z
loop_
_atom_site_type_symbol
_atom_site_label
_atom_site_fract_x
_atom_site_fract_y
_atom_site_fract_z
Si Si1 0.301523 0.667687 0.988610
Si Si2 0.290374 0.783562 0.739587
Si Si3 0.551285 0.621360 0.382331
Si Si4 0.881753 0.602852 0.101202
Si Si5 0.128864 0.863704 0.300268
Si Si6 0.774145 0.989180 0.751702
O O1 0.463537 0.646814 0.895952
O O2 0.250000 0.750000 0.000000
O O3 0.395097 0.644130 0.047654
O O4 0.091059 0.622989 0.020429
O O5 0.500000 0.784751 0.750000
O O6 0.102034 0.814214 0.821301
O O7 0.338147 0.833022 0.663413
O O8 0.244459 0.706490 0.725376
O O9 0.315116 0.597221 0.414832
O O10 0.703927 0.563747 0.319036
O O11 0.881737 0.538339 0.156684
O O12 0.000000 0.865214 0.250000
O O13 0.251098 0.935173 0.275250
O O14 0.000000 0.984893 0.750000
#
# Coordination Sequence:
#
# PCOD9254771 Si02
#       6
#     8   8   8   8   8   8
#     4  12  22  38  63  95 120 158 206 253 309 356
#     4  10  16  34  61  88 121 159 198 251 302 359
#     4  10  21  37  64  86 123 160 203 250 300 363
#     4  10  20  38  64  90 118 160 204 243 305 360
#     4  10  20  37  61  85 125 159 202 256 306 360
#     4   8  18  37  59  87 119 164 200 242 299 363
#
# _framework density 20.831012000000001
#
# number of rings (size 3 to 8) (size 9 to 14) (size 15 to 20)
#    0.000    2.000    3.333    2.500    0.000    1.333 
#    0.000    7.500    7.333    4.000    0.000    0.000 
#    0.000    0.000    0.000    0.000    0.000    0.000 
#
# Total GULP energy -133971.916962 kJ/mol
# GULP energy per Si atom -5582.163207 kJ/mol
# Density = 2.078360 g / cm^3
# Si number density = 20.831012 Si / 1000 Ang^3
#
#
#
# Elastic Constant Matrix: (Units=GPa)
#
#
# Indices 1 2 3 4 5 6 
#
# 1 55.2498 -17.1530 -9.0626 0.0000 -4.9463 0.0000
# 2 -17.1530 115.9866 27.0277 0.0000 -11.3697 0.0000
# 3 -9.0626 27.0277 56.9013 0.0000 0.4317 0.0000
# 4 0.0000 0.0000 0.0000 21.2168 0.0000 -1.8852
# 5 -4.9463 -11.3697 0.4317 0.0000 30.0816 0.0000
# 6 0.0000 0.0000 0.0000 -1.8852 0.0000 13.3049
#
#
#
# Elastic Compliance Matrix: (Units=1/GPa)
#
#
# Indices 1 2 3 4 5 6 
#
# 1 0.019678 0.002936 0.001707 0.000000 0.004321 0.000000
# 2 0.002936 0.010570 -0.004588 0.000000 0.004544 0.000000
# 3 0.001707 -0.004588 0.020038 0.000000 -0.001741 0.000000
# 4 0.000000 0.000000 0.000000 0.047734 0.000000 0.006764
# 5 0.004321 0.004544 -0.001741 0.000000 0.035696 0.000000
# 6 0.000000 0.000000 0.000000 0.006764 0.000000 0.076119
#
#
# Mechanical properties :
#
#
# Convention : Reuss Voigt Hill
#
# Bulk Modulus (GPa) = 19.84258 25.52911 22.68584
# Shear Modulus (GPa) = 22.07277 28.07569 25.07423
#
# Velocity S-wave (km/s) = 3.25870 3.67520 3.47320
# Velocity P-wave (km/s) = 4.86878 5.50376 5.19598
#
# Compressibility (1/GPa) = 0.05039667
#
# Stress axis : x y z
#
# Youngs Moduli (GPa) = 50.81847 94.60438 49.90402
#
# Poissons Ratio (x) = -0.27775 -0.08517
# Poissons Ratio (y) = -0.14920 0.22894
# Poissons Ratio (z) = -0.08673 0.43402
#
# Static dielectric constant tensor:
#      x y z
#    x 1.813350 0.000000 -0.015980 
#    y 0.000000 1.790800 0.000000 
#    z -0.015980 0.000000 1.717750 
# 
# From -- ./inp_files/191493.got.cif
#   From: 2010.05.17/outbox.cif.g08.bks.cpg/sg15_96_cif.got.tgz:191493.got - 2010.06.03 18:47:42.
