data_PCOD9254808
_publ_section_title
;
Structure prediction by ZEFSAII (Michael W. Deem and Ramdas Pophale) SiO2 
 PCOD9254808
Probable space group: C 2/C
;
_chemical_formula_sum "Si O2"
_cell_formula_units_Z 48
_cell_length_a 8.018838
_cell_length_b 14.651902
_cell_length_c 18.214510
_cell_angle_alpha 90.000000
_cell_angle_beta 116.084454
_cell_angle_gamma 90.000000
_cell_volume 1922.074947
_symmetry_space_group_name_H-M "C 2/C"
_symmetry_group_IT_number 15
_symmetry_cell_setting 'monoclinic'
loop_
_space_group_symop_operation_xyz
x,y,z
-x,y,1/2-z
-x,-y,-z
x,-y,1/2+z
1/2+x,1/2+y,z
1/2-x,1/2+y,1/2-z
1/2-x,1/2-y,-z
1/2+x,1/2-y,1/2+z
loop_
_atom_site_type_symbol
_atom_site_label
_atom_site_fract_x
_atom_site_fract_y
_atom_site_fract_z
Si Si1 0.656971 0.561129 0.491490
Si Si2 0.224568 0.961660 0.281687
Si Si3 0.811866 0.225337 0.759005
Si Si4 0.413487 0.375442 0.810698
Si Si5 0.545210 0.727811 0.560379
Si Si6 0.681587 0.106890 0.539263
O O1 0.500000 0.500000 0.500000
O O2 0.564673 0.587158 0.395494
O O3 0.670106 0.655721 0.538858
O O4 0.817543 0.485776 0.510071
O O5 0.264121 0.874904 0.239582
O O6 0.302911 0.932253 0.375349
O O7 0.000000 0.970019 0.250000
O O8 0.251992 0.053598 0.241213
O O9 0.680357 0.283259 0.680796
O O10 0.000000 0.216000 0.750000
O O11 0.858055 0.264411 0.847371
O O12 0.500000 0.348019 0.750000
O O13 0.477975 0.818455 0.504894
O O14 0.368253 0.665735 0.553646
#
# Coordination Sequence:
#
# PCOD9254808 Si02
#       6
#     8   8   8   8   8   8
#     4  10  19  32  58  91 115 155 205 257 300 368
#     4  10  16  35  59  81 112 155 200 242 292 360
#     4  11  22  38  60  88 122 156 203 258 302 356
#     4  11  22  39  63  87 118 162 203 243 308 378
#     4  10  20  32  54  91 118 152 205 257 305 361
#     4  10  17  32  57  84 117 151 205 250 304 365
#
# _framework density 24.973012000000001
#
# number of rings (size 3 to 8) (size 9 to 14) (size 15 to 20)
#    0.000    1.667    6.667    2.000    4.667    0.000 
#    0.000    2.500    0.000    0.000    0.000    0.000 
#    0.000    0.000    0.000    0.000    0.000    0.000 
#
# Total GULP energy -133937.319055 kJ/mol
# GULP energy per Si atom -5580.721627 kJ/mol
# Density = 2.491617 g / cm^3
# Si number density = 24.973012 Si / 1000 Ang^3
#
#
#
# Elastic Constant Matrix: (Units=GPa)
#
#
# Indices 1 2 3 4 5 6 
#
# 1 49.0898 24.9721 12.9516 0.0000 2.3405 0.0000
# 2 24.9721 135.8682 27.4508 0.0000 19.4148 0.0000
# 3 12.9516 27.4508 111.4966 0.0000 -2.6180 0.0000
# 4 0.0000 0.0000 0.0000 34.4347 0.0000 4.0772
# 5 2.3405 19.4148 -2.6180 0.0000 17.5567 0.0000
# 6 0.0000 0.0000 0.0000 4.0772 0.0000 7.0570
#
#
#
# Elastic Compliance Matrix: (Units=1/GPa)
#
#
# Indices 1 2 3 4 5 6 
#
# 1 0.022794 -0.004028 -0.001629 0.000000 0.001173 0.000000
# 2 -0.004028 0.010136 -0.002286 0.000000 -0.011013 0.000000
# 3 -0.001629 -0.002286 0.009820 0.000000 0.004210 0.000000
# 4 0.000000 0.000000 0.000000 0.031173 0.000000 -0.018010
# 5 0.001173 -0.011013 0.004210 0.000000 0.069608 0.000000
# 6 0.000000 0.000000 0.000000 -0.018010 0.000000 0.152110
#
#
# Mechanical properties :
#
#
# Convention : Reuss Voigt Hill
#
# Bulk Modulus (GPa) = 37.22452 47.46708 42.34580
# Shear Modulus (GPa) = 15.60161 27.21501 21.40831
#
# Velocity S-wave (km/s) = 2.50219 3.30476 2.93107
# Velocity P-wave (km/s) = 4.82558 5.79746 5.33370
#
# Compressibility (1/GPa) = 0.02686401
#
# Stress axis : x y z
#
# Youngs Moduli (GPa) = 43.87193 98.65886 101.83546
#
# Poissons Ratio (x) = 0.39739 0.16584
# Poissons Ratio (y) = 0.17671 0.23282
# Poissons Ratio (z) = 0.07145 0.22555
#
# Static dielectric constant tensor:
#      x y z
#    x 2.040100 0.000000 0.014320 
#    y 0.000000 2.110280 0.000000 
#    z 0.014320 0.000000 1.954690 
# 
# From -- ./inp_files/143462.got.cif
#   From: 2010.05.17/outbox.cif.g08.bks.cpg/sg15_72_cif.got.tgz:143462.got - 2010.06.03 18:47:42.
