data_PCOD9254806
_publ_section_title
;
Structure prediction by ZEFSAII (Michael W. Deem and Ramdas Pophale) SiO2 
 PCOD9254806
Probable space group: C 2/C
;
_chemical_formula_sum "Si O2"
_cell_formula_units_Z 56
_cell_length_a 10.379172
_cell_length_b 16.741359
_cell_length_c 22.453278
_cell_angle_alpha 90.000000
_cell_angle_beta 131.105056
_cell_angle_gamma 90.000000
_cell_volume 2939.811805
_symmetry_space_group_name_H-M "C 2/C"
_symmetry_group_IT_number 15
_symmetry_cell_setting 'monoclinic'
loop_
_space_group_symop_operation_xyz
x,y,z
-x,y,1/2-z
-x,-y,-z
x,-y,1/2+z
1/2+x,1/2+y,z
1/2-x,1/2+y,1/2-z
1/2-x,1/2-y,-z
1/2+x,1/2-y,1/2+z
loop_
_atom_site_type_symbol
_atom_site_label
_atom_site_fract_x
_atom_site_fract_y
_atom_site_fract_z
Si Si1 0.500000 0.006624 0.250000
Si Si2 0.054353 0.797097 0.834776
Si Si3 0.362324 0.105304 0.477722
Si Si4 0.492549 0.439464 0.442402
Si Si5 0.500000 0.460375 0.250000
Si Si6 0.254672 0.923265 0.427037
Si Si7 0.163311 0.622325 0.888967
Si Si8 0.333261 0.560392 0.298537
O O1 0.638673 0.060257 0.258919
O O2 0.422033 0.948525 0.175415
O O3 0.240305 0.831877 0.907873
O O4 0.058493 0.703685 0.849846
O O5 0.000000 0.806065 0.750000
O O6 0.923625 0.854333 0.830189
O O7 0.563054 0.118750 0.526593
O O8 0.329946 0.105656 0.538839
O O9 0.302923 0.017520 0.438644
O O10 0.500000 0.500000 0.500000
O O11 0.665723 0.408137 0.464258
O O12 0.354695 0.373084 0.419700
O O13 0.418626 0.496641 0.368699
O O14 0.615854 0.410795 0.331965
O O15 0.372210 0.519012 0.247148
#
# Coordination Sequence:
#
# PCOD9254806 Si02
#       8
#     4   8   8   8   4   8   8   8
#     4  10  22  37  60  95 114 158 208 266 306 365
#     4  12  22  40  60  87 127 169 203 253 316 372
#     4  11  21  36  60  93 116 163 210 255 300 372
#     4  10  18  36  56  88 117 151 195 260 304 362
#     4  10  16  35  58  87 118 152 194 262 302 353
#     4  10  20  34  62  92 121 151 211 261 303 351
#     4  11  22  37  62  88 124 156 205 255 319 375
#     4  10  19  34  60  81 118 156 208 246 304 363
#
# _framework density 19.048838
#
# number of rings (size 3 to 8) (size 9 to 14) (size 15 to 20)
#    0.000    1.429    5.714    1.286    0.000    1.143 
#    0.000    0.714    3.143    0.857    0.000    0.000 
#    0.000    0.000    0.000    0.000    0.000    0.000 
#
# Total GULP energy -156110.633553 kJ/mol
# GULP energy per Si atom -5575.379770 kJ/mol
# Density = 1.900548 g / cm^3
# Si number density = 19.048838 Si / 1000 Ang^3
#
#
#
# Elastic Constant Matrix: (Units=GPa)
#
#
# Indices 1 2 3 4 5 6 
#
# 1 168.0966 26.8771 43.8592 0.0000 13.3409 0.0000
# 2 26.8771 58.6567 12.1384 0.0000 5.9334 0.0000
# 3 43.8592 12.1384 111.1799 0.0000 -7.3821 0.0000
# 4 0.0000 0.0000 0.0000 12.4437 0.0000 6.6484
# 5 13.3409 5.9334 -7.3821 0.0000 34.6714 0.0000
# 6 0.0000 0.0000 0.0000 6.6484 0.0000 18.4154
#
#
#
# Elastic Compliance Matrix: (Units=1/GPa)
#
#
# Indices 1 2 3 4 5 6 
#
# 1 0.007315 -0.002467 -0.002815 0.000000 -0.002992 0.000000
# 2 -0.002467 0.018688 -0.001234 0.000000 -0.002512 0.000000
# 3 -0.002815 -0.001234 0.010474 0.000000 0.003524 0.000000
# 4 0.000000 0.000000 0.000000 0.099567 0.000000 -0.035946
# 5 -0.002992 -0.002512 0.003524 0.000000 0.031174 0.000000
# 6 0.000000 0.000000 0.000000 -0.035946 0.000000 0.067280
#
#
# Mechanical properties :
#
#
# Convention : Reuss Voigt Hill
#
# Bulk Modulus (GPa) = 42.65242 55.96473 49.30858
# Shear Modulus (GPa) = 19.58140 30.11000 24.84570
#
# Velocity S-wave (km/s) = 3.20966 3.98008 3.61545
# Velocity P-wave (km/s) = 6.01461 7.11089 6.58560
#
# Compressibility (1/GPa) = 0.02344533
#
# Stress axis : x y z
#
# Youngs Moduli (GPa) = 136.69861 53.51003 95.47694
#
# Poissons Ratio (x) = 0.13200 0.26878
# Poissons Ratio (y) = 0.33720 0.11782
# Poissons Ratio (z) = 0.38483 0.06603
#
# Static dielectric constant tensor:
#      x y z
#    x 1.737240 0.000000 0.006680 
#    y 0.000000 1.634290 0.000000 
#    z 0.006680 0.000000 1.727530 
# 
# From -- ./inp_files/232846.got.cif
#   From: 2010.05.17/outbox.cif.g08.bks.cpg/sg15_117_cif.got.tgz:232846.got - 2010.06.03 18:47:42.
