data_PCOD9254708
_publ_section_title
;
Structure prediction by ZEFSAII (Michael W. Deem and Ramdas Pophale) SiO2 
 PCOD9254708
Probable space group: C 2/C
;
_chemical_formula_sum "Si O2"
_cell_formula_units_Z 64
_cell_length_a 16.076787
_cell_length_b 9.430933
_cell_length_c 18.353633
_cell_angle_alpha 90.000000
_cell_angle_beta 105.618613
_cell_angle_gamma 90.000000
_cell_volume 2680.008306
_symmetry_space_group_name_H-M "C 2/C"
_symmetry_group_IT_number 15
_symmetry_cell_setting 'monoclinic'
loop_
_space_group_symop_operation_xyz
x,y,z
-x,y,1/2-z
-x,-y,-z
x,-y,1/2+z
1/2+x,1/2+y,z
1/2-x,1/2+y,1/2-z
1/2-x,1/2-y,-z
1/2+x,1/2-y,1/2+z
loop_
_atom_site_type_symbol
_atom_site_label
_atom_site_fract_x
_atom_site_fract_y
_atom_site_fract_z
Si Si1 0.446742 0.206102 0.344347
Si Si2 0.301108 0.234447 0.200594
Si Si3 0.897755 0.048137 0.478176
Si Si4 0.366842 0.319568 0.570351
Si Si5 0.901372 0.441626 0.978661
Si Si6 0.951231 0.953840 0.843184
Si Si7 0.136199 0.322264 0.935788
Si Si8 0.308010 0.574477 0.202521
O O1 0.396128 0.196249 0.256682
O O2 0.392828 0.134937 0.398431
O O3 0.455482 0.376253 0.353850
O O4 0.542281 0.143617 0.377990
O O5 0.299551 0.181215 0.116950
O O6 0.287257 0.405644 0.195628
O O7 0.243425 0.160005 0.248220
O O8 0.887625 0.096265 0.393273
O O9 0.878000 0.170228 0.530617
O O10 0.844355 0.915064 0.494587
O O11 0.000000 0.000000 0.500000
O O12 0.385218 0.167963 0.540560
O O13 0.457987 0.380420 0.621166
O O14 0.304279 0.349316 0.623099
O O15 0.845124 0.574495 0.992116
O O16 0.000000 0.500000 0.000000
O O17 0.905985 0.922914 0.756616
#
# Coordination Sequence:
#
# PCOD9254708 Si02
#       8
#     8   8   8   8   8   8   8   8
#     4  10  18  38  64  90 114 153 197 241 298 357
#     4  11  25  43  60  81 122 164 202 243 291 353
#     4  10  16  33  63  93 115 139 191 256 296 341
#     4  11  19  37  65  91 115 150 200 247 295 349
#     4  10  21  35  60  99 126 144 187 253 309 349
#     4  10  18  36  65  91 113 148 202 247 292 352
#     4  11  20  38  62  94 119 151 197 245 300 351
#     4  11  25  42  58  84 121 163 202 244 292 354
#
# _framework density 23.880521000000002
#
# number of rings (size 3 to 8) (size 9 to 14) (size 15 to 20)
#    0.000    1.500    5.000    3.000    1.750    2.000 
#    6.750    5.000    0.000    0.000    0.000    0.000 
#    0.000    0.000    0.000    0.000    0.000    0.000 
#
# Total GULP energy -178601.793407 kJ/mol
# GULP energy per Si atom -5581.306044 kJ/mol
# Density = 2.382617 g / cm^3
# Si number density = 23.880521 Si / 1000 Ang^3
#
#
#
# Elastic Constant Matrix: (Units=GPa)
#
#
# Indices 1 2 3 4 5 6 
#
# 1 79.4826 20.7617 24.2333 0.0000 -24.8640 0.0000
# 2 20.7617 88.8144 29.1544 0.0000 -22.1774 0.0000
# 3 24.2333 29.1544 124.9583 0.0000 -34.9384 0.0000
# 4 0.0000 0.0000 0.0000 20.7831 0.0000 -3.2451
# 5 -24.8640 -22.1774 -34.9384 0.0000 47.2235 0.0000
# 6 0.0000 0.0000 0.0000 -3.2451 0.0000 16.0094
#
#
#
# Elastic Compliance Matrix: (Units=1/GPa)
#
#
# Indices 1 2 3 4 5 6 
#
# 1 0.015351 -0.001667 -0.000690 0.000000 0.006789 0.000000
# 2 -0.001667 0.013209 -0.001601 0.000000 0.004141 0.000000
# 3 -0.000690 -0.001601 0.010336 0.000000 0.006533 0.000000
# 4 0.000000 0.000000 0.000000 0.049689 0.000000 0.010072
# 5 0.006789 0.004141 0.006533 0.000000 0.031529 0.000000
# 6 0.000000 0.000000 0.000000 0.010072 0.000000 0.064505
#
#
# Mechanical properties :
#
#
# Convention : Reuss Voigt Hill
#
# Bulk Modulus (GPa) = 32.27715 49.06156 40.66936
# Shear Modulus (GPa) = 24.64760 31.41026 28.02893
#
# Velocity S-wave (km/s) = 3.21615 3.63065 3.42967
# Velocity P-wave (km/s) = 5.22847 6.17776 5.72283
#
# Compressibility (1/GPa) = 0.03098167
#
# Stress axis : x y z
#
# Youngs Moduli (GPa) = 65.14258 75.70835 96.74562
#
# Poissons Ratio (x) = 0.12618 0.06674
# Poissons Ratio (y) = 0.10857 0.15485
# Poissons Ratio (z) = 0.04494 0.12118
#
# Static dielectric constant tensor:
#      x y z
#    x 2.040690 0.000000 0.038560 
#    y 0.000000 1.894720 0.000000 
#    z 0.038560 0.000000 1.961680 
# 
# From -- ./inp_files/251577.got.cif
#   From: 2010.05.17/outbox.cif.g08.bks.cpg/sg15_126_cif.got.tgz:251577.got - 2010.06.03 18:47:42.
