data_PCOD9254562
_publ_section_title
;
Structure prediction by ZEFSAII (Michael W. Deem and Ramdas Pophale) SiO2 
 PCOD9254562
Probable space group: C 2/C
;
_chemical_formula_sum "Si O2"
_cell_formula_units_Z 56
_cell_length_a 14.833636
_cell_length_b 23.009116
_cell_length_c 9.937264
_cell_angle_alpha 90.000000
_cell_angle_beta 82.229762
_cell_angle_gamma 90.000000
_cell_volume 3360.534482
_symmetry_space_group_name_H-M "C 2/C"
_symmetry_group_IT_number 15
_symmetry_cell_setting 'monoclinic'
loop_
_space_group_symop_operation_xyz
x,y,z
-x,y,1/2-z
-x,-y,-z
x,-y,1/2+z
1/2+x,1/2+y,z
1/2-x,1/2+y,1/2-z
1/2-x,1/2-y,-z
1/2+x,1/2-y,1/2+z
loop_
_atom_site_type_symbol
_atom_site_label
_atom_site_fract_x
_atom_site_fract_y
_atom_site_fract_z
Si Si1 0.500000 0.297735 0.750000
Si Si2 0.435515 0.494507 0.145070
Si Si3 0.203520 0.805348 0.151613
Si Si4 0.347022 0.380603 0.085791
Si Si5 0.008863 0.208378 0.541606
Si Si6 0.662279 0.610225 0.220797
Si Si7 0.500000 0.196066 0.250000
Si Si8 0.194065 0.329741 0.628243
O O1 0.493423 0.266477 0.608687
O O2 0.412271 0.338915 0.758493
O O3 0.500000 0.472033 0.250000
O O4 0.361175 0.445582 0.134341
O O5 0.389351 0.553217 0.211628
O O6 0.500000 0.500000 0.000000
O O7 0.200467 0.840921 0.291085
O O8 0.106828 0.807162 0.087563
O O9 0.219351 0.736526 0.168447
O O10 0.278085 0.830308 0.033714
O O11 0.446022 0.348804 0.053040
O O12 0.309408 0.388369 0.942153
O O13 0.967538 0.258813 0.641975
O O14 0.745517 0.626041 0.299748
O O15 0.412766 0.162730 0.322697
#
# Coordination Sequence:
#
# PCOD9254562 Si02
#       8
#     4   8   8   8   8   8   4   8
#     4  10  18  30  47  74 114 143 174 220 264 330
#     4  12  22  35  53  84 123 154 179 214 270 344
#     4  10  19  34  53  79 101 149 189 230 269 336
#     4  11  21  33  54  80 115 148 181 216 277 334
#     4  10  16  32  50  75 107 142 182 217 274 318
#     4  11  22  35  49  82 114 150 182 223 271 331
#     4  10  20  38  51  78 100 147 190 234 272 318
#     4  10  21  35  55  74 111 140 196 232 272 327
#
# _framework density 16.664016
#
# number of rings (size 3 to 8) (size 9 to 14) (size 15 to 20)
#    0.000    1.429    6.429    1.714    2.000    0.571 
#    0.000    0.000    0.000    0.000    0.000    4.000 
#    0.000    0.000    0.000    0.000    0.000    0.000 
#
# Total GULP energy -155956.897848 kJ/mol
# GULP energy per Si atom -5569.889209 kJ/mol
# Density = 1.662609 g / cm^3
# Si number density = 16.664016 Si / 1000 Ang^3
#
#
#
# Elastic Constant Matrix: (Units=GPa)
#
#
# Indices 1 2 3 4 5 6 
#
# 1 46.3940 -2.7836 9.1081 0.0000 -15.0142 0.0000
# 2 -2.7836 34.8103 25.8167 0.0000 -0.3611 0.0000
# 3 9.1081 25.8167 136.7616 0.0000 -12.1090 0.0000
# 4 0.0000 0.0000 0.0000 15.4785 0.0000 -2.7337
# 5 -15.0142 -0.3611 -12.1090 0.0000 23.4981 0.0000
# 6 0.0000 0.0000 0.0000 -2.7337 0.0000 16.9075
#
#
#
# Elastic Compliance Matrix: (Units=1/GPa)
#
#
# Indices 1 2 3 4 5 6 
#
# 1 0.027454 0.003028 -0.000883 0.000000 0.017134 0.000000
# 2 0.003028 0.033923 -0.006693 0.000000 -0.000993 0.000000
# 3 -0.000883 -0.006693 0.008985 0.000000 0.003963 0.000000
# 4 0.000000 0.000000 0.000000 0.066505 0.000000 0.010753
# 5 0.017134 -0.000993 0.003963 0.000000 0.055531 0.000000
# 6 0.000000 0.000000 0.000000 0.010753 0.000000 0.060884
#
#
# Mechanical properties :
#
#
# Convention : Reuss Voigt Hill
#
# Bulk Modulus (GPa) = 16.32231 31.36093 23.84162
# Shear Modulus (GPa) = 17.68027 23.56513 20.62270
#
# Velocity S-wave (km/s) = 3.26081 3.76458 3.52171
# Velocity P-wave (km/s) = 4.89830 6.14463 5.55652
#
# Compressibility (1/GPa) = 0.06126582
#
# Stress axis : x y z
#
# Youngs Moduli (GPa) = 36.42414 29.47855 111.29405
#
# Poissons Ratio (x) = -0.08926 0.09827
# Poissons Ratio (y) = -0.11029 0.74492
# Poissons Ratio (z) = 0.03216 0.19731
#
# Static dielectric constant tensor:
#      x y z
#    x 1.535060 0.000000 -0.047970 
#    y 0.000000 1.557060 0.000000 
#    z -0.047970 0.000000 1.645270 
# 
# From -- ./inp_files/49725.got.cif
#   From: 2010.05.17/outbox.cif.g08.bks.cpg/sg15_25_cif.got.tgz:49725.got - 2010.06.03 18:47:42.
