data_PCOD9254265
_publ_section_title
;
Structure prediction by ZEFSAII (Michael W. Deem and Ramdas Pophale) SiO2 
 PCOD9254265
Probable space group: C 2/C
;
_chemical_formula_sum "Si O2"
_cell_formula_units_Z 44
_cell_length_a 16.272287
_cell_length_b 7.243080
_cell_length_c 14.150323
_cell_angle_alpha 90.000000
_cell_angle_beta 81.008135
_cell_angle_gamma 90.000000
_cell_volume 1647.281874
_symmetry_space_group_name_H-M "C 2/C"
_symmetry_group_IT_number 15
_symmetry_cell_setting 'monoclinic'
loop_
_space_group_symop_operation_xyz
x,y,z
-x,y,1/2-z
-x,-y,-z
x,-y,1/2+z
1/2+x,1/2+y,z
1/2-x,1/2+y,1/2-z
1/2-x,1/2-y,-z
1/2+x,1/2-y,1/2+z
loop_
_atom_site_type_symbol
_atom_site_label
_atom_site_fract_x
_atom_site_fract_y
_atom_site_fract_z
Si Si1 0.222252 0.199153 0.294688
Si Si2 0.602964 0.487552 0.054608
Si Si3 0.283298 0.077476 0.101834
Si Si4 0.364843 0.937657 0.911396
Si Si5 0.000000 0.395149 0.750000
Si Si6 0.068358 0.052506 0.845017
O O1 0.195758 0.393980 0.342115
O O2 0.284557 0.110225 0.361176
O O3 0.269470 0.225768 0.186463
O O4 0.141117 0.075204 0.292265
O O5 0.692047 0.549510 0.074418
O O6 0.607880 0.262433 0.051670
O O7 0.525416 0.530225 0.136851
O O8 0.586913 0.563227 0.953391
O O9 0.343049 0.072368 0.000974
O O10 0.439952 0.002265 0.831336
O O11 0.942001 0.252026 0.701576
#
# Coordination Sequence:
#
# PCOD9254265 Si02
#       6
#     8   8   8   8   4   8
#     4  11  20  34  62  88 124 160 207 240 311 363
#     4   9  17  30  54  83 121 153 194 247 313 341
#     4  11  21  37  58  89 124 166 197 253 300 372
#     4  10  19  39  55  83 119 169 197 247 306 376
#     4  10  22  34  64  90 120 160 218 240 306 366
#     4  10  16  28  52  90 115 148 197 258 280 351
#
# _framework density 26.710668999999999
#
# number of rings (size 3 to 8) (size 9 to 14) (size 15 to 20)
#    0.000    1.818    3.636    4.364    0.000    0.000 
#    0.000    1.818    0.000    3.273    0.000    0.000 
#    0.000    0.000    0.000    0.000    0.000    0.000 
#
# Total GULP energy -123359.208723 kJ/mol
# GULP energy per Si atom -5607.236760 kJ/mol
# Density = 2.664987 g / cm^3
# Si number density = 26.710669 Si / 1000 Ang^3
#
#
#
# Elastic Constant Matrix: (Units=GPa)
#
#
# Indices 1 2 3 4 5 6 
#
# 1 134.6387 28.4768 46.0476 0.0000 -25.3841 0.0000
# 2 28.4768 95.2621 35.3081 0.0000 -13.0106 0.0000
# 3 46.0476 35.3081 193.7475 0.0000 -45.4451 0.0000
# 4 0.0000 0.0000 0.0000 17.3796 0.0000 2.7399
# 5 -25.3841 -13.0106 -45.4451 0.0000 53.0148 0.0000
# 6 0.0000 0.0000 0.0000 2.7399 0.0000 21.6023
#
#
#
# Elastic Compliance Matrix: (Units=1/GPa)
#
#
# Indices 1 2 3 4 5 6 
#
# 1 0.008710 -0.001821 -0.001083 0.000000 0.002796 0.000000
# 2 -0.001821 0.011706 -0.001541 0.000000 0.000680 0.000000
# 3 -0.001083 -0.001541 0.006871 0.000000 0.004993 0.000000
# 4 0.000000 0.000000 0.000000 0.058713 0.000000 -0.007447
# 5 0.002796 0.000680 0.004993 0.000000 0.024648 0.000000
# 6 0.000000 0.000000 0.000000 -0.007447 0.000000 0.047236
#
#
# Mechanical properties :
#
#
# Convention : Reuss Voigt Hill
#
# Bulk Modulus (GPa) = 54.35449 71.47925 62.91687
# Shear Modulus (GPa) = 28.91792 39.32041 34.11916
#
# Velocity S-wave (km/s) = 3.29391 3.84094 3.57790
# Velocity P-wave (km/s) = 5.90424 6.81829 6.37766
#
# Compressibility (1/GPa) = 0.01839774
#
# Stress axis : x y z
#
# Youngs Moduli (GPa) = 114.81556 85.42913 145.54683
#
# Poissons Ratio (x) = 0.15553 0.15756
# Poissons Ratio (y) = 0.20903 0.22429
# Poissons Ratio (z) = 0.12429 0.13165
#
# Static dielectric constant tensor:
#      x y z
#    x 2.105310 0.000000 -0.015210 
#    y 0.000000 2.048420 0.000000 
#    z -0.015210 0.000000 2.090890 
# 
# From -- ./inp_files/159283.got.cif
#   From: 2010.05.17/outbox.cif.g08.bks.cpg/sg15_80_cif.got.tgz:159283.got - 2010.06.03 18:47:42.
