data_PCOD9254491
_publ_section_title
;
Structure prediction by ZEFSAII (Michael W. Deem and Ramdas Pophale) SiO2 
 PCOD9254491
Probable space group: C 2/C
;
_chemical_formula_sum "Si O2"
_cell_formula_units_Z 32
_cell_length_a 29.157702
_cell_length_b 8.342153
_cell_length_c 5.582880
_cell_angle_alpha 90.000000
_cell_angle_beta 92.097550
_cell_angle_gamma 90.000000
_cell_volume 1357.058734
_symmetry_space_group_name_H-M "C 2/C"
_symmetry_group_IT_number 15
_symmetry_cell_setting 'monoclinic'
loop_
_space_group_symop_operation_xyz
x,y,z
-x,y,1/2-z
-x,-y,-z
x,-y,1/2+z
1/2+x,1/2+y,z
1/2-x,1/2+y,1/2-z
1/2-x,1/2-y,-z
1/2+x,1/2-y,1/2+z
loop_
_atom_site_type_symbol
_atom_site_label
_atom_site_fract_x
_atom_site_fract_y
_atom_site_fract_z
Si Si1 0.114549 0.086810 0.074436
Si Si2 0.700595 0.926109 0.625663
Si Si3 0.712290 0.629855 0.890859
Si Si4 0.482058 0.309963 0.996587
O O1 0.168155 0.121948 0.050475
O O2 0.107165 0.967382 0.846230
O O3 0.072936 0.206262 0.017769
O O4 0.694641 0.736145 0.660796
O O5 0.682188 0.988086 0.365929
O O6 0.754851 0.977792 0.643354
O O7 0.750000 0.750000 0.000000
O O8 0.500000 0.242145 0.750000
O O9 0.500000 0.242657 0.250000
O O10 0.500000 0.500000 0.000000
#
# Coordination Sequence:
#
# PCOD9254491 Si02
#       4
#     8   8   8   8
#     4  12  21  32  53  78 107 149 179 215 279 329
#     4  10  20  36  53  70 103 141 176 222 259 299
#     4  10  22  37  53  78 109 146 184 223 261 320
#     4  10  16  31  48  72 107 138 164 222 276 331
#
# _framework density 23.580407000000001
#
# number of rings (size 3 to 8) (size 9 to 14) (size 15 to 20)
#    0.000    1.500    5.000    3.750    0.000    4.000 
#    0.000    0.000    0.000    0.000    0.000    0.000 
#    0.000   24.000    0.000    0.000    0.000    0.000 
#
# Total GULP energy -89077.344602 kJ/mol
# GULP energy per Si atom -5567.334038 kJ/mol
# Density = 2.352674 g / cm^3
# Si number density = 23.580407 Si / 1000 Ang^3
#
#
#
# Elastic Constant Matrix: (Units=GPa)
#
#
# Indices 1 2 3 4 5 6 
#
# 1 106.4710 -19.4501 7.2898 0.0000 4.4752 0.0000
# 2 -19.4501 20.7971 0.8261 0.0000 -15.3630 0.0000
# 3 7.2898 0.8261 165.7669 0.0000 8.9776 0.0000
# 4 0.0000 0.0000 0.0000 27.9997 0.0000 -1.3356
# 5 4.4752 -15.3630 8.9776 0.0000 36.2769 0.0000
# 6 0.0000 0.0000 0.0000 -1.3356 0.0000 6.0026
#
#
#
# Elastic Compliance Matrix: (Units=1/GPa)
#
#
# Indices 1 2 3 4 5 6 
#
# 1 0.011978 0.014998 -0.000877 0.000000 0.005091 0.000000
# 2 0.014998 0.089400 -0.003097 0.000000 0.036776 0.000000
# 3 -0.000877 -0.003097 0.006235 0.000000 -0.002746 0.000000
# 4 0.000000 0.000000 0.000000 0.036098 0.000000 0.008032
# 5 0.005091 0.036776 -0.002746 0.000000 0.043192 0.000000
# 6 0.000000 0.000000 0.000000 0.008032 0.000000 0.168382
#
#
# Mechanical properties :
#
#
# Convention : Reuss Voigt Hill
#
# Bulk Modulus (GPa) = 7.71243 30.04073 18.87658
# Shear Modulus (GPa) = 13.28171 34.34712 23.81442
#
# Velocity S-wave (km/s) = 2.37587 3.82068 3.18138
# Velocity P-wave (km/s) = 3.28696 5.67722 4.63869
#
# Compressibility (1/GPa) = 0.12966086
#
# Stress axis : x y z
#
# Youngs Moduli (GPa) = 83.48564 11.18570 160.37680
#
# Poissons Ratio (x) = -0.16776 0.14068
# Poissons Ratio (y) = -1.25210 0.49666
# Poissons Ratio (z) = 0.07323 0.03464
#
# Static dielectric constant tensor:
#      x y z
#    x 1.885550 0.000000 -0.022690 
#    y 0.000000 2.191250 0.000000 
#    z -0.022690 0.000000 2.138900 
# 
# From -- ./inp_files/14804.got.cif
#   From: 2010.05.17/outbox.cif.g08.bks.cpg/sg15_8_cif.got.tgz:14804.got - 2010.06.03 18:47:42.
