data_PCOD9254105
_publ_section_title
;
Structure prediction by ZEFSAII (Michael W. Deem and Ramdas Pophale) SiO2 
 PCOD9254105
Probable space group: C 2/C
;
_chemical_formula_sum "Si O2"
_cell_formula_units_Z 64
_cell_length_a 5.458841
_cell_length_b 27.313255
_cell_length_c 21.580957
_cell_angle_alpha 90.000000
_cell_angle_beta 97.368600
_cell_angle_gamma 90.000000
_cell_volume 3191.119981
_symmetry_space_group_name_H-M "C 2/C"
_symmetry_group_IT_number 15
_symmetry_cell_setting 'monoclinic'
loop_
_space_group_symop_operation_xyz
x,y,z
-x,y,1/2-z
-x,-y,-z
x,-y,1/2+z
1/2+x,1/2+y,z
1/2-x,1/2+y,1/2-z
1/2-x,1/2-y,-z
1/2+x,1/2-y,1/2+z
loop_
_atom_site_type_symbol
_atom_site_label
_atom_site_fract_x
_atom_site_fract_y
_atom_site_fract_z
Si Si1 0.462809 0.828167 0.917908
Si Si2 0.051387 0.304348 0.111909
Si Si3 0.592807 0.904971 0.352316
Si Si4 0.487103 0.713804 0.959270
Si Si5 0.964282 0.418280 0.009279
Si Si6 0.434810 0.456994 0.181534
Si Si7 0.335112 0.494925 0.054031
Si Si8 0.556319 0.695428 0.109605
O O1 0.488633 0.772272 0.945228
O O2 0.193954 0.830316 0.878667
O O3 0.690041 0.833551 0.878415
O O4 0.479465 0.868891 0.971364
O O5 0.015634 0.349999 0.155957
O O6 0.291602 0.309360 0.074789
O O7 0.785187 0.302647 0.069196
O O8 0.078623 0.249466 0.139204
O O9 0.664208 0.912090 0.427855
O O10 0.844607 0.917137 0.323802
O O11 0.351401 0.938106 0.328277
O O12 0.520811 0.702912 0.033051
O O13 0.220150 0.441115 0.040537
O O14 0.854676 0.460357 0.961112
O O15 0.500000 0.478651 0.250000
O O16 0.456338 0.494277 0.124851
O O17 0.500000 0.500000 0.000000
#
# Coordination Sequence:
#
# PCOD9254105 Si02
#       8
#     8   8   8   8   8   8   8   8
#     4  10  19  26  42  66  99 140 173 207 253 310
#     4  10  18  27  43  67  99 137 172 206 244 300
#     4  11  20  34  56  79 104 142 183 217 268 328
#     4  10  16  26  38  63 102 141 173 200 244 301
#     4  10  20  32  52  78 106 141 183 226 276 339
#     4  11  24  40  57  78 107 142 179 231 279 327
#     4  10  21  38  54  77 107 141 184 229 287 349
#     4  10  17  26  38  63 102 140 172 200 247 303
#
# _framework density 20.055654000000001
#
# number of rings (size 3 to 8) (size 9 to 14) (size 15 to 20)
#    0.000    1.750    1.250    7.125    1.750    1.000 
#    0.000    0.000    0.000    0.000    0.000    0.000 
#    0.000   16.000   11.500    0.000    3.500    0.000 
#
# Total GULP energy -178264.115290 kJ/mol
# GULP energy per Si atom -5570.753603 kJ/mol
# Density = 2.001001 g / cm^3
# Si number density = 20.055654 Si / 1000 Ang^3
#
#
#
# Elastic Constant Matrix: (Units=GPa)
#
#
# Indices 1 2 3 4 5 6 
#
# 1 138.2024 9.0915 10.5307 0.0000 -7.9635 0.0000
# 2 9.0915 51.0126 17.8967 0.0000 4.9266 0.0000
# 3 10.5307 17.8967 67.5265 0.0000 8.8424 0.0000
# 4 0.0000 0.0000 0.0000 8.9584 0.0000 -5.1645
# 5 -7.9635 4.9266 8.8424 0.0000 16.3961 0.0000
# 6 0.0000 0.0000 0.0000 -5.1645 0.0000 16.6072
#
#
#
# Elastic Compliance Matrix: (Units=1/GPa)
#
#
# Indices 1 2 3 4 5 6 
#
# 1 0.007723 -0.001329 -0.001502 0.000000 0.004960 0.000000
# 2 -0.001329 0.022048 -0.005040 0.000000 -0.004552 0.000000
# 3 -0.001502 -0.005040 0.017513 0.000000 -0.008660 0.000000
# 4 0.000000 0.000000 0.000000 0.136010 0.000000 0.042296
# 5 0.004960 -0.004552 -0.008660 0.000000 0.069437 0.000000
# 6 0.000000 0.000000 0.000000 0.042296 0.000000 0.073368
#
#
# Mechanical properties :
#
#
# Convention : Reuss Voigt Hill
#
# Bulk Modulus (GPa) = 31.70292 36.86438 34.28365
# Shear Modulus (GPa) = 14.19023 23.00718 18.59870
#
# Velocity S-wave (km/s) = 2.66285 3.39066 3.04855
# Velocity P-wave (km/s) = 5.02953 5.80945 5.43350
#
# Compressibility (1/GPa) = 0.03154283
#
# Stress axis : x y z
#
# Youngs Moduli (GPa) = 129.47607 45.35639 57.10051
#
# Poissons Ratio (x) = 0.06026 0.08576
# Poissons Ratio (y) = 0.17203 0.28779
# Poissons Ratio (z) = 0.19446 0.22860
#
# Static dielectric constant tensor:
#      x y z
#    x 2.114820 0.000000 -0.226930 
#    y 0.000000 1.763510 0.000000 
#    z -0.226930 0.000000 1.928620 
# 
# From -- ./inp_files/228498.got.cif
#   From: 2010.05.17/outbox.cif.g08.bks.cpg/sg15_115_cif.got.tgz:228498.got - 2010.06.03 18:47:42.
