data_PCOD9254055
_publ_section_title
;
Structure prediction by ZEFSAII (Michael W. Deem and Ramdas Pophale) SiO2 
 PCOD9254055
Probable space group: C 2/C
;
_chemical_formula_sum "Si O2"
_cell_formula_units_Z 52
_cell_length_a 7.938778
_cell_length_b 26.962218
_cell_length_c 13.311822
_cell_angle_alpha 90.000000
_cell_angle_beta 128.591606
_cell_angle_gamma 90.000000
_cell_volume 2227.090770
_symmetry_space_group_name_H-M "C 2/C"
_symmetry_group_IT_number 15
_symmetry_cell_setting 'monoclinic'
loop_
_space_group_symop_operation_xyz
x,y,z
-x,y,1/2-z
-x,-y,-z
x,-y,1/2+z
1/2+x,1/2+y,z
1/2-x,1/2+y,1/2-z
1/2-x,1/2-y,-z
1/2+x,1/2-y,1/2+z
loop_
_atom_site_type_symbol
_atom_site_label
_atom_site_fract_x
_atom_site_fract_y
_atom_site_fract_z
Si Si1 0.121296 0.737690 0.554100
Si Si2 0.644139 0.348058 0.608661
Si Si3 0.500000 0.330444 0.250000
Si Si4 0.949121 0.647320 0.397634
Si Si5 0.479316 0.065944 0.904823
Si Si6 0.644922 0.495199 0.893290
Si Si7 0.604174 0.590155 0.624096
O O1 0.250000 0.750000 0.500000
O O2 0.069705 0.790727 0.581199
O O3 0.292199 0.704894 0.680459
O O4 0.937377 0.700539 0.448656
O O5 0.847628 0.352102 0.605349
O O6 0.455543 0.384314 0.503089
O O7 0.743205 0.361966 0.752364
O O8 0.505630 0.368184 0.344133
O O9 0.985032 0.607249 0.497081
O O10 0.316159 0.026371 0.892010
O O11 0.341923 0.086229 0.759995
O O12 0.706874 0.037664 0.977820
O O13 0.500000 0.470964 0.750000
O O14 0.509858 0.537098 0.902149
#
# Coordination Sequence:
#
# PCOD9254055 Si02
#       7
#     8   8   4   8   8   8   8
#     4  10  16  23  36  57  91 127 149 160 203 275
#     4  10  19  25  38  62  98 126 143 174 219 268
#     4  12  14  24  36  58  86 120 148 164 202 254
#     4  10  17  26  38  61  89 124 148 174 215 260
#     4  10  17  28  48  62  82 115 154 189 220 266
#     4   9  17  29  46  67  80 107 155 199 226 251
#     4  11  16  29  44  63  87 120 148 183 222 260
#
# _framework density 23.348846999999999
#
# number of rings (size 3 to 8) (size 9 to 14) (size 15 to 20)
#    0.000    1.846    8.462    1.846    0.000    0.000 
#    0.000    0.000    0.000   12.000    0.000    0.000 
#    0.000    4.923    0.000    0.000    0.000    0.000 
#
# Total GULP energy -145126.862422 kJ/mol
# GULP energy per Si atom -5581.802401 kJ/mol
# Density = 2.329570 g / cm^3
# Si number density = 23.348847 Si / 1000 Ang^3
#
#
#
# Elastic Constant Matrix: (Units=GPa)
#
#
# Indices 1 2 3 4 5 6 
#
# 1 48.7021 31.1392 21.7982 0.0000 6.4503 0.0000
# 2 31.1392 114.1041 98.2714 0.0000 27.4199 0.0000
# 3 21.7982 98.2714 258.3659 0.0000 22.4722 0.0000
# 4 0.0000 0.0000 0.0000 44.0114 0.0000 12.1859
# 5 6.4503 27.4199 22.4722 0.0000 -12.7731 0.0000
# 6 0.0000 0.0000 0.0000 12.1859 0.0000 -8.8760
#
#
#
# Elastic Compliance Matrix: (Units=1/GPa)
#
#
# Indices 1 2 3 4 5 6 
#
# 1 0.024927 -0.007086 0.000711 0.000000 -0.001371 0.000000
# 2 -0.007086 0.011924 -0.005076 0.000000 0.013089 0.000000
# 3 0.000711 -0.005076 0.005774 0.000000 -0.000379 0.000000
# 4 0.000000 0.000000 0.000000 0.016463 0.000000 0.022602
# 5 -0.001371 0.013089 -0.000379 0.000000 -0.051551 0.000000
# 6 0.000000 0.000000 0.000000 0.022602 0.000000 -0.081633
#
#
# Mechanical properties :
#
#
# Convention : Reuss Voigt Hill
#
# Bulk Modulus (GPa) = 50.69916 80.39887 65.54902
# Shear Modulus (GPa) = -112.05554 22.47000 -44.79277
#
# Velocity S-wave (km/s) = -6.93513 3.10556 -4.38472
# Velocity P-wave (km/s) = 6.50901 6.88243 1.58124
#
# Compressibility (1/GPa) = 0.01972419
#
# Stress axis : x y z
#
# Youngs Moduli (GPa) = 40.11772 83.86459 173.18685
#
# Poissons Ratio (x) = 0.59423 -0.12318
# Poissons Ratio (y) = 0.28426 0.87910
# Poissons Ratio (z) = -0.02853 0.42570
#
# Static dielectric constant tensor:
#      x y z
#    x 1.817890 0.000000 -0.028800 
#    y 0.000000 1.884680 0.000000 
#    z -0.028800 0.000000 1.921570 
# 
# From -- ./inp_files/201070.got.cif
#   From: 2010.05.17/outbox.cif.g08.bks.cpg/sg15_101_cif.got.tgz:201070.got - 2010.06.03 18:47:42.
