data_PCOD9254940
_publ_section_title
;
Structure prediction by ZEFSAII (Michael W. Deem and Ramdas Pophale) SiO2 
 PCOD9254940
Probable space group: C 2/C
;
_chemical_formula_sum "Si O2"
_cell_formula_units_Z 48
_cell_length_a 21.706715
_cell_length_b 16.670629
_cell_length_c 9.361383
_cell_angle_alpha 90.000000
_cell_angle_beta 59.421807
_cell_angle_gamma 90.000000
_cell_volume 2916.465379
_symmetry_space_group_name_H-M "C 2/C"
_symmetry_group_IT_number 15
_symmetry_cell_setting 'monoclinic'
loop_
_space_group_symop_operation_xyz
x,y,z
-x,y,1/2-z
-x,-y,-z
x,-y,1/2+z
1/2+x,1/2+y,z
1/2-x,1/2+y,1/2-z
1/2-x,1/2-y,-z
1/2+x,1/2-y,1/2+z
loop_
_atom_site_type_symbol
_atom_site_label
_atom_site_fract_x
_atom_site_fract_y
_atom_site_fract_z
Si Si1 0.617148 0.441420 0.602965
Si Si2 0.629598 0.246729 0.126453
Si Si3 0.249048 0.115806 0.468834
Si Si4 0.000000 0.074907 0.750000
Si Si5 0.000000 0.809617 0.750000
Si Si6 0.210664 0.015445 0.244962
Si Si7 0.986001 0.225113 0.959827
O O1 0.566860 0.517599 0.697057
O O2 0.566294 0.367024 0.634402
O O3 0.660826 0.463920 0.410482
O O4 0.665851 0.430781 0.685506
O O5 0.685111 0.175907 0.087969
O O6 0.581966 0.237189 0.039862
O O7 0.565145 0.248511 0.317056
O O8 0.676749 0.328912 0.065018
O O9 0.248483 0.048292 0.594091
O O10 0.251019 0.071967 0.311896
O O11 0.015203 0.132748 0.597230
O O12 0.979542 0.762958 0.633727
#
# Coordination Sequence:
#
# PCOD9254940 Si02
#       7
#     8   8   8   4   4   8   8
#     4  10  17  25  40  68 102 126 151 181 226 289
#     4   9  19  35  52  68  96 135 163 185 236 302
#     4  10  19  33  52  73  96 127 163 198 236 284
#     4   9  16  26  42  64  96 137 156 170 222 299
#     4  11  18  24  42  72  98 121 150 194 234 273
#     4  10  18  29  46  69  98 128 160 194 232 276
#     4  10  18  31  48  66  93 125 162 196 234 282
#
# _framework density 16.458278
#
# number of rings (size 3 to 8) (size 9 to 14) (size 15 to 20)
#    0.000    2.333    0.000    8.000    0.000    2.667 
#    0.000    3.333    0.000   16.000    0.000    0.000 
#    0.000    0.000    0.000    0.000    0.000    0.000 
#
# Total GULP energy -133668.177744 kJ/mol
# GULP energy per Si atom -5569.507406 kJ/mol
# Density = 1.642082 g / cm^3
# Si number density = 16.458278 Si / 1000 Ang^3
#
#
#
# Elastic Constant Matrix: (Units=GPa)
#
#
# Indices 1 2 3 4 5 6 
#
# 1 91.8056 38.4278 37.7082 0.0000 0.1634 0.0000
# 2 38.4278 53.2160 8.9874 0.0000 -0.7339 0.0000
# 3 37.7082 8.9874 39.3498 0.0000 22.8656 0.0000
# 4 0.0000 0.0000 0.0000 -0.6724 0.0000 -4.0267
# 5 0.1634 -0.7339 22.8656 0.0000 30.1234 0.0000
# 6 0.0000 0.0000 0.0000 -4.0267 0.0000 25.6268
#
#
#
# Elastic Compliance Matrix: (Units=1/GPa)
#
#
# Indices 1 2 3 4 5 6 
#
# 1 0.056810 -0.025618 -0.085964 0.000000 0.064320 0.000000
# 2 -0.025618 0.031937 0.029919 0.000000 -0.021793 0.000000
# 3 -0.085964 0.029919 0.179387 0.000000 -0.134971 0.000000
# 4 0.000000 0.000000 0.000000 -0.766240 0.000000 -0.120397
# 5 0.064320 -0.021793 -0.134971 0.000000 0.134768 0.000000
# 6 0.000000 0.000000 0.000000 -0.120397 0.000000 0.020104
#
#
# Mechanical properties :
#
#
# Convention : Reuss Voigt Hill
#
# Bulk Modulus (GPa) = 9.54139 39.40203 24.47171
# Shear Modulus (GPa) = -34.48994 17.63210 -8.42892
#
# Velocity S-wave (km/s) = -4.58274 3.27666 -2.26550
# Velocity P-wave (km/s) = 4.71085 6.18933 2.83864
#
# Compressibility (1/GPa) = 0.10480657
#
# Stress axis : x y z
#
# Youngs Moduli (GPa) = 17.60243 31.31151 5.57454
#
# Poissons Ratio (x) = 0.80214 0.47921
# Poissons Ratio (y) = 0.45094 -0.16678
# Poissons Ratio (z) = 1.51318 -0.93680
#
# Static dielectric constant tensor:
#      x y z
#    x 1.570640 0.000000 0.009420 
#    y 0.000000 1.549700 0.000000 
#    z 0.009420 0.000000 1.566340 
# 
# From -- ./inp_files/56041.got.cif
#   From: 2010.05.17/outbox.cif.g08.bks.cpg/sg15_29_cif.got.tgz:56041.got - 2010.06.03 18:47:42.
