data_PCOD9254275
_publ_section_title
;
Structure prediction by ZEFSAII (Michael W. Deem and Ramdas Pophale) SiO2 
 PCOD9254275
Probable space group: C 2/C
;
_chemical_formula_sum "Si O2"
_cell_formula_units_Z 52
_cell_length_a 14.288123
_cell_length_b 18.158838
_cell_length_c 15.257157
_cell_angle_alpha 90.000000
_cell_angle_beta 139.837159
_cell_angle_gamma 90.000000
_cell_volume 2553.119297
_symmetry_space_group_name_H-M "C 2/C"
_symmetry_group_IT_number 15
_symmetry_cell_setting 'monoclinic'
loop_
_space_group_symop_operation_xyz
x,y,z
-x,y,1/2-z
-x,-y,-z
x,-y,1/2+z
1/2+x,1/2+y,z
1/2-x,1/2+y,1/2-z
1/2-x,1/2-y,-z
1/2+x,1/2-y,1/2+z
loop_
_atom_site_type_symbol
_atom_site_label
_atom_site_fract_x
_atom_site_fract_y
_atom_site_fract_z
Si Si1 0.500000 0.612157 0.750000
Si Si2 0.539968 0.318009 0.677932
Si Si3 0.830005 0.226277 0.873609
Si Si4 0.728640 0.666345 0.050437
Si Si5 0.262408 0.583305 0.712889
Si Si6 0.139767 0.950808 0.628666
Si Si7 0.915536 0.312588 0.526223
O O1 0.399929 0.659653 0.614078
O O2 0.388260 0.568499 0.730928
O O3 0.500000 0.330947 0.750000
O O4 0.672192 0.260338 0.771479
O O5 0.411789 0.286039 0.524590
O O6 0.590773 0.392963 0.667187
O O7 0.820597 0.147670 0.818451
O O8 0.928100 0.281764 0.885766
O O9 0.705106 0.598056 0.097155
O O10 0.873179 0.667999 0.095528
O O11 0.692959 0.743420 0.072112
O O12 0.243022 0.508695 0.751598
O O13 0.128456 0.619070 0.565846
O O14 0.000000 0.000000 0.500000
#
# Coordination Sequence:
#
# PCOD9254275 Si02
#       7
#     4   8   8   8   8   8   8
#     4  10  16  28  54  96 118 162 202 262 314 366
#     4  12  27  42  69  94 126 172 223 266 316 385
#     4  12  21  46  67  96 127 168 218 274 322 381
#     4  10  19  33  58  97 129 157 213 264 323 371
#     4  11  21  34  64  92 132 163 209 268 321 370
#     4  12  21  40  61  94 132 170 218 265 317 379
#     4  10  20  37  62  93 126 164 203 268 326 378
#
# _framework density 20.367242999999998
#
# number of rings (size 3 to 8) (size 9 to 14) (size 15 to 20)
#    0.000    0.923    7.692    0.462    1.077    0.000 
#    0.000    0.769    0.000    1.846    0.000    0.000 
#    0.000    0.000    0.000    0.000    0.000    0.000 
#
# Total GULP energy -145310.693597 kJ/mol
# GULP energy per Si atom -5588.872831 kJ/mol
# Density = 2.032089 g / cm^3
# Si number density = 20.367243 Si / 1000 Ang^3
#
#
#
# Elastic Constant Matrix: (Units=GPa)
#
#
# Indices 1 2 3 4 5 6 
#
# 1 93.5812 40.3917 33.5931 0.0001 -35.9484 0.0001
# 2 40.3917 124.2051 39.6588 0.0001 -18.4764 0.0000
# 3 33.5931 39.6588 98.7886 0.0002 -14.1088 0.0001
# 4 0.0001 0.0001 0.0002 28.7425 0.0001 -10.9914
# 5 -35.9484 -18.4764 -14.1088 0.0001 16.8760 0.0000
# 6 0.0001 0.0000 0.0001 -10.9914 0.0000 30.8717
#
#
#
# Elastic Compliance Matrix: (Units=1/GPa)
#
#
# Indices 1 2 3 4 5 6 
#
# 1 0.059306 -0.000030 -0.002404 -0.000001 0.124288 -0.000001
# 2 -0.000030 0.010284 -0.002861 0.000000 0.008803 0.000000
# 3 -0.002404 -0.002861 0.012389 0.000000 0.002104 0.000000
# 4 -0.000001 0.000000 0.000000 0.040275 -0.000002 0.014339
# 5 0.124288 0.008803 0.002104 -0.000002 0.335404 -0.000001
# 6 -0.000001 0.000000 0.000000 0.014339 -0.000001 0.037497
#
#
# Mechanical properties :
#
#
# Convention : Reuss Voigt Hill
#
# Bulk Modulus (GPa) = 14.00789 60.42911 37.21850
# Shear Modulus (GPa) = 9.44210 28.82680 19.13445
#
# Velocity S-wave (km/s) = 2.15546 3.76620 3.06841
# Velocity P-wave (km/s) = 3.61763 6.97470 5.55580
#
# Compressibility (1/GPa) = 0.07138832
#
# Stress axis : x y z
#
# Youngs Moduli (GPa) = 16.86172 97.23775 80.71513
#
# Poissons Ratio (x) = 0.00292 0.19407
# Poissons Ratio (y) = 0.00051 0.23093
# Poissons Ratio (z) = 0.04054 0.27820
#
# Static dielectric constant tensor:
#      x y z
#    x 1.737070 0.000000 -0.014280 
#    y 0.000000 1.703320 0.000000 
#    z -0.014280 0.000000 1.785380 
# 
# From -- ./inp_files/155543.got.cif
#   From: 2010.05.17/outbox.cif.g08.bks.cpg/sg15_78_cif.got.tgz:155543.got - 2010.06.03 18:47:42.
