data_PCOD9254126
_publ_section_title
;
Structure prediction by ZEFSAII (Michael W. Deem and Ramdas Pophale) SiO2 
 PCOD9254126
Probable space group: C 2/C
;
_chemical_formula_sum "Si O2"
_cell_formula_units_Z 64
_cell_length_a 9.128967
_cell_length_b 27.238897
_cell_length_c 10.769143
_cell_angle_alpha 90.000000
_cell_angle_beta 95.718026
_cell_angle_gamma 90.000000
_cell_volume 2664.562883
_symmetry_space_group_name_H-M "C 2/C"
_symmetry_group_IT_number 15
_symmetry_cell_setting 'monoclinic'
loop_
_space_group_symop_operation_xyz
x,y,z
-x,y,1/2-z
-x,-y,-z
x,-y,1/2+z
1/2+x,1/2+y,z
1/2-x,1/2+y,1/2-z
1/2-x,1/2-y,-z
1/2+x,1/2-y,1/2+z
loop_
_atom_site_type_symbol
_atom_site_label
_atom_site_fract_x
_atom_site_fract_y
_atom_site_fract_z
Si Si1 0.995748 0.074138 0.385200
Si Si2 0.863222 0.345096 0.644496
Si Si3 0.845947 0.808524 0.160415
Si Si4 0.678397 0.960357 0.841622
Si Si5 0.377810 0.587268 0.636071
Si Si6 0.002047 0.262176 0.498531
Si Si7 0.293617 0.726965 0.197145
Si Si8 0.290326 0.987210 0.921918
O O1 0.859738 0.035861 0.355304
O O2 0.955210 0.099934 0.510529
O O3 0.000000 0.099333 0.250000
O O4 0.151464 0.048907 0.424546
O O5 0.843711 0.403360 0.620175
O O6 0.732385 0.320561 0.716478
O O7 0.000000 0.341577 0.750000
O O8 0.908509 0.311457 0.529386
O O9 0.790886 0.863673 0.158686
O O10 0.732648 0.772838 0.215450
O O11 0.000000 0.810175 0.250000
O O12 0.902537 0.781757 0.042836
O O13 0.629451 0.967220 0.694565
O O14 0.635223 0.001557 0.939051
O O15 0.500000 0.577916 0.750000
O O16 0.276207 0.540198 0.617866
O O17 0.151113 0.271471 0.592604
O O18 0.067481 0.240280 0.376361
#
# Coordination Sequence:
#
# PCOD9254126 Si02
#       8
#     8   8   8   8   8   8   8   8
#     4   9  18  31  48  73 105 138 178 226 279 337
#     4   9  18  32  51  78 110 145 189 233 276 330
#     4   8  15  24  41  73 104 129 167 217 269 326
#     4  10  19  33  53  76 107 146 185 231 286 333
#     4  10  16  26  46  73 106 136 165 216 277 323
#     4   8  14  27  47  71 104 140 176 225 273 321
#     4   8  14  28  47  71 103 139 179 224 271 322
#     4  10  19  33  51  75 106 142 184 229 281 340
#
# _framework density 24.018951000000001
#
# number of rings (size 3 to 8) (size 9 to 14) (size 15 to 20)
#    0.000    3.000    0.000    4.875    0.000    2.000 
#    0.000    6.875    0.000   12.000    0.000    9.625 
#    0.000    0.000    0.000    0.000    0.000    5.250 
#
# Total GULP energy -178512.443038 kJ/mol
# GULP energy per Si atom -5578.513845 kJ/mol
# Density = 2.396428 g / cm^3
# Si number density = 24.018951 Si / 1000 Ang^3
#
#
#
# Elastic Constant Matrix: (Units=GPa)
#
#
# Indices 1 2 3 4 5 6 
#
# 1 72.3055 10.2413 24.2263 0.0000 -6.1442 0.0000
# 2 10.2413 106.7807 21.6806 0.0000 -15.5739 0.0000
# 3 24.2263 21.6806 140.9556 0.0000 -11.5794 0.0000
# 4 0.0000 0.0000 0.0000 2.9345 0.0000 1.0579
# 5 -6.1442 -15.5739 -11.5794 0.0000 57.9563 0.0000
# 6 0.0000 0.0000 0.0000 1.0579 0.0000 30.3889
#
#
#
# Elastic Compliance Matrix: (Units=1/GPa)
#
#
# Indices 1 2 3 4 5 6 
#
# 1 0.014807 -0.000815 -0.002347 0.000000 0.000882 0.000000
# 2 -0.000815 0.010034 -0.001209 0.000000 0.002368 0.000000
# 3 -0.002347 -0.001209 0.007764 0.000000 0.000978 0.000000
# 4 0.000000 0.000000 0.000000 0.345110 0.000000 -0.012014
# 5 0.000882 0.002368 0.000978 0.000000 0.018180 0.000000
# 6 0.000000 0.000000 0.000000 -0.012014 0.000000 0.033325
#
#
# Mechanical properties :
#
#
# Convention : Reuss Voigt Hill
#
# Bulk Modulus (GPa) = 41.90507 48.03757 44.97132
# Shear Modulus (GPa) = 11.21287 35.84882 23.53085
#
# Velocity S-wave (km/s) = 2.16298 3.86751 3.13338
# Velocity P-wave (km/s) = 4.87058 6.32351 5.64399
#
# Compressibility (1/GPa) = 0.02386346
#
# Stress axis : x y z
#
# Youngs Moduli (GPa) = 67.53570 99.66112 128.79864
#
# Poissons Ratio (x) = 0.08122 0.30230
# Poissons Ratio (y) = 0.05504 0.15568
# Poissons Ratio (z) = 0.15851 0.12046
#
# Static dielectric constant tensor:
#      x y z
#    x 1.997050 0.000000 0.054710 
#    y 0.000000 1.855250 0.000000 
#    z 0.054710 0.000000 2.018190 
# 
# From -- ./inp_files/91260.got.cif
#   From: 2010.05.17/outbox.cif.g08.bks.cpg/sg15_46_cif.got.tgz:91260.got - 2010.06.03 18:47:42.
