data_PCOD9254279
_publ_section_title
;
Structure prediction by ZEFSAII (Michael W. Deem and Ramdas Pophale) SiO2 
 PCOD9254279
Probable space group: C 2/C
;
_chemical_formula_sum "Si O2"
_cell_formula_units_Z 60
_cell_length_a 28.110169
_cell_length_b 24.967834
_cell_length_c 9.051400
_cell_angle_alpha 90.000000
_cell_angle_beta 148.533187
_cell_angle_gamma 90.000000
_cell_volume 3316.151933
_symmetry_space_group_name_H-M "C 2/C"
_symmetry_group_IT_number 15
_symmetry_cell_setting 'monoclinic'
loop_
_space_group_symop_operation_xyz
x,y,z
-x,y,1/2-z
-x,-y,-z
x,-y,1/2+z
1/2+x,1/2+y,z
1/2-x,1/2+y,1/2-z
1/2-x,1/2-y,-z
1/2+x,1/2-y,1/2+z
loop_
_atom_site_type_symbol
_atom_site_label
_atom_site_fract_x
_atom_site_fract_y
_atom_site_fract_z
Si Si1 0.717647 0.555684 0.185691
Si Si2 0.869651 0.592358 0.800459
Si Si3 0.106810 0.853181 0.533798
Si Si4 0.721218 0.353614 0.125577
Si Si5 0.758059 0.057582 0.597649
Si Si6 0.937020 0.477631 0.962670
Si Si7 0.500000 0.824298 0.750000
Si Si8 0.316982 0.755228 0.321061
O O1 0.811620 0.581978 0.498221
O O2 0.638337 0.591380 0.045976
O O3 0.713634 0.496220 0.241631
O O4 0.716478 0.554811 0.006600
O O5 0.801108 0.618289 0.738165
O O6 0.896610 0.532867 0.924851
O O7 0.955269 0.632744 0.015528
O O8 0.157382 0.805667 0.577917
O O9 0.140538 0.849735 0.792971
O O10 0.000000 0.845761 0.250000
O O11 0.702931 0.391385 0.214651
O O12 0.758773 0.295147 0.268834
O O13 0.647676 0.057433 0.311846
O O14 0.000000 0.449891 0.250000
O O15 0.000000 0.500000 0.000000
O O16 0.414036 0.785769 0.556119
O O17 0.250000 0.750000 0.000000
#
# Coordination Sequence:
#
# PCOD9254279 Si02
#       8
#     8   8   8   8   8   8   4   8
#     4  10  21  36  57  79 117 151 193 231 286 346
#     4   9  17  30  48  77 110 145 181 222 273 331
#     4  10  19  37  60  87 109 141 193 247 287 335
#     4   9  19  35  57  80 111 147 185 229 287 344
#     4  11  21  38  54  80 114 161 186 232 287 342
#     4  11  19  27  44  72 107 145 182 220 257 327
#     4  10  16  28  56  78 112 136 184 238 280 332
#     4   9  18  32  55  86 107 141 185 237 285 337
#
# _framework density 18.093260000000001
#
# number of rings (size 3 to 8) (size 9 to 14) (size 15 to 20)
#    0.000    2.133    1.333    5.600    1.867    0.000 
#    0.000    4.000    0.000    0.000    3.467    0.000 
#    0.000    0.000    0.000    0.000    0.000    0.000 
#
# Total GULP energy -167086.439479 kJ/mol
# GULP energy per Si atom -5569.547983 kJ/mol
# Density = 1.805208 g / cm^3
# Si number density = 18.093260 Si / 1000 Ang^3
#
#
#
# Elastic Constant Matrix: (Units=GPa)
#
#
# Indices 1 2 3 4 5 6 
#
# 1 45.7819 9.9194 29.2790 0.0000 -17.1620 0.0000
# 2 9.9194 83.7746 34.8464 0.0000 -10.0827 0.0000
# 3 29.2790 34.8464 83.1325 0.0000 -1.2505 0.0000
# 4 0.0000 0.0000 0.0000 22.5471 0.0000 0.7093
# 5 -17.1620 -10.0827 -1.2505 0.0000 29.1624 0.0000
# 6 0.0000 0.0000 0.0000 0.7093 0.0000 17.3876
#
#
#
# Elastic Compliance Matrix: (Units=1/GPa)
#
#
# Indices 1 2 3 4 5 6 
#
# 1 0.040088 0.004758 -0.015744 0.000000 0.024561 0.000000
# 2 0.004758 0.015709 -0.008142 0.000000 0.007882 0.000000
# 3 -0.015744 -0.008142 0.020818 0.000000 -0.011187 0.000000
# 4 0.000000 0.000000 0.000000 0.044409 0.000000 -0.001811
# 5 0.024561 0.007882 -0.011187 0.000000 0.050990 0.000000
# 6 0.000000 0.000000 0.000000 -0.001811 0.000000 0.057586
#
#
# Mechanical properties :
#
#
# Convention : Reuss Voigt Hill
#
# Bulk Modulus (GPa) = 26.06892 40.08653 33.07772
# Shear Modulus (GPa) = 17.81634 23.06236 20.43935
#
# Velocity S-wave (km/s) = 3.14139 3.57408 3.36470
# Velocity P-wave (km/s) = 5.25330 6.26384 5.78069
#
# Compressibility (1/GPa) = 0.03835985
#
# Stress axis : x y z
#
# Youngs Moduli (GPa) = 24.94537 63.65912 48.03446
#
# Poissons Ratio (x) = -0.30290 0.75624
# Poissons Ratio (y) = -0.11869 0.39109
# Poissons Ratio (z) = 0.39273 0.51830
#
# Static dielectric constant tensor:
#      x y z
#    x 1.618680 0.000000 0.007580 
#    y 0.000000 1.654840 0.000000 
#    z 0.007580 0.000000 1.651940 
# 
# From -- ./inp_files/70965.got.cif
#   From: 2010.05.17/outbox.cif.g08.bks.cpg/sg15_36_cif.got.tgz:70965.got - 2010.06.03 18:47:42.
