data_PCOD9254990
_publ_section_title
;
Structure prediction by ZEFSAII (Michael W. Deem and Ramdas Pophale) SiO2 
 PCOD9254990
Probable space group: C 2/C
;
_chemical_formula_sum "Si O2"
_cell_formula_units_Z 52
_cell_length_a 11.658165
_cell_length_b 26.958836
_cell_length_c 8.483345
_cell_angle_alpha 90.000000
_cell_angle_beta 126.097329
_cell_angle_gamma 90.000000
_cell_volume 2154.364330
_symmetry_space_group_name_H-M "C 2/C"
_symmetry_group_IT_number 15
_symmetry_cell_setting 'monoclinic'
loop_
_space_group_symop_operation_xyz
x,y,z
-x,y,1/2-z
-x,-y,-z
x,-y,1/2+z
1/2+x,1/2+y,z
1/2-x,1/2+y,1/2-z
1/2-x,1/2-y,-z
1/2+x,1/2-y,1/2+z
loop_
_atom_site_type_symbol
_atom_site_label
_atom_site_fract_x
_atom_site_fract_y
_atom_site_fract_z
Si Si1 0.498080 0.785254 0.912805
Si Si2 0.699256 0.306809 0.996022
Si Si3 0.672786 0.944365 0.210570
Si Si4 0.791150 0.846429 0.165020
Si Si5 0.834970 0.445415 0.924220
Si Si6 0.707632 0.651341 0.184519
Si Si7 0.500000 0.203000 0.750000
O O1 0.500000 0.756008 0.750000
O O2 0.350351 0.814725 0.795318
O O3 0.634737 0.821118 0.016709
O O4 0.511413 0.764837 0.100249
O O5 0.647527 0.317981 0.131055
O O6 0.860477 0.330574 0.132689
O O7 0.750000 0.250000 0.000000
O O8 0.633853 0.329991 0.785692
O O9 0.764163 0.902899 0.195352
O O10 0.504159 0.935010 0.047331
O O11 0.702203 0.943160 0.421042
O O12 0.696106 0.999600 0.164077
O O13 0.856623 0.844277 0.042450
O O14 0.753180 0.404766 0.755553
#
# Coordination Sequence:
#
# PCOD9254990 Si02
#       7
#     8   8   8   8   8   8   4
#     4   8  14  22  37  55  73 103 140 170 211 248
#     4  10  20  32  46  64  84 114 154 192 227 267
#     4  10  18  25  37  58  87 118 155 189 216 256
#     4  10  17  27  42  57  81 112 145 185 222 258
#     4  10  18  25  37  58  87 118 155 189 216 256
#     4  10  17  27  42  57  81 112 145 185 222 258
#     4   8  16  28  44  58  80 106 138 186 218 262
#
# _framework density 24.137049999999999
#
# number of rings (size 3 to 8) (size 9 to 14) (size 15 to 20)
#    0.000    2.462    3.077    0.923    0.000    1.846 
#    0.000    0.000    0.000    0.000    0.000    0.000 
#    0.000    0.000    0.000    1.385    0.615    0.000 
#
# Total GULP energy -145091.651472 kJ/mol
# GULP energy per Si atom -5580.448134 kJ/mol
# Density = 2.408211 g / cm^3
# Si number density = 24.137050 Si / 1000 Ang^3
#
#
#
# Elastic Constant Matrix: (Units=GPa)
#
#
# Indices 1 2 3 4 5 6 
#
# 1 72.4696 20.5509 56.0998 0.0000 -31.6121 0.0000
# 2 20.5509 140.6563 81.8099 0.0000 -19.7124 0.0000
# 3 56.0998 81.8099 260.8028 0.0000 -68.2195 0.0000
# 4 0.0000 0.0000 0.0000 45.4002 0.0000 -0.3953
# 5 -31.6121 -19.7124 -68.2195 0.0000 50.3884 0.0000
# 6 0.0000 0.0000 0.0000 -0.3953 0.0000 7.7299
#
#
#
# Elastic Compliance Matrix: (Units=1/GPa)
#
#
# Indices 1 2 3 4 5 6 
#
# 1 0.019433 -0.000648 -0.001322 0.000000 0.010148 0.000000
# 2 -0.000648 0.008724 -0.002804 0.000000 -0.000790 0.000000
# 3 -0.001322 -0.002804 0.006959 0.000000 0.007495 0.000000
# 4 0.000000 0.000000 0.000000 0.022036 0.000000 0.001127
# 5 0.010148 -0.000790 0.007495 0.000000 0.036050 0.000000
# 6 0.000000 0.000000 0.000000 0.001127 0.000000 0.129425
#
#
# Mechanical properties :
#
#
# Convention : Reuss Voigt Hill
#
# Bulk Modulus (GPa) = 39.11218 87.87223 63.49221
# Shear Modulus (GPa) = 20.77291 41.73490 31.25390
#
# Velocity S-wave (km/s) = 2.93682 4.16273 3.60231
# Velocity P-wave (km/s) = 5.26681 7.71939 6.60789
#
# Compressibility (1/GPa) = 0.02556748
#
# Stress axis : x y z
#
# Youngs Moduli (GPa) = 51.45908 114.62180 143.70441
#
# Poissons Ratio (x) = 0.07427 0.19005
# Poissons Ratio (y) = 0.03334 0.40292
# Poissons Ratio (z) = 0.06805 0.32138
#
# Static dielectric constant tensor:
#      x y z
#    x 2.089160 0.000000 0.052830 
#    y 0.000000 1.892130 0.000000 
#    z 0.052830 0.000000 2.036880 
# 
# From -- ./inp_files/33680.got.cif
#   From: 2010.05.17/outbox.cif.g08.bks.cpg/sg15_17_cif.got.tgz:33680.got - 2010.06.03 18:47:42.
