data_PCOD9254133
_publ_section_title
;
Structure prediction by ZEFSAII (Michael W. Deem and Ramdas Pophale) SiO2 
 PCOD9254133
Probable space group: C 2/C
;
_chemical_formula_sum "Si O2"
_cell_formula_units_Z 64
_cell_length_a 25.644537
_cell_length_b 6.961619
_cell_length_c 19.684339
_cell_angle_alpha 90.000000
_cell_angle_beta 45.311612
_cell_angle_gamma 90.000000
_cell_volume 2498.389408
_symmetry_space_group_name_H-M "C 2/C"
_symmetry_group_IT_number 15
_symmetry_cell_setting 'monoclinic'
loop_
_space_group_symop_operation_xyz
x,y,z
-x,y,1/2-z
-x,-y,-z
x,-y,1/2+z
1/2+x,1/2+y,z
1/2-x,1/2+y,1/2-z
1/2-x,1/2-y,-z
1/2+x,1/2-y,1/2+z
loop_
_atom_site_type_symbol
_atom_site_label
_atom_site_fract_x
_atom_site_fract_y
_atom_site_fract_z
Si Si1 0.440058 0.525862 0.749537
Si Si2 0.699111 0.344180 0.878867
Si Si3 0.352563 0.852359 0.677286
Si Si4 0.892013 0.461289 0.395083
Si Si5 0.048057 0.478877 0.801064
Si Si6 0.787620 0.602270 0.099296
Si Si7 0.823345 0.138492 0.956051
Si Si8 0.365416 0.402755 0.698275
O O1 0.500000 0.466219 0.750000
O O2 0.456048 0.748251 0.713781
O O3 0.361276 0.522006 0.860817
O O4 0.432744 0.395435 0.688992
O O5 0.771846 0.420759 0.775253
O O6 0.715964 0.129132 0.887932
O O7 0.637250 0.333626 0.877364
O O8 0.685492 0.455006 0.961647
O O9 0.412554 0.978324 0.661957
O O10 0.359141 0.633674 0.695327
O O11 0.348191 0.843599 0.600488
O O12 0.901977 0.436716 0.305734
O O13 0.821763 0.364934 0.494049
O O14 0.880389 0.689241 0.415168
O O15 0.968275 0.430162 0.364062
O O16 0.708217 0.671985 0.196543
O O17 0.750000 0.250000 0.000000
#
# Coordination Sequence:
#
# PCOD9254133 Si02
#       8
#     8   8   8   8   8   8   8   8
#     4  10  16  28  45  68  92 123 155 198 238 275
#     4   9  17  30  46  70  96 120 155 199 235 274
#     4   9  17  28  46  67  93 124 153 186 236 280
#     4   9  15  25  41  66  92 114 151 195 231 265
#     4   9  15  26  42  66  93 118 148 197 236 270
#     4   9  17  29  46  69  94 120 153 190 230 281
#     4  10  16  26  47  71  92 121 161 202 230 273
#     4   9  18  30  47  69  96 123 152 195 237 280
#
# _framework density 25.616503999999999
#
# number of rings (size 3 to 8) (size 9 to 14) (size 15 to 20)
#    0.000    2.750    2.500    3.750    0.000    0.500 
#    0.000    0.625    0.000    1.500    3.250   12.250 
#    0.000    0.000    0.000    0.000    0.000    0.000 
#
# Total GULP energy -178729.077369 kJ/mol
# GULP energy per Si atom -5585.283668 kJ/mol
# Density = 2.555820 g / cm^3
# Si number density = 25.616504 Si / 1000 Ang^3
#
#
#
# Elastic Constant Matrix: (Units=GPa)
#
#
# Indices 1 2 3 4 5 6 
#
# 1 164.0412 8.5007 10.9800 0.0028 19.4985 0.0006
# 2 8.5007 67.4858 0.1929 0.0107 -0.2632 -0.0059
# 3 10.9800 0.1929 61.8419 0.0088 9.5722 -0.0090
# 4 0.0028 0.0107 0.0088 14.4037 -0.0022 11.8242
# 5 19.4985 -0.2632 9.5722 -0.0022 28.1333 -0.0017
# 6 0.0006 -0.0059 -0.0090 11.8242 -0.0017 37.6987
#
#
#
# Elastic Compliance Matrix: (Units=1/GPa)
#
#
# Indices 1 2 3 4 5 6 
#
# 1 0.006707 -0.000861 -0.000493 -0.000001 -0.004489 0.000000
# 2 -0.000861 0.014929 -0.000008 -0.000017 0.000739 0.000008
# 3 -0.000493 -0.000008 0.017106 -0.000019 -0.005478 0.000010
# 4 -0.000001 -0.000017 -0.000019 0.093502 0.000012 -0.029327
# 5 -0.004489 0.000739 -0.005478 0.000012 0.040527 -0.000003
# 6 0.000000 0.000008 0.000010 -0.029327 -0.000003 0.035724
#
#
# Mechanical properties :
#
#
# Convention : Reuss Voigt Hill
#
# Bulk Modulus (GPa) = 27.76432 36.96846 32.36639
# Shear Modulus (GPa) = 22.39879 34.29349 28.34614
#
# Velocity S-wave (km/s) = 2.96021 3.66283 3.33011
# Velocity P-wave (km/s) = 4.74824 5.68782 5.23914
#
# Compressibility (1/GPa) = 0.03601745
#
# Stress axis : x y z
#
# Youngs Moduli (GPa) = 149.09307 66.98242 58.45959
#
# Poissons Ratio (x) = 0.05767 0.02884
# Poissons Ratio (y) = 0.12836 0.00047
# Poissons Ratio (z) = 0.07356 0.00054
#
# Static dielectric constant tensor:
#      x y z
#    x 2.088390 0.000000 0.040120 
#    y 0.000000 2.156440 0.000010 
#    z 0.040120 0.000010 2.023740 
# 
# From -- ./inp_files/255280.got.cif
#   From: 2010.05.17/outbox.cif.g08.bks.cpg/sg15_128_cif.got.tgz:255280.got - 2010.06.03 18:47:42.
