data_PCOD9254835
_publ_section_title
;
Structure prediction by ZEFSAII (Michael W. Deem and Ramdas Pophale) SiO2 
 PCOD9254835
Probable space group: C 2/C
;
_chemical_formula_sum "Si O2"
_cell_formula_units_Z 60
_cell_length_a 32.162834
_cell_length_b 17.183637
_cell_length_c 13.096206
_cell_angle_alpha 90.000000
_cell_angle_beta 156.042356
_cell_angle_gamma 90.000000
_cell_volume 2939.045990
_symmetry_space_group_name_H-M "C 2/C"
_symmetry_group_IT_number 15
_symmetry_cell_setting 'monoclinic'
loop_
_space_group_symop_operation_xyz
x,y,z
-x,y,1/2-z
-x,-y,-z
x,-y,1/2+z
1/2+x,1/2+y,z
1/2-x,1/2+y,1/2-z
1/2-x,1/2-y,-z
1/2+x,1/2-y,1/2+z
loop_
_atom_site_type_symbol
_atom_site_label
_atom_site_fract_x
_atom_site_fract_y
_atom_site_fract_z
Si Si1 0.000000 0.152072 0.250000
Si Si2 0.857761 0.366518 0.022109
Si Si3 0.781811 0.486549 0.472211
Si Si4 0.677109 0.277769 0.925237
Si Si5 0.306776 0.573137 0.916572
Si Si6 0.598897 0.877373 0.615661
Si Si7 0.610715 0.542866 0.748439
Si Si8 0.059419 0.217419 0.594664
O O1 0.086988 0.100455 0.394964
O O2 0.046539 0.203361 0.444075
O O3 0.820767 0.281605 0.974685
O O4 0.977534 0.376621 0.321237
O O5 0.802491 0.429282 0.970796
O O6 0.850834 0.375452 0.884295
O O7 0.775129 0.432818 0.356402
O O8 0.862986 0.451462 0.734323
O O9 0.673823 0.481076 0.289116
O O10 0.556997 0.278156 0.624334
O O11 0.750000 0.250000 0.000000
O O12 0.712836 0.362339 0.042151
O O13 0.328045 0.491940 0.018910
O O14 0.618048 0.799482 0.727415
O O15 0.500000 0.500000 0.500000
O O16 0.604286 0.636393 0.736312
#
# Coordination Sequence:
#
# PCOD9254835 Si02
#       8
#     4   8   8   8   8   8   8   8
#     4  10  16  36  58  86 118 166 202 240 308 374
#     4  10  22  40  66  93 121 166 216 263 309 378
#     4  12  24  39  62  95 125 166 210 260 319 369
#     4  10  20  37  63  88 125 165 212 254 319 372
#     4  11  21  37  57  89 124 160 206 255 311 377
#     4  10  22  43  65  92 125 164 216 261 313 374
#     4  12  22  37  63  92 129 163 206 257 314 376
#     4  10  20  37  65  90 124 166 207 256 312 374
#
# _framework density 20.414787
#
# number of rings (size 3 to 8) (size 9 to 14) (size 15 to 20)
#    0.000    1.333    4.000    4.400    0.000    0.533 
#    2.400    1.333    0.000    0.000    0.000    0.000 
#    0.000    0.000    0.000    0.000    0.000    0.000 
#
# Total GULP energy -167478.655735 kJ/mol
# GULP energy per Si atom -5582.621858 kJ/mol
# Density = 2.036832 g / cm^3
# Si number density = 20.414787 Si / 1000 Ang^3
#
#
#
# Elastic Constant Matrix: (Units=GPa)
#
#
# Indices 1 2 3 4 5 6 
#
# 1 102.5953 22.8397 25.1258 0.0000 11.3245 0.0000
# 2 22.8397 95.1651 22.7390 0.0000 7.1763 0.0000
# 3 25.1258 22.7390 47.7503 0.0000 -10.2272 0.0000
# 4 0.0000 0.0000 0.0000 26.2924 0.0000 -1.2183
# 5 11.3245 7.1763 -10.2272 0.0000 29.9749 0.0000
# 6 0.0000 0.0000 0.0000 -1.2183 0.0000 28.4413
#
#
#
# Elastic Compliance Matrix: (Units=1/GPa)
#
#
# Indices 1 2 3 4 5 6 
#
# 1 0.012632 -0.000580 -0.007944 0.000000 -0.007344 0.000000
# 2 -0.000580 0.012667 -0.006828 0.000000 -0.005143 0.000000
# 3 -0.007944 -0.006828 0.031682 0.000000 0.015446 0.000000
# 4 0.000000 0.000000 0.000000 0.038109 0.000000 0.001632
# 5 -0.007344 -0.005143 0.015446 0.000000 0.042637 0.000000
# 6 0.000000 0.000000 0.000000 0.001632 0.000000 0.035230
#
#
# Mechanical properties :
#
#
# Convention : Reuss Voigt Hill
#
# Bulk Modulus (GPa) = 38.05623 42.99108 40.52366
# Shear Modulus (GPa) = 23.53823 28.59548 26.06685
#
# Velocity S-wave (km/s) = 3.39927 3.74668 3.57720
# Velocity P-wave (km/s) = 5.83855 6.31042 6.07906
#
# Compressibility (1/GPa) = 0.02627691
#
# Stress axis : x y z
#
# Youngs Moduli (GPa) = 79.16290 78.94739 31.56357
#
# Poissons Ratio (x) = 0.04578 0.25073
# Poissons Ratio (y) = 0.04590 0.21553
# Poissons Ratio (z) = 0.62885 0.53909
#
# Static dielectric constant tensor:
#      x y z
#    x 1.724710 0.000000 -0.052220 
#    y 0.000000 1.793470 0.000000 
#    z -0.052220 0.000000 1.898940 
# 
# From -- ./inp_files/127241.got.cif
#   From: 2010.05.17/outbox.cif.g08.bks.cpg/sg15_64_cif.got.tgz:127241.got - 2010.06.03 18:47:42.
