data_PCOD9254856
_publ_section_title
;
Structure prediction by ZEFSAII (Michael W. Deem and Ramdas Pophale) SiO2 
 PCOD9254856
Probable space group: C 2/C
;
_chemical_formula_sum "Si O2"
_cell_formula_units_Z 56
_cell_length_a 17.254524
_cell_length_b 8.636281
_cell_length_c 20.250665
_cell_angle_alpha 90.000000
_cell_angle_beta 60.668850
_cell_angle_gamma 90.000000
_cell_volume 2630.797596
_symmetry_space_group_name_H-M "C 2/C"
_symmetry_group_IT_number 15
_symmetry_cell_setting 'monoclinic'
loop_
_space_group_symop_operation_xyz
x,y,z
-x,y,1/2-z
-x,-y,-z
x,-y,1/2+z
1/2+x,1/2+y,z
1/2-x,1/2+y,1/2-z
1/2-x,1/2-y,-z
1/2+x,1/2-y,1/2+z
loop_
_atom_site_type_symbol
_atom_site_label
_atom_site_fract_x
_atom_site_fract_y
_atom_site_fract_z
Si Si1 0.571636 0.742063 0.634560
Si Si2 0.474690 0.724959 0.549311
Si Si3 0.500000 0.008914 0.750000
Si Si4 0.811630 0.614182 0.175299
Si Si5 0.631326 0.729444 0.230096
Si Si6 0.500000 0.496826 0.250000
Si Si7 0.905685 0.880521 0.605624
Si Si8 0.270810 0.276873 0.328496
O O1 0.561109 0.736981 0.560996
O O2 0.538894 0.905042 0.675733
O O3 0.497179 0.619009 0.690261
O O4 0.659866 0.703184 0.640177
O O5 0.404254 0.856006 0.599778
O O6 0.427194 0.559205 0.582420
O O7 0.513441 0.717451 0.459549
O O8 0.419735 0.112361 0.756802
O O9 0.735513 0.725454 0.176144
O O10 0.770317 0.440591 0.182595
O O11 0.815098 0.679975 0.249124
O O12 0.582317 0.608363 0.203223
O O13 0.609236 0.660255 0.311542
O O14 0.812527 0.825464 0.613815
#
# Coordination Sequence:
#
# PCOD9254856 Si02
#       8
#     8   8   4   8   8   4   8   8
#     4  11  22  38  59  93 124 166 194 261 311 367
#     4  11  24  43  65  88 130 167 207 248 315 374
#     4  10  24  32  62  96 130 152 208 260 310 362
#     4  11  22  38  64  95 122 160 210 262 303 363
#     4  10  20  38  62  94 118 160 205 259 303 361
#     4  10  16  36  62  84 122 158 198 250 318 358
#     4  10  24  42  65  89 125 171 207 250 307 377
#     4  11  24  38  65  93 127 159 211 259 311 359
#
# _framework density 21.28632
#
# number of rings (size 3 to 8) (size 9 to 14) (size 15 to 20)
#    0.000    1.429    2.857    3.429   10.000    1.143 
#    0.000    0.000    0.000    5.143    0.000    0.000 
#    0.000    0.000    0.000    0.000    0.000    0.000 
#
# Total GULP energy -156178.711470 kJ/mol
# GULP energy per Si atom -5577.811124 kJ/mol
# Density = 2.123787 g / cm^3
# Si number density = 21.286320 Si / 1000 Ang^3
#
#
#
# Elastic Constant Matrix: (Units=GPa)
#
#
# Indices 1 2 3 4 5 6 
#
# 1 109.6040 37.0970 -0.0980 0.0000 -12.7925 0.0000
# 2 37.0970 90.9128 -5.6019 0.0000 -1.0714 0.0000
# 3 -0.0980 -5.6019 29.6992 0.0000 -7.5987 0.0000
# 4 0.0000 0.0000 0.0000 10.5411 0.0000 -5.6294
# 5 -12.7925 -1.0714 -7.5987 0.0000 16.9956 0.0000
# 6 0.0000 0.0000 0.0000 -5.6294 0.0000 36.0681
#
#
#
# Elastic Compliance Matrix: (Units=1/GPa)
#
#
# Indices 1 2 3 4 5 6 
#
# 1 0.011760 -0.004595 0.001539 0.000000 0.009250 0.000000
# 2 -0.004595 0.012976 0.001984 0.000000 -0.001754 0.000000
# 3 0.001539 0.001984 0.038819 0.000000 0.018639 0.000000
# 4 0.000000 0.000000 0.000000 0.103494 0.000000 0.016153
# 5 0.009250 -0.001754 0.018639 0.000000 0.074024 0.000000
# 6 0.000000 0.000000 0.000000 0.016153 0.000000 0.030246
#
#
# Mechanical properties :
#
#
# Convention : Reuss Voigt Hill
#
# Bulk Modulus (GPa) = 16.28388 32.55670 24.42029
# Shear Modulus (GPa) = 17.01062 25.97553 21.49308
#
# Velocity S-wave (km/s) = 2.82996 3.49706 3.18105
# Velocity P-wave (km/s) = 4.28308 5.62439 4.99893
#
# Compressibility (1/GPa) = 0.06141044
#
# Stress axis : x y z
#
# Youngs Moduli (GPa) = 85.03447 77.06511 25.76051
#
# Poissons Ratio (x) = 0.35410 -0.03964
# Poissons Ratio (y) = 0.39072 -0.05110
# Poissons Ratio (z) = -0.13085 -0.15288
#
# Static dielectric constant tensor:
#      x y z
#    x 1.896530 0.000000 0.003720 
#    y 0.000000 1.813480 0.000000 
#    z 0.003720 0.000000 1.757050 
# 
# From -- ./inp_files/276253.got.cif
#   From: 2010.05.17/outbox.cif.g08.bks.cpg/sg15_139_cif.got.tgz:276253.got - 2010.06.03 18:47:42.
