data_PCOD9254729
_publ_section_title
;
Structure prediction by ZEFSAII (Michael W. Deem and Ramdas Pophale) SiO2 
 PCOD9254729
Probable space group: C 2/C
;
_chemical_formula_sum "Si O2"
_cell_formula_units_Z 56
_cell_length_a 20.051550
_cell_length_b 8.904512
_cell_length_c 18.318065
_cell_angle_alpha 90.000000
_cell_angle_beta 41.654216
_cell_angle_gamma 90.000000
_cell_volume 2173.801619
_symmetry_space_group_name_H-M "C 2/C"
_symmetry_group_IT_number 15
_symmetry_cell_setting 'monoclinic'
loop_
_space_group_symop_operation_xyz
x,y,z
-x,y,1/2-z
-x,-y,-z
x,-y,1/2+z
1/2+x,1/2+y,z
1/2-x,1/2+y,1/2-z
1/2-x,1/2-y,-z
1/2+x,1/2-y,1/2+z
loop_
_atom_site_type_symbol
_atom_site_label
_atom_site_fract_x
_atom_site_fract_y
_atom_site_fract_z
Si Si1 0.233027 0.465488 0.939692
Si Si2 0.341072 0.435406 0.647032
Si Si3 0.639502 0.924695 0.382602
Si Si4 0.243674 0.892044 0.412720
Si Si5 0.000000 0.760072 0.250000
Si Si6 0.500000 0.772092 0.250000
Si Si7 0.041527 0.508613 0.819403
Si Si8 0.057591 0.008241 0.796917
O O1 0.144133 0.545614 0.966389
O O2 0.226490 0.286792 0.927439
O O3 0.332875 0.550061 0.826072
O O4 0.251348 0.463156 0.011161
O O5 0.349531 0.255401 0.635309
O O6 0.237025 0.482402 0.773087
O O7 0.332561 0.521107 0.577464
O O8 0.427539 0.497781 0.629405
O O9 0.554708 0.983544 0.395285
O O10 0.354093 0.912075 0.289763
O O11 0.048697 0.645943 0.268708
O O12 0.972251 0.883867 0.334933
O O13 0.457220 0.652716 0.227453
O O14 0.541353 0.890839 0.155958
#
# Coordination Sequence:
#
# PCOD9254729 Si02
#       8
#     8   8   8   8   4   4   8   8
#     4  10  21  36  57  82 111 140 172 225 279 321
#     4  10  19  32  55  81 107 137 178 228 267 311
#     4  10  19  32  55  81 107 137 178 228 267 311
#     4  10  21  36  57  82 111 140 172 225 279 321
#     4  10  24  30  56  80 110 138 186 222 250 312
#     4  10  16  34  56  72 106 142 186 214 258 312
#     4  10  19  35  54  83 102 144 178 223 261 314
#     4  10  19  35  54  83 102 144 178 223 261 314
#
# _framework density 25.761322
#
# number of rings (size 3 to 8) (size 9 to 14) (size 15 to 20)
#    0.000    2.000    2.857    2.571   10.000    0.571 
#    0.000    0.000    0.000   10.286    0.000    0.000 
#    0.000    0.000    0.000    0.000    0.000    0.000 
#
# Total GULP energy -155914.797234 kJ/mol
# GULP energy per Si atom -5568.385616 kJ/mol
# Density = 2.570269 g / cm^3
# Si number density = 25.761322 Si / 1000 Ang^3
#
#
#
# Elastic Constant Matrix: (Units=GPa)
#
#
# Indices 1 2 3 4 5 6 
#
# 1 144.0609 71.1882 52.7730 0.0000 67.8667 0.0000
# 2 71.1882 134.0735 47.6901 0.0001 39.0173 -0.0001
# 3 52.7730 47.6901 115.0793 0.0000 59.6051 0.0000
# 4 0.0000 0.0001 0.0000 21.8506 0.0000 22.8567
# 5 67.8667 39.0173 59.6051 0.0000 67.5328 0.0000
# 6 0.0000 -0.0001 0.0000 22.8567 0.0000 22.7318
#
#
#
# Elastic Compliance Matrix: (Units=1/GPa)
#
#
# Indices 1 2 3 4 5 6 
#
# 1 0.015449 -0.004759 0.002772 0.000000 -0.015223 0.000000
# 2 -0.004759 0.010664 -0.002805 0.000001 0.001097 -0.000001
# 3 0.002772 -0.002805 0.016919 -0.000001 -0.016098 0.000001
# 4 0.000000 0.000001 -0.000001 -0.883710 -0.000001 0.888564
# 5 -0.015223 0.001097 -0.016098 -0.000001 0.043679 0.000001
# 6 0.000000 -0.000001 0.000001 0.888564 0.000001 -0.849453
#
#
# Mechanical properties :
#
#
# Convention : Reuss Voigt Hill
#
# Bulk Modulus (GPa) = 29.89762 81.83515 55.86638
# Shear Modulus (GPa) = -3.07556 37.19386 17.05915
#
# Velocity S-wave (km/s) = -1.09383 3.80384 2.57612
# Velocity P-wave (km/s) = 3.16789 7.15038 5.53007
#
# Compressibility (1/GPa) = 0.03344748
#
# Stress axis : x y z
#
# Youngs Moduli (GPa) = 64.72924 93.77427 59.10606
#
# Poissons Ratio (x) = 0.44626 -0.16384
# Poissons Ratio (y) = 0.30804 0.16581
# Poissons Ratio (z) = -0.17943 0.26306
#
# Static dielectric constant tensor:
#      x y z
#    x 2.023250 0.000000 0.324810 
#    y 0.000000 1.938370 0.000000 
#    z 0.324810 0.000000 1.576920 
# 
# From -- ./inp_files/213389.got.cif
#   From: 2010.05.17/outbox.cif.g08.bks.cpg/sg15_107_cif.got.tgz:213389.got - 2010.06.03 18:47:42.
