data_PCOD9254880
_publ_section_title
;
Structure prediction by ZEFSAII (Michael W. Deem and Ramdas Pophale) SiO2 
 PCOD9254880
Probable space group: C 2/C
;
_chemical_formula_sum "Si O2"
_cell_formula_units_Z 36
_cell_length_a 5.330397
_cell_length_b 13.503738
_cell_length_c 24.624491
_cell_angle_alpha 90.000000
_cell_angle_beta 63.769045
_cell_angle_gamma 90.000000
_cell_volume 1589.947580
_symmetry_space_group_name_H-M "C 2/C"
_symmetry_group_IT_number 15
_symmetry_cell_setting 'monoclinic'
loop_
_space_group_symop_operation_xyz
x,y,z
-x,y,1/2-z
-x,-y,-z
x,-y,1/2+z
1/2+x,1/2+y,z
1/2-x,1/2+y,1/2-z
1/2-x,1/2-y,-z
1/2+x,1/2-y,1/2+z
loop_
_atom_site_type_symbol
_atom_site_label
_atom_site_fract_x
_atom_site_fract_y
_atom_site_fract_z
Si Si1 0.217537 0.561032 0.516031
Si Si2 0.444413 0.351637 0.894987
Si Si3 0.500000 0.690601 0.750000
Si Si4 0.404211 0.826989 0.671962
Si Si5 0.224071 0.532131 0.852985
O O1 0.500000 0.500000 0.500000
O O2 0.312358 0.649194 0.467389
O O3 0.000000 0.500000 0.500000
O O4 0.042424 0.572546 0.588010
O O5 0.253747 0.297607 0.868289
O O6 0.419231 0.466844 0.875503
O O7 0.761838 0.317199 0.866036
O O8 0.311490 0.765654 0.732932
O O9 0.365500 0.619505 0.807271
O O10 0.356112 0.944752 0.681435
#
# Coordination Sequence:
#
# PCOD9254880 Si02
#       5
#     8   8   4   8   8
#     4  10  16  36  71  98 125 172 222 277 354 397
#     4   9  19  42  66  94 130 176 211 290 347 381
#     4  12  26  46  64 104 134 192 234 266 338 424
#     4  10  23  42  63  94 137 171 225 278 331 401
#     4   9  23  41  69  97 134 178 222 281 340 397
#
# _framework density 22.642254999999999
#
# number of rings (size 3 to 8) (size 9 to 14) (size 15 to 20)
#    1.333    0.889    2.222    0.000    3.111    0.889 
#    8.000    2.222    0.000    0.000    0.000    0.000 
#    0.000    0.000    0.000    0.000    0.000    0.000 
#
# Total GULP energy -100324.968498 kJ/mol
# GULP energy per Si atom -5573.609361 kJ/mol
# Density = 2.259072 g / cm^3
# Si number density = 22.642255 Si / 1000 Ang^3
#
#
#
# Elastic Constant Matrix: (Units=GPa)
#
#
# Indices 1 2 3 4 5 6 
#
# 1 148.3893 18.1663 22.2759 0.0000 0.9635 0.0001
# 2 18.1663 83.3063 45.3435 0.0000 18.5121 0.0000
# 3 22.2759 45.3435 100.8336 0.0000 15.2902 0.0001
# 4 0.0000 0.0000 0.0000 24.5651 0.0000 -4.5914
# 5 0.9635 18.5121 15.2902 0.0000 28.0761 0.0000
# 6 0.0001 0.0000 0.0001 -4.5914 0.0000 -50.0310
#
#
#
# Elastic Compliance Matrix: (Units=1/GPa)
#
#
# Indices 1 2 3 4 5 6 
#
# 1 0.007054 -0.001130 -0.001228 0.000000 0.001172 0.000000
# 2 -0.001130 0.017524 -0.006414 0.000000 -0.008023 0.000000
# 3 -0.001228 -0.006414 0.013544 0.000000 -0.003104 0.000000
# 4 0.000000 0.000000 0.000000 0.040022 0.000000 -0.003673
# 5 0.001172 -0.008023 -0.003104 0.000000 0.042558 0.000000
# 6 0.000000 0.000000 0.000000 -0.003673 0.000000 -0.019651
#
#
# Mechanical properties :
#
#
# Convention : Reuss Voigt Hill
#
# Bulk Modulus (GPa) = 48.59670 56.01119 52.30394
# Shear Modulus (GPa) = 39.85484 16.97161 28.41323
#
# Velocity S-wave (km/s) = 4.20002 2.74077 3.54627
# Velocity P-wave (km/s) = 6.71042 5.89974 6.31809
#
# Compressibility (1/GPa) = 0.02057753
#
# Stress axis : x y z
#
# Youngs Moduli (GPa) = 141.76113 57.06306 73.83506
#
# Poissons Ratio (x) = 0.06451 0.09065
# Poissons Ratio (y) = 0.16025 0.47359
# Poissons Ratio (z) = 0.17405 0.36601
#
# Static dielectric constant tensor:
#      x y z
#    x 1.832410 0.000000 0.019800 
#    y 0.000000 1.878740 0.000000 
#    z 0.019800 0.000000 1.889290 
# 
# From -- ./inp_files/285381.got.cif
#   From: 2010.05.17/outbox.cif.g08.bks.cpg/sg15_143_cif.got.tgz:285381.got - 2010.06.03 18:47:42.
