data_PCOD9254370
_publ_section_title
;
Structure prediction by ZEFSAII (Michael W. Deem and Ramdas Pophale) SiO2 
 PCOD9254370
Probable space group: C 2/C
;
_chemical_formula_sum "Si O2"
_cell_formula_units_Z 48
_cell_length_a 18.505286
_cell_length_b 20.470733
_cell_length_c 5.374273
_cell_angle_alpha 90.000000
_cell_angle_beta 102.108426
_cell_angle_gamma 90.000000
_cell_volume 1990.571627
_symmetry_space_group_name_H-M "C 2/C"
_symmetry_group_IT_number 15
_symmetry_cell_setting 'monoclinic'
loop_
_space_group_symop_operation_xyz
x,y,z
-x,y,1/2-z
-x,-y,-z
x,-y,1/2+z
1/2+x,1/2+y,z
1/2-x,1/2+y,1/2-z
1/2-x,1/2-y,-z
1/2+x,1/2-y,1/2+z
loop_
_atom_site_type_symbol
_atom_site_label
_atom_site_fract_x
_atom_site_fract_y
_atom_site_fract_z
Si Si1 0.838853 0.752917 0.565566
Si Si2 0.084516 0.596706 0.375822
Si Si3 0.200871 0.959291 0.139835
Si Si4 0.152889 0.600694 0.922678
Si Si5 0.586327 0.745297 0.874388
Si Si6 0.468569 0.425316 0.480671
O O1 0.750000 0.750000 0.500000
O O2 0.864322 0.677308 0.573661
O O3 0.868544 0.781876 0.329021
O O4 0.877120 0.780778 0.842875
O O5 0.104068 0.571723 0.664205
O O6 0.095489 0.675570 0.397137
O O7 0.000000 0.583374 0.250000
O O8 0.136161 0.573723 0.184955
O O9 0.263832 0.908440 0.110942
O O10 0.118661 0.931452 0.065512
O O11 0.208592 0.986710 0.425323
O O12 0.500000 0.737432 0.750000
O O13 0.500000 0.396389 0.250000
O O14 0.500000 0.500000 0.500000
O O15 0.500000 0.392567 0.750000
#
# Coordination Sequence:
#
# PCOD9254370 Si02
#       6
#     8   8   8   8   8   8
#     4  10  19  33  53  77 108 138 166 212 266 314
#     4   9  17  33  54  74 101 130 172 219 245 293
#     4  12  21  33  53  75 104 133 164 220 257 294
#     4  10  21  33  51  81 103 130 174 211 259 310
#     4   9  17  30  52  80  98 131 180 218 246 291
#     4  10  16  30  49  73  92 120 171 209 240 284
#
# _framework density 24.113679000000001
#
# number of rings (size 3 to 8) (size 9 to 14) (size 15 to 20)
#    0.000    2.000    3.333    2.500    0.000    4.000 
#    0.000    0.000    0.000   13.000    0.000    0.000 
#    0.000    0.000    0.000    0.000    0.000    0.000 
#
# Total GULP energy -134173.857049 kJ/mol
# GULP energy per Si atom -5590.577377 kJ/mol
# Density = 2.405879 g / cm^3
# Si number density = 24.113679 Si / 1000 Ang^3
#
#
#
# Elastic Constant Matrix: (Units=GPa)
#
#
# Indices 1 2 3 4 5 6 
#
# 1 110.6143 -23.6107 44.8451 0.0000 -14.9961 0.0000
# 2 -23.6107 65.5232 -0.0663 0.0000 -11.5220 0.0000
# 3 44.8451 -0.0663 185.0225 0.0000 -10.1490 0.0000
# 4 0.0000 0.0000 0.0000 -11.7960 0.0000 -11.2987
# 5 -14.9961 -11.5220 -10.1490 0.0000 41.5222 0.0000
# 6 0.0000 0.0000 0.0000 -11.2987 0.0000 16.4873
#
#
#
# Elastic Compliance Matrix: (Units=1/GPa)
#
#
# Indices 1 2 3 4 5 6 
#
# 1 0.011891 0.005178 -0.002601 0.000000 0.005096 0.000000
# 2 0.005178 0.018311 -0.000879 0.000000 0.006737 0.000000
# 3 -0.002601 -0.000879 0.006051 0.000000 0.000296 0.000000
# 4 0.000000 0.000000 0.000000 -0.051180 0.000000 -0.035073
# 5 0.005096 0.006737 0.000296 0.000000 0.027865 0.000000
# 6 0.000000 0.000000 0.000000 -0.035073 0.000000 0.036617
#
#
# Mechanical properties :
#
#
# Convention : Reuss Voigt Hill
#
# Bulk Modulus (GPa) = 25.22048 44.83292 35.02670
# Shear Modulus (GPa) = 84.20924 31.90882 58.05903
#
# Velocity S-wave (km/s) = 5.91588 3.64162 4.91218
# Velocity P-wave (km/s) = 7.55944 6.02615 6.83592
#
# Compressibility (1/GPa) = 0.03965032
#
# Stress axis : x y z
#
# Youngs Moduli (GPa) = 84.09776 54.61083 165.26170
#
# Poissons Ratio (x) = -0.28279 0.42980
# Poissons Ratio (y) = -0.43548 0.14527
# Poissons Ratio (z) = 0.21871 0.04800
#
# Static dielectric constant tensor:
#      x y z
#    x 1.868290 0.000000 -0.017700 
#    y 0.000000 1.939570 0.000000 
#    z -0.017700 0.000000 1.971270 
# 
# From -- ./inp_files/8835.got.cif
#   From: 2010.05.17/outbox.cif.g08.bks.cpg/sg15_5_cif.got.tgz:8835.got - 2010.06.03 18:47:42.
