data_PCOD9254293
_publ_section_title
;
Structure prediction by ZEFSAII (Michael W. Deem and Ramdas Pophale) SiO2 
 PCOD9254293
Probable space group: C 2/C
;
_chemical_formula_sum "Si O2"
_cell_formula_units_Z 48
_cell_length_a 23.213209
_cell_length_b 6.825074
_cell_length_c 12.083558
_cell_angle_alpha 90.000000
_cell_angle_beta 108.669400
_cell_angle_gamma 90.000000
_cell_volume 1813.686492
_symmetry_space_group_name_H-M "C 2/C"
_symmetry_group_IT_number 15
_symmetry_cell_setting 'monoclinic'
loop_
_space_group_symop_operation_xyz
x,y,z
-x,y,1/2-z
-x,-y,-z
x,-y,1/2+z
1/2+x,1/2+y,z
1/2-x,1/2+y,1/2-z
1/2-x,1/2-y,-z
1/2+x,1/2-y,1/2+z
loop_
_atom_site_type_symbol
_atom_site_label
_atom_site_fract_x
_atom_site_fract_y
_atom_site_fract_z
Si Si1 0.158998 0.156594 0.756630
Si Si2 0.564218 0.739372 0.544519
Si Si3 0.854854 0.306289 0.105061
Si Si4 0.710489 0.901034 0.246694
Si Si5 0.179471 0.732726 0.492588
Si Si6 0.539093 0.135731 0.665680
O O1 0.094118 0.117247 0.661761
O O2 0.219927 0.062843 0.744799
O O3 0.177936 0.387096 0.743821
O O4 0.152447 0.119486 0.884229
O O5 0.618125 0.713096 0.487823
O O6 0.502450 0.720064 0.435064
O O7 0.555056 0.952607 0.596641
O O8 0.792142 0.293596 0.135262
O O9 0.852570 0.531243 0.061304
O O10 0.901828 0.285132 0.235590
O O11 0.680526 0.785370 0.125071
O O12 0.250000 0.750000 0.500000
O O13 0.500000 0.068628 0.750000
#
# Coordination Sequence:
#
# PCOD9254293 Si02
#       6
#     8   8   8   8   8   8
#     4  10  19  31  47  68  98 131 158 198 236 288
#     4  10  17  28  42  67  95 119 153 201 244 280
#     4  10  16  29  44  65  95 122 157 196 241 283
#     4  10  19  31  46  67  96 133 162 192 237 286
#     4   9  16  27  42  60  91 127 155 186 233 276
#     4   9  17  26  44  65  94 124 153 197 248 281
#
# _framework density 26.465436
#
# number of rings (size 3 to 8) (size 9 to 14) (size 15 to 20)
#    0.000    2.333    5.000    0.000    0.000    0.667 
#    0.000    0.000    0.000    0.000    0.000    1.167 
#    0.000    1.667    0.000    0.167    0.000    0.000 
#
# Total GULP energy -133661.132240 kJ/mol
# GULP energy per Si atom -5569.213843 kJ/mol
# Density = 2.640520 g / cm^3
# Si number density = 26.465436 Si / 1000 Ang^3
#
#
#
# Elastic Constant Matrix: (Units=GPa)
#
#
# Indices 1 2 3 4 5 6 
#
# 1 61.6287 32.0532 35.4431 0.0000 -14.4729 0.0000
# 2 32.0532 65.7324 42.5924 0.0000 -6.7105 0.0000
# 3 35.4431 42.5924 197.1129 0.0000 2.0577 0.0000
# 4 0.0000 0.0000 0.0000 18.8548 0.0000 2.5234
# 5 -14.4729 -6.7105 2.0577 0.0000 62.4302 0.0000
# 6 0.0000 0.0000 0.0000 2.5234 0.0000 22.6830
#
#
#
# Elastic Compliance Matrix: (Units=1/GPa)
#
#
# Indices 1 2 3 4 5 6 
#
# 1 0.023540 -0.009589 -0.002208 0.000000 0.004499 0.000000
# 2 -0.009589 0.021857 -0.003001 0.000000 0.000225 0.000000
# 3 -0.002208 -0.003001 0.006129 0.000000 -0.001036 0.000000
# 4 0.000000 0.000000 0.000000 0.053838 0.000000 -0.005989
# 5 0.004499 0.000225 -0.001036 0.000000 0.017119 0.000000
# 6 0.000000 0.000000 0.000000 -0.005989 0.000000 0.044752
#
#
# Mechanical properties :
#
#
# Convention : Reuss Voigt Hill
#
# Bulk Modulus (GPa) = 45.59830 60.51683 53.05757
# Shear Modulus (GPa) = 24.49292 35.08596 29.78944
#
# Velocity S-wave (km/s) = 3.04545 3.64500 3.35863
# Velocity P-wave (km/s) = 5.44363 6.37423 5.92722
#
# Compressibility (1/GPa) = 0.02193064
#
# Stress axis : x y z
#
# Youngs Moduli (GPa) = 42.48157 45.75286 163.14626
#
# Poissons Ratio (x) = 0.43872 0.36017
# Poissons Ratio (y) = 0.40735 0.48960
# Poissons Ratio (z) = 0.09379 0.13730
#
# Static dielectric constant tensor:
#      x y z
#    x 2.126030 0.000000 -0.007470 
#    y 0.000000 2.202940 0.000000 
#    z -0.007470 0.000000 2.111520 
# 
# From -- ./inp_files/110672.got.cif
#   From: 2010.05.17/outbox.cif.g08.bks.cpg/sg15_56_cif.got.tgz:110672.got - 2010.06.03 18:47:42.
