data_PCOD9254300
_publ_section_title
;
Structure prediction by ZEFSAII (Michael W. Deem and Ramdas Pophale) SiO2 
 PCOD9254300
Probable space group: C 2/C
;
_chemical_formula_sum "Si O2"
_cell_formula_units_Z 64
_cell_length_a 24.373271
_cell_length_b 11.273185
_cell_length_c 15.852787
_cell_angle_alpha 90.000000
_cell_angle_beta 34.844844
_cell_angle_gamma 90.000000
_cell_volume 2488.702212
_symmetry_space_group_name_H-M "C 2/C"
_symmetry_group_IT_number 15
_symmetry_cell_setting 'monoclinic'
loop_
_space_group_symop_operation_xyz
x,y,z
-x,y,1/2-z
-x,-y,-z
x,-y,1/2+z
1/2+x,1/2+y,z
1/2-x,1/2+y,1/2-z
1/2-x,1/2-y,-z
1/2+x,1/2-y,1/2+z
loop_
_atom_site_type_symbol
_atom_site_label
_atom_site_fract_x
_atom_site_fract_y
_atom_site_fract_z
Si Si1 0.808063 0.523482 0.471567
Si Si2 0.779645 0.196540 0.814618
Si Si3 0.602831 0.525170 0.956573
Si Si4 0.300439 0.963589 0.791615
Si Si5 0.060320 0.516050 0.037181
Si Si6 0.408141 0.252984 0.561072
Si Si7 0.453009 0.756191 0.400793
Si Si8 0.762642 0.786680 0.887422
O O1 0.751451 0.643926 0.556773
O O2 0.827222 0.492623 0.351174
O O3 0.899720 0.526096 0.417688
O O4 0.739835 0.427195 0.601226
O O5 0.844656 0.101509 0.683196
O O6 0.822340 0.325072 0.766321
O O7 0.681516 0.226351 0.888030
O O8 0.689075 0.495633 0.914349
O O9 0.563116 0.392705 0.985332
O O10 0.529177 0.624706 0.084500
O O11 0.357432 0.007611 0.638407
O O12 0.020304 0.380473 0.087074
O O13 0.020660 0.645899 0.058252
O O14 0.354908 0.245655 0.719341
O O15 0.500000 0.761829 0.250000
O O16 0.336444 0.758416 0.536836
O O17 0.750000 0.750000 0.000000
#
# Coordination Sequence:
#
# PCOD9254300 Si02
#       8
#     8   8   8   8   8   8   8   8
#     4  10  18  27  46  81 112 138 175 228 284 335
#     4  10  16  29  46  78 118 136 178 224 285 335
#     4  11  17  33  52  78 110 148 183 228 284 334
#     4  11  18  29  53  79 115 142 177 236 292 321
#     4  10  19  35  51  78 111 143 187 232 278 334
#     4  10  18  31  56  80 109 144 177 242 288 318
#     4  11  22  37  57  79 110 154 190 224 280 351
#     4  11  19  31  54  86 112 137 187 240 282 330
#
# _framework density 25.716214000000001
#
# number of rings (size 3 to 8) (size 9 to 14) (size 15 to 20)
#    0.000    1.500    6.250    3.375    0.000    0.000 
#    0.000    0.625    0.000    7.500    0.000    0.000 
#    0.000    0.000    0.000    0.000    0.000    0.000 
#
# Total GULP energy -178584.795770 kJ/mol
# GULP energy per Si atom -5580.774868 kJ/mol
# Density = 2.565768 g / cm^3
# Si number density = 25.716214 Si / 1000 Ang^3
#
#
#
# Elastic Constant Matrix: (Units=GPa)
#
#
# Indices 1 2 3 4 5 6 
#
# 1 111.4187 26.3572 37.7730 0.0000 4.8350 0.0000
# 2 26.3572 255.3606 62.0609 0.0000 -0.3706 0.0000
# 3 37.7730 62.0609 95.8220 0.0000 20.4542 0.0000
# 4 0.0000 0.0000 0.0000 47.5499 0.0000 19.2752
# 5 4.8350 -0.3706 20.4542 0.0000 34.8428 0.0000
# 6 0.0000 0.0000 0.0000 19.2752 0.0000 6.8427
#
#
#
# Elastic Compliance Matrix: (Units=1/GPa)
#
#
# Indices 1 2 3 4 5 6 
#
# 1 0.010397 -0.000022 -0.004317 0.000000 0.001091 0.000000
# 2 -0.000022 0.004783 -0.003545 0.000000 0.002135 0.000000
# 3 -0.004317 -0.003545 0.016364 0.000000 -0.009045 0.000000
# 4 0.000000 0.000000 0.000000 -0.148234 0.000000 0.417558
# 5 0.001091 0.002135 -0.009045 0.000000 0.033882 0.000000
# 6 0.000000 0.000000 0.000000 0.417558 0.000000 -1.030072
#
#
# Mechanical properties :
#
#
# Convention : Reuss Voigt Hill
#
# Bulk Modulus (GPa) = 63.38676 79.44262 71.41469
# Shear Modulus (GPa) = -4.57937 40.27442 17.84753
#
# Velocity S-wave (km/s) = -1.33589 3.96170 2.63728
# Velocity P-wave (km/s) = 4.72468 7.20319 6.09133
#
# Compressibility (1/GPa) = 0.01577617
#
# Stress axis : x y z
#
# Youngs Moduli (GPa) = 96.18566 209.07850 61.10901
#
# Poissons Ratio (x) = 0.00468 0.26379
# Poissons Ratio (y) = 0.00215 0.21661
# Poissons Ratio (z) = 0.41521 0.74110
#
# Static dielectric constant tensor:
#      x y z
#    x 2.071540 0.000000 -0.029810 
#    y 0.000000 2.156070 0.000000 
#    z -0.029810 0.000000 1.978630 
# 
# From -- ./inp_files/181758.got.cif
#   From: 2010.05.17/outbox.cif.g08.bks.cpg/sg15_91_cif.got.tgz:181758.got - 2010.06.03 18:47:42.
