data_PCOD9254984
_publ_section_title
;
Structure prediction by ZEFSAII (Michael W. Deem and Ramdas Pophale) SiO2 
 PCOD9254984
Probable space group: C 2/C
;
_chemical_formula_sum "Si O2"
_cell_formula_units_Z 60
_cell_length_a 20.947166
_cell_length_b 9.600978
_cell_length_c 11.209385
_cell_angle_alpha 90.000000
_cell_angle_beta 92.430310
_cell_angle_gamma 90.000000
_cell_volume 2252.328475
_symmetry_space_group_name_H-M "C 2/C"
_symmetry_group_IT_number 15
_symmetry_cell_setting 'monoclinic'
loop_
_space_group_symop_operation_xyz
x,y,z
-x,y,1/2-z
-x,-y,-z
x,-y,1/2+z
1/2+x,1/2+y,z
1/2-x,1/2+y,1/2-z
1/2-x,1/2-y,-z
1/2+x,1/2-y,1/2+z
loop_
_atom_site_type_symbol
_atom_site_label
_atom_site_fract_x
_atom_site_fract_y
_atom_site_fract_z
Si Si1 0.998204 0.165158 0.008142
Si Si2 0.138133 0.701914 0.931667
Si Si3 0.217462 0.974941 0.933594
Si Si4 0.198363 0.019788 0.685923
Si Si5 0.112780 0.260712 0.170571
Si Si6 0.138349 0.321993 0.689125
Si Si7 0.178130 0.738249 0.446478
Si Si8 0.000000 0.294092 0.750000
O O1 0.017987 0.215912 0.875732
O O2 0.042749 0.216894 0.120661
O O3 0.928305 0.224555 0.032901
O O4 0.000000 0.000000 0.000000
O O5 0.191458 0.820008 0.917618
O O6 0.122042 0.655479 0.794479
O O7 0.157217 0.625676 0.058194
O O8 0.242435 0.022066 0.806834
O O9 0.160829 0.095504 0.935063
O O10 0.240664 0.975923 0.070680
O O11 0.151801 0.153616 0.675045
O O12 0.154567 0.882061 0.687334
O O13 0.139182 0.327914 0.050721
O O14 0.172905 0.334128 0.819347
O O15 0.065649 0.364826 0.712959
O O16 0.250000 0.750000 0.500000
#
# Coordination Sequence:
#
# PCOD9254984 Si02
#       8
#     8   8   8   8   8   8   8   4
#     4  11  19  22  34  55  82 107 129 159 203 240
#     4   9  18  26  40  56  77 102 123 172 212 237
#     4   8  14  25  35  51  69  92 126 157 196 232
#     4   8  14  22  34  47  70  93 116 159 189 225
#     4  10  17  27  36  53  75  99 138 167 196 236
#     4   9  16  28  36  53  73  97 131 160 201 235
#     4  10  18  28  40  50  70 104 140 173 192 227
#     4  10  18  24  34  50  76 104 124 164 200 226
#
# _framework density 26.639097
#
# number of rings (size 3 to 8) (size 9 to 14) (size 15 to 20)
#    0.000    2.667    1.333    3.600    5.600    0.000 
#    0.000    0.667    0.000    0.000    0.000    0.000 
#    0.000    0.000    0.000    0.000    0.000   48.000 
#
# Total GULP energy -167221.249658 kJ/mol
# GULP energy per Si atom -5574.041655 kJ/mol
# Density = 2.657847 g / cm^3
# Si number density = 26.639097 Si / 1000 Ang^3
#
#
#
# Elastic Constant Matrix: (Units=GPa)
#
#
# Indices 1 2 3 4 5 6 
#
# 1 70.3760 0.6127 41.0898 0.0000 15.0271 0.0000
# 2 0.6127 96.4094 13.2813 0.0000 8.1528 0.0000
# 3 41.0898 13.2813 321.0817 0.0000 21.1282 0.0000
# 4 0.0000 0.0000 0.0000 2.8927 0.0000 6.2303
# 5 15.0271 8.1528 21.1282 0.0000 61.0751 0.0000
# 6 0.0000 0.0000 0.0000 6.2303 0.0000 11.0439
#
#
#
# Elastic Compliance Matrix: (Units=1/GPa)
#
#
# Indices 1 2 3 4 5 6 
#
# 1 0.015999 0.000436 -0.001845 0.000000 -0.003357 0.000000
# 2 0.000436 0.010541 -0.000401 0.000000 -0.001376 0.000000
# 3 -0.001845 -0.000401 0.003411 0.000000 -0.000673 0.000000
# 4 0.000000 0.000000 0.000000 -1.607606 0.000000 0.906912
# 5 -0.003357 -0.001376 -0.000673 0.000000 0.017615 0.000000
# 6 0.000000 0.000000 0.000000 0.906912 0.000000 -0.421076
#
#
# Mechanical properties :
#
#
# Convention : Reuss Voigt Hill
#
# Bulk Modulus (GPa) = 37.97575 66.42609 52.20092
# Shear Modulus (GPa) = -2.53972 43.86124 20.66076
#
# Velocity S-wave (km/s) = -0.97747 4.06211 2.78795
# Velocity P-wave (km/s) = 3.60731 6.85497 5.47738
#
# Compressibility (1/GPa) = 0.02633259
#
# Stress axis : x y z
#
# Youngs Moduli (GPa) = 62.50253 94.86520 293.13432
#
# Poissons Ratio (x) = -0.04139 0.54073
# Poissons Ratio (y) = -0.02727 0.11765
# Poissons Ratio (z) = 0.11530 0.03807
#
# Static dielectric constant tensor:
#      x y z
#    x 2.146670 0.000000 0.018430 
#    y 0.000000 2.239730 0.000000 
#    z 0.018430 0.000000 2.164310 
# 
# From -- ./inp_files/112392.got.cif
#   From: 2010.05.17/outbox.cif.g08.bks.cpg/sg15_57_cif.got.tgz:112392.got - 2010.06.03 18:47:42.
