data_PCOD9254949
_publ_section_title
;
Structure prediction by ZEFSAII (Michael W. Deem and Ramdas Pophale) SiO2 
 PCOD9254949
Probable space group: C 2/C
;
_chemical_formula_sum "Si O2"
_cell_formula_units_Z 36
_cell_length_a 8.709186
_cell_length_b 12.565253
_cell_length_c 14.372924
_cell_angle_alpha 90.000000
_cell_angle_beta 56.703333
_cell_angle_gamma 90.000000
_cell_volume 1314.669896
_symmetry_space_group_name_H-M "C 2/C"
_symmetry_group_IT_number 15
_symmetry_cell_setting 'monoclinic'
loop_
_space_group_symop_operation_xyz
x,y,z
-x,y,1/2-z
-x,-y,-z
x,-y,1/2+z
1/2+x,1/2+y,z
1/2-x,1/2+y,1/2-z
1/2-x,1/2-y,-z
1/2+x,1/2-y,1/2+z
loop_
_atom_site_type_symbol
_atom_site_label
_atom_site_fract_x
_atom_site_fract_y
_atom_site_fract_z
Si Si1 0.709009 0.952780 0.198561
Si Si2 0.936917 0.333520 0.969429
Si Si3 0.412531 0.334687 0.966764
Si Si4 0.782639 0.006065 0.378045
Si Si5 0.500000 0.162882 0.250000
O O1 0.500000 0.906075 0.250000
O O2 0.839310 0.903751 0.077945
O O3 0.783391 0.945053 0.279069
O O4 0.667847 0.078010 0.199311
O O5 0.930345 0.244401 0.050339
O O6 0.108486 0.413681 0.928244
O O7 0.979005 0.282089 0.855565
O O8 0.768302 0.414351 0.031681
O O9 0.250000 0.250000 0.000000
O O10 0.432374 0.414689 0.873314
#
# Coordination Sequence:
#
# PCOD9254949 Si02
#       5
#     8   8   8   8   4
#     4   9  15  25  43  62 101 138 158 204 268 294
#     4   9  15  25  44  69 103 132 172 211 257 312
#     4  10  17  25  43  75 104 128 178 215 247 321
#     4   9  15  27  41  68 103 137 160 217 267 292
#     4   8  14  26  44  64 100 138 160 204 264 298
#
# _framework density 27.383299000000001
#
# number of rings (size 3 to 8) (size 9 to 14) (size 15 to 20)
#    0.667    2.222    2.222    2.667    0.000    0.000 
#    0.000    0.000    0.000    1.333    0.000    1.556 
#   30.000    3.556    0.000    0.000    0.000    0.000 
#
# Total GULP energy -100569.581034 kJ/mol
# GULP energy per Si atom -5587.198946 kJ/mol
# Density = 2.732097 g / cm^3
# Si number density = 27.383299 Si / 1000 Ang^3
#
#
#
# Elastic Constant Matrix: (Units=GPa)
#
#
# Indices 1 2 3 4 5 6 
#
# 1 86.5367 55.0509 35.9356 0.0000 10.1757 0.0000
# 2 55.0509 111.1036 63.9657 0.0000 11.3702 0.0000
# 3 35.9356 63.9657 145.3773 0.0000 53.2833 0.0000
# 4 0.0000 0.0000 0.0000 58.5916 0.0000 9.7457
# 5 10.1757 11.3702 53.2833 0.0000 41.8389 0.0000
# 6 0.0000 0.0000 0.0000 9.7457 0.0000 50.3279
#
#
#
# Elastic Compliance Matrix: (Units=1/GPa)
#
#
# Indices 1 2 3 4 5 6 
#
# 1 0.017026 -0.008381 0.000303 0.000000 -0.002250 0.000000
# 2 -0.008381 0.017210 -0.008502 0.000000 0.008189 0.000000
# 3 0.000303 -0.008502 0.018238 0.000000 -0.020990 0.000000
# 4 0.000000 0.000000 0.000000 0.017635 0.000000 -0.003415
# 5 -0.002250 0.008189 -0.020990 0.000000 0.048954 0.000000
# 6 0.000000 0.000000 0.000000 -0.003415 0.000000 0.020531
#
#
# Mechanical properties :
#
#
# Convention : Reuss Voigt Hill
#
# Bulk Modulus (GPa) = 51.77424 72.54689 62.16057
# Shear Modulus (GPa) = 27.90329 42.68937 35.29633
#
# Velocity S-wave (km/s) = 3.19562 3.95265 3.59412
# Velocity P-wave (km/s) = 5.70651 6.88345 6.32243
#
# Compressibility (1/GPa) = 0.01931462
#
# Stress axis : x y z
#
# Youngs Moduli (GPa) = 58.73486 58.10565 54.83164
#
# Poissons Ratio (x) = 0.48696 -0.01664
# Poissons Ratio (y) = 0.49223 0.46619
# Poissons Ratio (z) = -0.01782 0.49403
#
# Static dielectric constant tensor:
#      x y z
#    x 2.253250 0.000000 -0.001600 
#    y 0.000000 2.021070 0.000000 
#    z -0.001600 0.000000 2.118250 
# 
# From -- ./inp_files/141669.got.cif
#   From: 2010.05.17/outbox.cif.g08.bks.cpg/sg15_71_cif.got.tgz:141669.got - 2010.06.03 18:47:42.
