data_PCOD9254560
_publ_section_title
;
Structure prediction by ZEFSAII (Michael W. Deem and Ramdas Pophale) SiO2 
 PCOD9254560
Probable space group: C 2/C
;
_chemical_formula_sum "Si O2"
_cell_formula_units_Z 44
_cell_length_a 19.253260
_cell_length_b 21.862721
_cell_length_c 12.919193
_cell_angle_alpha 90.000000
_cell_angle_beta 28.494816
_cell_angle_gamma 90.000000
_cell_volume 2594.384838
_symmetry_space_group_name_H-M "C 2/C"
_symmetry_group_IT_number 15
_symmetry_cell_setting 'monoclinic'
loop_
_space_group_symop_operation_xyz
x,y,z
-x,y,1/2-z
-x,-y,-z
x,-y,1/2+z
1/2+x,1/2+y,z
1/2-x,1/2+y,1/2-z
1/2-x,1/2-y,-z
1/2+x,1/2-y,1/2+z
loop_
_atom_site_type_symbol
_atom_site_label
_atom_site_fract_x
_atom_site_fract_y
_atom_site_fract_z
Si Si1 0.848727 0.987969 0.757362
Si Si2 0.491001 0.703632 0.635618
Si Si3 0.220991 0.109134 0.312152
Si Si4 0.278349 0.120192 0.578582
Si Si5 0.036585 0.655997 0.366183
Si Si6 0.500000 0.530269 0.750000
O O1 0.752900 0.048655 0.871221
O O2 0.899164 0.988256 0.809956
O O3 0.778838 0.930073 0.792823
O O4 0.000000 0.000000 0.500000
O O5 0.500000 0.707268 0.750000
O O6 0.643276 0.674593 0.401180
O O7 0.368966 0.657225 0.752444
O O8 0.454521 0.770683 0.641611
O O9 0.379410 0.121434 0.152418
O O10 0.111355 0.072873 0.536660
O O11 0.369523 0.140655 0.559186
O O12 0.373960 0.134877 0.352415
#
# Coordination Sequence:
#
# PCOD9254560 Si02
#       6
#     8   8   8   8   8   4
#     4  10  19  32  51  68  98 136 176 207 241 296
#     4  12  17  30  48  73 106 140 162 189 248 318
#     4  11  19  32  50  73 102 136 168 206 244 299
#     4  11  19  30  45  72 103 139 167 194 247 304
#     4  11  21  28  47  75 107 134 160 203 259 300
#     4  10  16  32  50  70  94 130 172 204 240 298
#
# _framework density 16.959705
#
# number of rings (size 3 to 8) (size 9 to 14) (size 15 to 20)
#    0.000    1.091   10.000    1.636    0.000    0.727 
#    0.000    0.000    0.000    0.000    0.000    1.273 
#    0.000    0.000    0.000    0.000    0.000    0.000 
#
# Total GULP energy -122555.155875 kJ/mol
# GULP energy per Si atom -5570.688903 kJ/mol
# Density = 1.692110 g / cm^3
# Si number density = 16.959705 Si / 1000 Ang^3
#
#
#
# Elastic Constant Matrix: (Units=GPa)
#
#
# Indices 1 2 3 4 5 6 
#
# 1 117.9148 54.8654 15.9610 0.0082 -31.3652 -0.0087
# 2 54.8654 100.4247 6.6467 0.0037 2.1009 0.0000
# 3 15.9610 6.6467 10.4089 0.0027 -6.9170 0.0044
# 4 0.0082 0.0037 0.0027 30.8696 -0.0038 -10.3423
# 5 -31.3652 2.1009 -6.9170 -0.0038 24.7663 -0.0013
# 6 -0.0087 0.0000 0.0044 -10.3423 -0.0013 11.6119
#
#
#
# Elastic Compliance Matrix: (Units=1/GPa)
#
#
# Indices 1 2 3 4 5 6 
#
# 1 0.022721 -0.012410 -0.008712 0.000011 0.027395 0.000033
# 2 -0.012410 0.017408 -0.004312 -0.000006 -0.018398 -0.000015
# 3 -0.008712 -0.004312 0.129046 -0.000033 0.025375 -0.000081
# 4 0.000011 -0.000006 -0.000033 0.046172 0.000014 0.041124
# 5 0.027395 -0.018398 0.025375 0.000014 0.083719 0.000033
# 6 0.000033 -0.000015 -0.000081 0.041124 0.000033 0.122746
#
#
# Mechanical properties :
#
#
# Convention : Reuss Voigt Hill
#
# Bulk Modulus (GPa) = 8.45258 42.63275 25.54266
# Shear Modulus (GPa) = 9.76343 23.53458 16.64901
#
# Velocity S-wave (km/s) = 2.40194 3.72919 3.13658
# Velocity P-wave (km/s) = 3.56191 6.61323 5.31140
#
# Compressibility (1/GPa) = 0.11830711
#
# Stress axis : x y z
#
# Youngs Moduli (GPa) = 44.01185 57.44497 7.74919
#
# Poissons Ratio (x) = 0.71288 0.06751
# Poissons Ratio (y) = 0.54618 0.03342
# Poissons Ratio (z) = 0.38341 0.24773
#
# Static dielectric constant tensor:
#      x y z
#    x 1.649140 0.000000 -0.035820 
#    y 0.000000 1.582340 0.000000 
#    z -0.035820 0.000000 1.586550 
# 
# From -- ./inp_files/88730.got.cif
#   From: 2010.05.17/outbox.cif.g08.bks.cpg/sg15_45_cif.got.tgz:88730.got - 2010.06.03 18:47:42.
