data_PCOD9254798
_publ_section_title
;
Structure prediction by ZEFSAII (Michael W. Deem and Ramdas Pophale) SiO2 
 PCOD9254798
Probable space group: C 2/C
;
_chemical_formula_sum "Si O2"
_cell_formula_units_Z 52
_cell_length_a 16.854088
_cell_length_b 6.781975
_cell_length_c 25.040968
_cell_angle_alpha 90.000000
_cell_angle_beta 122.268290
_cell_angle_gamma 90.000000
_cell_volume 2420.224589
_symmetry_space_group_name_H-M "C 2/C"
_symmetry_group_IT_number 15
_symmetry_cell_setting 'monoclinic'
loop_
_space_group_symop_operation_xyz
x,y,z
-x,y,1/2-z
-x,-y,-z
x,-y,1/2+z
1/2+x,1/2+y,z
1/2-x,1/2+y,1/2-z
1/2-x,1/2-y,-z
1/2+x,1/2-y,1/2+z
loop_
_atom_site_type_symbol
_atom_site_label
_atom_site_fract_x
_atom_site_fract_y
_atom_site_fract_z
Si Si1 0.901893 0.114415 0.956658
Si Si2 0.719751 0.874094 0.911077
Si Si3 0.097976 0.448009 0.761868
Si Si4 0.408094 0.120070 0.556846
Si Si5 0.104011 0.019284 0.880389
Si Si6 0.939950 0.693224 0.361924
Si Si7 0.000000 0.825961 0.750000
O O1 0.890335 0.195312 0.892514
O O2 0.823485 0.956253 0.944678
O O3 0.896222 0.306642 0.992411
O O4 0.000000 0.000000 0.000000
O O5 0.669048 0.932131 0.836617
O O6 0.699649 0.642780 0.911436
O O7 0.668207 0.981732 0.941890
O O8 0.119618 0.350386 0.712945
O O9 0.065436 0.674283 0.740142
O O10 0.000000 0.361006 0.750000
O O11 0.397643 0.323696 0.585419
O O12 0.507104 0.006852 0.600135
O O13 0.025277 0.165143 0.874967
O O14 0.069504 0.951137 0.810319
#
# Coordination Sequence:
#
# PCOD9254798 Si02
#       7
#     8   8   8   8   8   8   4
#     4  12  27  46  64  97 148 186 226 279 350 418
#     4  11  24  43  69 104 131 176 239 282 337 411
#     4  10  17  39  71  98 131 166 231 288 342 408
#     4  11  21  44  69  98 125 186 228 279 335 408
#     4  11  18  36  71  98 128 170 225 281 336 404
#     4  11  22  42  67  98 140 180 220 285 359 408
#     4  10  16  34  70 106 128 160 222 292 348 396
#
# _framework density 21.485609
#
# number of rings (size 3 to 8) (size 9 to 14) (size 15 to 20)
#    0.462    0.615    7.692    1.846    0.000    0.615 
#    5.538    3.077    0.000    0.000    0.000    0.000 
#    0.000    0.000    0.000    0.000    0.000    0.000 
#
# Total GULP energy -145180.474399 kJ/mol
# GULP energy per Si atom -5583.864400 kJ/mol
# Density = 2.143671 g / cm^3
# Si number density = 21.485609 Si / 1000 Ang^3
#
#
#
# Elastic Constant Matrix: (Units=GPa)
#
#
# Indices 1 2 3 4 5 6 
#
# 1 48.7185 6.2809 13.5359 0.0000 -9.7618 0.0000
# 2 6.2809 98.8260 7.4818 0.0000 -9.5496 0.0000
# 3 13.5359 7.4818 81.3968 0.0000 -21.1618 0.0000
# 4 0.0000 0.0000 0.0000 37.1764 0.0000 -4.8121
# 5 -9.7618 -9.5496 -21.1618 0.0000 37.6660 0.0000
# 6 0.0000 0.0000 0.0000 -4.8121 0.0000 21.4348
#
#
#
# Elastic Compliance Matrix: (Units=1/GPa)
#
#
# Indices 1 2 3 4 5 6 
#
# 1 0.022161 -0.000819 -0.002542 0.000000 0.004108 0.000000
# 2 -0.000819 0.010410 -0.000222 0.000000 0.002302 0.000000
# 3 -0.002542 -0.000222 0.014688 0.000000 0.007537 0.000000
# 4 0.000000 0.000000 0.000000 0.027704 0.000000 0.006219
# 5 0.004108 0.002302 0.007537 0.000000 0.032432 0.000000
# 6 0.000000 0.000000 0.000000 0.006219 0.000000 0.048049
#
#
# Mechanical properties :
#
#
# Convention : Reuss Voigt Hill
#
# Bulk Modulus (GPa) = 24.94221 31.50429 28.22325
# Shear Modulus (GPa) = 28.41308 32.69827 30.55568
#
# Velocity S-wave (km/s) = 3.64046 3.90535 3.77523
# Velocity P-wave (km/s) = 5.41337 5.91865 5.67164
#
# Compressibility (1/GPa) = 0.04009268
#
# Stress axis : x y z
#
# Youngs Moduli (GPa) = 45.12434 96.06027 68.08200
#
# Poissons Ratio (x) = 0.07868 0.17307
# Poissons Ratio (y) = 0.03696 0.01512
# Poissons Ratio (z) = 0.11471 0.02134
#
# Static dielectric constant tensor:
#      x y z
#    x 1.767320 0.000000 -0.022050 
#    y 0.000000 1.814210 0.000000 
#    z -0.022050 0.000000 1.842790 
# 
# From -- ./inp_files/297848.got.cif
#   From: 2010.05.17/outbox.cif.g08.bks.cpg/sg15_149_cif.got.tgz:297848.got - 2010.06.03 18:47:42.
