data_PCOD9254942
_publ_section_title
;
Structure prediction by ZEFSAII (Michael W. Deem and Ramdas Pophale) SiO2 
 PCOD9254942
Probable space group: C 2/C
;
_chemical_formula_sum "Si O2"
_cell_formula_units_Z 64
_cell_length_a 22.457706
_cell_length_b 5.686504
_cell_length_c 23.077376
_cell_angle_alpha 90.000000
_cell_angle_beta 109.430285
_cell_angle_gamma 90.000000
_cell_volume 2779.268365
_symmetry_space_group_name_H-M "C 2/C"
_symmetry_group_IT_number 15
_symmetry_cell_setting 'monoclinic'
loop_
_space_group_symop_operation_xyz
x,y,z
-x,y,1/2-z
-x,-y,-z
x,-y,1/2+z
1/2+x,1/2+y,z
1/2-x,1/2+y,1/2-z
1/2-x,1/2-y,-z
1/2+x,1/2-y,1/2+z
loop_
_atom_site_type_symbol
_atom_site_label
_atom_site_fract_x
_atom_site_fract_y
_atom_site_fract_z
Si Si1 0.683386 0.842106 0.957046
Si Si2 0.410611 0.105187 0.508049
Si Si3 0.218505 0.478924 0.636603
Si Si4 0.342313 0.975728 0.758077
Si Si5 0.570842 0.489180 0.887942
Si Si6 0.130486 0.025427 0.283519
Si Si7 0.753998 0.019073 0.373520
Si Si8 0.988171 0.193086 0.946148
O O1 0.630586 0.646096 0.928524
O O2 0.696492 0.967698 0.900338
O O3 0.657329 0.015896 0.996492
O O4 0.750000 0.750000 0.000000
O O5 0.427550 0.267041 0.568774
O O6 0.422197 0.206073 0.447593
O O7 0.458962 0.889500 0.526753
O O8 0.179275 0.467323 0.683011
O O9 0.295536 0.483082 0.671838
O O10 0.206427 0.741426 0.608139
O O11 0.211526 0.224396 0.605049
O O12 0.376509 0.730505 0.750157
O O13 0.276913 0.981855 0.699962
O O14 0.375057 0.228110 0.753846
O O15 0.584621 0.456203 0.824727
O O16 0.504327 0.605987 0.886873
O O17 0.000000 0.000000 0.000000
#
# Coordination Sequence:
#
# PCOD9254942 Si02
#       8
#     8   8   8   8   8   8   8   8
#     4  11  22  32  44  65  96 138 182 212 240 282
#     4   9  17  31  47  63  88 120 168 207 250 293
#     4  10  17  28  45  61  85 120 165 196 242 292
#     4  10  17  27  43  64  86 121 160 193 242 297
#     4  10  18  30  46  67  91 127 168 204 247 299
#     4  10  17  25  41  63  93 116 154 193 231 292
#     4  10  18  30  42  62  87 122 167 207 232 280
#     4   8  16  29  48  67  84 114 163 203 256 301
#
# _framework density 23.027643999999999
#
# number of rings (size 3 to 8) (size 9 to 14) (size 15 to 20)
#    0.000    2.250    2.500    5.250    1.750    0.500 
#    0.000    0.000    0.000    0.000    0.000    0.000 
#    0.000    0.000    0.000    1.125   40.750    9.125 
#
# Total GULP energy -178323.666546 kJ/mol
# GULP energy per Si atom -5572.614580 kJ/mol
# Density = 2.297523 g / cm^3
# Si number density = 23.027644 Si / 1000 Ang^3
#
#
#
# Elastic Constant Matrix: (Units=GPa)
#
#
# Indices 1 2 3 4 5 6 
#
# 1 88.2958 44.7897 43.2259 0.0000 -51.4757 0.0000
# 2 44.7897 200.6520 52.9964 0.0003 -36.7295 -0.0003
# 3 43.2259 52.9964 62.2099 0.0000 -43.8544 0.0000
# 4 0.0000 0.0003 0.0000 26.0265 0.0000 -24.9566
# 5 -51.4757 -36.7295 -43.8544 0.0000 55.4326 0.0000
# 6 0.0000 -0.0003 0.0000 -24.9566 0.0000 42.6503
#
#
#
# Elastic Compliance Matrix: (Units=1/GPa)
#
#
# Indices 1 2 3 4 5 6 
#
# 1 0.025125 -0.001374 -0.001089 0.000000 0.021559 0.000000
# 2 -0.001374 0.006507 -0.005536 0.000000 -0.001345 0.000000
# 3 -0.001089 -0.005536 0.041258 0.000000 0.027962 0.000000
# 4 0.000000 0.000000 0.000000 0.087540 0.000000 0.051224
# 5 0.021559 -0.001345 0.027962 0.000000 0.059291 0.000000
# 6 0.000000 0.000000 0.000000 0.051224 0.000000 0.053420
#
#
# Mechanical properties :
#
#
# Convention : Reuss Voigt Hill
#
# Bulk Modulus (GPa) = 17.57728 70.35353 43.96541
# Shear Modulus (GPa) = 16.22840 38.83159 27.52999
#
# Velocity S-wave (km/s) = 2.65757 4.11092 3.46138
# Velocity P-wave (km/s) = 4.13117 7.29047 5.92526
#
# Compressibility (1/GPa) = 0.05689163
#
# Stress axis : x y z
#
# Youngs Moduli (GPa) = 39.80175 153.69186 24.23747
#
# Poissons Ratio (x) = 0.21122 0.02639
# Poissons Ratio (y) = 0.05470 0.13417
# Poissons Ratio (z) = 0.04334 0.85080
#
# Static dielectric constant tensor:
#      x y z
#    x 1.917420 0.000000 0.078360 
#    y 0.000000 1.973730 0.000000 
#    z 0.078360 0.000000 2.027760 
# 
# From -- ./inp_files/299938.got.cif
#   From: 2010.05.17/outbox.cif.g08.bks.cpg/sg15_150_cif.got.tgz:299938.got - 2010.06.03 18:47:42.
