data_PCOD9254078
_publ_section_title
;
Structure prediction by ZEFSAII (Michael W. Deem and Ramdas Pophale) SiO2 
 PCOD9254078
Probable space group: C 2/C
;
_chemical_formula_sum "Si O2"
_cell_formula_units_Z 52
_cell_length_a 17.828072
_cell_length_b 11.742294
_cell_length_c 11.912292
_cell_angle_alpha 90.000000
_cell_angle_beta 50.987893
_cell_angle_gamma 90.000000
_cell_volume 1937.674950
_symmetry_space_group_name_H-M "C 2/C"
_symmetry_group_IT_number 15
_symmetry_cell_setting 'monoclinic'
loop_
_space_group_symop_operation_xyz
x,y,z
-x,y,1/2-z
-x,-y,-z
x,-y,1/2+z
1/2+x,1/2+y,z
1/2-x,1/2+y,1/2-z
1/2-x,1/2-y,-z
1/2+x,1/2-y,1/2+z
loop_
_atom_site_type_symbol
_atom_site_label
_atom_site_fract_x
_atom_site_fract_y
_atom_site_fract_z
Si Si1 0.664959 0.585751 0.712133
Si Si2 0.842621 0.540973 0.130602
Si Si3 0.500000 0.131973 0.250000
Si Si4 0.019363 0.675051 0.979591
Si Si5 0.688308 0.314052 0.434213
Si Si6 0.122933 0.159222 0.224007
Si Si7 0.781373 0.444256 0.924758
O O1 0.769121 0.517707 0.615560
O O2 0.657832 0.650524 0.835705
O O3 0.599617 0.475118 0.761326
O O4 0.694710 0.634810 0.563165
O O5 0.909016 0.432685 0.102948
O O6 0.787195 0.594269 0.287721
O O7 0.919230 0.633325 0.020297
O O8 0.497093 0.196007 0.372126
O O9 0.602672 0.065935 0.156002
O O10 0.063812 0.778829 0.874858
O O11 0.768077 0.213590 0.358680
O O12 0.608923 0.306424 0.607707
O O13 0.744296 0.426868 0.431867
#
# Coordination Sequence:
#
# PCOD9254078 Si02
#       7
#     8   8   4   8   8   8   8
#     4  10  17  29  47  73 107 133 166 204 255 298
#     4   9  17  28  45  72 111 127 155 206 256 303
#     4  10  16  24  48  72 102 138 152 200 262 310
#     4  10  17  29  46  74 104 133 163 198 260 307
#     4   9  18  30  43  70 104 133 170 204 250 298
#     4  10  18  29  50  71 103 138 166 209 248 310
#     4   9  15  24  43  67 100 135 155 192 252 306
#
# _framework density 26.836288
#
# number of rings (size 3 to 8) (size 9 to 14) (size 15 to 20)
#    0.000    2.462    4.615    0.000    0.000    0.000 
#    0.000    0.000    0.000   33.231    0.000    4.308 
#    0.000    0.000    0.000    0.000    0.000    0.000 
#
# Total GULP energy -144981.381652 kJ/mol
# GULP energy per Si atom -5576.206987 kJ/mol
# Density = 2.677521 g / cm^3
# Si number density = 26.836288 Si / 1000 Ang^3
#
#
#
# Elastic Constant Matrix: (Units=GPa)
#
#
# Indices 1 2 3 4 5 6 
#
# 1 54.2989 -2.4387 0.1741 0.0000 4.7498 0.0000
# 2 -2.4387 79.8139 40.7846 0.0000 30.0553 0.0000
# 3 0.1741 40.7846 180.7934 0.0000 26.1721 0.0000
# 4 0.0000 0.0000 0.0000 46.3271 0.0000 12.1523
# 5 4.7498 30.0553 26.1721 0.0000 21.3953 0.0000
# 6 0.0000 0.0000 0.0000 12.1523 0.0000 37.7273
#
#
#
# Elastic Compliance Matrix: (Units=1/GPa)
#
#
# Indices 1 2 3 4 5 6 
#
# 1 0.019650 0.004696 0.000618 0.000000 -0.011715 0.000000
# 2 0.004696 0.027800 -0.000573 0.000000 -0.039394 0.000000
# 3 0.000618 -0.000573 0.006760 0.000000 -0.007602 0.000000
# 4 0.000000 0.000000 0.000000 0.023578 0.000000 -0.007595
# 5 -0.011715 -0.039394 -0.007602 0.000000 0.113978 0.000000
# 6 0.000000 0.000000 0.000000 -0.007595 0.000000 0.028952
#
#
# Mechanical properties :
#
#
# Convention : Reuss Voigt Hill
#
# Bulk Modulus (GPa) = 15.70045 43.54957 29.62501
# Shear Modulus (GPa) = 21.50833 39.51570 30.51201
#
# Velocity S-wave (km/s) = 2.83409 3.84144 3.37555
# Velocity P-wave (km/s) = 4.07094 5.99489 5.12402
#
# Compressibility (1/GPa) = 0.06369243
#
# Stress axis : x y z
#
# Youngs Moduli (GPa) = 50.88982 35.97121 147.92244
#
# Poissons Ratio (x) = -0.16894 -0.09135
# Poissons Ratio (y) = -0.23900 0.08477
# Poissons Ratio (z) = -0.03143 0.02061
#
# Static dielectric constant tensor:
#      x y z
#    x 2.357300 0.000000 0.169560 
#    y 0.000000 1.660640 0.000000 
#    z 0.169560 0.000000 2.393800 
# 
# From -- ./inp_files/177322.got.cif
#   From: 2010.05.17/outbox.cif.g08.bks.cpg/sg15_89_cif.got.tgz:177322.got - 2010.06.03 18:47:42.
