data_PCOD9254188
_publ_section_title
;
Structure prediction by ZEFSAII (Michael W. Deem and Ramdas Pophale) SiO2 
 PCOD9254188
Probable space group: C 2/C
;
_chemical_formula_sum "Si O2"
_cell_formula_units_Z 64
_cell_length_a 10.825157
_cell_length_b 16.789390
_cell_length_c 14.097996
_cell_angle_alpha 90.000000
_cell_angle_beta 79.332636
_cell_angle_gamma 90.000000
_cell_volume 2517.999208
_symmetry_space_group_name_H-M "C 2/C"
_symmetry_group_IT_number 15
_symmetry_cell_setting 'monoclinic'
loop_
_space_group_symop_operation_xyz
x,y,z
-x,y,1/2-z
-x,-y,-z
x,-y,1/2+z
1/2+x,1/2+y,z
1/2-x,1/2+y,1/2-z
1/2-x,1/2-y,-z
1/2+x,1/2-y,1/2+z
loop_
_atom_site_type_symbol
_atom_site_label
_atom_site_fract_x
_atom_site_fract_y
_atom_site_fract_z
Si Si1 0.310705 0.417123 0.879981
Si Si2 0.573710 0.432991 0.105286
Si Si3 0.285970 0.743603 0.641235
Si Si4 0.881893 0.756260 0.327171
Si Si5 0.868242 0.403293 0.424873
Si Si6 0.041659 0.705939 0.997064
Si Si7 0.059185 0.837481 0.844255
Si Si8 0.685215 0.518383 0.385932
O O1 0.356425 0.502933 0.835936
O O2 0.263153 0.333261 0.848569
O O3 0.443277 0.387507 0.906454
O O4 0.202864 0.432134 0.971212
O O5 0.588797 0.343605 0.136312
O O6 0.426059 0.454712 0.119830
O O7 0.643721 0.447036 0.995167
O O8 0.291816 0.724884 0.751807
O O9 0.197529 0.678376 0.603822
O O10 0.414598 0.754950 0.562221
O O11 0.000000 0.722015 0.250000
O O12 0.868422 0.701925 0.423491
O O13 0.002791 0.373965 0.445270
O O14 0.820373 0.474146 0.362556
O O15 0.088660 0.766234 0.910048
O O16 0.167393 0.904081 0.822834
O O17 0.000000 0.814978 0.750000
#
# Coordination Sequence:
#
# PCOD9254188 Si02
#       8
#     8   8   8   8   8   8   8   8
#     4   9  17  29  43  66  95 142 174 214 254 318
#     4   9  16  26  41  62 103 132 162 208 271 306
#     4  10  17  28  48  68  96 138 182 213 255 306
#     4  10  19  26  45  72 105 136 168 212 262 312
#     4  10  16  27  50  62  96 142 179 217 262 308
#     4  10  17  31  44  70 103 140 177 216 260 319
#     4  11  19  28  46  68 104 138 174 209 269 325
#     4   9  17  26  41  67  95 135 173 209 255 318
#
# _framework density 25.417005
#
# number of rings (size 3 to 8) (size 9 to 14) (size 15 to 20)
#    0.000    2.250    3.750    3.000    0.000    4.000 
#    0.000    0.000    0.000    0.750    0.000    0.000 
#    0.000   11.000    0.000    1.500    3.750    0.875 
#
# Total GULP energy -178295.671859 kJ/mol
# GULP energy per Si atom -5571.739746 kJ/mol
# Density = 2.535915 g / cm^3
# Si number density = 25.417005 Si / 1000 Ang^3
#
#
#
# Elastic Constant Matrix: (Units=GPa)
#
#
# Indices 1 2 3 4 5 6 
#
# 1 39.4947 28.5072 21.2348 0.0000 10.0099 0.0000
# 2 28.5072 85.2303 41.7231 0.0000 17.6729 0.0000
# 3 21.2348 41.7231 103.5747 0.0000 25.5202 0.0000
# 4 0.0000 0.0000 0.0000 33.8165 0.0000 0.9250
# 5 10.0099 17.6729 25.5202 0.0000 34.3773 0.0000
# 6 0.0000 0.0000 0.0000 0.9250 0.0000 30.3699
#
#
#
# Elastic Compliance Matrix: (Units=1/GPa)
#
#
# Indices 1 2 3 4 5 6 
#
# 1 0.034399 -0.009674 -0.002341 0.000000 -0.003305 0.000000
# 2 -0.009674 0.017763 -0.004426 0.000000 -0.003029 0.000000
# 3 -0.002341 -0.004426 0.013694 0.000000 -0.007209 0.000000
# 4 0.000000 0.000000 0.000000 0.029596 0.000000 -0.000901
# 5 -0.003305 -0.003029 -0.007209 0.000000 0.036960 0.000000
# 6 0.000000 0.000000 0.000000 -0.000901 0.000000 0.032955
#
#
# Mechanical properties :
#
#
# Convention : Reuss Voigt Hill
#
# Bulk Modulus (GPa) = 30.32679 45.69224 38.00951
# Shear Modulus (GPa) = 23.89589 28.83505 26.36547
#
# Velocity S-wave (km/s) = 3.06952 3.37186 3.22423
# Velocity P-wave (km/s) = 4.95179 5.75980 5.37101
#
# Compressibility (1/GPa) = 0.03297415
#
# Stress axis : x y z
#
# Youngs Moduli (GPa) = 29.07061 56.29533 73.02515
#
# Poissons Ratio (x) = 0.54461 0.17096
# Poissons Ratio (y) = 0.28124 0.32320
# Poissons Ratio (z) = 0.06806 0.24915
#
# Static dielectric constant tensor:
#      x y z
#    x 2.180350 0.000000 0.025500 
#    y 0.000000 2.066200 0.000000 
#    z 0.025500 0.000000 2.226430 
# 
# From -- ./inp_files/154881.got.cif
#   From: 2010.05.17/outbox.cif.g08.bks.cpg/sg15_78_cif.got.tgz:154881.got - 2010.06.03 18:47:42.
