data_PCOD9254461
_publ_section_title
;
Structure prediction by ZEFSAII (Michael W. Deem and Ramdas Pophale) SiO2 
 PCOD9254461
Probable space group: C 2/C
;
_chemical_formula_sum "Si O2"
_cell_formula_units_Z 40
_cell_length_a 13.300590
_cell_length_b 24.614504
_cell_length_c 5.397639
_cell_angle_alpha 90.000000
_cell_angle_beta 83.245734
_cell_angle_gamma 90.000000
_cell_volume 1754.854805
_symmetry_space_group_name_H-M "C 2/C"
_symmetry_group_IT_number 15
_symmetry_cell_setting 'monoclinic'
loop_
_space_group_symop_operation_xyz
x,y,z
-x,y,1/2-z
-x,-y,-z
x,-y,1/2+z
1/2+x,1/2+y,z
1/2-x,1/2+y,1/2-z
1/2-x,1/2-y,-z
1/2+x,1/2-y,1/2+z
loop_
_atom_site_type_symbol
_atom_site_label
_atom_site_fract_x
_atom_site_fract_y
_atom_site_fract_z
Si Si1 0.017847 0.714379 0.995316
Si Si2 0.385101 0.521195 0.508567
Si Si3 0.215322 0.125273 0.076198
Si Si4 0.756303 0.313391 0.065028
Si Si5 0.939909 0.402596 0.517181
O O1 0.000000 0.747041 0.250000
O O2 0.941075 0.663883 0.022903
O O3 0.122626 0.682101 0.959465
O O4 0.000000 0.746535 0.750000
O O5 0.500000 0.500000 0.500000
O O6 0.337626 0.488277 0.292611
O O7 0.375680 0.583691 0.438882
O O8 0.217232 0.167063 0.843554
O O9 0.212878 0.153647 0.344848
O O10 0.319291 0.088597 0.040429
O O11 0.750000 0.250000 0.000000
O O12 0.000000 0.420431 0.750000
O O13 0.000000 0.419598 0.250000
#
# Coordination Sequence:
#
# PCOD9254461 Si02
#       5
#     8   8   8   8   8
#     4  10  16  32  54  76 115 169 204 238 303 384
#     4  10  23  45  73  91 120 168 234 286 337 394
#     4  12  21  38  67  93 122 176 221 266 344 411
#     4  12  23  35  58  97 134 166 215 271 332 418
#     4  10  16  30  56  86 111 156 209 238 308 393
#
# _framework density 22.793907000000001
#
# number of rings (size 3 to 8) (size 9 to 14) (size 15 to 20)
#    0.000    1.200    8.000    1.800    0.000    0.000 
#    0.000    0.000   26.400    3.600    0.000    0.000 
#    0.000    0.000    0.000    0.000    0.000    0.000 
#
# Total GULP energy -111485.345610 kJ/mol
# GULP energy per Si atom -5574.267281 kJ/mol
# Density = 2.274203 g / cm^3
# Si number density = 22.793907 Si / 1000 Ang^3
#
#
#
# Elastic Constant Matrix: (Units=GPa)
#
#
# Indices 1 2 3 4 5 6 
#
# 1 51.6139 22.9202 12.1225 0.0000 9.9443 0.0000
# 2 22.9202 56.0556 31.1909 0.0000 21.5212 0.0000
# 3 12.1225 31.1909 236.4277 0.0000 27.4744 0.0000
# 4 0.0000 0.0000 0.0000 18.3257 0.0000 19.8144
# 5 9.9443 21.5212 27.4744 0.0000 15.7149 0.0000
# 6 0.0000 0.0000 0.0000 19.8144 0.0000 -64.9127
#
#
#
# Elastic Compliance Matrix: (Units=1/GPa)
#
#
# Indices 1 2 3 4 5 6 
#
# 1 0.023799 -0.008235 0.000384 0.000000 -0.004454 0.000000
# 2 -0.008235 0.040781 0.001163 0.000000 -0.052671 0.000000
# 3 0.000384 0.001163 0.005358 0.000000 -0.011203 0.000000
# 4 0.000000 0.000000 0.000000 0.041027 0.000000 0.012523
# 5 -0.004454 -0.052671 -0.011203 0.000000 0.158171 0.000000
# 6 0.000000 0.000000 0.000000 0.012523 0.000000 -0.011583
#
#
# Mechanical properties :
#
#
# Convention : Reuss Voigt Hill
#
# Bulk Modulus (GPa) = 17.67960 52.95159 35.31559
# Shear Modulus (GPa) = 17.25414 12.34982 14.80198
#
# Velocity S-wave (km/s) = 2.75428 2.33019 2.55106
# Velocity P-wave (km/s) = 4.22940 5.52456 4.91979
#
# Compressibility (1/GPa) = 0.05656238
#
# Stress axis : x y z
#
# Youngs Moduli (GPa) = 42.01781 24.52112 186.62094
#
# Poissons Ratio (x) = 0.20193 -0.07159
# Poissons Ratio (y) = 0.34601 -0.21701
# Poissons Ratio (z) = -0.01612 -0.02851
#
# Static dielectric constant tensor:
#      x y z
#    x -1.177600 0.000000 -0.827290 
#    y 0.000000 1.917730 0.000000 
#    z -0.827290 0.000000 1.770910 
# 
# From -- ./inp_files/7384.got.cif
#   From: 2010.05.17/outbox.cif.g08.bks.cpg/sg15_4_cif.got.tgz:7384.got - 2010.06.03 18:47:42.
