data_PCOD9254258
_publ_section_title
;
Structure prediction by ZEFSAII (Michael W. Deem and Ramdas Pophale) SiO2 
 PCOD9254258
Probable space group: C 2/C
;
_chemical_formula_sum "Si O2"
_cell_formula_units_Z 44
_cell_length_a 17.366436
_cell_length_b 7.117969
_cell_length_c 16.862435
_cell_angle_alpha 90.000000
_cell_angle_beta 56.171341
_cell_angle_gamma 90.000000
_cell_volume 1731.547803
_symmetry_space_group_name_H-M "C 2/C"
_symmetry_group_IT_number 15
_symmetry_cell_setting 'monoclinic'
loop_
_space_group_symop_operation_xyz
x,y,z
-x,y,1/2-z
-x,-y,-z
x,-y,1/2+z
1/2+x,1/2+y,z
1/2-x,1/2+y,1/2-z
1/2-x,1/2-y,-z
1/2+x,1/2-y,1/2+z
loop_
_atom_site_type_symbol
_atom_site_label
_atom_site_fract_x
_atom_site_fract_y
_atom_site_fract_z
Si Si1 0.091457 0.879979 0.955945
Si Si2 0.351427 0.047648 0.207305
Si Si3 0.659345 0.529009 0.765676
Si Si4 0.000000 0.872771 0.250000
Si Si5 0.731424 0.940205 0.564104
Si Si6 0.444524 0.060755 0.410260
O O1 0.136455 0.875350 0.843811
O O2 0.163070 0.987419 0.973802
O O3 0.071407 0.673652 0.000147
O O4 0.000000 0.000000 0.000000
O O5 0.363069 0.269427 0.182403
O O6 0.269919 0.981226 0.194902
O O7 0.313146 0.057171 0.320745
O O8 0.455326 0.965434 0.149468
O O9 0.587422 0.514424 0.734949
O O10 0.042661 0.732311 0.160304
O O11 0.750000 0.750000 0.500000
O O12 0.650345 0.042663 0.560569
#
# Coordination Sequence:
#
# PCOD9254258 Si02
#       6
#     8   8   8   4   8   8
#     4  10  17  28  48  78  99 129 166 217 250 297
#     4  10  18  31  52  77 100 134 169 215 254 307
#     4  10  20  32  54  75 103 132 176 208 258 304
#     4  10  16  28  52  70  96 130 172 202 238 308
#     4   9  17  26  47  77  97 122 170 220 240 283
#     4  10  16  30  51  75  97 127 180 210 244 290
#
# _framework density 25.410789000000001
#
# number of rings (size 3 to 8) (size 9 to 14) (size 15 to 20)
#    0.000    2.182    7.273    0.000    0.000    0.000 
#    0.000    0.000    8.000   14.182    0.000    0.000 
#    0.000    0.000    0.000    0.000    0.000    0.000 
#
# Total GULP energy -122597.035341 kJ/mol
# GULP energy per Si atom -5572.592515 kJ/mol
# Density = 2.535295 g / cm^3
# Si number density = 25.410789 Si / 1000 Ang^3
#
#
#
# Elastic Constant Matrix: (Units=GPa)
#
#
# Indices 1 2 3 4 5 6 
#
# 1 317.0717 35.6707 29.6292 0.0000 -46.0477 0.0008
# 2 35.6707 26.2718 -5.7533 0.0000 -3.7790 0.0014
# 3 29.6292 -5.7533 82.9628 0.0001 -5.7828 0.0000
# 4 0.0000 0.0000 0.0001 15.5420 0.0000 2.1874
# 5 -46.0477 -3.7790 -5.7828 0.0000 53.9393 -0.0001
# 6 0.0008 0.0014 0.0000 2.1874 -0.0001 36.9872
#
#
#
# Elastic Compliance Matrix: (Units=1/GPa)
#
#
# Indices 1 2 3 4 5 6 
#
# 1 0.004458 -0.005984 -0.001784 0.000000 0.003195 0.000000
# 2 -0.005984 0.047176 0.005323 0.000000 -0.001232 -0.000002
# 3 -0.001784 0.005323 0.013077 0.000000 0.000252 0.000000
# 4 0.000000 0.000000 0.000000 0.064882 0.000000 -0.003837
# 5 0.003195 -0.001232 0.000252 0.000000 0.021208 0.000000
# 6 0.000000 -0.000002 0.000000 -0.003837 0.000000 0.027263
#
#
# Mechanical properties :
#
#
# Convention : Reuss Voigt Hill
#
# Bulk Modulus (GPa) = 16.71656 60.59995 38.65825
# Shear Modulus (GPa) = 24.64323 45.74435 35.19379
#
# Velocity S-wave (km/s) = 3.11753 4.24747 3.72559
# Velocity P-wave (km/s) = 4.42170 6.92492 5.80974
#
# Compressibility (1/GPa) = 0.05982093
#
# Stress axis : x y z
#
# Youngs Moduli (GPa) = 224.32675 21.19705 76.46727
#
# Poissons Ratio (x) = 0.12684 0.13644
# Poissons Ratio (y) = 1.34231 -0.40701
# Poissons Ratio (z) = 0.40026 -0.11282
#
# Static dielectric constant tensor:
#      x y z
#    x 2.095960 0.000000 -0.030420 
#    y 0.000000 2.059340 0.000000 
#    z -0.030420 0.000000 2.118880 
# 
# From -- ./inp_files/160055.got.cif
#   From: 2010.05.17/outbox.cif.g08.bks.cpg/sg15_81_cif.got.tgz:160055.got - 2010.06.03 18:47:42.
