data_PCOD9254267
_publ_section_title
;
Structure prediction by ZEFSAII (Michael W. Deem and Ramdas Pophale) SiO2 
 PCOD9254267
Probable space group: C 2/C
;
_chemical_formula_sum "Si O2"
_cell_formula_units_Z 52
_cell_length_a 22.347217
_cell_length_b 14.233428
_cell_length_c 8.764275
_cell_angle_alpha 90.000000
_cell_angle_beta 131.224642
_cell_angle_gamma 90.000000
_cell_volume 2096.731193
_symmetry_space_group_name_H-M "C 2/C"
_symmetry_group_IT_number 15
_symmetry_cell_setting 'monoclinic'
loop_
_space_group_symop_operation_xyz
x,y,z
-x,y,1/2-z
-x,-y,-z
x,-y,1/2+z
1/2+x,1/2+y,z
1/2-x,1/2+y,1/2-z
1/2-x,1/2-y,-z
1/2+x,1/2-y,1/2+z
loop_
_atom_site_type_symbol
_atom_site_label
_atom_site_fract_x
_atom_site_fract_y
_atom_site_fract_z
Si Si1 0.090982 0.868909 0.647789
Si Si2 0.108197 0.964182 0.974741
Si Si3 0.837431 0.452997 0.408247
Si Si4 0.109256 0.674656 0.750844
Si Si5 0.290971 0.397852 0.074030
Si Si6 0.000000 0.465759 0.250000
Si Si7 0.236680 0.342499 0.694796
O O1 0.067240 0.760679 0.594330
O O2 0.186587 0.861661 0.780782
O O3 0.063937 0.949525 0.485555
O O4 0.068957 0.901247 0.779645
O O5 0.148770 0.902966 0.178835
O O6 0.171634 0.020839 0.973128
O O7 0.829584 0.380524 0.256761
O O8 0.792218 0.418287 0.482110
O O9 0.931066 0.466591 0.577619
O O10 0.806622 0.559064 0.339599
O O11 0.044164 0.603164 0.706013
O O12 0.166923 0.710381 0.986539
O O13 0.275413 0.315285 0.923178
#
# Coordination Sequence:
#
# PCOD9254267 Si02
#       7
#     8   8   8   8   8   4   8
#     4  10  19  35  56  81 113 143 185 227 283 334
#     4   9  17  32  55  82 110 148 173 222 289 345
#     4  11  19  35  56  80 114 153 179 224 274 336
#     4  11  23  36  55  81 111 147 192 236 262 325
#     4  10  16  28  53  74 112 143 179 211 262 342
#     4  10  24  36  56  80 110 152 198 216 278 320
#     4  10  18  31  52  82 113 149 176 216 282 335
#
# _framework density 24.800509999999999
#
# number of rings (size 3 to 8) (size 9 to 14) (size 15 to 20)
#    0.000    1.846    4.615    3.692    0.000    1.231 
#    0.000    8.462    0.000    0.923    0.000    0.000 
#    0.000    0.000    0.000    0.000    0.000    0.000 
#
# Total GULP energy -144934.590097 kJ/mol
# GULP energy per Si atom -5574.407311 kJ/mol
# Density = 2.474406 g / cm^3
# Si number density = 24.800510 Si / 1000 Ang^3
#
#
#
# Elastic Constant Matrix: (Units=GPa)
#
#
# Indices 1 2 3 4 5 6 
#
# 1 105.2690 14.4430 33.7174 0.0000 -36.2864 0.0000
# 2 14.4430 80.7062 30.8426 0.0000 -23.6409 0.0000
# 3 33.7174 30.8426 79.6399 0.0000 -37.4179 0.0000
# 4 0.0000 0.0000 0.0000 27.1860 0.0000 -13.0118
# 5 -36.2864 -23.6409 -37.4179 0.0000 44.4693 0.0000
# 6 0.0000 0.0000 0.0000 -13.0118 0.0000 21.8867
#
#
#
# Elastic Compliance Matrix: (Units=1/GPa)
#
#
# Indices 1 2 3 4 5 6 
#
# 1 0.013338 0.001132 -0.001140 0.000000 0.010526 0.000000
# 2 0.001132 0.015329 -0.003561 0.000000 0.006077 0.000000
# 3 -0.001140 -0.003561 0.021651 0.000000 0.015395 0.000000
# 4 0.000000 0.000000 0.000000 0.051413 0.000000 0.030565
# 5 0.010526 0.006077 0.015395 0.000000 0.047261 0.000000
# 6 0.000000 0.000000 0.000000 0.030565 0.000000 0.063861
#
#
# Mechanical properties :
#
#
# Convention : Reuss Voigt Hill
#
# Bulk Modulus (GPa) = 23.15814 47.06901 35.11357
# Shear Modulus (GPa) = 21.33261 31.14921 26.24091
#
# Velocity S-wave (km/s) = 2.93604 3.54784 3.25634
# Velocity P-wave (km/s) = 4.56638 5.98357 5.32236
#
# Compressibility (1/GPa) = 0.04318137
#
# Stress axis : x y z
#
# Youngs Moduli (GPa) = 74.97617 65.23652 46.18687
#
# Poissons Ratio (x) = -0.07385 0.05263
# Poissons Ratio (y) = -0.08488 0.16445
# Poissons Ratio (z) = 0.08544 0.23228
#
# Static dielectric constant tensor:
#      x y z
#    x 1.943790 0.000000 0.027970 
#    y 0.000000 2.054300 0.000000 
#    z 0.027970 0.000000 2.172760 
# 
# From -- ./inp_files/66020.got.cif
#   From: 2010.05.17/outbox.cif.g08.bks.cpg/sg15_34_cif.got.tgz:66020.got - 2010.06.03 18:47:42.
