data_PCOD9254242
_publ_section_title
;
Structure prediction by ZEFSAII (Michael W. Deem and Ramdas Pophale) SiO2 
 PCOD9254242
Probable space group: C 2/C
;
_chemical_formula_sum "Si O2"
_cell_formula_units_Z 60
_cell_length_a 15.203290
_cell_length_b 24.502020
_cell_length_c 11.318605
_cell_angle_alpha 90.000000
_cell_angle_beta 36.153099
_cell_angle_gamma 90.000000
_cell_volume 2487.389706
_symmetry_space_group_name_H-M "C 2/C"
_symmetry_group_IT_number 15
_symmetry_cell_setting 'monoclinic'
loop_
_space_group_symop_operation_xyz
x,y,z
-x,y,1/2-z
-x,-y,-z
x,-y,1/2+z
1/2+x,1/2+y,z
1/2-x,1/2+y,1/2-z
1/2-x,1/2-y,-z
1/2+x,1/2-y,1/2+z
loop_
_atom_site_type_symbol
_atom_site_label
_atom_site_fract_x
_atom_site_fract_y
_atom_site_fract_z
Si Si1 0.232001 0.604027 0.179971
Si Si2 0.000000 0.639205 0.750000
Si Si3 0.290970 0.317341 0.216549
Si Si4 0.612510 0.285862 0.915561
Si Si5 0.684905 0.320475 0.591218
Si Si6 0.700949 0.500493 0.949571
Si Si7 0.113912 0.939518 0.755192
Si Si8 0.095614 0.417877 0.388776
O O1 0.281531 0.666215 0.145785
O O2 0.297997 0.563077 0.011659
O O3 0.315178 0.570579 0.195568
O O4 0.055631 0.592498 0.374148
O O5 0.953109 0.605482 0.686645
O O6 0.141663 0.674918 0.564347
O O7 0.169040 0.273330 0.391822
O O8 0.224196 0.377757 0.298559
O O9 0.443580 0.304717 0.119392
O O10 0.322823 0.310967 0.039974
O O11 0.623347 0.281915 0.760061
O O12 0.612518 0.378471 0.704422
O O13 0.828755 0.524099 0.722763
O O14 0.542923 0.528118 0.079070
O O15 0.726226 0.529816 0.047764
#
# Coordination Sequence:
#
# PCOD9254242 Si02
#       8
#     8   4   8   8   8   8   8   8
#     4  11  22  35  52  76 109 144 184 223 267 316
#     4  10  16  28  50  68 102 144 178 214 262 304
#     4  11  22  32  52  71 103 142 183 214 265 318
#     4  11  22  34  47  72 104 139 181 218 260 314
#     4  10  19  30  49  70 106 141 177 219 254 311
#     4  11  21  33  54  76 104 146 183 222 272 312
#     4  10  20  34  52  74 107 141 181 222 265 308
#     4  11  18  34  50  73 105 138 184 220 266 316
#
# _framework density 24.121673999999999
#
# number of rings (size 3 to 8) (size 9 to 14) (size 15 to 20)
#    0.000    1.333    5.333    4.000    5.600    0.000 
#    0.000    0.000    0.000    0.000    0.000    0.000 
#    0.000   26.667    0.000    0.133    0.000    0.267 
#
# Total GULP energy -167257.436697 kJ/mol
# GULP energy per Si atom -5575.247890 kJ/mol
# Density = 2.406677 g / cm^3
# Si number density = 24.121674 Si / 1000 Ang^3
#
#
#
# Elastic Constant Matrix: (Units=GPa)
#
#
# Indices 1 2 3 4 5 6 
#
# 1 5.3536 -1.4581 5.4981 0.0002 -20.2946 -0.0001
# 2 -1.4581 97.8989 7.8619 0.0000 -2.2356 0.0000
# 3 5.4981 7.8619 77.8424 0.0005 -45.3260 -0.0002
# 4 0.0002 0.0000 0.0005 24.0178 -0.0002 -3.0531
# 5 -20.2946 -2.2356 -45.3260 -0.0002 24.1243 0.0001
# 6 -0.0001 0.0000 -0.0002 -3.0531 0.0001 24.8797
#
#
#
# Elastic Compliance Matrix: (Units=1/GPa)
#
#
# Indices 1 2 3 4 5 6 
#
# 1 0.007698 0.001521 -0.033565 0.000000 -0.056446 0.000000
# 2 0.001521 0.010348 -0.001605 0.000000 -0.000777 0.000000
# 3 -0.033565 -0.001605 0.012218 0.000000 -0.005429 0.000000
# 4 0.000000 0.000000 0.000000 0.042296 0.000000 0.005190
# 5 -0.056446 -0.000777 -0.005429 0.000000 -0.016305 0.000000
# 6 0.000000 0.000000 0.000000 0.005190 0.000000 0.040830
#
#
# Mechanical properties :
#
#
# Convention : Reuss Voigt Hill
#
# Bulk Modulus (GPa) = -27.00360 22.76652 -2.11854
# Shear Modulus (GPa) = 32.88633 25.88389 29.38511
#
# Velocity S-wave (km/s) = 3.69637 3.27931 3.49406
# Velocity P-wave (km/s) = 2.64546 4.87823 3.92400
#
# Compressibility (1/GPa) = -0.03703209
#
# Stress axis : x y z
#
# Youngs Moduli (GPa) = 129.89998 96.63306 81.84500
#
# Poissons Ratio (x) = -0.14699 2.74709
# Poissons Ratio (y) = -0.19759 0.13137
# Poissons Ratio (z) = 4.36003 0.15510
#
# Static dielectric constant tensor:
#      x y z
#    x 2.160860 0.000000 0.147510 
#    y 0.000000 2.114960 0.000000 
#    z 0.147510 0.000000 2.139110 
# 
# From -- ./inp_files/164102.got.cif
#   From: 2010.05.17/outbox.cif.g08.bks.cpg/sg15_83_cif.got.tgz:164102.got - 2010.06.03 18:47:42.
