data_PCOD9254068
_publ_section_title
;
Structure prediction by ZEFSAII (Michael W. Deem and Ramdas Pophale) SiO2 
 PCOD9254068
Probable space group: C 2/C
;
_chemical_formula_sum "Si O2"
_cell_formula_units_Z 56
_cell_length_a 26.257434
_cell_length_b 8.658933
_cell_length_c 9.177705
_cell_angle_alpha 90.000000
_cell_angle_beta 101.864698
_cell_angle_gamma 90.000000
_cell_volume 2042.075884
_symmetry_space_group_name_H-M "C 2/C"
_symmetry_group_IT_number 15
_symmetry_cell_setting 'monoclinic'
loop_
_space_group_symop_operation_xyz
x,y,z
-x,y,1/2-z
-x,-y,-z
x,-y,1/2+z
1/2+x,1/2+y,z
1/2-x,1/2+y,1/2-z
1/2-x,1/2-y,-z
1/2+x,1/2-y,1/2+z
loop_
_atom_site_type_symbol
_atom_site_label
_atom_site_fract_x
_atom_site_fract_y
_atom_site_fract_z
Si Si1 0.908062 0.867983 0.779144
Si Si2 0.385907 0.117033 0.129703
Si Si3 0.204219 0.971382 0.883183
Si Si4 0.528031 0.658774 0.912137
Si Si5 0.959811 0.668764 0.596255
Si Si6 0.845955 0.572234 0.830998
Si Si7 0.261841 0.312990 0.310641
O O1 0.853088 0.947599 0.718373
O O2 0.933348 0.827023 0.638719
O O3 0.891078 0.697125 0.824350
O O4 0.947776 0.924146 0.928720
O O5 0.420275 0.266368 0.129764
O O6 0.420462 0.974539 0.083729
O O7 0.367566 0.087352 0.282084
O O8 0.336820 0.101282 0.994383
O O9 0.250335 0.865707 0.836842
O O10 0.218260 0.142410 0.837417
O O11 0.205236 0.906163 0.048141
O O12 0.500000 0.597664 0.750000
O O13 0.490349 0.789567 0.965873
O O14 0.000000 0.633151 0.750000
O O15 0.796869 0.623614 0.709976
#
# Coordination Sequence:
#
# PCOD9254068 Si02
#       7
#     8   8   8   8   8   8   8
#     4   8  18  33  48  69 106 146 185 227 279 342
#     4  10  16  24  40  66 106 143 181 222 274 345
#     4  10  21  40  61  89 120 156 197 243 295 351
#     4  10  17  26  43  72 104 138 183 236 283 332
#     4   9  16  27  43  66 100 148 186 222 277 338
#     4   9  17  28  44  71 106 147 180 222 282 339
#     4  10  21  38  62  87 121 158 197 241 294 353
#
# _framework density 27.423074
#
# number of rings (size 3 to 8) (size 9 to 14) (size 15 to 20)
#    0.000    2.571    0.000    3.429    0.000    1.714 
#    0.000    1.429    0.000    0.000    0.000   13.000 
#    0.000    0.000    0.000    0.000    0.000    0.000 
#
# Total GULP energy -156373.439064 kJ/mol
# GULP energy per Si atom -5584.765681 kJ/mol
# Density = 2.736066 g / cm^3
# Si number density = 27.423074 Si / 1000 Ang^3
#
#
#
# Elastic Constant Matrix: (Units=GPa)
#
#
# Indices 1 2 3 4 5 6 
#
# 1 56.2978 20.0975 47.8497 0.0000 18.4990 0.0000
# 2 20.0975 56.7181 38.0623 0.0000 -11.2642 0.0000
# 3 47.8497 38.0623 143.4583 0.0000 14.9395 0.0000
# 4 0.0000 0.0000 0.0000 35.2273 0.0000 -20.4631
# 5 18.4990 -11.2642 14.9395 0.0000 42.5284 0.0000
# 6 0.0000 0.0000 0.0000 -20.4631 0.0000 43.5712
#
#
#
# Elastic Compliance Matrix: (Units=1/GPa)
#
#
# Indices 1 2 3 4 5 6 
#
# 1 0.031143 -0.009447 -0.006445 0.000000 -0.013785 0.000000
# 2 -0.009447 0.027280 -0.005467 0.000000 0.013256 0.000000
# 3 -0.006445 -0.005467 0.010826 0.000000 -0.002447 0.000000
# 4 0.000000 0.000000 0.000000 0.039037 0.000000 0.018334
# 5 -0.013785 0.013256 -0.002447 0.000000 0.033880 0.000000
# 6 0.000000 0.000000 0.000000 0.018334 0.000000 0.031561
#
#
# Mechanical properties :
#
#
# Convention : Reuss Voigt Hill
#
# Bulk Modulus (GPa) = 37.69481 52.05479 44.87480
# Shear Modulus (GPa) = 22.19353 34.29636 28.24494
#
# Velocity S-wave (km/s) = 2.84791 3.54027 3.21280
# Velocity P-wave (km/s) = 4.95879 5.97785 5.49201
#
# Compressibility (1/GPa) = 0.02652885
#
# Stress axis : x y z
#
# Youngs Moduli (GPa) = 32.10986 36.65666 92.37064
#
# Poissons Ratio (x) = 0.34631 0.59537
# Poissons Ratio (y) = 0.30336 0.50501
# Poissons Ratio (z) = 0.20696 0.20041
#
# Static dielectric constant tensor:
#      x y z
#    x 2.124180 0.000000 0.021080 
#    y 0.000000 2.203490 0.000000 
#    z 0.021080 0.000000 2.165600 
# 
# From -- ./inp_files/65437.got.cif
#   From: 2010.05.17/outbox.cif.g08.bks.cpg/sg15_33_cif.got.tgz:65437.got - 2010.06.03 18:47:42.
