data_PCOD9254955
_publ_section_title
;
Structure prediction by ZEFSAII (Michael W. Deem and Ramdas Pophale) SiO2 
 PCOD9254955
Probable space group: C 2/C
;
_chemical_formula_sum "Si O2"
_cell_formula_units_Z 56
_cell_length_a 28.548782
_cell_length_b 19.710681
_cell_length_c 5.610315
_cell_angle_alpha 90.000000
_cell_angle_beta 79.702287
_cell_angle_gamma 90.000000
_cell_volume 3106.161024
_symmetry_space_group_name_H-M "C 2/C"
_symmetry_group_IT_number 15
_symmetry_cell_setting 'monoclinic'
loop_
_space_group_symop_operation_xyz
x,y,z
-x,y,1/2-z
-x,-y,-z
x,-y,1/2+z
1/2+x,1/2+y,z
1/2-x,1/2+y,1/2-z
1/2-x,1/2-y,-z
1/2+x,1/2-y,1/2+z
loop_
_atom_site_type_symbol
_atom_site_label
_atom_site_fract_x
_atom_site_fract_y
_atom_site_fract_z
Si Si1 0.294253 0.137602 0.721403
Si Si2 0.000000 0.538557 0.250000
Si Si3 0.046554 0.760249 0.101842
Si Si4 0.803712 0.219018 0.705994
Si Si5 0.423322 0.132051 0.149816
Si Si6 0.647791 0.273059 0.838128
Si Si7 0.686992 0.881713 0.795710
Si Si8 0.500000 0.165197 0.750000
O O1 0.247729 0.185071 0.765680
O O2 0.339249 0.191314 0.677161
O O3 0.294238 0.095248 0.477639
O O4 0.295885 0.094572 0.961847
O O5 0.047019 0.585691 0.197840
O O6 0.000000 0.500000 0.500000
O O7 0.072139 0.710676 0.272346
O O8 0.000000 0.799440 0.250000
O O9 0.092041 0.790127 0.923418
O O10 0.020010 0.711341 0.941550
O O11 0.832706 0.202177 0.436385
O O12 0.800068 0.300886 0.712132
O O13 0.826614 0.200937 0.942513
O O14 0.369673 0.111967 0.163428
O O15 0.454655 0.125119 0.884359
#
# Coordination Sequence:
#
# PCOD9254955 Si02
#       8
#     8   4   8   8   8   8   8   4
#     4  10  17  26  39  60  83  99 116 140 172 224
#     4  12  27  40  50  62  76  98 128 176 232 268
#     4  10  19  27  42  59  71  96 124 167 192 232
#     4  10  17  26  39  57  83 101 117 138 174 224
#     4  11  20  33  47  59  73  95 123 160 201 260
#     4  10  17  26  36  54  75  98 124 140 180 217
#     4  10  18  26  43  58  75  96 121 140 177 224
#     4  10  17  28  46  58  72  90 116 160 200 230
#
# _framework density 18.028684999999999
#
# number of rings (size 3 to 8) (size 9 to 14) (size 15 to 20)
#    0.000    1.714    5.000    6.429    2.000    0.000 
#    0.000    0.000    0.000    0.000    0.000    0.000 
#    0.000    0.000    0.000    0.000    0.000    0.000 
#
# Total GULP energy -155870.182741 kJ/mol
# GULP energy per Si atom -5566.792241 kJ/mol
# Density = 1.798765 g / cm^3
# Si number density = 18.028685 Si / 1000 Ang^3
#
#
#
# Elastic Constant Matrix: (Units=GPa)
#
#
# Indices 1 2 3 4 5 6 
#
# 1 73.5629 8.1391 32.3772 0.0000 -14.2377 0.0000
# 2 8.1391 5.5387 5.3419 0.0000 0.8794 0.0000
# 3 32.3772 5.3419 161.0314 0.0000 -2.8680 0.0000
# 4 0.0000 0.0000 0.0000 -1.9869 0.0000 -4.4130
# 5 -14.2377 0.8794 -2.8680 0.0000 36.9541 0.0000
# 6 0.0000 0.0000 0.0000 -4.4130 0.0000 0.3599
#
#
#
# Elastic Compliance Matrix: (Units=1/GPa)
#
#
# Indices 1 2 3 4 5 6 
#
# 1 0.019357 -0.026939 -0.002858 0.000000 0.007877 0.000000
# 2 -0.026939 0.224908 -0.002328 0.000000 -0.015912 0.000000
# 3 -0.002858 -0.002328 0.006853 0.000000 -0.000514 0.000000
# 4 0.000000 0.000000 0.000000 -0.017824 0.000000 -0.218577
# 5 0.007877 -0.015912 -0.000514 0.000000 0.030434 0.000000
# 6 0.000000 0.000000 0.000000 -0.218577 0.000000 0.098411
#
#
# Mechanical properties :
#
#
# Convention : Reuss Voigt Hill
#
# Bulk Modulus (GPa) = 5.35139 36.87214 21.11176
# Shear Modulus (GPa) = 10.23170 20.01707 15.12438
#
# Velocity S-wave (km/s) = 2.38486 3.33572 2.89953
# Velocity P-wave (km/s) = 3.24932 5.94410 4.79012
#
# Compressibility (1/GPa) = 0.18686742
#
# Stress axis : x y z
#
# Youngs Moduli (GPa) = 51.66132 4.44627 145.92869
#
# Poissons Ratio (x) = 0.11978 0.41706
# Poissons Ratio (y) = 1.39172 0.33969
# Poissons Ratio (z) = 0.14765 0.01035
#
# Static dielectric constant tensor:
#      x y z
#    x 1.637570 0.000000 -0.012330 
#    y 0.000000 1.608240 0.000000 
#    z -0.012330 0.000000 1.772690 
# 
# From -- ./inp_files/16318.got.cif
#   From: 2010.05.17/outbox.cif.g08.bks.cpg/sg15_9_cif.got.tgz:16318.got - 2010.06.03 18:47:42.
