data_PCOD9254060
_publ_section_title
;
Structure prediction by ZEFSAII (Michael W. Deem and Ramdas Pophale) SiO2 
 PCOD9254060
Probable space group: C 2/C
;
_chemical_formula_sum "Si O2"
_cell_formula_units_Z 40
_cell_length_a 28.677125
_cell_length_b 6.811930
_cell_length_c 27.493029
_cell_angle_alpha 90.000000
_cell_angle_beta 163.550152
_cell_angle_gamma 90.000000
_cell_volume 1520.844334
_symmetry_space_group_name_H-M "C 2/C"
_symmetry_group_IT_number 15
_symmetry_cell_setting 'monoclinic'
loop_
_space_group_symop_operation_xyz
x,y,z
-x,y,1/2-z
-x,-y,-z
x,-y,1/2+z
1/2+x,1/2+y,z
1/2-x,1/2+y,1/2-z
1/2-x,1/2-y,-z
1/2+x,1/2-y,1/2+z
loop_
_atom_site_type_symbol
_atom_site_label
_atom_site_fract_x
_atom_site_fract_y
_atom_site_fract_z
Si Si1 0.788911 0.971553 0.447147
Si Si2 0.199540 0.443949 0.259048
Si Si3 0.854411 0.670855 0.901123
Si Si4 0.808353 0.475306 0.548948
Si Si5 0.835601 0.910184 0.194650
O O1 0.717095 0.847219 0.329725
O O2 0.774682 0.910167 0.489089
O O3 0.683517 0.174365 0.334890
O O4 0.979296 0.022638 0.629327
O O5 0.206792 0.330062 0.215810
O O6 0.349178 0.599215 0.407697
O O7 0.029168 0.565936 0.082961
O O8 0.735816 0.572511 0.822471
O O9 0.750000 0.250000 0.500000
O O10 0.770020 0.508098 0.454085
O O11 0.000000 0.490948 0.750000
#
# Coordination Sequence:
#
# PCOD9254060 Si02
#       5
#     8   8   8   8   8
#     4  10  17  26  41  62  89 119 152 189 232 278
#     4  10  20  33  49  70  96 126 160 196 235 279
#     4  10  20  33  49  70  96 126 160 196 235 279
#     4  10  16  24  38  58  87 118 149 186 231 278
#     4  10  17  26  41  62  89 119 152 189 232 278
#
# _framework density 26.301182000000001
#
# number of rings (size 3 to 8) (size 9 to 14) (size 15 to 20)
#    0.000    2.000    0.000   11.400    0.000    3.200 
#    0.000    0.000    0.000    0.000    0.000    1.400 
#    0.000    0.000    0.000    0.000    0.000    0.000 
#
# Total GULP energy -111851.371570 kJ/mol
# GULP energy per Si atom -5592.568579 kJ/mol
# Density = 2.624132 g / cm^3
# Si number density = 26.301182 Si / 1000 Ang^3
#
#
#
# Elastic Constant Matrix: (Units=GPa)
#
#
# Indices 1 2 3 4 5 6 
#
# 1 254.7075 8.9473 74.4613 0.0059 -49.8230 0.0013
# 2 8.9473 45.0109 -14.7420 0.0091 -6.0180 0.0021
# 3 74.4613 -14.7420 142.4786 0.0169 -13.9475 0.0061
# 4 0.0059 0.0091 0.0169 8.1525 0.0060 -17.1734
# 5 -49.8230 -6.0180 -13.9475 0.0060 61.4339 0.0002
# 6 0.0013 0.0021 0.0061 -17.1734 0.0002 40.4733
#
#
#
# Elastic Compliance Matrix: (Units=1/GPa)
#
#
# Indices 1 2 3 4 5 6 
#
# 1 0.005475 -0.001463 -0.002651 0.000010 0.003695 0.000004
# 2 -0.001463 0.023888 0.003425 -0.000355 0.001931 -0.000152
# 3 -0.002651 0.003425 0.008776 -0.000218 0.000178 -0.000094
# 4 0.000010 -0.000355 -0.000218 1.155263 -0.000191 0.490195
# 5 0.003695 0.001931 0.000178 -0.000191 0.019504 -0.000081
# 6 0.000004 -0.000152 -0.000094 0.490195 -0.000081 0.232705
#
#
# Mechanical properties :
#
#
# Convention : Reuss Voigt Hill
#
# Bulk Modulus (GPa) = 27.20213 64.39224 45.79718
# Shear Modulus (GPa) = 3.42644 46.91397 25.17021
#
# Velocity S-wave (km/s) = 1.14263 4.22799 3.09690
# Velocity P-wave (km/s) = 3.47934 6.95488 5.49892
#
# Compressibility (1/GPa) = 0.03676183
#
# Stress axis : x y z
#
# Youngs Moduli (GPa) = 182.63847 41.86256 113.94817
#
# Poissons Ratio (x) = 0.06123 0.30208
# Poissons Ratio (y) = 0.26713 -0.39029
# Poissons Ratio (z) = 0.48419 -0.14338
#
# Static dielectric constant tensor:
#      x y z
#    x 2.177490 0.000000 -0.066550 
#    y 0.000000 2.214380 0.000010 
#    z -0.066550 0.000010 1.995500 
# 
# From -- ./inp_files/281910.got.cif
#   From: 2010.05.17/outbox.cif.g08.bks.cpg/sg15_141_cif.got.tgz:281910.got - 2010.06.03 18:47:42.
