data_PCOD9254561
_publ_section_title
;
Structure prediction by ZEFSAII (Michael W. Deem and Ramdas Pophale) SiO2 
 PCOD9254561
Probable space group: C 2/C
;
_chemical_formula_sum "Si O2"
_cell_formula_units_Z 48
_cell_length_a 10.153696
_cell_length_b 16.309607
_cell_length_c 20.812668
_cell_angle_alpha 90.000000
_cell_angle_beta 142.980211
_cell_angle_gamma 90.000000
_cell_volume 2075.187854
_symmetry_space_group_name_H-M "C 2/C"
_symmetry_group_IT_number 15
_symmetry_cell_setting 'monoclinic'
loop_
_space_group_symop_operation_xyz
x,y,z
-x,y,1/2-z
-x,-y,-z
x,-y,1/2+z
1/2+x,1/2+y,z
1/2-x,1/2+y,1/2-z
1/2-x,1/2-y,-z
1/2+x,1/2-y,1/2+z
loop_
_atom_site_type_symbol
_atom_site_label
_atom_site_fract_x
_atom_site_fract_y
_atom_site_fract_z
Si Si1 0.125330 0.707370 0.367954
Si Si2 0.050445 0.111860 0.845467
Si Si3 0.638721 0.040363 0.745678
Si Si4 0.154550 0.588213 0.155656
Si Si5 0.658171 0.430704 0.901194
Si Si6 0.937963 0.919212 0.936929
O O1 0.160518 0.801470 0.400476
O O2 0.343538 0.654354 0.441603
O O3 0.000000 0.710074 0.250000
O O4 0.970739 0.660881 0.357923
O O5 0.175045 0.029353 0.913209
O O6 0.000000 0.104118 0.750000
O O7 0.823481 0.103585 0.795757
O O8 0.500000 0.077158 0.750000
O O9 0.558309 0.997395 0.648215
O O10 0.738210 0.958906 0.818862
O O11 0.166166 0.596113 0.083024
O O12 0.413321 0.585365 0.276307
O O13 0.629470 0.395271 0.961733
O O14 0.000000 0.000000 0.000000
#
# Coordination Sequence:
#
# PCOD9254561 Si02
#       6
#     8   8   8   8   8   8
#     4  11  17  30  49  76  97 120 161 212 243 276
#     4   9  17  27  47  75  97 117 158 204 251 287
#     4  10  16  32  50  72  94 132 163 198 249 296
#     4   9  14  28  49  69  93 120 157 199 244 277
#     4   9  16  31  47  70  97 125 158 195 247 296
#     4  10  19  31  49  73  99 133 168 196 237 295
#
# _framework density 23.130437000000001
#
# number of rings (size 3 to 8) (size 9 to 14) (size 15 to 20)
#    0.000    2.667    8.333    0.000    0.000    0.000 
#    3.000    4.167    0.000    0.000    0.000   15.167 
#    0.000    0.000    0.000    0.000    0.000    0.000 
#
# Total GULP energy -133854.642820 kJ/mol
# GULP energy per Si atom -5577.276784 kJ/mol
# Density = 2.307779 g / cm^3
# Si number density = 23.130437 Si / 1000 Ang^3
#
#
#
# Elastic Constant Matrix: (Units=GPa)
#
#
# Indices 1 2 3 4 5 6 
#
# 1 234.7432 51.5102 28.9189 0.0000 -24.5232 0.0000
# 2 51.5102 117.9387 16.4420 -0.0001 -0.7517 0.0000
# 3 28.9189 16.4420 50.9207 -0.0001 -1.1726 0.0000
# 4 0.0000 -0.0001 -0.0001 19.5795 0.0000 1.6925
# 5 -24.5232 -0.7517 -1.1726 0.0000 20.6318 0.0000
# 6 0.0000 0.0000 0.0000 1.6925 0.0000 26.8215
#
#
#
# Elastic Compliance Matrix: (Units=1/GPa)
#
#
# Indices 1 2 3 4 5 6 
#
# 1 0.005707 -0.002115 -0.002407 0.000000 0.006569 0.000000
# 2 -0.002115 0.009663 -0.001971 0.000000 -0.002274 0.000000
# 3 -0.002407 -0.001971 0.021603 0.000000 -0.001705 0.000000
# 4 0.000000 0.000000 0.000000 0.051354 0.000000 -0.003241
# 5 0.006569 -0.002274 -0.001705 0.000000 0.056097 0.000000
# 6 0.000000 0.000000 0.000000 -0.003241 0.000000 0.037488
#
#
# Mechanical properties :
#
#
# Convention : Reuss Voigt Hill
#
# Bulk Modulus (GPa) = 41.69093 66.37166 54.03129
# Shear Modulus (GPa) = 24.64343 33.85533 29.24938
#
# Velocity S-wave (km/s) = 3.26761 3.82994 3.55990
# Velocity P-wave (km/s) = 5.68328 6.95088 6.34880
#
# Compressibility (1/GPa) = 0.02398603
#
# Stress axis : x y z
#
# Youngs Moduli (GPa) = 175.22666 103.48656 46.29087
#
# Poissons Ratio (x) = 0.21888 0.11141
# Poissons Ratio (y) = 0.37062 0.09125
# Poissons Ratio (z) = 0.42174 0.20401
#
# Static dielectric constant tensor:
#      x y z
#    x 1.961000 0.000000 -0.045520 
#    y 0.000000 1.801710 0.000000 
#    z -0.045520 0.000000 2.124680 
# 
# From -- ./inp_files/265048.got.cif
#   From: 2010.05.17/outbox.cif.g08.bks.cpg/sg15_133_cif.got.tgz:265048.got - 2010.06.03 18:47:42.
