data_PCOD9254095
_publ_section_title
;
Structure prediction by ZEFSAII (Michael W. Deem and Ramdas Pophale) SiO2 
 PCOD9254095
Probable space group: C 2/C
;
_chemical_formula_sum "Si O2"
_cell_formula_units_Z 56
_cell_length_a 21.459023
_cell_length_b 19.190221
_cell_length_c 17.852771
_cell_angle_alpha 90.000000
_cell_angle_beta 156.731341
_cell_angle_gamma 90.000000
_cell_volume 2904.290012
_symmetry_space_group_name_H-M "C 2/C"
_symmetry_group_IT_number 15
_symmetry_cell_setting 'monoclinic'
loop_
_space_group_symop_operation_xyz
x,y,z
-x,y,1/2-z
-x,-y,-z
x,-y,1/2+z
1/2+x,1/2+y,z
1/2-x,1/2+y,1/2-z
1/2-x,1/2-y,-z
1/2+x,1/2-y,1/2+z
loop_
_atom_site_type_symbol
_atom_site_label
_atom_site_fract_x
_atom_site_fract_y
_atom_site_fract_z
Si Si1 0.493997 0.563440 0.861157
Si Si2 0.000000 0.948152 0.750000
Si Si3 0.000000 0.720280 0.750000
Si Si4 0.018494 0.841640 0.525774
Si Si5 0.179485 0.160829 0.360220
Si Si6 0.190259 0.716958 0.627210
Si Si7 0.658934 0.307851 0.458177
Si Si8 0.151134 0.385296 0.958686
O O1 0.543918 0.494877 0.870868
O O2 0.581239 0.624630 0.911351
O O3 0.303153 0.566756 0.642872
O O4 0.528804 0.590182 0.983603
O O5 0.859992 0.898169 0.622644
O O6 0.089437 0.769881 0.789756
O O7 0.864215 0.675910 0.560668
O O8 0.103731 0.857050 0.697199
O O9 0.096319 0.772094 0.574012
O O10 0.835344 0.819140 0.329688
O O11 0.246576 0.765564 0.619838
O O12 0.107508 0.655062 0.487612
O O13 0.500000 0.272247 0.250000
O O14 0.771681 0.331891 0.516486
O O15 0.000000 0.416642 0.750000
#
# Coordination Sequence:
#
# PCOD9254095 Si02
#       8
#     8   4   4   8   8   8   8   8
#     4   9  19  34  50  73 112 145 191 213 255 310
#     4  11  20  40  58  78  96 157 184 222 248 319
#     4   9  20  42  62  96 102 123 172 232 262 349
#     4  10  20  33  50  84 111 146 168 230 268 326
#     4  10  21  37  67  82 109 132 171 218 289 312
#     4  10  18  26  45  73 111 139 178 207 278 313
#     4   9  15  27  43  65 105 151 179 220 242 307
#     4  10  16  25  43  72 103 145 180 222 247 303
#
# _framework density 19.281821000000001
#
# number of rings (size 3 to 8) (size 9 to 14) (size 15 to 20)
#    0.000    2.286    2.143    3.429    0.000    0.571 
#    1.286    0.000    0.000    0.857    0.000    0.000 
#    0.000    0.000    0.000    0.000    0.000    0.000 
#
# Total GULP energy -155885.424750 kJ/mol
# GULP energy per Si atom -5567.336598 kJ/mol
# Density = 1.923793 g / cm^3
# Si number density = 19.281821 Si / 1000 Ang^3
#
#
#
# Elastic Constant Matrix: (Units=GPa)
#
#
# Indices 1 2 3 4 5 6 
#
# 1 48.1391 15.0821 38.6422 0.0001 -3.6926 0.0001
# 2 15.0821 59.6030 33.4127 0.0000 -1.0369 0.0000
# 3 38.6422 33.4127 132.8176 0.0001 -11.5737 0.0002
# 4 0.0001 0.0000 0.0001 4.2949 0.0001 -6.2379
# 5 -3.6926 -1.0369 -11.5737 0.0001 24.7453 0.0001
# 6 0.0001 0.0000 0.0002 -6.2379 0.0001 15.8040
#
#
#
# Elastic Compliance Matrix: (Units=1/GPa)
#
#
# Indices 1 2 3 4 5 6 
#
# 1 0.027530 -0.002905 -0.007226 -0.000001 0.000607 -0.000001
# 2 -0.002905 0.019895 -0.004300 0.000000 -0.001611 0.000000
# 3 -0.007226 -0.004300 0.011054 -0.000001 0.003912 0.000000
# 4 -0.000001 0.000000 -0.000001 0.545623 -0.000003 0.215359
# 5 0.000607 -0.001611 0.003912 -0.000003 0.042264 -0.000002
# 6 -0.000001 0.000000 0.000000 0.215359 -0.000002 0.148278
#
#
# Mechanical properties :
#
#
# Convention : Reuss Voigt Hill
#
# Bulk Modulus (GPa) = 33.76400 46.09263 39.92832
# Shear Modulus (GPa) = 5.99967 19.19702 12.59834
#
# Velocity S-wave (km/s) = 1.76588 3.15874 2.55890
# Velocity P-wave (km/s) = 4.65903 6.10411 5.42986
#
# Compressibility (1/GPa) = 0.02961734
#
# Stress axis : x y z
#
# Youngs Moduli (GPa) = 36.32360 50.26283 90.46358
#
# Poissons Ratio (x) = 0.14601 0.65370
# Poissons Ratio (y) = 0.10552 0.38902
# Poissons Ratio (z) = 0.26248 0.21614
#
# Static dielectric constant tensor:
#      x y z
#    x 1.677450 0.000000 -0.009680 
#    y 0.000000 1.723900 0.000000 
#    z -0.009680 0.000000 1.691480 
# 
# From -- ./inp_files/220383.got.cif
#   From: 2010.05.17/outbox.cif.g08.bks.cpg/sg15_111_cif.got.tgz:220383.got - 2010.06.03 18:47:42.
