data_PCOD9254481
_publ_section_title
;
Structure prediction by ZEFSAII (Michael W. Deem and Ramdas Pophale) SiO2 
 PCOD9254481
Probable space group: C 2/C
;
_chemical_formula_sum "Si O2"
_cell_formula_units_Z 32
_cell_length_a 12.539342
_cell_length_b 16.973234
_cell_length_c 10.599874
_cell_angle_alpha 90.000000
_cell_angle_beta 37.902645
_cell_angle_gamma 90.000000
_cell_volume 1385.912633
_symmetry_space_group_name_H-M "C 2/C"
_symmetry_group_IT_number 15
_symmetry_cell_setting 'monoclinic'
loop_
_space_group_symop_operation_xyz
x,y,z
-x,y,1/2-z
-x,-y,-z
x,-y,1/2+z
1/2+x,1/2+y,z
1/2-x,1/2+y,1/2-z
1/2-x,1/2-y,-z
1/2+x,1/2-y,1/2+z
loop_
_atom_site_type_symbol
_atom_site_label
_atom_site_fract_x
_atom_site_fract_y
_atom_site_fract_z
Si Si1 0.229766 0.666520 0.297922
Si Si2 0.206389 0.157238 0.543935
Si Si3 0.835532 0.350470 0.193509
Si Si4 0.034067 0.056407 0.085302
O O1 0.264222 0.760472 0.266194
O O2 0.390205 0.625350 0.215940
O O3 0.039528 0.650046 0.528820
O O4 0.234620 0.631905 0.150064
O O5 0.250000 0.250000 0.500000
O O6 0.298052 0.123675 0.582914
O O7 0.000000 0.152505 0.750000
O O8 0.721623 0.404974 0.389963
O O9 0.000000 0.015094 0.250000
O O10 0.000000 0.000000 0.000000
#
# Coordination Sequence:
#
# PCOD9254481 Si02
#       4
#     8   8   8   8
#     4  11  21  42  73 110 141 186 241 300 352 419
#     4  10  16  30  62 105 145 174 223 288 348 404
#     4  11  21  42  73 110 141 186 241 300 352 419
#     4  12  30  50  72 104 149 192 234 297 368 433
#
# _framework density 23.089476999999999
#
# number of rings (size 3 to 8) (size 9 to 14) (size 15 to 20)
#    0.000    1.000    5.000    5.250    3.500    3.000 
#    0.000    0.000    0.000    0.000    0.000    0.000 
#    0.000    0.000    0.000    0.000    0.000    0.000 
#
# Total GULP energy -89537.822439 kJ/mol
# GULP energy per Si atom -5596.113902 kJ/mol
# Density = 2.303692 g / cm^3
# Si number density = 23.089477 Si / 1000 Ang^3
#
#
#
# Elastic Constant Matrix: (Units=GPa)
#
#
# Indices 1 2 3 4 5 6 
#
# 1 37.2814 9.2047 40.1932 -0.0002 0.7305 0.0001
# 2 9.2047 64.6976 46.9640 0.0004 0.0421 -0.0004
# 3 40.1932 46.9640 198.2449 0.0005 -24.7288 -0.0004
# 4 -0.0002 0.0004 0.0005 14.2623 -0.0005 6.0270
# 5 0.7305 0.0421 -24.7288 -0.0005 62.2854 0.0005
# 6 0.0001 -0.0004 -0.0004 6.0270 0.0005 24.1918
#
#
#
# Elastic Compliance Matrix: (Units=1/GPa)
#
#
# Indices 1 2 3 4 5 6 
#
# 1 0.035014 0.000588 -0.007669 0.000001 -0.003456 0.000000
# 2 0.000588 0.018884 -0.004835 -0.000001 -0.001939 0.000000
# 3 -0.007669 -0.004835 0.008160 0.000000 0.003333 0.000000
# 4 0.000001 -0.000001 0.000000 0.078365 0.000001 -0.019523
# 5 -0.003456 -0.001939 0.003333 0.000001 0.017420 0.000000
# 6 0.000000 0.000000 0.000000 -0.019523 0.000000 0.046200
#
#
# Mechanical properties :
#
#
# Convention : Reuss Voigt Hill
#
# Bulk Modulus (GPa) = 26.16040 54.77196 40.46618
# Shear Modulus (GPa) = 20.77989 33.73869 27.25929
#
# Velocity S-wave (km/s) = 3.00321 3.82673 3.43970
# Velocity P-wave (km/s) = 4.83532 6.58014 5.77402
#
# Compressibility (1/GPa) = 0.03822572
#
# Stress axis : x y z
#
# Youngs Moduli (GPa) = 28.56016 52.95611 122.54579
#
# Poissons Ratio (x) = -0.03113 0.93983
# Poissons Ratio (y) = -0.01679 0.59245
# Poissons Ratio (z) = 0.21903 0.25602
#
# Static dielectric constant tensor:
#      x y z
#    x 1.864090 0.000000 0.068860 
#    y 0.000000 1.869860 0.000000 
#    z 0.068860 0.000000 1.833510 
# 
# From -- ./inp_files/98036.got.cif
#   From: 2010.05.17/outbox.cif.g08.bks.cpg/sg15_50_cif.got.tgz:98036.got - 2010.06.03 18:47:42.
