data_PCOD9254234
_publ_section_title
;
Structure prediction by ZEFSAII (Michael W. Deem and Ramdas Pophale) SiO2 
 PCOD9254234
Probable space group: C 2/C
;
_chemical_formula_sum "Si O2"
_cell_formula_units_Z 56
_cell_length_a 18.485235
_cell_length_b 6.605263
_cell_length_c 19.739801
_cell_angle_alpha 90.000000
_cell_angle_beta 57.021308
_cell_angle_gamma 90.000000
_cell_volume 2021.874092
_symmetry_space_group_name_H-M "C 2/C"
_symmetry_group_IT_number 15
_symmetry_cell_setting 'monoclinic'
loop_
_space_group_symop_operation_xyz
x,y,z
-x,y,1/2-z
-x,-y,-z
x,-y,1/2+z
1/2+x,1/2+y,z
1/2-x,1/2+y,1/2-z
1/2-x,1/2-y,-z
1/2+x,1/2-y,1/2+z
loop_
_atom_site_type_symbol
_atom_site_label
_atom_site_fract_x
_atom_site_fract_y
_atom_site_fract_z
Si Si1 0.634927 0.353449 0.121135
Si Si2 0.664868 0.688948 0.325034
Si Si3 0.976550 0.331953 0.188786
Si Si4 0.918014 0.489443 0.488540
Si Si5 0.068842 0.779980 0.288434
Si Si6 0.675499 0.162311 0.354508
Si Si7 0.305914 0.601071 0.042006
O O1 0.630999 0.395735 0.204015
O O2 0.532448 0.322414 0.163845
O O3 0.707752 0.177226 0.083337
O O4 0.668138 0.499459 0.043792
O O5 0.574915 0.673314 0.331185
O O6 0.737157 0.693711 0.230525
O O7 0.686053 0.554277 0.380961
O O8 0.661815 0.919532 0.352701
O O9 0.923923 0.537627 0.234183
O O10 0.000000 0.246089 0.250000
O O11 0.049030 0.412074 0.100604
O O12 0.848136 0.330801 0.554530
O O13 0.873801 0.708363 0.502698
O O14 0.000000 0.500000 0.500000
O O15 0.104150 0.774587 0.345992
#
# Coordination Sequence:
#
# PCOD9254234 Si02
#       7
#     8   8   8   8   8   8   8
#     4  10  17  24  45  78 117 130 163 227 284 311
#     4  10  21  34  54  79 111 143 182 227 275 316
#     4  11  19  32  54  79 102 142 190 230 256 320
#     4  11  17  32  54  81 106 141 186 227 265 326
#     4  10  16  28  48  77 113 130 175 223 274 312
#     4  10  20  34  55  80 110 145 181 225 270 328
#     4  10  17  27  44  78 113 133 166 221 281 313
#
# _framework density 27.697077
#
# number of rings (size 3 to 8) (size 9 to 14) (size 15 to 20)
#    0.000    1.714    8.571    0.000    0.000    0.000 
#    0.000    0.714    0.000    4.286    0.000    0.000 
#    0.000    0.000    0.000    0.000    0.000    0.000 
#
# Total GULP energy -156251.444430 kJ/mol
# GULP energy per Si atom -5580.408730 kJ/mol
# Density = 2.763404 g / cm^3
# Si number density = 27.697077 Si / 1000 Ang^3
#
#
#
# Elastic Constant Matrix: (Units=GPa)
#
#
# Indices 1 2 3 4 5 6 
#
# 1 123.9704 4.4558 23.5563 -0.0034 14.5153 -0.0094
# 2 4.4558 35.6952 9.1989 -0.0025 3.5875 -0.0130
# 3 23.5563 9.1989 260.2033 -0.0011 20.3824 -0.0018
# 4 -0.0034 -0.0025 -0.0011 33.9253 0.0011 8.0417
# 5 14.5153 3.5875 20.3824 0.0011 53.3544 -0.0010
# 6 -0.0094 -0.0130 -0.0018 8.0417 -0.0010 30.8987
#
#
#
# Elastic Compliance Matrix: (Units=1/GPa)
#
#
# Indices 1 2 3 4 5 6 
#
# 1 0.008439 -0.000700 -0.000580 0.000000 -0.002027 0.000002
# 2 -0.000700 0.028458 -0.000833 -0.000001 -0.001405 0.000012
# 3 -0.000580 -0.000833 0.004029 0.000000 -0.001325 0.000000
# 4 0.000000 -0.000001 0.000000 0.031415 -0.000001 -0.008176
# 5 -0.002027 -0.001405 -0.001325 -0.000001 0.019895 0.000000
# 6 0.000002 0.000012 0.000000 -0.008176 0.000000 0.034492
#
#
# Mechanical properties :
#
#
# Convention : Reuss Voigt Hill
#
# Bulk Modulus (GPa) = 27.24807 54.92121 41.08464
# Shear Modulus (GPa) = 34.91932 49.14621 42.03276
#
# Velocity S-wave (km/s) = 3.55457 4.21695 3.89985
# Velocity P-wave (km/s) = 5.16777 6.60171 5.92826
#
# Compressibility (1/GPa) = 0.03669984
#
# Stress axis : x y z
#
# Youngs Moduli (GPa) = 118.49392 35.13934 248.20406
#
# Poissons Ratio (x) = 0.02460 0.14407
# Poissons Ratio (y) = 0.08296 0.20666
# Poissons Ratio (z) = 0.06878 0.02926
#
# Static dielectric constant tensor:
#      x y z
#    x 2.250780 0.000000 0.117640 
#    y 0.000000 2.426080 0.000000 
#    z 0.117640 0.000000 2.276710 
# 
# From -- ./inp_files/252229.got.cif
#   From: 2010.05.17/outbox.cif.g08.bks.cpg/sg15_127_cif.got.tgz:252229.got - 2010.06.03 18:47:42.
