data_PCOD9254774
_publ_section_title
;
Structure prediction by ZEFSAII (Michael W. Deem and Ramdas Pophale) SiO2 
 PCOD9254774
Probable space group: C 2/C
;
_chemical_formula_sum "Si O2"
_cell_formula_units_Z 36
_cell_length_a 6.974451
_cell_length_b 18.454959
_cell_length_c 9.971865
_cell_angle_alpha 90.000000
_cell_angle_beta 90.585858
_cell_angle_gamma 90.000000
_cell_volume 1283.443629
_symmetry_space_group_name_H-M "C 2/C"
_symmetry_group_IT_number 15
_symmetry_cell_setting 'monoclinic'
loop_
_space_group_symop_operation_xyz
x,y,z
-x,y,1/2-z
-x,-y,-z
x,-y,1/2+z
1/2+x,1/2+y,z
1/2-x,1/2+y,1/2-z
1/2-x,1/2-y,-z
1/2+x,1/2-y,1/2+z
loop_
_atom_site_type_symbol
_atom_site_label
_atom_site_fract_x
_atom_site_fract_y
_atom_site_fract_z
Si Si1 0.383432 0.869524 0.465498
Si Si2 0.500000 0.181920 0.250000
Si Si3 0.538297 0.415629 0.612122
Si Si4 0.194148 0.715683 0.853087
Si Si5 0.228139 0.554881 0.900009
O O1 0.474262 0.862143 0.614274
O O2 0.161932 0.876791 0.496973
O O3 0.467363 0.802732 0.379318
O O4 0.496625 0.939101 0.406781
O O5 0.685401 0.232182 0.239466
O O6 0.500000 0.373805 0.750000
O O7 0.672394 0.483775 0.656786
O O8 0.341449 0.439357 0.542363
O O9 0.250000 0.750000 0.000000
O O10 0.270772 0.633055 0.833659
#
# Coordination Sequence:
#
# PCOD9254774 Si02
#       5
#     8   4   8   8   8
#     4   9  19  35  58  76 111 147 178 227 279 319
#     4  10  16  34  62  82 104 154 190 216 278 340
#     4  11  21  34  58  85 106 149 187 224 279 327
#     4   8  18  33  57  78 109 146 176 228 273 316
#     4   9  21  37  53  82 116 139 182 238 266 326
#
# _framework density 28.049534999999999
#
# number of rings (size 3 to 8) (size 9 to 14) (size 15 to 20)
#    1.333    1.333    0.000    2.000    1.556    0.000 
#    0.000    4.444    4.889    2.667    0.000    0.000 
#    0.000    0.000    0.000    0.000    0.000    0.000 
#
# Total GULP energy -100471.147931 kJ/mol
# GULP energy per Si atom -5581.730441 kJ/mol
# Density = 2.798569 g / cm^3
# Si number density = 28.049535 Si / 1000 Ang^3
#
#
#
# Elastic Constant Matrix: (Units=GPa)
#
#
# Indices 1 2 3 4 5 6 
#
# 1 173.7580 38.9691 41.0664 0.0000 -27.1257 0.0000
# 2 38.9691 101.9912 2.9120 0.0000 -24.5682 0.0000
# 3 41.0664 2.9120 107.3716 0.0000 -35.5158 0.0000
# 4 0.0000 0.0000 0.0000 33.2427 0.0000 -5.0055
# 5 -27.1257 -24.5682 -35.5158 0.0000 44.3399 0.0000
# 6 0.0000 0.0000 0.0000 -5.0055 0.0000 57.7681
#
#
#
# Elastic Compliance Matrix: (Units=1/GPa)
#
#
# Indices 1 2 3 4 5 6 
#
# 1 0.006986 -0.002310 -0.002202 0.000000 0.001229 0.000000
# 2 -0.002310 0.012554 0.003233 0.000000 0.008133 0.000000
# 3 -0.002202 0.003233 0.013897 0.000000 0.011575 0.000000
# 4 0.000000 0.000000 0.000000 0.030479 0.000000 0.002641
# 5 0.001229 0.008133 0.011575 0.000000 0.037083 0.000000
# 6 0.000000 0.000000 0.000000 0.002641 0.000000 0.017539
#
#
# Mechanical properties :
#
#
# Convention : Reuss Voigt Hill
#
# Bulk Modulus (GPa) = 32.38570 61.00175 46.69372
# Shear Modulus (GPa) = 38.05456 47.08168 42.56812
#
# Velocity S-wave (km/s) = 3.68733 4.10142 3.89987
# Velocity P-wave (km/s) = 5.44972 6.65011 6.07961
#
# Compressibility (1/GPa) = 0.03087783
#
# Stress axis : x y z
#
# Youngs Moduli (GPa) = 143.14976 79.65525 71.95809
#
# Poissons Ratio (x) = 0.18401 0.15849
# Poissons Ratio (y) = 0.33069 -0.23265
# Poissons Ratio (z) = 0.31529 -0.25753
#
# Static dielectric constant tensor:
#      x y z
#    x 2.259690 0.000000 0.062300 
#    y 0.000000 2.148210 0.000000 
#    z 0.062300 0.000000 2.247600 
# 
# From -- ./inp_files/77306.got.cif
#   From: 2010.05.17/outbox.cif.g08.bks.cpg/sg15_39_cif.got.tgz:77306.got - 2010.06.03 18:47:42.
