data_PCOD9254800
_publ_section_title
;
Structure prediction by ZEFSAII (Michael W. Deem and Ramdas Pophale) SiO2 
 PCOD9254800
Probable space group: C 2/C
;
_chemical_formula_sum "Si O2"
_cell_formula_units_Z 60
_cell_length_a 19.575391
_cell_length_b 7.883217
_cell_length_c 19.929696
_cell_angle_alpha 90.000000
_cell_angle_beta 69.465775
_cell_angle_gamma 90.000000
_cell_volume 2880.083937
_symmetry_space_group_name_H-M "C 2/C"
_symmetry_group_IT_number 15
_symmetry_cell_setting 'monoclinic'
loop_
_space_group_symop_operation_xyz
x,y,z
-x,y,1/2-z
-x,-y,-z
x,-y,1/2+z
1/2+x,1/2+y,z
1/2-x,1/2+y,1/2-z
1/2-x,1/2-y,-z
1/2+x,1/2-y,1/2+z
loop_
_atom_site_type_symbol
_atom_site_label
_atom_site_fract_x
_atom_site_fract_y
_atom_site_fract_z
Si Si1 0.572720 0.682217 0.349291
Si Si2 0.000000 0.788791 0.750000
Si Si3 0.384315 0.455043 0.357134
Si Si4 0.523780 0.700098 0.851053
Si Si5 0.469461 0.812712 0.499480
Si Si6 0.821150 0.844142 0.003999
Si Si7 0.166227 0.737574 0.240515
Si Si8 0.211970 0.995738 0.338350
O O1 0.541055 0.796165 0.299495
O O2 0.549991 0.493663 0.334102
O O3 0.527156 0.722652 0.431076
O O4 0.657024 0.651292 0.337110
O O5 0.932773 0.896070 0.806459
O O6 0.440865 0.304555 0.356404
O O7 0.348629 0.527640 0.436646
O O8 0.331108 0.375606 0.320400
O O9 0.582151 0.801106 0.787690
O O10 0.531052 0.735508 0.926495
O O11 0.388973 0.783093 0.496355
O O12 0.500000 0.000000 0.500000
O O13 0.750000 0.750000 0.000000
O O14 0.802524 0.939903 0.080127
O O15 0.197238 0.833185 0.295891
O O16 0.209267 0.572086 0.203738
#
# Coordination Sequence:
#
# PCOD9254800 Si02
#       8
#     8   4   8   8   8   8   8   8
#     4  10  19  39  68  92 120 172 223 265 336 416
#     4  10  16  34  70  98 108 168 228 274 320 404
#     4  11  20  40  72  95 124 176 232 276 332 419
#     4  10  19  40  69  92 124 167 229 276 335 403
#     4  12  24  40  67  98 131 173 230 289 335 398
#     4  12  27  44  65  96 149 184 221 282 361 418
#     4  11  23  40  70  99 133 174 228 279 338 419
#     4  11  25  42  67  98 134 180 219 276 349 416
#
# _framework density 20.832726999999998
#
# number of rings (size 3 to 8) (size 9 to 14) (size 15 to 20)
#    0.000    1.067    9.333    1.200    1.867    3.733 
#    0.000    0.000    2.933    0.000    0.000    0.000 
#    0.000    0.000    0.000    0.000    0.000    0.000 
#
# Total GULP energy -167296.892167 kJ/mol
# GULP energy per Si atom -5576.563072 kJ/mol
# Density = 2.078531 g / cm^3
# Si number density = 20.832727 Si / 1000 Ang^3
#
#
#
# Elastic Constant Matrix: (Units=GPa)
#
#
# Indices 1 2 3 4 5 6 
#
# 1 74.5677 23.5560 50.0444 0.0000 -1.0365 0.0001
# 2 23.5560 41.7848 34.9483 0.0001 -8.1798 0.0003
# 3 50.0444 34.9483 168.2910 0.0000 11.7169 0.0000
# 4 0.0000 0.0001 0.0000 -11.6480 0.0000 -24.7211
# 5 -1.0365 -8.1798 11.7169 0.0000 34.2302 0.0000
# 6 0.0001 0.0003 0.0000 -24.7211 0.0000 16.5269
#
#
#
# Elastic Compliance Matrix: (Units=1/GPa)
#
#
# Indices 1 2 3 4 5 6 
#
# 1 0.018295 -0.006886 -0.004030 0.000000 0.000288 0.000000
# 2 -0.006886 0.034688 -0.005858 0.000000 0.010086 0.000000
# 3 -0.004030 -0.005858 0.008670 0.000000 -0.004489 0.000000
# 4 0.000000 0.000000 0.000000 -0.020565 0.000000 -0.030762
# 5 0.000288 0.010086 -0.004489 0.000000 0.033170 0.000000
# 6 0.000000 0.000000 0.000000 -0.030762 0.000000 0.014494
#
#
# Mechanical properties :
#
#
# Convention : Reuss Voigt Hill
#
# Bulk Modulus (GPa) = 35.58283 55.74898 45.66590
# Shear Modulus (GPa) = 37.97410 19.56146 28.76778
#
# Velocity S-wave (km/s) = 4.27407 3.06760 3.72007
# Velocity P-wave (km/s) = 6.44005 6.27417 6.35765
#
# Compressibility (1/GPa) = 0.02810344
#
# Stress axis : x y z
#
# Youngs Moduli (GPa) = 54.65997 28.82816 115.34495
#
# Poissons Ratio (x) = 0.19852 0.46487
# Poissons Ratio (y) = 0.37641 0.67569
# Poissons Ratio (z) = 0.22030 0.16887
#
# Static dielectric constant tensor:
#      x y z
#    x 1.841670 0.000000 0.019020 
#    y 0.000000 1.775090 0.000000 
#    z 0.019020 0.000000 1.655170 
# 
# From -- ./inp_files/213836.got.cif
#   From: 2010.05.17/outbox.cif.g08.bks.cpg/sg15_107_cif.got.tgz:213836.got - 2010.06.03 18:47:42.
