data_PCOD9254349
_publ_section_title
;
Structure prediction by ZEFSAII (Michael W. Deem and Ramdas Pophale) SiO2 
 PCOD9254349
Probable space group: C 2/C
;
_chemical_formula_sum "Si O2"
_cell_formula_units_Z 44
_cell_length_a 18.319849
_cell_length_b 22.074400
_cell_length_c 16.836465
_cell_angle_alpha 90.000000
_cell_angle_beta 23.641594
_cell_angle_gamma 90.000000
_cell_volume 2730.369477
_symmetry_space_group_name_H-M "C 2/C"
_symmetry_group_IT_number 15
_symmetry_cell_setting 'monoclinic'
loop_
_space_group_symop_operation_xyz
x,y,z
-x,y,1/2-z
-x,-y,-z
x,-y,1/2+z
1/2+x,1/2+y,z
1/2-x,1/2+y,1/2-z
1/2-x,1/2-y,-z
1/2+x,1/2-y,1/2+z
loop_
_atom_site_type_symbol
_atom_site_label
_atom_site_fract_x
_atom_site_fract_y
_atom_site_fract_z
Si Si1 0.000000 0.492615 0.250000
Si Si2 0.358794 0.537636 0.319578
Si Si3 0.783601 0.679181 0.455899
Si Si4 0.694382 0.400005 0.188625
Si Si5 0.879758 0.588349 0.236990
Si Si6 0.575011 0.431958 0.917630
O O1 0.845922 0.453621 0.445679
O O2 0.900224 0.536483 0.284844
O O3 0.500000 0.545851 0.250000
O O4 0.355791 0.466524 0.295870
O O5 0.403114 0.577239 0.197935
O O6 0.750000 0.750000 0.500000
O O7 0.676597 0.646110 0.633252
O O8 0.765142 0.643551 0.391283
O O9 0.000000 0.669440 0.250000
O O10 0.568527 0.391054 0.390741
O O11 0.910042 0.398141 0.993951
O O12 0.765802 0.569092 0.274173
O O13 0.500000 0.500000 0.000000
#
# Coordination Sequence:
#
# PCOD9254349 Si02
#       6
#     4   8   8   8   8   8
#     4  10  16  30  48  56  94 130 154 204 232 290
#     4  10  19  30  45  67  91 126 170 194 247 290
#     4  10  20  31  48  73  93 138 170 196 242 287
#     4   9  19  32  45  64  98 130 162 203 241 283
#     4  10  18  33  44  65  99 127 168 198 238 291
#     4  10  21  28  46  70  89 133 169 202 246 282
#
# _framework density 16.115036
#
# number of rings (size 3 to 8) (size 9 to 14) (size 15 to 20)
#    0.000    2.182    4.545    2.182    2.545    8.000 
#    0.000    0.000    0.000    0.000    0.000    0.000 
#    0.000    1.455    0.000    0.182    0.000    0.000 
#
# Total GULP energy -122499.266934 kJ/mol
# GULP energy per Si atom -5568.148497 kJ/mol
# Density = 1.607836 g / cm^3
# Si number density = 16.115036 Si / 1000 Ang^3
#
#
#
# Elastic Constant Matrix: (Units=GPa)
#
#
# Indices 1 2 3 4 5 6 
#
# 1 131.1336 27.0258 61.1755 0.0148 3.0572 -0.0003
# 2 27.0258 33.4615 16.7459 0.1062 3.5671 0.0015
# 3 61.1755 16.7459 115.6917 0.0684 22.0583 0.0006
# 4 0.0148 0.1062 0.0684 18.5953 -0.0230 0.0145
# 5 3.0572 3.5671 22.0583 -0.0230 28.5001 -0.0106
# 6 -0.0003 0.0015 0.0006 0.0145 -0.0106 8.8743
#
#
#
# Elastic Compliance Matrix: (Units=1/GPa)
#
#
# Indices 1 2 3 4 5 6 
#
# 1 0.011773 -0.006944 -0.006036 0.000058 0.004278 0.000007
# 2 -0.006944 0.036322 -0.001009 -0.000202 -0.003020 -0.000010
# 3 -0.006036 -0.001009 0.013883 -0.000053 -0.009971 -0.000013
# 4 0.000058 -0.000202 -0.000053 0.053779 0.000103 -0.000088
# 5 0.004278 -0.003020 -0.009971 0.000103 0.042724 0.000052
# 6 0.000007 -0.000010 -0.000013 -0.000088 0.000052 0.112686
#
#
# Mechanical properties :
#
#
# Convention : Reuss Voigt Hill
#
# Bulk Modulus (GPa) = 29.41355 54.46458 41.93907
# Shear Modulus (GPa) = 16.10424 22.88325 19.49374
#
# Velocity S-wave (km/s) = 3.16465 3.77237 3.48179
# Velocity P-wave (km/s) = 5.62541 7.26946 6.49963
#
# Compressibility (1/GPa) = 0.03399793
#
# Stress axis : x y z
#
# Youngs Moduli (GPa) = 84.93972 27.53186 72.03268
#
# Poissons Ratio (x) = 0.19119 0.43478
# Poissons Ratio (y) = 0.58984 0.07272
# Poissons Ratio (z) = 0.51269 0.02779
#
# Static dielectric constant tensor:
#      x y z
#    x 1.587490 0.000060 -0.017180 
#    y 0.000060 1.545040 -0.000090 
#    z -0.017180 -0.000090 1.656400 
# 
# From -- ./inp_files/156116.got.cif
#   From: 2010.05.17/outbox.cif.g08.bks.cpg/sg15_79_cif.got.tgz:156116.got - 2010.06.03 18:47:42.
