data_PCOD9254012
_publ_section_title
;
Structure prediction by ZEFSAII (Michael W. Deem and Ramdas Pophale) SiO2 
 PCOD9254012
Probable space group: C 2/C
;
_chemical_formula_sum "Si O2"
_cell_formula_units_Z 40
_cell_length_a 12.183415
_cell_length_b 21.644925
_cell_length_c 11.243940
_cell_angle_alpha 90.000000
_cell_angle_beta 133.292052
_cell_angle_gamma 90.000000
_cell_volume 2158.222427
_symmetry_space_group_name_H-M "C 2/C"
_symmetry_group_IT_number 15
_symmetry_cell_setting 'monoclinic'
loop_
_space_group_symop_operation_xyz
x,y,z
-x,y,1/2-z
-x,-y,-z
x,-y,1/2+z
1/2+x,1/2+y,z
1/2-x,1/2+y,1/2-z
1/2-x,1/2-y,-z
1/2+x,1/2-y,1/2+z
loop_
_atom_site_type_symbol
_atom_site_label
_atom_site_fract_x
_atom_site_fract_y
_atom_site_fract_z
Si Si1 0.000000 0.907295 0.250000
Si Si2 0.706025 0.468960 0.589157
Si Si3 0.132623 0.712670 0.499183
Si Si4 0.000000 0.601285 0.250000
Si Si5 0.040583 0.088114 0.418567
Si Si6 0.878515 0.188424 0.852937
O O1 0.127395 0.947037 0.407999
O O2 0.070093 0.863810 0.202661
O O3 0.873691 0.442107 0.716154
O O4 0.675108 0.542043 0.561283
O O5 0.605440 0.437952 0.618334
O O6 0.250000 0.750000 0.500000
O O7 0.086082 0.648238 0.403481
O O8 0.211975 0.704431 0.685562
O O9 0.984733 0.753491 0.406779
O O10 0.087570 0.156299 0.496779
O O11 0.000000 0.085942 0.250000
#
# Coordination Sequence:
#
# PCOD9254012 Si02
#       6
#     4   8   8   4   8   8
#     4  10  15  32  58  90 114 145 196 248 316 358
#     4  10  21  36  65  93 119 158 208 263 307 368
#     4  12  19  34  58  97 124 151 196 268 326 352
#     4  12  21  34  66 106 128 139 206 290 318 338
#     4  10  22  42  61  83 125 183 209 230 311 398
#     4  11  21  33  60  88 120 155 203 255 310 365
#
# _framework density 18.533771000000002
#
# number of rings (size 3 to 8) (size 9 to 14) (size 15 to 20)
#    0.000    1.200    7.000    1.200    0.000    0.000 
#    0.000    5.000    0.000    0.000    0.000    0.000 
#    0.000    0.000    0.000    0.000    0.000    0.000 
#
# Total GULP energy -111547.558034 kJ/mol
# GULP energy per Si atom -5577.377902 kJ/mol
# Density = 1.849159 g / cm^3
# Si number density = 18.533771 Si / 1000 Ang^3
#
#
#
# Elastic Constant Matrix: (Units=GPa)
#
#
# Indices 1 2 3 4 5 6 
#
# 1 64.7840 30.5161 42.2795 0.0000 1.7381 0.0000
# 2 30.5161 55.5429 17.5748 0.0000 8.6892 0.0000
# 3 42.2795 17.5748 93.4267 0.0000 0.8557 0.0000
# 4 0.0000 0.0000 0.0000 15.9052 0.0000 3.4291
# 5 1.7381 8.6892 0.8557 0.0000 33.0333 0.0000
# 6 0.0000 0.0000 0.0000 3.4291 0.0000 22.7287
#
#
#
# Elastic Compliance Matrix: (Units=1/GPa)
#
#
# Indices 1 2 3 4 5 6 
#
# 1 0.027985 -0.012425 -0.010346 0.000000 0.002064 0.000000
# 2 -0.012425 0.025502 0.000881 0.000000 -0.006077 0.000000
# 3 -0.010346 0.000881 0.015221 0.000000 -0.000082 0.000000
# 4 0.000000 0.000000 0.000000 0.064987 0.000000 -0.009805
# 5 0.002064 -0.006077 -0.000082 0.000000 0.031765 0.000000
# 6 0.000000 0.000000 0.000000 -0.009805 0.000000 0.045477
#
#
# Mechanical properties :
#
#
# Convention : Reuss Voigt Hill
#
# Bulk Modulus (GPa) = 40.11445 43.83270 41.97358
# Shear Modulus (GPa) = 19.00959 22.55898 20.78428
#
# Velocity S-wave (km/s) = 3.20609 3.49260 3.35241
# Velocity P-wave (km/s) = 5.94948 6.32185 6.13849
#
# Compressibility (1/GPa) = 0.02492867
#
# Stress axis : x y z
#
# Youngs Moduli (GPa) = 35.73313 39.21201 65.70016
#
# Poissons Ratio (x) = 0.48720 0.67974
# Poissons Ratio (y) = 0.44397 -0.05788
# Poissons Ratio (z) = 0.36970 -0.03455
#
# Static dielectric constant tensor:
#      x y z
#    x 1.642060 0.000000 -0.017550 
#    y 0.000000 1.685760 0.000000 
#    z -0.017550 0.000000 1.680890 
# 
# From -- ./inp_files/30227.got.cif
#   From: 2010.05.17/outbox.cif.g08.bks.cpg/sg15_16_cif.got.tgz:30227.got - 2010.06.03 18:47:42.
