data_PCOD9254977
_publ_section_title
;
Structure prediction by ZEFSAII (Michael W. Deem and Ramdas Pophale) SiO2 
 PCOD9254977
Probable space group: C 2/C
;
_chemical_formula_sum "Si O2"
_cell_formula_units_Z 56
_cell_length_a 9.459288
_cell_length_b 16.953794
_cell_length_c 20.640345
_cell_angle_alpha 90.000000
_cell_angle_beta 44.842377
_cell_angle_gamma 90.000000
_cell_volume 2334.152624
_symmetry_space_group_name_H-M "C 2/C"
_symmetry_group_IT_number 15
_symmetry_cell_setting 'monoclinic'
loop_
_space_group_symop_operation_xyz
x,y,z
-x,y,1/2-z
-x,-y,-z
x,-y,1/2+z
1/2+x,1/2+y,z
1/2-x,1/2+y,1/2-z
1/2-x,1/2-y,-z
1/2+x,1/2-y,1/2+z
loop_
_atom_site_type_symbol
_atom_site_label
_atom_site_fract_x
_atom_site_fract_y
_atom_site_fract_z
Si Si1 0.789263 0.864562 0.619757
Si Si2 0.261600 0.301691 0.402751
Si Si3 0.381646 0.532489 0.888412
Si Si4 0.333083 0.393520 0.092546
Si Si5 0.812491 0.919014 0.756070
Si Si6 0.419793 0.986186 0.900802
Si Si7 0.103922 0.727992 0.385530
O O1 0.765627 0.770809 0.637217
O O2 0.758197 0.903569 0.698242
O O3 0.004737 0.884490 0.518489
O O4 0.645514 0.903141 0.612042
O O5 0.325303 0.389909 0.365625
O O6 0.441018 0.267029 0.389359
O O7 0.049527 0.305654 0.510141
O O8 0.549670 0.563755 0.886341
O O9 0.468784 0.457377 0.822842
O O10 0.195814 0.508851 0.994139
O O11 0.157023 0.447044 0.122691
O O12 0.277062 0.304569 0.128290
O O13 0.754085 0.837882 0.810499
O O14 0.654934 0.983629 0.831775
#
# Coordination Sequence:
#
# PCOD9254977 Si02
#       7
#     8   8   8   8   8   8   8
#     4  10  17  26  45  68 104 137 168 215 260 307
#     4   9  16  30  40  62 107 143 159 211 281 298
#     4  10  18  28  42  68 107 137 167 214 261 313
#     4   9  17  29  40  63 108 141 159 210 279 305
#     4  12  19  26  48  79 100 137 180 212 254 311
#     4  11  17  28  42  71 109 136 164 217 266 300
#     4   9  17  27  43  63 103 139 164 210 268 313
#
# _framework density 23.991575000000001
#
# number of rings (size 3 to 8) (size 9 to 14) (size 15 to 20)
#    0.000    2.000    5.714    3.000    0.000    0.000 
#    0.000    0.000    0.000    0.000    0.000    6.000 
#    0.000   70.857    0.000    0.000    0.000    6.571 
#
# Total GULP energy -156524.555798 kJ/mol
# GULP energy per Si atom -5590.162707 kJ/mol
# Density = 2.393697 g / cm^3
# Si number density = 23.991575 Si / 1000 Ang^3
#
#
#
# Elastic Constant Matrix: (Units=GPa)
#
#
# Indices 1 2 3 4 5 6 
#
# 1 49.2950 29.4866 31.9810 -0.0005 -14.5500 0.0003
# 2 29.4866 169.0706 75.3009 -0.0002 -3.5378 0.0001
# 3 31.9810 75.3009 118.2955 0.0025 2.8146 0.0000
# 4 -0.0005 -0.0002 0.0025 42.7683 0.0005 -0.1659
# 5 -14.5500 -3.5378 2.8146 0.0005 19.5871 -0.0004
# 6 0.0003 0.0001 0.0000 -0.1659 -0.0004 29.8654
#
#
#
# Elastic Compliance Matrix: (Units=1/GPa)
#
#
# Indices 1 2 3 4 5 6 
#
# 1 0.035168 -0.001454 -0.009229 0.000001 0.027187 0.000000
# 2 -0.001454 0.008416 -0.004991 0.000000 0.001157 0.000000
# 3 -0.009229 -0.004991 0.014359 -0.000001 -0.009820 0.000000
# 4 0.000001 0.000000 -0.000001 0.023382 0.000000 0.000130
# 5 0.027187 0.001157 -0.009820 0.000000 0.072870 0.000001
# 6 0.000000 0.000000 0.000000 0.000130 0.000001 0.033484
#
#
# Mechanical properties :
#
#
# Convention : Reuss Voigt Hill
#
# Bulk Modulus (GPa) = 37.60233 67.79980 52.70106
# Shear Modulus (GPa) = 21.94021 31.77035 26.85528
#
# Velocity S-wave (km/s) = 3.02734 3.64294 3.34932
# Velocity P-wave (km/s) = 5.28459 6.78350 6.08041
#
# Compressibility (1/GPa) = 0.02659410
#
# Stress axis : x y z
#
# Youngs Moduli (GPa) = 28.43511 118.82760 69.64155
#
# Poissons Ratio (x) = 0.17280 0.64270
# Poissons Ratio (y) = 0.04135 0.34760
# Poissons Ratio (z) = 0.26242 0.59310
#
# Static dielectric constant tensor:
#      x y z
#    x 1.975420 0.000000 -0.009720 
#    y 0.000000 1.920100 0.000000 
#    z -0.009720 0.000000 1.889180 
# 
# From -- ./inp_files/153493.got.cif
#   From: 2010.05.17/outbox.cif.g08.bks.cpg/sg15_77_cif.got.tgz:153493.got - 2010.06.03 18:47:42.
