data_PCOD9254599
_publ_section_title
;
Structure prediction by ZEFSAII (Michael W. Deem and Ramdas Pophale) SiO2 
 PCOD9254599
Probable space group: C 2/C
;
_chemical_formula_sum "Si O2"
_cell_formula_units_Z 52
_cell_length_a 11.881755
_cell_length_b 27.369682
_cell_length_c 9.408290
_cell_angle_alpha 90.000000
_cell_angle_beta 92.307831
_cell_angle_gamma 90.000000
_cell_volume 3057.092934
_symmetry_space_group_name_H-M "C 2/C"
_symmetry_group_IT_number 15
_symmetry_cell_setting 'monoclinic'
loop_
_space_group_symop_operation_xyz
x,y,z
-x,y,1/2-z
-x,-y,-z
x,-y,1/2+z
1/2+x,1/2+y,z
1/2-x,1/2+y,1/2-z
1/2-x,1/2-y,-z
1/2+x,1/2-y,1/2+z
loop_
_atom_site_type_symbol
_atom_site_label
_atom_site_fract_x
_atom_site_fract_y
_atom_site_fract_z
Si Si1 0.379657 0.443201 0.927169
Si Si2 0.320610 0.671355 0.454980
Si Si3 0.871189 0.309988 0.776006
Si Si4 0.855086 0.034486 0.103114
Si Si5 0.296863 0.364641 0.537439
Si Si6 0.869919 0.196032 0.770882
Si Si7 0.500000 0.327084 0.750000
O O1 0.351875 0.386570 0.954123
O O2 0.514104 0.452203 0.923878
O O3 0.335785 0.459403 0.769977
O O4 0.335014 0.480410 0.043724
O O5 0.205963 0.680817 0.365782
O O6 0.313172 0.689370 0.614900
O O7 0.422062 0.697000 0.368509
O O8 0.812155 0.341428 0.895187
O O9 0.864203 0.252676 0.814337
O O10 0.000000 0.322168 0.750000
O O11 0.786752 0.077350 0.022656
O O12 0.323003 0.337997 0.392029
O O13 0.402937 0.354723 0.652333
O O14 0.000000 0.182821 0.750000
#
# Coordination Sequence:
#
# PCOD9254599 Si02
#       7
#     8   8   8   8   8   8   4
#     4  10  18  30  49  81 113 139 168 211 279 341
#     4  11  19  36  56  79 116 146 178 223 281 330
#     4  10  23  39  56  74 108 154 195 225 262 315
#     4  10  18  30  49  81 113 139 168 211 279 341
#     4  11  19  36  56  79 116 146 178 223 281 330
#     4  11  21  33  56  90 110 134 189 229 281 330
#     4  10  16  32  54  78 106 156 166 208 282 334
#
# _framework density 17.009623999999999
#
# number of rings (size 3 to 8) (size 9 to 14) (size 15 to 20)
#    0.000    1.538    6.154    0.923    2.154    0.000 
#    0.000    0.769    0.000    0.923    0.000    0.000 
#    0.000    0.000    0.000    0.000    0.000    0.000 
#
# Total GULP energy -144919.899666 kJ/mol
# GULP energy per Si atom -5573.842295 kJ/mol
# Density = 1.697091 g / cm^3
# Si number density = 17.009624 Si / 1000 Ang^3
#
#
#
# Elastic Constant Matrix: (Units=GPa)
#
#
# Indices 1 2 3 4 5 6 
#
# 1 71.3969 25.1531 19.6642 0.0000 -4.8524 0.0000
# 2 25.1531 55.8797 22.3274 0.0000 -15.3726 0.0000
# 3 19.6642 22.3274 69.1301 0.0000 -10.3233 0.0000
# 4 0.0000 0.0000 0.0000 20.8084 0.0000 7.4677
# 5 -4.8524 -15.3726 -10.3233 0.0000 13.2187 0.0000
# 6 0.0000 0.0000 0.0000 7.4677 0.0000 -6.2418
#
#
#
# Elastic Compliance Matrix: (Units=1/GPa)
#
#
# Indices 1 2 3 4 5 6 
#
# 1 0.017337 -0.008046 -0.003147 0.000000 -0.005450 0.000000
# 2 -0.008046 0.031315 -0.003201 0.000000 0.030963 0.000000
# 3 -0.003147 -0.003201 0.017734 0.000000 0.008972 0.000000
# 4 0.000000 0.000000 0.000000 0.033622 0.000000 0.040225
# 5 -0.005450 0.030963 0.008972 0.000000 0.116665 0.000000
# 6 0.000000 0.000000 0.000000 0.040225 0.000000 -0.112086
#
#
# Mechanical properties :
#
#
# Convention : Reuss Voigt Hill
#
# Bulk Modulus (GPa) = 26.59744 36.74400 31.67072
# Shear Modulus (GPa) = 34.26822 14.17453 24.22138
#
# Velocity S-wave (km/s) = 4.49334 2.88987 3.77766
# Velocity P-wave (km/s) = 6.52616 5.72572 6.13900
#
# Compressibility (1/GPa) = 0.03759761
#
# Stress axis : x y z
#
# Youngs Moduli (GPa) = 57.67981 31.93402 56.38790
#
# Poissons Ratio (x) = 0.25694 0.17744
# Poissons Ratio (y) = 0.46409 0.18052
# Poissons Ratio (z) = 0.18151 0.10223
#
# Static dielectric constant tensor:
#      x y z
#    x 1.563110 0.000000 0.014870 
#    y 0.000000 1.592430 0.000000 
#    z 0.014870 0.000000 1.618140 
# 
# From -- ./inp_files/33617.got.cif
#   From: 2010.05.17/outbox.cif.g08.bks.cpg/sg15_17_cif.got.tgz:33617.got - 2010.06.03 18:47:42.
