data_PCOD9254406
_publ_section_title
;
Structure prediction by ZEFSAII (Michael W. Deem and Ramdas Pophale) SiO2 
 PCOD9254406
Probable space group: C 2/C
;
_chemical_formula_sum "Si O2"
_cell_formula_units_Z 56
_cell_length_a 16.862205
_cell_length_b 12.012929
_cell_length_c 14.022022
_cell_angle_alpha 90.000000
_cell_angle_beta 54.451855
_cell_angle_gamma 90.000000
_cell_volume 2310.997188
_symmetry_space_group_name_H-M "C 2/C"
_symmetry_group_IT_number 15
_symmetry_cell_setting 'monoclinic'
loop_
_space_group_symop_operation_xyz
x,y,z
-x,y,1/2-z
-x,-y,-z
x,-y,1/2+z
1/2+x,1/2+y,z
1/2-x,1/2+y,1/2-z
1/2-x,1/2-y,-z
1/2+x,1/2-y,1/2+z
loop_
_atom_site_type_symbol
_atom_site_label
_atom_site_fract_x
_atom_site_fract_y
_atom_site_fract_z
Si Si1 0.358981 0.045631 0.810515
Si Si2 0.829409 0.845000 0.412297
Si Si3 0.360909 0.543804 0.080802
Si Si4 0.560105 0.913428 0.897455
Si Si5 0.216074 0.434772 0.939339
Si Si6 0.813333 0.232941 0.262928
Si Si7 0.101079 0.819760 0.341945
O O1 0.377082 0.159153 0.740529
O O2 0.247966 0.002611 0.869618
O O3 0.427639 0.951812 0.719380
O O4 0.359747 0.072903 0.921506
O O5 0.750000 0.750000 0.500000
O O6 0.887756 0.895629 0.462025
O O7 0.895872 0.816887 0.275018
O O8 0.767661 0.948404 0.414855
O O9 0.356138 0.641315 0.162179
O O10 0.413027 0.436091 0.092108
O O11 0.664748 0.930379 0.873769
O O12 0.535594 0.784019 0.922349
O O13 0.500000 0.000000 0.000000
O O14 0.289637 0.331380 0.879015
O O15 0.712637 0.282789 0.290881
#
# Coordination Sequence:
#
# PCOD9254406 Si02
#       7
#     8   8   8   8   8   8   8
#     4  10  19  32  51  81 112 143 181 225 283 340
#     4  11  18  28  54  87 116 146 173 230 295 347
#     4  10  18  29  51  85 117 145 172 226 300 341
#     4  11  23  39  55  74 108 157 196 233 270 316
#     4  10  19  33  52  83 111 139 182 226 286 342
#     4  10  16  30  52  81 116 141 165 227 293 344
#     4  10  18  34  49  78 121 141 189 233 273 343
#
# _framework density 24.231964000000001
#
# number of rings (size 3 to 8) (size 9 to 14) (size 15 to 20)
#    0.000    1.714    5.714    2.143    0.000    1.714 
#    0.000    0.000    0.000    0.857    0.000    0.000 
#    0.000    0.000    0.000    0.000    0.000    0.000 
#
# Total GULP energy -156335.498403 kJ/mol
# GULP energy per Si atom -5583.410657 kJ/mol
# Density = 2.417681 g / cm^3
# Si number density = 24.231964 Si / 1000 Ang^3
#
#
#
# Elastic Constant Matrix: (Units=GPa)
#
#
# Indices 1 2 3 4 5 6 
#
# 1 55.5671 35.7311 19.1177 0.0000 16.7362 0.0000
# 2 35.7311 176.0093 58.4286 0.0000 11.7974 0.0000
# 3 19.1177 58.4286 125.9337 0.0000 32.8814 0.0000
# 4 0.0000 0.0000 0.0000 50.6832 0.0000 3.5767
# 5 16.7362 11.7974 32.8814 0.0000 28.9779 0.0000
# 6 0.0000 0.0000 0.0000 3.5767 0.0000 26.3700
#
#
#
# Elastic Compliance Matrix: (Units=1/GPa)
#
#
# Indices 1 2 3 4 5 6 
#
# 1 0.024821 -0.004829 0.002419 0.000000 -0.015114 0.000000
# 2 -0.004829 0.007682 -0.003897 0.000000 0.004084 0.000000
# 3 0.002419 -0.003897 0.013261 0.000000 -0.014858 0.000000
# 4 0.000000 0.000000 0.000000 0.019921 0.000000 -0.002702
# 5 -0.015114 0.004084 -0.014858 0.000000 0.058435 0.000000
# 6 0.000000 0.000000 0.000000 -0.002702 0.000000 0.038288
#
#
# Mechanical properties :
#
#
# Convention : Reuss Voigt Hill
#
# Bulk Modulus (GPa) = 30.16645 64.89609 47.53127
# Shear Modulus (GPa) = 26.87115 37.48841 32.17978
#
# Velocity S-wave (km/s) = 3.33365 3.93754 3.64811
# Velocity P-wave (km/s) = 5.22433 6.89287 6.11577
#
# Compressibility (1/GPa) = 0.03314940
#
# Stress axis : x y z
#
# Youngs Moduli (GPa) = 40.28782 130.17728 75.40859
#
# Poissons Ratio (x) = 0.62859 -0.18238
# Poissons Ratio (y) = 0.19454 0.29389
# Poissons Ratio (z) = -0.09744 0.50734
#
# Static dielectric constant tensor:
#      x y z
#    x 2.048680 0.000000 -0.090690 
#    y 0.000000 1.994650 0.000000 
#    z -0.090690 0.000000 2.048620 
# 
# From -- ./inp_files/161236.got.cif
#   From: 2010.05.17/outbox.cif.g08.bks.cpg/sg15_81_cif.got.tgz:161236.got - 2010.06.03 18:47:42.
