data_PCOD9254049
_publ_section_title
;
Structure prediction by ZEFSAII (Michael W. Deem and Ramdas Pophale) SiO2 
 PCOD9254049
Probable space group: C 2/C
;
_chemical_formula_sum "Si O2"
_cell_formula_units_Z 48
_cell_length_a 15.201291
_cell_length_b 28.167161
_cell_length_c 8.003159
_cell_angle_alpha 90.000000
_cell_angle_beta 146.561743
_cell_angle_gamma 90.000000
_cell_volume 1888.280838
_symmetry_space_group_name_H-M "C 2/C"
_symmetry_group_IT_number 15
_symmetry_cell_setting 'monoclinic'
loop_
_space_group_symop_operation_xyz
x,y,z
-x,y,1/2-z
-x,-y,-z
x,-y,1/2+z
1/2+x,1/2+y,z
1/2-x,1/2+y,1/2-z
1/2-x,1/2-y,-z
1/2+x,1/2-y,1/2+z
loop_
_atom_site_type_symbol
_atom_site_label
_atom_site_fract_x
_atom_site_fract_y
_atom_site_fract_z
Si Si1 0.336423 0.844213 0.768916
Si Si2 0.099248 0.192392 0.626942
Si Si3 0.094786 0.719913 0.576150
Si Si4 0.162525 0.007512 0.107835
Si Si5 0.587766 0.607015 0.074689
Si Si6 0.847549 0.444977 0.616017
O O1 0.208520 0.810629 0.469182
O O2 0.503822 0.818034 0.047734
O O3 0.249145 0.863773 0.793466
O O4 0.357666 0.890580 0.685545
O O5 0.957291 0.229338 0.434825
O O6 0.023959 0.140031 0.490359
O O7 0.222187 0.209089 0.678889
O O8 0.000000 0.714717 0.250000
O O9 0.305422 0.024368 0.212541
O O10 0.203525 0.959384 0.266203
O O11 0.138609 0.053239 0.191801
O O12 0.000000 0.003381 0.750000
O O13 0.500000 0.604588 0.750000
O O14 0.000000 0.458069 0.750000
#
# Coordination Sequence:
#
# PCOD9254049 Si02
#       6
#     8   8   8   8   8   8
#     4   9  17  27  41  62  94 134 170 207 260 318
#     4  10  16  24  38  60  92 131 166 202 258 327
#     4  10  16  22  36  60  90 132 163 200 257 328
#     4  10  21  35  55  77 105 146 190 230 277 326
#     4   8  15  28  42  61  90 130 167 209 257 314
#     4  11  21  36  54  78 108 147 188 232 276 325
#
# _framework density 25.419948999999999
#
# number of rings (size 3 to 8) (size 9 to 14) (size 15 to 20)
#    0.000    2.333    0.000    8.000    0.000    0.000 
#    0.000    0.000    0.000    0.000    0.000    0.000 
#    0.000    0.000    0.000  685.500    0.000    7.167 
#
# Total GULP energy -134216.019887 kJ/mol
# GULP energy per Si atom -5592.334162 kJ/mol
# Density = 2.536209 g / cm^3
# Si number density = 25.419949 Si / 1000 Ang^3
#
#
#
# Elastic Constant Matrix: (Units=GPa)
#
#
# Indices 1 2 3 4 5 6 
#
# 1 130.6791 43.1378 36.4578 0.0000 47.7872 0.0000
# 2 43.1378 143.5042 34.9506 0.0000 9.7171 0.0000
# 3 36.4578 34.9506 36.6549 0.0000 3.7451 0.0000
# 4 0.0000 0.0000 0.0000 6.0713 0.0000 13.9959
# 5 47.7872 9.7171 3.7451 0.0000 35.3147 0.0000
# 6 0.0000 0.0000 0.0000 13.9959 0.0000 29.9561
#
#
#
# Elastic Compliance Matrix: (Units=1/GPa)
#
#
# Indices 1 2 3 4 5 6 
#
# 1 0.025750 -0.000147 -0.022155 0.000000 -0.032454 0.000000
# 2 -0.000147 0.009167 -0.008449 0.000000 -0.001428 0.000000
# 3 -0.022155 -0.008449 0.054665 0.000000 0.026508 0.000000
# 4 0.000000 0.000000 0.000000 -2.137812 0.000000 0.998816
# 5 -0.032454 -0.001428 0.026508 0.000000 0.069815 0.000000
# 6 0.000000 0.000000 0.000000 0.998816 0.000000 -0.433279
#
#
# Mechanical properties :
#
#
# Convention : Reuss Voigt Hill
#
# Bulk Modulus (GPa) = 35.61254 59.99231 47.80242
# Shear Modulus (GPa) = -2.13599 27.35454 12.60927
#
# Velocity S-wave (km/s) = -0.91766 3.28396 2.22961
# Velocity P-wave (km/s) = 3.59406 6.16692 5.04719
#
# Compressibility (1/GPa) = 0.02808000
#
# Stress axis : x y z
#
# Youngs Moduli (GPa) = 38.83498 109.08719 18.29311
#
# Poissons Ratio (x) = 0.01603 0.40529
# Poissons Ratio (y) = 0.00571 0.15455
# Poissons Ratio (z) = 0.86041 0.92165
#
# Static dielectric constant tensor:
#      x y z
#    x 2.049640 0.000000 0.012140 
#    y 0.000000 1.984130 0.000000 
#    z 0.012140 0.000000 2.002780 
# 
# From -- ./inp_files/44678.got.cif
#   From: 2010.05.17/outbox.cif.g08.bks.cpg/sg15_23_cif.got.tgz:44678.got - 2010.06.03 18:47:42.
