data_PCOD9254029
_publ_section_title
;
Structure prediction by ZEFSAII (Michael W. Deem and Ramdas Pophale) SiO2 
 PCOD9254029
Probable space group: C 2/C
;
_chemical_formula_sum "Si O2"
_cell_formula_units_Z 56
_cell_length_a 11.720034
_cell_length_b 16.337323
_cell_length_c 25.321690
_cell_angle_alpha 90.000000
_cell_angle_beta 137.971883
_cell_angle_gamma 90.000000
_cell_volume 3246.010575
_symmetry_space_group_name_H-M "C 2/C"
_symmetry_group_IT_number 15
_symmetry_cell_setting 'monoclinic'
loop_
_space_group_symop_operation_xyz
x,y,z
-x,y,1/2-z
-x,-y,-z
x,-y,1/2+z
1/2+x,1/2+y,z
1/2-x,1/2+y,1/2-z
1/2-x,1/2-y,-z
1/2+x,1/2-y,1/2+z
loop_
_atom_site_type_symbol
_atom_site_label
_atom_site_fract_x
_atom_site_fract_y
_atom_site_fract_z
Si Si1 0.683476 0.596714 0.786739
Si Si2 0.840547 0.573801 0.331593
Si Si3 0.545283 0.685127 0.182903
Si Si4 0.052431 0.668018 0.329283
Si Si5 0.625441 0.745959 0.097453
Si Si6 0.156066 0.292778 0.581135
Si Si7 0.323173 0.302689 0.311363
O O1 0.500000 0.583100 0.750000
O O2 0.802768 0.518326 0.834211
O O3 0.766860 0.677084 0.842365
O O4 0.662724 0.614413 0.716706
O O5 0.662578 0.612724 0.247410
O O6 0.894310 0.630358 0.399364
O O7 0.984693 0.588610 0.336758
O O8 0.569728 0.692157 0.128561
O O9 0.349136 0.687274 0.130764
O O10 0.634769 0.766259 0.237248
O O11 0.249251 0.692772 0.396377
O O12 0.000000 0.664185 0.250000
O O13 0.948512 0.741082 0.322261
O O14 0.466259 0.778839 0.010012
O O15 0.144041 0.213435 0.615869
#
# Coordination Sequence:
#
# PCOD9254029 Si02
#       7
#     8   8   8   8   8   8   8
#     4  11  19  35  54  81 106 144 178 227 266 329
#     4  10  21  32  56  76 110 135 180 220 280 300
#     4   9  17  34  53  74 102 145 178 217 257 324
#     4  10  15  36  54  78  97 142 185 216 251 335
#     4  11  19  32  60  76 107 142 182 216 272 314
#     4  10  20  32  51  85 107 134 178 234 260 319
#     4   9  17  31  56  75 101 136 189 220 256 302
#
# _framework density 17.251947000000001
#
# number of rings (size 3 to 8) (size 9 to 14) (size 15 to 20)
#    0.000    2.286    5.714    3.000    0.000    2.857 
#    0.000    2.857    0.000    0.857    0.000    0.000 
#    0.000    0.000    0.000    0.000    0.000    0.000 
#
# Total GULP energy -155902.044124 kJ/mol
# GULP energy per Si atom -5567.930147 kJ/mol
# Density = 1.721268 g / cm^3
# Si number density = 17.251947 Si / 1000 Ang^3
#
#
#
# Elastic Constant Matrix: (Units=GPa)
#
#
# Indices 1 2 3 4 5 6 
#
# 1 84.9248 8.2834 9.8956 0.0000 4.9544 0.0000
# 2 8.2834 37.6031 -4.7212 0.0000 -1.0088 0.0000
# 3 9.8956 -4.7212 49.1647 0.0000 -9.3740 0.0000
# 4 0.0000 0.0000 0.0000 12.7256 0.0000 3.8682
# 5 4.9544 -1.0088 -9.3740 0.0000 15.1785 0.0000
# 6 0.0000 0.0000 0.0000 3.8682 0.0000 17.9137
#
#
#
# Elastic Compliance Matrix: (Units=1/GPa)
#
#
# Indices 1 2 3 4 5 6 
#
# 1 0.013053 -0.003613 -0.004344 0.000000 -0.007183 0.000000
# 2 -0.003613 0.028117 0.004543 0.000000 0.005854 0.000000
# 3 -0.004344 0.004543 0.024912 0.000000 0.017105 0.000000
# 4 0.000000 0.000000 0.000000 0.084102 0.000000 -0.018161
# 5 -0.007183 0.005854 0.017105 0.000000 0.079180 0.000000
# 6 0.000000 0.000000 0.000000 -0.018161 0.000000 0.059745
#
#
# Mechanical properties :
#
#
# Convention : Reuss Voigt Hill
#
# Bulk Modulus (GPa) = 16.87650 22.06758 19.47204
# Shear Modulus (GPa) = 15.83844 19.71252 17.77548
#
# Velocity S-wave (km/s) = 3.03325 3.38394 3.21338
# Velocity P-wave (km/s) = 4.69799 5.29974 5.00791
#
# Compressibility (1/GPa) = 0.05925400
#
# Stress axis : x y z
#
# Youngs Moduli (GPa) = 76.61204 35.56564 40.14186
#
# Poissons Ratio (x) = 0.12851 0.17437
# Poissons Ratio (y) = 0.27683 -0.18238
# Poissons Ratio (z) = 0.33279 -0.16159
#
# Static dielectric constant tensor:
#      x y z
#    x 1.622680 0.000000 -0.014750 
#    y 0.000000 1.590560 0.000000 
#    z -0.014750 0.000000 1.590760 
# 
# From -- ./inp_files/225714.got.cif
#   From: 2010.05.17/outbox.cif.g08.bks.cpg/sg15_113_cif.got.tgz:225714.got - 2010.06.03 18:47:42.
