data_PCOD9254719
_publ_section_title
;
Structure prediction by ZEFSAII (Michael W. Deem and Ramdas Pophale) SiO2 
 PCOD9254719
Probable space group: C 2/C
;
_chemical_formula_sum "Si O2"
_cell_formula_units_Z 44
_cell_length_a 22.224320
_cell_length_b 20.803505
_cell_length_c 15.840491
_cell_angle_alpha 90.000000
_cell_angle_beta 161.271112
_cell_angle_gamma 90.000000
_cell_volume 2351.587385
_symmetry_space_group_name_H-M "C 2/C"
_symmetry_group_IT_number 15
_symmetry_cell_setting 'monoclinic'
loop_
_space_group_symop_operation_xyz
x,y,z
-x,y,1/2-z
-x,-y,-z
x,-y,1/2+z
1/2+x,1/2+y,z
1/2-x,1/2+y,1/2-z
1/2-x,1/2-y,-z
1/2+x,1/2-y,1/2+z
loop_
_atom_site_type_symbol
_atom_site_label
_atom_site_fract_x
_atom_site_fract_y
_atom_site_fract_z
Si Si1 0.283819 0.424125 0.987191
Si Si2 0.662364 0.666070 0.805622
Si Si3 0.051753 0.430819 0.526743
Si Si4 0.809326 0.076738 0.044286
Si Si5 0.500000 0.744052 0.750000
Si Si6 0.893446 0.930702 0.851554
O O1 0.500000 0.412578 0.250000
O O2 0.233045 0.391596 0.006807
O O3 0.278428 0.500311 0.991316
O O4 0.151983 0.396791 0.738785
O O5 0.561543 0.704367 0.748600
O O6 0.520737 0.628044 0.556222
O O7 0.821834 0.713307 0.984206
O O8 0.211231 0.438584 0.668212
O O9 0.000000 0.500000 0.500000
O O10 0.873381 0.397060 0.247087
O O11 0.834178 0.085370 0.177065
O O12 0.000000 0.095234 0.250000
O O13 0.000000 0.000000 0.000000
#
# Coordination Sequence:
#
# PCOD9254719 Si02
#       6
#     8   8   8   8   4   8
#     4  10  16  34  54  78 119 154 185 242 301 351
#     4  11  21  38  59  84 118 156 207 255 300 356
#     4  10  20  31  51  79 122 165 187 227 301 378
#     4  10  21  34  50  84 124 159 195 234 308 379
#     4  10  24  38  56  88 118 166 214 244 296 354
#     4  12  20  35  58  86 120 158 197 252 317 367
#
# _framework density 18.710766
#
# number of rings (size 3 to 8) (size 9 to 14) (size 15 to 20)
#    0.000    1.455    4.545    2.727    0.000    4.364 
#    0.000    0.000    0.000    0.000    0.000   31.818 
#    0.000    0.000    0.000    0.000    0.000    0.000 
#
# Total GULP energy -122531.907560 kJ/mol
# GULP energy per Si atom -5569.632162 kJ/mol
# Density = 1.866818 g / cm^3
# Si number density = 18.710766 Si / 1000 Ang^3
#
#
#
# Elastic Constant Matrix: (Units=GPa)
#
#
# Indices 1 2 3 4 5 6 
#
# 1 93.1557 1.7315 64.9080 0.0000 -18.5241 0.0000
# 2 1.7315 35.2969 28.7062 0.0000 5.5105 0.0000
# 3 64.9080 28.7062 157.4509 0.0000 -29.1493 0.0000
# 4 0.0000 0.0000 0.0000 17.6588 0.0000 -9.4218
# 5 -18.5241 5.5105 -29.1493 0.0000 41.8311 0.0000
# 6 0.0000 0.0000 0.0000 -9.4218 0.0000 12.8140
#
#
#
# Elastic Compliance Matrix: (Units=1/GPa)
#
#
# Indices 1 2 3 4 5 6 
#
# 1 0.015936 0.004849 -0.007193 0.000000 0.001406 0.000000
# 2 0.004849 0.038724 -0.011029 0.000000 -0.010639 0.000000
# 3 -0.007193 -0.011029 0.012637 0.000000 0.007073 0.000000
# 4 0.000000 0.000000 0.000000 0.093186 0.000000 0.068517
# 5 0.001406 -0.010639 0.007073 0.000000 0.030858 0.000000
# 6 0.000000 0.000000 0.000000 0.068517 0.000000 0.128418
#
#
# Mechanical properties :
#
#
# Convention : Reuss Voigt Hill
#
# Bulk Modulus (GPa) = 24.66053 52.95498 38.80775
# Shear Modulus (GPa) = 13.88804 27.16464 20.52634
#
# Velocity S-wave (km/s) = 2.72738 3.81441 3.31574
# Velocity P-wave (km/s) = 4.80901 6.91107 5.95355
#
# Compressibility (1/GPa) = 0.04055063
#
# Stress axis : x y z
#
# Youngs Moduli (GPa) = 62.74993 25.82407 79.13383
#
# Poissons Ratio (x) = -0.12522 0.56925
# Poissons Ratio (y) = -0.30428 0.87274
# Poissons Ratio (z) = 0.45139 0.28480
#
# Static dielectric constant tensor:
#      x y z
#    x 1.635920 0.000000 -0.004530 
#    y 0.000000 1.712270 0.000000 
#    z -0.004530 0.000000 1.727340 
# 
# From -- ./inp_files/169642.got.cif
#   From: 2010.05.17/outbox.cif.g08.bks.cpg/sg15_85_cif.got.tgz:169642.got - 2010.06.03 18:47:42.
