data_PCOD9254076
_publ_section_title
;
Structure prediction by ZEFSAII (Michael W. Deem and Ramdas Pophale) SiO2 
 PCOD9254076
Probable space group: C 2/C
;
_chemical_formula_sum "Si O2"
_cell_formula_units_Z 44
_cell_length_a 8.992549
_cell_length_b 23.260208
_cell_length_c 10.323293
_cell_angle_alpha 90.000000
_cell_angle_beta 84.959054
_cell_angle_gamma 90.000000
_cell_volume 2150.956471
_symmetry_space_group_name_H-M "C 2/C"
_symmetry_group_IT_number 15
_symmetry_cell_setting 'monoclinic'
loop_
_space_group_symop_operation_xyz
x,y,z
-x,y,1/2-z
-x,-y,-z
x,-y,1/2+z
1/2+x,1/2+y,z
1/2-x,1/2+y,1/2-z
1/2-x,1/2-y,-z
1/2+x,1/2-y,1/2+z
loop_
_atom_site_type_symbol
_atom_site_label
_atom_site_fract_x
_atom_site_fract_y
_atom_site_fract_z
Si Si1 0.443138 0.269395 0.619216
Si Si2 0.100379 0.691096 0.117602
Si Si3 0.500000 0.573094 0.750000
Si Si4 0.252268 0.985521 0.633703
Si Si5 0.471758 0.393165 0.966590
Si Si6 0.809093 0.437260 0.896425
O O1 0.500000 0.244624 0.750000
O O2 0.268147 0.286550 0.633818
O O3 0.461578 0.225867 0.499726
O O4 0.530032 0.329211 0.588802
O O5 0.110920 0.623312 0.087244
O O6 0.000000 0.700528 0.250000
O O7 0.637504 0.532106 0.702394
O O8 0.465916 0.608496 0.623053
O O9 0.338186 0.961303 0.750981
O O10 0.156845 0.933664 0.579035
O O11 0.334444 0.017853 0.510225
O O12 0.630099 0.422520 0.915810
#
# Coordination Sequence:
#
# PCOD9254076 Si02
#       6
#     8   8   4   8   8   8
#     4  10  22  41  66  93 119 163 219 265 309 364
#     4  10  23  43  62  87 128 169 207 257 317 376
#     4  10  16  24  46  88 122 150 184 250 322 358
#     4  11  16  31  51  88 121 153 200 251 310 365
#     4  10  17  28  53  86 124 148 191 258 319 359
#     4  10  19  32  54  80 120 159 192 249 311 371
#
# _framework density 20.456014
#
# number of rings (size 3 to 8) (size 9 to 14) (size 15 to 20)
#    0.000    1.818    3.636    3.273    1.273    0.727 
#    0.000    2.727    0.000    0.000    0.000    0.000 
#    0.000    0.000    0.000    0.000    0.000    0.000 
#
# Total GULP energy -123000.518952 kJ/mol
# GULP energy per Si atom -5590.932680 kJ/mol
# Density = 2.040946 g / cm^3
# Si number density = 20.456014 Si / 1000 Ang^3
#
#
#
# Elastic Constant Matrix: (Units=GPa)
#
#
# Indices 1 2 3 4 5 6 
#
# 1 42.0627 33.7934 46.5562 0.0000 -1.0733 0.0000
# 2 33.7934 109.3772 83.8596 0.0000 0.2203 0.0000
# 3 46.5562 83.8596 197.3974 0.0000 12.8470 0.0000
# 4 0.0000 0.0000 0.0000 124.8955 0.0000 43.9018
# 5 -1.0733 0.2203 12.8470 0.0000 8.0701 0.0000
# 6 0.0000 0.0000 0.0000 43.9018 0.0000 30.0713
#
#
#
# Elastic Compliance Matrix: (Units=1/GPa)
#
#
# Indices 1 2 3 4 5 6 
#
# 1 0.037021 -0.005844 -0.007340 0.000000 0.016768 0.000000
# 2 -0.005844 0.015217 -0.005587 0.000000 0.007702 0.000000
# 3 -0.007340 -0.005587 0.010290 0.000000 -0.017205 0.000000
# 4 0.000000 0.000000 0.000000 0.016447 0.000000 -0.024011
# 5 0.016768 0.007702 -0.017205 0.000000 0.153323 0.000000
# 6 0.000000 0.000000 0.000000 -0.024011 0.000000 0.068309
#
#
# Mechanical properties :
#
#
# Convention : Reuss Voigt Hill
#
# Bulk Modulus (GPa) = 40.02377 75.25064 57.63721
# Shear Modulus (GPa) = 14.43092 44.91592 29.67342
#
# Velocity S-wave (km/s) = 2.65893 4.69095 3.81280
# Velocity P-wave (km/s) = 5.38840 8.13673 6.90077
#
# Compressibility (1/GPa) = 0.02498515
#
# Stress axis : x y z
#
# Youngs Moduli (GPa) = 27.01144 65.71757 97.17799
#
# Poissons Ratio (x) = 0.38408 0.71328
# Poissons Ratio (y) = 0.15787 0.54296
# Poissons Ratio (z) = 0.19826 0.36718
#
# Static dielectric constant tensor:
#      x y z
#    x 1.739500 0.000000 -0.022250 
#    y 0.000000 1.699580 0.000000 
#    z -0.022250 0.000000 1.722620 
# 
# From -- ./inp_files/30851.got.cif
#   From: 2010.05.17/outbox.cif.g08.bks.cpg/sg15_16_cif.got.tgz:30851.got - 2010.06.03 18:47:42.
