data_PCOD9254512
_publ_section_title
;
Structure prediction by ZEFSAII (Michael W. Deem and Ramdas Pophale) SiO2 
 PCOD9254512
Probable space group: C 2/C
;
_chemical_formula_sum "Si O2"
_cell_formula_units_Z 64
_cell_length_a 13.767075
_cell_length_b 11.207933
_cell_length_c 30.999891
_cell_angle_alpha 90.000000
_cell_angle_beta 146.435444
_cell_angle_gamma 90.000000
_cell_volume 2644.571148
_symmetry_space_group_name_H-M "C 2/C"
_symmetry_group_IT_number 15
_symmetry_cell_setting 'monoclinic'
loop_
_space_group_symop_operation_xyz
x,y,z
-x,y,1/2-z
-x,-y,-z
x,-y,1/2+z
1/2+x,1/2+y,z
1/2-x,1/2+y,1/2-z
1/2-x,1/2-y,-z
1/2+x,1/2-y,1/2+z
loop_
_atom_site_type_symbol
_atom_site_label
_atom_site_fract_x
_atom_site_fract_y
_atom_site_fract_z
Si Si1 0.757512 0.323459 0.235782
Si Si2 0.572077 0.181188 0.545542
Si Si3 0.082220 0.456136 0.733797
Si Si4 0.039420 0.791668 0.314535
Si Si5 0.438862 0.558711 0.414795
Si Si6 0.647893 0.691627 0.601590
Si Si7 0.247411 0.381550 0.522925
Si Si8 0.538304 0.347736 0.810799
O O1 0.903237 0.426603 0.289116
O O2 0.628136 0.351609 0.226459
O O3 0.636255 0.322510 0.148418
O O4 0.861210 0.200823 0.267240
O O5 0.772655 0.148384 0.611309
O O6 0.573015 0.314144 0.566350
O O7 0.475166 0.208514 0.464734
O O8 0.453794 0.103247 0.534692
O O9 0.284866 0.427998 0.821614
O O10 0.000000 0.484875 0.750000
O O11 0.977117 0.345570 0.674969
O O12 0.000000 0.778220 0.250000
O O13 0.387981 0.444711 0.425136
O O14 0.632558 0.543142 0.465622
O O15 0.841345 0.737101 0.661403
O O16 0.250000 0.250000 0.500000
O O17 0.351457 0.391114 0.607066
O O18 0.500000 0.412735 0.750000
#
# Coordination Sequence:
#
# PCOD9254512 Si02
#       8
#     8   8   8   8   8   8   8   8
#     4  10  20  33  56  82 111 143 178 225 279 327
#     4  10  19  33  50  77 112 141 180 221 273 328
#     4  10  18  34  58  83 109 136 182 231 275 317
#     4  11  22  36  56  78 111 149 182 228 272 323
#     4  10  16  31  53  79 112 136 177 226 275 322
#     4   9  19  32  53  81 108 140 171 230 281 320
#     4   9  19  30  49  80 111 147 179 224 273 332
#     4   9  17  31  51  78 110 138 178 225 280 327
#
# _framework density 24.200520000000001
#
# number of rings (size 3 to 8) (size 9 to 14) (size 15 to 20)
#    0.000    2.250    2.500    3.000    1.750    0.500 
#    0.000    0.000    0.000   18.000    0.000    0.000 
#    0.000    0.000    0.000    0.000    0.000    0.000 
#
# Total GULP energy -178342.352749 kJ/mol
# GULP energy per Si atom -5573.198523 kJ/mol
# Density = 2.414544 g / cm^3
# Si number density = 24.200520 Si / 1000 Ang^3
#
#
#
# Elastic Constant Matrix: (Units=GPa)
#
#
# Indices 1 2 3 4 5 6 
#
# 1 127.0120 20.2336 18.9224 0.0000 28.6172 0.0000
# 2 20.2336 33.8536 -0.2063 0.0000 1.6065 0.0000
# 3 18.9224 -0.2063 66.2381 0.0000 15.5128 0.0000
# 4 0.0000 0.0000 0.0000 5.2412 0.0000 9.9744
# 5 28.6172 1.6065 15.5128 0.0000 45.1011 0.0000
# 6 0.0000 0.0000 0.0000 9.9744 0.0000 15.3831
#
#
#
# Elastic Compliance Matrix: (Units=1/GPa)
#
#
# Indices 1 2 3 4 5 6 
#
# 1 0.010369 -0.005931 -0.001620 0.000000 -0.005811 0.000000
# 2 -0.005931 0.032990 0.001295 0.000000 0.002143 0.000000
# 3 -0.001620 0.001295 0.016677 0.000000 -0.004755 0.000000
# 4 0.000000 0.000000 0.000000 -0.815517 0.000000 0.528781
# 5 -0.005811 0.002143 -0.004755 0.000000 0.027418 0.000000
# 6 0.000000 0.000000 0.000000 0.528781 0.000000 -0.277855
#
#
# Mechanical properties :
#
#
# Convention : Reuss Voigt Hill
#
# Bulk Modulus (GPa) = 21.04162 33.88924 27.46543
# Shear Modulus (GPa) = -5.11475 25.68866 10.28695
#
# Velocity S-wave (km/s) = -1.45536 3.26159 2.06396
# Velocity P-wave (km/s) = 2.42682 5.31205 4.12961
#
# Compressibility (1/GPa) = 0.04752487
#
# Stress axis : x y z
#
# Youngs Moduli (GPa) = 96.44444 30.31206 59.96170
#
# Poissons Ratio (x) = 0.17979 0.09712
# Poissons Ratio (y) = 0.57204 -0.07767
# Poissons Ratio (z) = 0.15621 -0.03926
#
# Static dielectric constant tensor:
#      x y z
#    x 1.964080 0.000000 -0.009280 
#    y 0.000000 2.075380 0.000000 
#    z -0.009280 0.000000 2.031810 
# 
# From -- ./inp_files/311225.got.cif
#   From: 2010.05.17/outbox.cif.g08.bks.cpg/sg15_156_cif.got.tgz:311225.got - 2010.06.03 18:47:42.
