data_PCOD9254582
_publ_section_title
;
Structure prediction by ZEFSAII (Michael W. Deem and Ramdas Pophale) SiO2 
 PCOD9254582
Probable space group: C 2/C
;
_chemical_formula_sum "Si O2"
_cell_formula_units_Z 60
_cell_length_a 19.134797
_cell_length_b 9.002180
_cell_length_c 23.678827
_cell_angle_alpha 90.000000
_cell_angle_beta 138.725233
_cell_angle_gamma 90.000000
_cell_volume 2690.660869
_symmetry_space_group_name_H-M "C 2/C"
_symmetry_group_IT_number 15
_symmetry_cell_setting 'monoclinic'
loop_
_space_group_symop_operation_xyz
x,y,z
-x,y,1/2-z
-x,-y,-z
x,-y,1/2+z
1/2+x,1/2+y,z
1/2-x,1/2+y,1/2-z
1/2-x,1/2-y,-z
1/2+x,1/2-y,1/2+z
loop_
_atom_site_type_symbol
_atom_site_label
_atom_site_fract_x
_atom_site_fract_y
_atom_site_fract_z
Si Si1 0.871998 0.858287 0.451859
Si Si2 0.089835 0.585110 0.264706
Si Si3 0.000000 0.911296 0.750000
Si Si4 0.917211 0.714632 0.793736
Si Si5 0.249226 0.091550 0.041426
Si Si6 0.539171 0.643755 0.865139
Si Si7 0.838990 0.345338 0.021848
Si Si8 0.091564 0.051289 0.125688
O O1 0.820271 0.965037 0.467525
O O2 0.836394 0.696909 0.453486
O O3 0.846613 0.939099 0.377638
O O4 0.999901 0.867489 0.533131
O O5 0.121080 0.451598 0.242271
O O6 0.177142 0.644203 0.361984
O O7 0.000000 0.512018 0.250000
O O8 0.031390 0.720498 0.199094
O O9 0.940712 0.022309 0.671498
O O10 0.921326 0.809517 0.738522
O O11 0.041874 0.700306 0.887077
O O12 0.860494 0.815516 0.807135
O O13 0.314601 0.006649 0.032291
O O14 0.345897 0.311047 0.041869
O O15 0.469461 0.555611 0.868064
O O16 0.750000 0.250000 0.000000
#
# Coordination Sequence:
#
# PCOD9254582 Si02
#       8
#     8   8   4   8   8   8   8   8
#     4   8  15  30  58  87 111 149 192 235 290 352
#     4  12  22  37  54  82 115 156 191 251 314 353
#     4  10  16  32  52  80 110 140 186 234 286 354
#     4  10  18  31  53  79 116 150 191 235 292 352
#     4  10  20  35  56  82 115 151 199 248 299 365
#     4  10  22  36  55  83 115 154 195 247 305 362
#     4   9  15  28  52  86 111 141 190 240 284 348
#     4   8  16  33  57  82 114 154 189 234 287 353
#
# _framework density 22.299353
#
# number of rings (size 3 to 8) (size 9 to 14) (size 15 to 20)
#    0.000    2.400    2.667    2.400    0.000    1.600 
#    0.000    1.333    0.000   12.800    0.000    0.000 
#    0.000    0.000    0.000    0.000    0.000    1.600 
#
# Total GULP energy -167147.055083 kJ/mol
# GULP energy per Si atom -5571.568503 kJ/mol
# Density = 2.224860 g / cm^3
# Si number density = 22.299353 Si / 1000 Ang^3
#
#
#
# Elastic Constant Matrix: (Units=GPa)
#
#
# Indices 1 2 3 4 5 6 
#
# 1 43.4430 17.9121 35.1804 0.0000 -11.4769 0.0000
# 2 17.9121 135.6811 68.3877 0.0000 -15.8005 0.0000
# 3 35.1804 68.3877 129.3992 0.0000 7.6254 0.0000
# 4 0.0000 0.0000 0.0000 33.8845 0.0000 -11.7495
# 5 -11.4769 -15.8005 7.6254 0.0000 36.9863 0.0000
# 6 0.0000 0.0000 0.0000 -11.7495 0.0000 -8.8992
#
#
#
# Elastic Compliance Matrix: (Units=1/GPa)
#
#
# Indices 1 2 3 4 5 6 
#
# 1 0.035554 0.003218 -0.012247 0.000000 0.014932 0.000000
# 2 0.003218 0.011556 -0.007422 0.000000 0.007465 0.000000
# 3 -0.012247 -0.007422 0.015580 0.000000 -0.010183 0.000000
# 4 0.000000 0.000000 0.000000 0.020244 0.000000 -0.026728
# 5 0.014932 0.007465 -0.010183 0.000000 0.036959 0.000000
# 6 0.000000 0.000000 0.000000 -0.026728 0.000000 -0.077081
#
#
# Mechanical properties :
#
#
# Convention : Reuss Voigt Hill
#
# Bulk Modulus (GPa) = 33.57011 61.27598 47.42304
# Shear Modulus (GPa) = 58.38103 24.86385 41.62244
#
# Velocity S-wave (km/s) = 5.12225 3.34279 4.32502
# Velocity P-wave (km/s) = 7.07603 6.51440 6.80102
#
# Compressibility (1/GPa) = 0.02978841
#
# Stress axis : x y z
#
# Youngs Moduli (GPa) = 28.12587 86.53724 64.18335
#
# Poissons Ratio (x) = -0.27848 0.78606
# Poissons Ratio (y) = -0.09051 0.47637
# Poissons Ratio (z) = 0.34446 0.64229
#
# Static dielectric constant tensor:
#      x y z
#    x 1.853560 0.000000 -0.002980 
#    y 0.000000 1.889290 0.000000 
#    z -0.002980 0.000000 1.926830 
# 
# From -- ./inp_files/276591.got.cif
#   From: 2010.05.17/outbox.cif.g08.bks.cpg/sg15_139_cif.got.tgz:276591.got - 2010.06.03 18:47:42.
