data_PCOD9254528
_publ_section_title
;
Structure prediction by ZEFSAII (Michael W. Deem and Ramdas Pophale) SiO2 
 PCOD9254528
Probable space group: C 2/C
;
_chemical_formula_sum "Si O2"
_cell_formula_units_Z 48
_cell_length_a 7.790977
_cell_length_b 15.361680
_cell_length_c 17.328329
_cell_angle_alpha 90.000000
_cell_angle_beta 98.276100
_cell_angle_gamma 90.000000
_cell_volume 2052.299920
_symmetry_space_group_name_H-M "C 2/C"
_symmetry_group_IT_number 15
_symmetry_cell_setting 'monoclinic'
loop_
_space_group_symop_operation_xyz
x,y,z
-x,y,1/2-z
-x,-y,-z
x,-y,1/2+z
1/2+x,1/2+y,z
1/2-x,1/2+y,1/2-z
1/2-x,1/2-y,-z
1/2+x,1/2-y,1/2+z
loop_
_atom_site_type_symbol
_atom_site_label
_atom_site_fract_x
_atom_site_fract_y
_atom_site_fract_z
Si Si1 0.753679 0.602728 0.806473
Si Si2 0.649905 0.790915 0.816267
Si Si3 0.126855 0.927963 0.142563
Si Si4 0.460820 0.097138 0.970159
Si Si5 0.569695 0.267394 0.049424
Si Si6 0.641441 0.604195 0.061994
O O1 0.734070 0.705009 0.786083
O O2 0.570465 0.578549 0.836752
O O3 0.749231 0.554612 0.724186
O O4 0.910495 0.593711 0.876668
O O5 0.500000 0.823368 0.750000
O O6 0.565658 0.759030 0.891502
O O7 0.788032 0.860581 0.851907
O O8 0.180724 0.836361 0.106972
O O9 0.118289 0.002661 0.077728
O O10 0.591383 0.172888 0.009469
O O11 0.281003 0.116307 0.002986
O O12 0.500000 0.000000 0.000000
O O13 0.504891 0.329914 0.976231
#
# Coordination Sequence:
#
# PCOD9254528 Si02
#       6
#     8   8   8   8   8   8
#     4  10  18  37  53  79 112 141 177 227 274 308
#     4  10  16  31  56  78 104 140 182 226 260 305
#     4  10  20  32  60  81 106 137 185 227 264 321
#     4  11  22  36  54  80 114 145 178 225 272 317
#     4  10  18  33  56  79 101 139 183 224 263 304
#     4  11  20  33  57  84 104 136 185 226 260 319
#
# _framework density 23.388393000000001
#
# number of rings (size 3 to 8) (size 9 to 14) (size 15 to 20)
#    0.000    1.667    8.333    1.500    0.000    2.667 
#    0.000    0.833    0.000    0.000    0.000    0.000 
#    0.000    0.000    0.000    0.000    0.000    0.000 
#
# Total GULP energy -133686.740140 kJ/mol
# GULP energy per Si atom -5570.280839 kJ/mol
# Density = 2.333516 g / cm^3
# Si number density = 23.388393 Si / 1000 Ang^3
#
#
#
# Elastic Constant Matrix: (Units=GPa)
#
#
# Indices 1 2 3 4 5 6 
#
# 1 36.2732 7.4901 23.0261 0.0000 -2.4648 0.0000
# 2 7.4901 87.3725 56.0995 0.0000 2.5973 0.0000
# 3 23.0261 56.0995 181.0424 0.0000 34.3078 0.0000
# 4 0.0000 0.0000 0.0000 22.0279 0.0000 11.8599
# 5 -2.4648 2.5973 34.3078 0.0000 37.6613 0.0000
# 6 0.0000 0.0000 0.0000 11.8599 0.0000 7.4619
#
#
#
# Elastic Compliance Matrix: (Units=1/GPa)
#
#
# Indices 1 2 3 4 5 6 
#
# 1 0.031428 0.000650 -0.005536 0.000000 0.007055 0.000000
# 2 0.000650 0.014737 -0.005396 0.000000 0.003942 0.000000
# 3 -0.005536 -0.005396 0.009546 0.000000 -0.008686 0.000000
# 4 0.000000 0.000000 0.000000 0.314679 0.000000 -0.500149
# 5 0.007055 0.003942 -0.008686 0.000000 0.034655 0.000000
# 6 0.000000 0.000000 0.000000 -0.500149 0.000000 0.928947
#
#
# Mechanical properties :
#
#
# Convention : Reuss Voigt Hill
#
# Bulk Modulus (GPa) = 28.45158 53.10216 40.77687
# Shear Modulus (GPa) = 3.65960 27.96839 15.81399
#
# Velocity S-wave (km/s) = 1.25224 3.46182 2.60310
# Velocity P-wave (km/s) = 3.77916 6.22356 5.14853
#
# Compressibility (1/GPa) = 0.03514743
#
# Stress axis : x y z
#
# Youngs Moduli (GPa) = 31.81921 67.85568 104.75856
#
# Poissons Ratio (x) = -0.04413 0.57989
# Poissons Ratio (y) = -0.02069 0.56531
# Poissons Ratio (z) = 0.17614 0.36617
#
# Static dielectric constant tensor:
#      x y z
#    x 2.016730 0.000000 0.007990 
#    y 0.000000 2.000860 0.000000 
#    z 0.007990 0.000000 1.901000 
# 
# From -- ./inp_files/197214.got.cif
#   From: 2010.05.17/outbox.cif.g08.bks.cpg/sg15_99_cif.got.tgz:197214.got - 2010.06.03 18:47:42.
