data_PCOD9254741
_publ_section_title
;
Structure prediction by ZEFSAII (Michael W. Deem and Ramdas Pophale) SiO2 
 PCOD9254741
Probable space group: C 2/C
;
_chemical_formula_sum "Si O2"
_cell_formula_units_Z 56
_cell_length_a 16.728921
_cell_length_b 15.843099
_cell_length_c 26.450926
_cell_angle_alpha 90.000000
_cell_angle_beta 158.149827
_cell_angle_gamma 90.000000
_cell_volume 2609.172890
_symmetry_space_group_name_H-M "C 2/C"
_symmetry_group_IT_number 15
_symmetry_cell_setting 'monoclinic'
loop_
_space_group_symop_operation_xyz
x,y,z
-x,y,1/2-z
-x,-y,-z
x,-y,1/2+z
1/2+x,1/2+y,z
1/2-x,1/2+y,1/2-z
1/2-x,1/2-y,-z
1/2+x,1/2-y,1/2+z
loop_
_atom_site_type_symbol
_atom_site_label
_atom_site_fract_x
_atom_site_fract_y
_atom_site_fract_z
Si Si1 0.960020 0.353325 0.544303
Si Si2 0.211542 0.699634 0.285761
Si Si3 0.000000 0.194128 0.750000
Si Si4 0.788051 0.018043 0.189492
Si Si5 0.899153 0.824464 0.424312
Si Si6 0.687369 0.873418 0.203921
Si Si7 0.500000 0.244600 0.750000
Si Si8 0.209407 0.905153 0.921406
O O1 0.704013 0.358716 0.389237
O O2 0.048469 0.346916 0.652919
O O3 0.094286 0.427276 0.598028
O O4 0.026242 0.267423 0.553578
O O5 0.075515 0.745734 0.249137
O O6 0.404951 0.648053 0.424886
O O7 0.319542 0.775634 0.316867
O O8 0.781610 0.043766 0.126664
O O9 0.022044 0.052188 0.343831
O O10 0.757665 0.926257 0.195826
O O11 0.849941 0.879874 0.346086
O O12 0.678605 0.808356 0.325093
O O13 0.451101 0.901745 0.082379
O O14 0.627629 0.310309 0.861184
#
# Coordination Sequence:
#
# PCOD9254741 Si02
#       8
#     8   8   4   8   8   8   4   8
#     4  10  19  36  58  81 115 152 189 240 295 341
#     4  10  21  36  56  80 113 154 193 242 288 339
#     4  10  20  34  55  85 108 146 204 234 276 350
#     4  10  21  36  56  87 119 147 189 236 299 352
#     4  10  20  35  56  87 116 145 196 240 290 349
#     4  11  22  35  57  86 117 152 190 240 298 346
#     4  10  16  34  57  85 114 146 186 244 284 346
#     4  10  19  35  59  87 117 149 189 241 303 338
#
# _framework density 21.46274
#
# number of rings (size 3 to 8) (size 9 to 14) (size 15 to 20)
#    0.000    2.000    4.286    1.714    0.000    4.000 
#    0.000    1.429    0.000    0.857    0.000    0.000 
#    0.000    0.000    0.000    4.857    0.000    0.000 
#
# Total GULP energy -156405.655711 kJ/mol
# GULP energy per Si atom -5585.916275 kJ/mol
# Density = 2.141389 g / cm^3
# Si number density = 21.462740 Si / 1000 Ang^3
#
#
#
# Elastic Constant Matrix: (Units=GPa)
#
#
# Indices 1 2 3 4 5 6 
#
# 1 69.8600 10.5532 66.5582 -0.0018 7.3697 0.0005
# 2 10.5532 29.4718 27.8400 -0.0035 1.6060 -0.0004
# 3 66.5582 27.8400 187.4333 -0.0107 -1.0732 -0.0084
# 4 -0.0018 -0.0035 -0.0107 13.4728 0.0058 -2.0698
# 5 7.3697 1.6060 -1.0732 0.0058 39.7832 0.0014
# 6 0.0005 -0.0004 -0.0084 -2.0698 0.0014 8.2807
#
#
#
# Elastic Compliance Matrix: (Units=1/GPa)
#
#
# Indices 1 2 3 4 5 6 
#
# 1 0.022366 -0.000286 -0.007925 -0.000003 -0.004345 -0.000009
# 2 -0.000286 0.039595 -0.005789 0.000006 -0.001702 -0.000002
# 3 -0.007925 -0.005789 0.009020 0.000005 0.001945 0.000010
# 4 -0.000003 0.000006 0.000005 0.077187 -0.000011 0.019293
# 5 -0.004345 -0.001702 0.001945 -0.000011 0.026062 -0.000005
# 6 -0.000009 -0.000002 0.000010 0.019293 -0.000005 0.125585
#
#
# Mechanical properties :
#
#
# Convention : Reuss Voigt Hill
#
# Bulk Modulus (GPa) = 23.26610 55.18533 39.22571
# Shear Modulus (GPa) = 14.61379 24.42826 19.52102
#
# Velocity S-wave (km/s) = 2.61222 3.37734 3.01911
# Velocity P-wave (km/s) = 4.46789 6.40129 5.51990
#
# Compressibility (1/GPa) = 0.04298100
#
# Stress axis : x y z
#
# Youngs Moduli (GPa) = 44.71054 25.25596 110.86066
#
# Poissons Ratio (x) = 0.00723 0.87853
# Poissons Ratio (y) = 0.01279 0.64180
# Poissons Ratio (z) = 0.35432 0.14621
#
# Static dielectric constant tensor:
#      x y z
#    x 1.773870 0.000000 -0.018480 
#    y 0.000000 1.782610 0.000000 
#    z -0.018480 0.000000 1.831000 
# 
# From -- ./inp_files/299372.got.cif
#   From: 2010.05.17/outbox.cif.g08.bks.cpg/sg15_150_cif.got.tgz:299372.got - 2010.06.03 18:47:42.
