data_PCOD9254830
_publ_section_title
;
Structure prediction by ZEFSAII (Michael W. Deem and Ramdas Pophale) SiO2 
 PCOD9254830
Probable space group: C 2/C
;
_chemical_formula_sum "Si O2"
_cell_formula_units_Z 52
_cell_length_a 8.164030
_cell_length_b 19.524564
_cell_length_c 15.668722
_cell_angle_alpha 90.000000
_cell_angle_beta 101.146665
_cell_angle_gamma 90.000000
_cell_volume 2450.465081
_symmetry_space_group_name_H-M "C 2/C"
_symmetry_group_IT_number 15
_symmetry_cell_setting 'monoclinic'
loop_
_space_group_symop_operation_xyz
x,y,z
-x,y,1/2-z
-x,-y,-z
x,-y,1/2+z
1/2+x,1/2+y,z
1/2-x,1/2+y,1/2-z
1/2-x,1/2-y,-z
1/2+x,1/2-y,1/2+z
loop_
_atom_site_type_symbol
_atom_site_label
_atom_site_fract_x
_atom_site_fract_y
_atom_site_fract_z
Si Si1 0.379130 0.478081 0.862456
Si Si2 0.441731 0.175411 0.490363
Si Si3 0.798490 0.755801 0.638767
Si Si4 0.000000 0.128571 0.250000
Si Si5 0.690706 0.104970 0.612654
Si Si6 0.000000 0.650015 0.750000
Si Si7 0.500000 0.593677 0.750000
Si Si8 0.256153 0.531361 0.020943
O O1 0.370864 0.417598 0.791786
O O2 0.398348 0.544736 0.804784
O O3 0.551418 0.459667 0.929918
O O4 0.254486 0.498444 0.925744
O O5 0.386846 0.218788 0.402401
O O6 0.379080 0.221944 0.562793
O O7 0.630397 0.154440 0.530426
O O8 0.340921 0.102953 0.481907
O O9 0.841653 0.699006 0.713398
O O10 0.899838 0.822548 0.676617
O O11 0.552252 0.108617 0.672712
O O12 0.865445 0.126622 0.673040
O O13 0.695318 0.028064 0.578104
#
# Coordination Sequence:
#
# PCOD9254830 Si02
#       8
#     8   8   8   4   8   4   4   8
#     4   9  19  32  57  83 115 150 188 228 301 340
#     4  10  19  35  55  86 115 150 194 238 277 343
#     4   9  19  33  58  82 112 155 200 236 262 337
#     4  10  16  36  56  84 108 147 203 236 266 344
#     4  10  21  36  57  88 118 146 189 238 299 339
#     4   9  20  37  62  90 109 151 204 238 282 329
#     4   9  20  35  54  84 121 148 181 236 292 353
#     4  10  19  35  55  90 115 148 180 241 300 349
#
# _framework density 21.220461
#
# number of rings (size 3 to 8) (size 9 to 14) (size 15 to 20)
#    0.000    2.462    1.538    0.462    4.308    0.000 
#    0.000    0.000    0.000   14.769    0.000    0.000 
#    0.000    0.000    0.000    0.000    0.000    0.000 
#
# Total GULP energy -144800.761559 kJ/mol
# GULP energy per Si atom -5569.260060 kJ/mol
# Density = 2.117216 g / cm^3
# Si number density = 21.220461 Si / 1000 Ang^3
#
#
#
# Elastic Constant Matrix: (Units=GPa)
#
#
# Indices 1 2 3 4 5 6 
#
# 1 56.0250 35.2135 31.7753 0.0000 30.4091 0.0000
# 2 35.2135 85.4244 49.2663 0.0000 2.9412 0.0000
# 3 31.7753 49.2663 89.5718 0.0000 12.0890 0.0000
# 4 0.0000 0.0000 0.0000 23.6973 0.0000 4.2826
# 5 30.4091 2.9412 12.0890 0.0000 48.2348 0.0000
# 6 0.0000 0.0000 0.0000 4.2826 0.0000 9.1611
#
#
#
# Elastic Compliance Matrix: (Units=1/GPa)
#
#
# Indices 1 2 3 4 5 6 
#
# 1 0.042832 -0.014625 -0.003753 0.000000 -0.025171 0.000000
# 2 -0.014625 0.022226 -0.008381 0.000000 0.009966 0.000000
# 3 -0.003753 -0.008381 0.017303 0.000000 -0.001459 0.000000
# 4 0.000000 0.000000 0.000000 0.046093 0.000000 -0.021547
# 5 -0.025171 0.009966 -0.001459 0.000000 0.036358 0.000000
# 6 0.000000 0.000000 0.000000 -0.021547 0.000000 0.119230
#
#
# Mechanical properties :
#
#
# Convention : Reuss Voigt Hill
#
# Bulk Modulus (GPa) = 34.67290 51.50349 43.08819
# Shear Modulus (GPa) = 14.40197 23.86973 19.13585
#
# Velocity S-wave (km/s) = 2.60798 3.35751 3.00620
# Velocity P-wave (km/s) = 5.04416 6.27327 5.69199
#
# Compressibility (1/GPa) = 0.02884097
#
# Stress axis : x y z
#
# Youngs Moduli (GPa) = 23.34687 44.99329 57.79486
#
# Poissons Ratio (x) = 0.65802 0.21693
# Poissons Ratio (y) = 0.34145 0.48440
# Poissons Ratio (z) = 0.08763 0.37710
#
# Static dielectric constant tensor:
#      x y z
#    x 1.832980 0.000000 0.058590 
#    y 0.000000 1.758290 0.000000 
#    z 0.058590 0.000000 1.831600 
# 
# From -- ./inp_files/136901.got.cif
#   From: 2010.05.17/outbox.cif.g08.bks.cpg/sg15_69_cif.got.tgz:136901.got - 2010.06.03 18:47:42.
