data_PCOD9254302
_publ_section_title
;
Structure prediction by ZEFSAII (Michael W. Deem and Ramdas Pophale) SiO2 
 PCOD9254302
Probable space group: C 2/C
;
_chemical_formula_sum "Si O2"
_cell_formula_units_Z 56
_cell_length_a 27.489752
_cell_length_b 19.203210
_cell_length_c 18.587117
_cell_angle_alpha 90.000000
_cell_angle_beta 18.490811
_cell_angle_gamma 90.000000
_cell_volume 3111.894819
_symmetry_space_group_name_H-M "C 2/C"
_symmetry_group_IT_number 15
_symmetry_cell_setting 'monoclinic'
loop_
_space_group_symop_operation_xyz
x,y,z
-x,y,1/2-z
-x,-y,-z
x,-y,1/2+z
1/2+x,1/2+y,z
1/2-x,1/2+y,1/2-z
1/2-x,1/2-y,-z
1/2+x,1/2-y,1/2+z
loop_
_atom_site_type_symbol
_atom_site_label
_atom_site_fract_x
_atom_site_fract_y
_atom_site_fract_z
Si Si1 0.706753 0.080080 0.212008
Si Si2 0.136396 0.988006 0.713966
Si Si3 0.981757 0.719716 0.189857
Si Si4 0.833213 0.139582 0.901415
Si Si5 0.376488 0.877321 0.116207
Si Si6 0.817664 0.066929 0.495554
Si Si7 0.280128 0.502657 0.242759
O O1 0.537381 0.106573 0.430760
O O2 0.744003 0.069296 0.243272
O O3 0.824256 0.125282 0.999737
O O4 0.732334 0.002489 0.144038
O O5 0.147480 0.066204 0.665603
O O6 0.202057 0.934975 0.562476
O O7 0.222164 0.984098 0.669410
O O8 0.954251 0.977256 0.981667
O O9 0.948673 0.799845 0.217696
O O10 0.832130 0.672587 0.384490
O O11 0.000000 0.715037 0.250000
O O12 0.107895 0.687611 0.959601
O O13 0.250654 0.874392 0.356408
O O14 0.333438 0.941993 0.124364
O O15 0.000000 0.058888 0.250000
#
# Coordination Sequence:
#
# PCOD9254302 Si02
#       7
#     8   8   8   8   8   8   8
#     4   9  18  31  49  72 107 140 168 216 272 333
#     4  10  19  29  48  79 107 136 172 224 270 319
#     4  10  20  33  51  73 108 146 179 219 267 321
#     4   9  20  33  49  76 107 142 175 213 276 324
#     4  10  19  33  48  73 110 145 178 216 264 332
#     4  10  16  29  48  71 101 139 175 208 262 317
#     4  10  18  29  48  76 108 136 175 222 274 311
#
# _framework density 17.995467000000001
#
# number of rings (size 3 to 8) (size 9 to 14) (size 15 to 20)
#    0.000    2.286    2.857    2.571    2.000    0.000 
#    0.000    5.000    0.000    0.000    0.000    4.000 
#    0.000    0.000    0.000    0.000    0.000    0.286 
#
# Total GULP energy -155947.214195 kJ/mol
# GULP energy per Si atom -5569.543364 kJ/mol
# Density = 1.795451 g / cm^3
# Si number density = 17.995467 Si / 1000 Ang^3
#
#
#
# Elastic Constant Matrix: (Units=GPa)
#
#
# Indices 1 2 3 4 5 6 
#
# 1 145.3128 21.7442 24.2076 -0.0040 28.9394 0.0015
# 2 21.7442 42.8543 7.4450 0.0015 12.6893 0.0012
# 3 24.2076 7.4450 32.2322 0.0002 16.0328 0.0012
# 4 -0.0040 0.0015 0.0002 24.2594 0.0015 5.9062
# 5 28.9394 12.6893 16.0328 0.0015 32.4639 -0.0012
# 6 0.0015 0.0012 0.0012 5.9062 -0.0012 19.9135
#
#
#
# Elastic Compliance Matrix: (Units=1/GPa)
#
#
# Indices 1 2 3 4 5 6 
#
# 1 0.008861 -0.002331 -0.003501 0.000002 -0.005259 -0.000001
# 2 -0.002331 0.027042 -0.000360 -0.000001 -0.008315 -0.000002
# 3 -0.003501 -0.000360 0.042573 0.000001 -0.017764 -0.000004
# 4 0.000002 -0.000001 0.000001 0.044429 -0.000005 -0.013177
# 5 -0.005259 -0.008315 -0.017764 -0.000005 0.047515 0.000006
# 6 -0.000001 -0.000002 -0.000004 -0.013177 0.000006 0.054125
#
#
# Mechanical properties :
#
#
# Convention : Reuss Voigt Hill
#
# Bulk Modulus (GPa) = 15.12998 36.35477 25.74238
# Shear Modulus (GPa) = 19.30802 26.46086 22.88444
#
# Velocity S-wave (km/s) = 3.27913 3.83876 3.56993
# Velocity P-wave (km/s) = 4.77104 6.31618 5.59719
#
# Compressibility (1/GPa) = 0.06609396
#
# Stress axis : x y z
#
# Youngs Moduli (GPa) = 112.85412 36.97958 23.48884
#
# Poissons Ratio (x) = 0.08619 0.08223
# Poissons Ratio (y) = 0.26302 0.00845
# Poissons Ratio (z) = 0.39506 0.01331
#
# Static dielectric constant tensor:
#      x y z
#    x 1.668450 0.000000 0.008190 
#    y 0.000000 1.609790 0.000000 
#    z 0.008190 0.000000 1.662210 
# 
# From -- ./inp_files/223077.got.cif
#   From: 2010.05.17/outbox.cif.g08.bks.cpg/sg15_112_cif.got.tgz:223077.got - 2010.06.03 18:47:42.
