data_PCOD9254507
_publ_section_title
;
Structure prediction by ZEFSAII (Michael W. Deem and Ramdas Pophale) SiO2 
 PCOD9254507
Probable space group: C 2/C
;
_chemical_formula_sum "Si O2"
_cell_formula_units_Z 40
_cell_length_a 11.614173
_cell_length_b 9.861300
_cell_length_c 13.814411
_cell_angle_alpha 90.000000
_cell_angle_beta 113.757976
_cell_angle_gamma 90.000000
_cell_volume 1448.095276
_symmetry_space_group_name_H-M "C 2/C"
_symmetry_group_IT_number 15
_symmetry_cell_setting 'monoclinic'
loop_
_space_group_symop_operation_xyz
x,y,z
-x,y,1/2-z
-x,-y,-z
x,-y,1/2+z
1/2+x,1/2+y,z
1/2-x,1/2+y,1/2-z
1/2-x,1/2-y,-z
1/2+x,1/2-y,1/2+z
loop_
_atom_site_type_symbol
_atom_site_label
_atom_site_fract_x
_atom_site_fract_y
_atom_site_fract_z
Si Si1 0.600326 0.692960 0.367344
Si Si2 0.505472 0.298350 0.139974
Si Si3 0.423613 0.861702 0.449363
Si Si4 0.808504 0.071518 0.930102
Si Si5 0.370651 0.027184 0.263235
O O1 0.500000 0.663083 0.250000
O O2 0.520399 0.767011 0.423763
O O3 0.711173 0.800740 0.382084
O O4 0.664274 0.567971 0.446625
O O5 0.500000 0.340893 0.250000
O O6 0.570749 0.409158 0.095689
O O7 0.600330 0.170178 0.180252
O O8 0.397620 0.224836 0.037582
O O9 0.333147 0.918979 0.333546
O O10 0.500000 0.000000 0.500000
O O11 0.732635 0.953131 0.853616
O O12 0.500000 0.985924 0.250000
#
# Coordination Sequence:
#
# PCOD9254507 Si02
#       5
#     8   8   8   8   8
#     4  10  17  29  49  81 103 129 166 220 256 298
#     4   9  20  31  46  75 108 134 167 214 259 303
#     4   9  15  26  47  74 102 125 154 212 265 289
#     4  10  18  29  54  77 103 137 175 206 261 306
#     4  10  16  31  53  77 104 126 169 225 259 295
#
# _framework density 27.622492000000001
#
# number of rings (size 3 to 8) (size 9 to 14) (size 15 to 20)
#    0.000    2.400    4.000    0.000    0.000    0.000 
#    0.000    1.000    0.000    3.600    0.000    0.000 
#    0.000    0.000    0.000    0.000    0.000    0.000 
#
# Total GULP energy -111676.864509 kJ/mol
# GULP energy per Si atom -5583.843225 kJ/mol
# Density = 2.755962 g / cm^3
# Si number density = 27.622492 Si / 1000 Ang^3
#
#
#
# Elastic Constant Matrix: (Units=GPa)
#
#
# Indices 1 2 3 4 5 6 
#
# 1 79.1038 24.2085 49.2539 0.0000 -21.4441 0.0000
# 2 24.2085 37.6681 37.5567 0.0000 -2.0344 0.0000
# 3 49.2539 37.5567 235.0991 0.0000 -8.2917 0.0000
# 4 0.0000 0.0000 0.0000 48.9942 0.0000 -5.5702
# 5 -21.4441 -2.0344 -8.2917 0.0000 43.5869 0.0000
# 6 0.0000 0.0000 0.0000 -5.5702 0.0000 -10.1717
#
#
#
# Elastic Compliance Matrix: (Units=1/GPa)
#
#
# Indices 1 2 3 4 5 6 
#
# 1 0.019338 -0.009785 -0.002184 0.000000 0.008642 0.000000
# 2 -0.009785 0.036539 -0.003923 0.000000 -0.003855 0.000000
# 3 -0.002184 -0.003923 0.005329 0.000000 -0.000244 0.000000
# 4 0.000000 0.000000 0.000000 0.019214 0.000000 -0.010522
# 5 0.008642 -0.003855 -0.000244 0.000000 0.026968 0.000000
# 6 0.000000 0.000000 0.000000 -0.010522 0.000000 -0.092550
#
#
# Mechanical properties :
#
#
# Convention : Reuss Voigt Hill
#
# Bulk Modulus (GPa) = 33.98545 63.76766 48.87656
# Shear Modulus (GPa) = 88.60441 32.53866 60.57154
#
# Velocity S-wave (km/s) = 5.66979 3.43589 4.68785
# Velocity P-wave (km/s) = 7.42915 6.23506 6.85814
#
# Compressibility (1/GPa) = 0.02942436
#
# Stress axis : x y z
#
# Youngs Moduli (GPa) = 51.71054 27.36772 187.64826
#
# Poissons Ratio (x) = 0.26778 0.40975
# Poissons Ratio (y) = 0.50596 0.73618
# Poissons Ratio (z) = 0.11291 0.10737
#
# Static dielectric constant tensor:
#      x y z
#    x 2.182370 0.000000 0.038260 
#    y 0.000000 2.243320 0.000000 
#    z 0.038260 0.000000 2.397990 
# 
# From -- ./inp_files/142816.got.cif
#   From: 2010.05.17/outbox.cif.g08.bks.cpg/sg15_72_cif.got.tgz:142816.got - 2010.06.03 18:47:42.
