data_PCOD9254756
_publ_section_title
;
Structure prediction by ZEFSAII (Michael W. Deem and Ramdas Pophale) SiO2 
 PCOD9254756
Probable space group: C 2/C
;
_chemical_formula_sum "Si O2"
_cell_formula_units_Z 44
_cell_length_a 11.625286
_cell_length_b 8.672489
_cell_length_c 23.887631
_cell_angle_alpha 90.000000
_cell_angle_beta 135.239947
_cell_angle_gamma 90.000000
_cell_volume 1695.817383
_symmetry_space_group_name_H-M "C 2/C"
_symmetry_group_IT_number 15
_symmetry_cell_setting 'monoclinic'
loop_
_space_group_symop_operation_xyz
x,y,z
-x,y,1/2-z
-x,-y,-z
x,-y,1/2+z
1/2+x,1/2+y,z
1/2-x,1/2+y,1/2-z
1/2-x,1/2-y,-z
1/2+x,1/2-y,1/2+z
loop_
_atom_site_type_symbol
_atom_site_label
_atom_site_fract_x
_atom_site_fract_y
_atom_site_fract_z
Si Si1 0.703505 0.257684 0.549056
Si Si2 0.631801 0.191495 0.245953
Si Si3 0.500000 0.693575 0.250000
Si Si4 0.474426 0.537493 0.644663
Si Si5 0.404925 0.062229 0.635088
Si Si6 0.491658 0.279575 0.922035
O O1 0.750000 0.250000 0.500000
O O2 0.528631 0.254752 0.518980
O O3 0.800361 0.105307 0.603810
O O4 0.780268 0.421568 0.594268
O O5 0.500000 0.222148 0.250000
O O6 0.588595 0.312881 0.182545
O O7 0.808412 0.220118 0.332143
O O8 0.579667 0.022546 0.206612
O O9 0.451115 0.578773 0.283321
O O10 0.617983 0.810405 0.324539
O O11 0.451407 0.446759 0.579126
O O12 0.410365 0.150260 0.578022
#
# Coordination Sequence:
#
# PCOD9254756 Si02
#       6
#     8   8   4   8   8   8
#     4  11  24  45  61  80 125 166 206 256 283 342
#     4  11  17  35  59  88 127 157 186 239 318 362
#     4  10  16  34  58  92 128 134 190 260 288 368
#     4  10  21  35  61  92 119 160 201 235 308 367
#     4  10  21  35  61  92 119 160 201 235 308 367
#     4  11  21  36  61  87 118 158 200 250 303 354
#
# _framework density 25.946189
#
# number of rings (size 3 to 8) (size 9 to 14) (size 15 to 20)
#    0.000    1.455    5.455    1.091    0.000    4.364 
#    0.000    9.091    0.000    0.000    0.000    0.000 
#    0.000    0.000    0.000    0.000    0.000    0.000 
#
# Total GULP energy -122853.438974 kJ/mol
# GULP energy per Si atom -5584.247226 kJ/mol
# Density = 2.588713 g / cm^3
# Si number density = 25.946189 Si / 1000 Ang^3
#
#
#
# Elastic Constant Matrix: (Units=GPa)
#
#
# Indices 1 2 3 4 5 6 
#
# 1 97.7895 42.0891 28.6502 0.0000 -39.9120 0.0000
# 2 42.0891 133.7145 20.6755 0.0000 -16.5707 0.0000
# 3 28.6502 20.6755 63.3727 0.0000 -17.9285 0.0000
# 4 0.0000 0.0000 0.0000 23.5396 0.0000 -7.9966
# 5 -39.9120 -16.5707 -17.9285 0.0000 52.5101 0.0000
# 6 0.0000 0.0000 0.0000 -7.9966 0.0000 35.6529
#
#
#
# Elastic Compliance Matrix: (Units=1/GPa)
#
#
# Indices 1 2 3 4 5 6 
#
# 1 0.017162 -0.003521 -0.003580 0.000000 0.010711 0.000000
# 2 -0.003521 0.008752 -0.001372 0.000000 -0.000383 0.000000
# 3 -0.003580 -0.001372 0.018766 0.000000 0.003253 0.000000
# 4 0.000000 0.000000 0.000000 0.045985 0.000000 0.010314
# 5 0.010711 -0.000383 0.003253 0.000000 0.028175 0.000000
# 6 0.000000 0.000000 0.000000 0.010314 0.000000 0.030362
#
#
# Mechanical properties :
#
#
# Convention : Reuss Voigt Hill
#
# Bulk Modulus (GPa) = 36.05627 53.07847 44.56737
# Shear Modulus (GPa) = 28.50758 35.90465 32.20611
#
# Velocity S-wave (km/s) = 3.31829 3.72400 3.52698
# Velocity P-wave (km/s) = 5.34866 6.24439 5.81380
#
# Compressibility (1/GPa) = 0.02773443
#
# Stress axis : x y z
#
# Youngs Moduli (GPa) = 58.26817 114.26467 53.28784
#
# Poissons Ratio (x) = 0.40234 0.19076
# Poissons Ratio (y) = 0.20517 0.07309
# Poissons Ratio (z) = 0.20859 0.15673
#
# Static dielectric constant tensor:
#      x y z
#    x 2.079790 0.000000 -0.025940 
#    y 0.000000 2.015150 0.000000 
#    z -0.025940 0.000000 2.179510 
# 
# From -- ./inp_files/116525.got.cif
#   From: 2010.05.17/outbox.cif.g08.bks.cpg/sg15_59_cif.got.tgz:116525.got - 2010.06.03 18:47:42.
