data_PCOD9254911
_publ_section_title
;
Structure prediction by ZEFSAII (Michael W. Deem and Ramdas Pophale) SiO2 
 PCOD9254911
Probable space group: C 2/C
;
_chemical_formula_sum "Si O2"
_cell_formula_units_Z 52
_cell_length_a 21.475481
_cell_length_b 12.197016
_cell_length_c 10.726508
_cell_angle_alpha 90.000000
_cell_angle_beta 62.072719
_cell_angle_gamma 90.000000
_cell_volume 2482.460868
_symmetry_space_group_name_H-M "C 2/C"
_symmetry_group_IT_number 15
_symmetry_cell_setting 'monoclinic'
loop_
_space_group_symop_operation_xyz
x,y,z
-x,y,1/2-z
-x,-y,-z
x,-y,1/2+z
1/2+x,1/2+y,z
1/2-x,1/2+y,1/2-z
1/2-x,1/2-y,-z
1/2+x,1/2-y,1/2+z
loop_
_atom_site_type_symbol
_atom_site_label
_atom_site_fract_x
_atom_site_fract_y
_atom_site_fract_z
Si Si1 0.918661 0.066466 0.293234
Si Si2 0.500000 0.114020 0.750000
Si Si3 0.799046 0.584611 0.713472
Si Si4 0.158817 0.816360 0.434141
Si Si5 0.970119 0.886890 0.098763
Si Si6 0.578176 0.249345 0.896806
Si Si7 0.844446 0.426746 0.454069
O O1 0.861395 0.087254 0.450938
O O2 0.894923 0.143806 0.202986
O O3 0.000000 0.101970 0.250000
O O4 0.929310 0.941000 0.250220
O O5 0.531286 0.184020 0.837223
O O6 0.570434 0.053750 0.633056
O O7 0.725102 0.647380 0.791889
O O8 0.859510 0.671627 0.623589
O O9 0.806731 0.492069 0.601006
O O10 0.815447 0.549163 0.842105
O O11 0.087680 0.817903 0.421498
O O12 0.165963 0.702779 0.502925
O O13 0.033039 0.801699 0.049634
O O14 0.000000 0.000000 0.000000
#
# Coordination Sequence:
#
# PCOD9254911 Si02
#       7
#     8   4   8   8   8   8   8
#     4  11  18  35  63  97 118 164 221 269 327 381
#     4  10  16  38  70  78 122 166 222 260 306 388
#     4  11  27  40  69  96 135 177 222 260 341 404
#     4  12  22  42  66  92 134 174 214 273 336 401
#     4  10  20  33  65  95 122 159 220 279 317 375
#     4  10  17  37  58  92 120 165 211 271 315 383
#     4  11  24  45  67  99 126 180 222 272 326 395
#
# _framework density 20.946957000000001
#
# number of rings (size 3 to 8) (size 9 to 14) (size 15 to 20)
#    0.000    1.231    8.462    0.462    2.154    3.692 
#    0.000    2.308    0.000    0.000    0.000    0.000 
#    0.000    0.000    0.000    0.000    0.000    0.000 
#
# Total GULP energy -144825.581946 kJ/mol
# GULP energy per Si atom -5570.214690 kJ/mol
# Density = 2.089928 g / cm^3
# Si number density = 20.946957 Si / 1000 Ang^3
#
#
#
# Elastic Constant Matrix: (Units=GPa)
#
#
# Indices 1 2 3 4 5 6 
#
# 1 40.2592 15.1341 24.7495 0.0000 -10.5288 0.0000
# 2 15.1341 56.2989 55.0854 0.0000 3.1781 0.0000
# 3 24.7495 55.0854 102.2262 0.0000 -9.2252 0.0000
# 4 0.0000 0.0000 0.0000 53.2937 0.0000 -0.6408
# 5 -10.5288 3.1781 -9.2252 0.0000 29.7037 0.0000
# 6 0.0000 0.0000 0.0000 -0.6408 0.0000 11.3013
#
#
#
# Elastic Compliance Matrix: (Units=1/GPa)
#
#
# Indices 1 2 3 4 5 6 
#
# 1 0.032073 -0.005460 -0.003852 0.000000 0.010756 0.000000
# 2 -0.005460 0.042056 -0.022553 0.000000 -0.013439 0.000000
# 3 -0.003852 -0.022553 0.023624 0.000000 0.008385 0.000000
# 4 0.000000 0.000000 0.000000 0.018777 0.000000 0.001065
# 5 0.010756 -0.013439 0.008385 0.000000 0.041521 0.000000
# 6 0.000000 0.000000 0.000000 0.001065 0.000000 0.088546
#
#
# Mechanical properties :
#
#
# Convention : Reuss Voigt Hill
#
# Bulk Modulus (GPa) = 29.39205 43.19137 36.29171
# Shear Modulus (GPa) = 15.54403 25.78075 20.66239
#
# Velocity S-wave (km/s) = 2.72704 3.51203 3.14413
# Velocity P-wave (km/s) = 4.89671 6.09180 5.52665
#
# Compressibility (1/GPa) = 0.03402281
#
# Stress axis : x y z
#
# Youngs Moduli (GPa) = 31.17919 23.77807 42.32903
#
# Poissons Ratio (x) = 0.12982 0.16307
# Poissons Ratio (y) = 0.17023 0.95465
# Poissons Ratio (z) = 0.12011 0.53627
#
# Static dielectric constant tensor:
#      x y z
#    x 1.894970 0.000000 0.069960 
#    y 0.000000 1.742170 0.000000 
#    z 0.069960 0.000000 1.821080 
# 
# From -- ./inp_files/117932.got.cif
#   From: 2010.05.17/outbox.cif.g08.bks.cpg/sg15_59_cif.got.tgz:117932.got - 2010.06.03 18:47:42.
