data_PCOD9254999
_publ_section_title
;
Structure prediction by ZEFSAII (Michael W. Deem and Ramdas Pophale) SiO2 
 PCOD9254999
Probable space group: C 2/C
;
_chemical_formula_sum "Si O2"
_cell_formula_units_Z 56
_cell_length_a 24.992514
_cell_length_b 26.811551
_cell_length_c 5.413785
_cell_angle_alpha 90.000000
_cell_angle_beta 95.260064
_cell_angle_gamma 90.000000
_cell_volume 3612.435829
_symmetry_space_group_name_H-M "C 2/C"
_symmetry_group_IT_number 15
_symmetry_cell_setting 'monoclinic'
loop_
_space_group_symop_operation_xyz
x,y,z
-x,y,1/2-z
-x,-y,-z
x,-y,1/2+z
1/2+x,1/2+y,z
1/2-x,1/2+y,1/2-z
1/2-x,1/2-y,-z
1/2+x,1/2-y,1/2+z
loop_
_atom_site_type_symbol
_atom_site_label
_atom_site_fract_x
_atom_site_fract_y
_atom_site_fract_z
Si Si1 0.466943 0.138802 0.492014
Si Si2 0.261044 0.865115 0.225040
Si Si3 0.134998 0.706446 0.172877
Si Si4 0.167027 0.734407 0.689051
Si Si5 0.241682 0.171370 0.219410
Si Si6 0.302892 0.973177 0.087000
Si Si7 0.067750 0.473238 0.399519
O O1 0.500000 0.156633 0.750000
O O2 0.412156 0.168859 0.417924
O O3 0.450928 0.082034 0.544680
O O4 0.500000 0.140819 0.250000
O O5 0.304355 0.819869 0.271540
O O6 0.233387 0.863985 0.480856
O O7 0.286577 0.917687 0.162847
O O8 0.224687 0.849874 0.976956
O O9 0.128019 0.731292 0.437867
O O10 0.193996 0.680770 0.226044
O O11 0.140319 0.743239 0.942872
O O12 0.211822 0.776390 0.664986
O O13 0.367427 0.973879 0.089974
O O14 0.284778 0.009239 0.305675
O O15 0.051329 0.508927 0.619727
#
# Coordination Sequence:
#
# PCOD9254999 Si02
#       7
#     8   8   8   8   8   8   8
#     4  12  25  37  48  63  83 113 154 188 230 289
#     4  10  17  27  43  63  92 114 131 171 220 269
#     4  10  19  32  47  62  87 112 130 169 220 271
#     4  10  18  30  50  73  90 105 132 171 237 293
#     4  10  18  29  49  74  90 105 132 171 237 293
#     4  10  20  32  45  63  84 114 155 187 226 283
#     4  10  21  35  50  62  75 100 143 204 255 281
#
# _framework density 15.502006
#
# number of rings (size 3 to 8) (size 9 to 14) (size 15 to 20)
#    0.000    1.714    0.000    8.571    0.000    8.571 
#    0.000    0.000    0.000    0.000    0.000    0.000 
#    0.000    0.000    0.000    0.000    0.000    0.000 
#
# Total GULP energy -155990.633543 kJ/mol
# GULP energy per Si atom -5571.094055 kJ/mol
# Density = 1.546672 g / cm^3
# Si number density = 15.502006 Si / 1000 Ang^3
#
#
#
# Elastic Constant Matrix: (Units=GPa)
#
#
# Indices 1 2 3 4 5 6 
#
# 1 43.5843 41.5813 32.5008 0.0000 1.1637 0.0000
# 2 41.5813 62.9639 39.4278 0.0000 -1.0832 0.0000
# 3 32.5008 39.4278 165.1460 0.0000 -0.9690 0.0000
# 4 0.0000 0.0000 0.0000 23.0556 0.0000 -1.4361
# 5 1.1637 -1.0832 -0.9690 0.0000 18.9470 0.0000
# 6 0.0000 0.0000 0.0000 -1.4361 0.0000 23.4823
#
#
#
# Elastic Compliance Matrix: (Units=1/GPa)
#
#
# Indices 1 2 3 4 5 6 
#
# 1 0.063949 -0.040491 -0.002956 0.000000 -0.006394 0.000000
# 2 -0.040491 0.044325 -0.002585 0.000000 0.004889 0.000000
# 3 -0.002956 -0.002585 0.007256 0.000000 0.000405 0.000000
# 4 0.000000 0.000000 0.000000 0.043539 0.000000 0.002663
# 5 -0.006394 0.004889 0.000405 0.000000 0.053472 0.000000
# 6 0.000000 0.000000 0.000000 0.002663 0.000000 0.042748
#
#
# Mechanical properties :
#
#
# Convention : Reuss Voigt Hill
#
# Bulk Modulus (GPa) = 42.61279 55.41267 49.01273
# Shear Modulus (GPa) = 14.07751 23.64259 18.86005
#
# Velocity S-wave (km/s) = 3.01675 3.90953 3.49179
# Velocity P-wave (km/s) = 6.29942 7.49682 6.92405
#
# Compressibility (1/GPa) = 0.02346713
#
# Stress axis : x y z
#
# Youngs Moduli (GPa) = 15.63743 22.56044 137.80783
#
# Poissons Ratio (x) = 0.91350 0.40731
# Poissons Ratio (y) = 0.63318 0.35625
# Poissons Ratio (z) = 0.04622 0.05832
#
# Static dielectric constant tensor:
#      x y z
#    x 1.570940 0.000000 -0.057040 
#    y 0.000000 1.518090 0.000000 
#    z -0.057040 0.000000 1.663510 
# 
# From -- ./inp_files/13668.got.cif
#   From: 2010.05.17/outbox.cif.g08.bks.cpg/sg15_7_cif.got.tgz:13668.got - 2010.06.03 18:47:42.
