data_PCOD9254669
_publ_section_title
;
Structure prediction by ZEFSAII (Michael W. Deem and Ramdas Pophale) SiO2 
 PCOD9254669
Probable space group: C 2/C
;
_chemical_formula_sum "Si O2"
_cell_formula_units_Z 52
_cell_length_a 13.648472
_cell_length_b 20.393457
_cell_length_c 18.308818
_cell_angle_alpha 90.000000
_cell_angle_beta 146.301331
_cell_angle_gamma 90.000000
_cell_volume 2827.426297
_symmetry_space_group_name_H-M "C 2/C"
_symmetry_group_IT_number 15
_symmetry_cell_setting 'monoclinic'
loop_
_space_group_symop_operation_xyz
x,y,z
-x,y,1/2-z
-x,-y,-z
x,-y,1/2+z
1/2+x,1/2+y,z
1/2-x,1/2+y,1/2-z
1/2-x,1/2-y,-z
1/2+x,1/2-y,1/2+z
loop_
_atom_site_type_symbol
_atom_site_label
_atom_site_fract_x
_atom_site_fract_y
_atom_site_fract_z
Si Si1 0.604137 0.699559 0.239157
Si Si2 0.862336 0.593206 0.937707
Si Si3 0.448322 0.196161 0.532274
Si Si4 0.483213 0.557393 0.375387
Si Si5 0.879415 0.592212 0.614035
Si Si6 0.500000 0.457884 0.250000
Si Si7 0.623469 0.989096 0.686444
O O1 0.500000 0.704905 0.250000
O O2 0.519135 0.746104 0.126162
O O3 0.801645 0.718534 0.383992
O O4 0.592445 0.624877 0.204742
O O5 0.674024 0.585912 0.857904
O O6 0.863540 0.538088 0.874764
O O7 0.900929 0.660256 0.920495
O O8 0.015515 0.573350 0.089390
O O9 0.365384 0.140175 0.535134
O O10 0.685377 0.573504 0.523135
O O11 0.502771 0.505211 0.321954
O O12 0.326145 0.530395 0.330606
O O13 0.000000 0.626694 0.750000
O O14 0.997368 0.529044 0.663505
#
# Coordination Sequence:
#
# PCOD9254669 Si02
#       7
#     8   8   8   8   8   4   8
#     4  12  22  34  54  79 112 150 184 219 271 339
#     4   9  17  32  55  82 105 136 188 233 270 326
#     4  11  23  36  52  81 112 151 186 223 273 327
#     4  11  19  32  56  82 107 144 180 221 281 327
#     4  11  22  35  52  80 119 145 181 228 276 337
#     4  10  16  32  62  82 102 132 188 232 278 326
#     4   9  18  33  53  78 109 142 180 230 277 331
#
# _framework density 18.391283999999999
#
# number of rings (size 3 to 8) (size 9 to 14) (size 15 to 20)
#    0.000    1.538    5.385    0.923    2.154    0.615 
#    0.000    0.000    0.000    0.923    2.000    0.000 
#    0.000    0.000    0.000    0.000    0.000    0.000 
#
# Total GULP energy -144986.010975 kJ/mol
# GULP energy per Si atom -5576.385038 kJ/mol
# Density = 1.834942 g / cm^3
# Si number density = 18.391284 Si / 1000 Ang^3
#
#
#
# Elastic Constant Matrix: (Units=GPa)
#
#
# Indices 1 2 3 4 5 6 
#
# 1 47.9571 27.5938 28.3226 -0.0002 21.2881 0.0001
# 2 27.5938 47.7897 17.6928 -0.0016 13.2060 -0.0004
# 3 28.3226 17.6928 120.8398 -0.0022 29.4941 -0.0010
# 4 -0.0002 -0.0016 -0.0022 17.5315 -0.0005 -9.9363
# 5 21.2881 13.2060 29.4941 -0.0005 30.2286 0.0000
# 6 0.0001 -0.0004 -0.0010 -9.9363 0.0000 -14.7173
#
#
#
# Elastic Compliance Matrix: (Units=1/GPa)
#
#
# Indices 1 2 3 4 5 6 
#
# 1 0.040526 -0.017367 -0.002417 -0.000001 -0.018594 0.000002
# 2 -0.017367 0.031383 -0.000214 0.000001 -0.001271 -0.000002
# 3 -0.002417 -0.000214 0.011072 0.000000 -0.009007 -0.000001
# 4 -0.000001 0.000001 0.000000 0.041254 0.000000 -0.027853
# 5 -0.018594 -0.001271 -0.009007 0.000000 0.055519 0.000000
# 6 0.000002 -0.000002 -0.000001 -0.027853 0.000000 -0.049143
#
#
# Mechanical properties :
#
#
# Convention : Reuss Voigt Hill
#
# Bulk Modulus (GPa) = 23.26427 40.42277 31.84352
# Shear Modulus (GPa) = 27.03633 16.14038 21.58835
#
# Velocity S-wave (km/s) = 3.83830 2.96566 3.42985
# Velocity P-wave (km/s) = 5.68511 5.80981 5.74780
#
# Compressibility (1/GPa) = 0.04298438
#
# Stress axis : x y z
#
# Youngs Moduli (GPa) = 24.67543 31.86433 90.32037
#
# Poissons Ratio (x) = 0.55337 0.21834
# Poissons Ratio (y) = 0.42853 0.01936
# Poissons Ratio (z) = 0.05965 0.00683
#
# Static dielectric constant tensor:
#      x y z
#    x 1.716530 0.000000 -0.019880 
#    y 0.000000 1.623780 0.000000 
#    z -0.019880 0.000000 1.704740 
# 
# From -- ./inp_files/97786.got.cif
#   From: 2010.05.17/outbox.cif.g08.bks.cpg/sg15_49_cif.got.tgz:97786.got - 2010.06.03 18:47:42.
