data_PCOD9254396
_publ_section_title
;
Structure prediction by ZEFSAII (Michael W. Deem and Ramdas Pophale) SiO2 
 PCOD9254396
Probable space group: C 2/C
;
_chemical_formula_sum "Si O2"
_cell_formula_units_Z 52
_cell_length_a 18.088550
_cell_length_b 10.037629
_cell_length_c 15.425655
_cell_angle_alpha 90.000000
_cell_angle_beta 134.827834
_cell_angle_gamma 90.000000
_cell_volume 1986.390332
_symmetry_space_group_name_H-M "C 2/C"
_symmetry_group_IT_number 15
_symmetry_cell_setting 'monoclinic'
loop_
_space_group_symop_operation_xyz
x,y,z
-x,y,1/2-z
-x,-y,-z
x,-y,1/2+z
1/2+x,1/2+y,z
1/2-x,1/2+y,1/2-z
1/2-x,1/2-y,-z
1/2+x,1/2-y,1/2+z
loop_
_atom_site_type_symbol
_atom_site_label
_atom_site_fract_x
_atom_site_fract_y
_atom_site_fract_z
Si Si1 0.996646 0.451869 0.397858
Si Si2 0.525438 0.523041 0.674842
Si Si3 0.304739 0.660963 0.761176
Si Si4 0.500000 0.145888 0.250000
Si Si5 0.169133 0.776378 0.775484
Si Si6 0.812523 0.411626 0.508545
Si Si7 0.801795 0.057206 0.938719
O O1 0.116458 0.461473 0.463698
O O2 0.000000 0.500000 0.500000
O O3 0.049941 0.446775 0.713470
O O4 0.928767 0.318399 0.333387
O O5 0.500000 0.568588 0.750000
O O6 0.573555 0.644900 0.659975
O O7 0.618198 0.414316 0.759892
O O8 0.426045 0.449748 0.552947
O O9 0.253024 0.785021 0.766841
O O10 0.244540 0.640884 0.622699
O O11 0.284703 0.551995 0.820760
O O12 0.602292 0.193579 0.384858
O O13 0.235998 0.692794 0.900229
O O14 0.740625 0.451998 0.528360
#
# Coordination Sequence:
#
# PCOD9254396 Si02
#       7
#     8   8   8   4   8   8   8
#     4  10  16  30  51  83 121 167 200 239 316 374
#     4  12  25  37  66 100 122 164 221 258 321 384
#     4  10  22  42  57  89 130 176 202 259 323 380
#     4   8  16  24  48  78 116 150 200 244 302 360
#     4  10  22  37  57  89 133 165 200 267 321 372
#     4  10  17  31  59  85 121 166 212 245 314 374
#     4  10  21  41  59  87 131 165 208 264 314 373
#
# _framework density 26.178138000000001
#
# number of rings (size 3 to 8) (size 9 to 14) (size 15 to 20)
#    1.846    0.000    4.615    0.462    3.231    1.846 
#    0.000    0.000    0.000    0.923    0.000    1.077 
#    0.000    0.000    0.000    0.000    0.000    0.000 
#
# Total GULP energy -144989.294745 kJ/mol
# GULP energy per Si atom -5576.511336 kJ/mol
# Density = 2.611856 g / cm^3
# Si number density = 26.178138 Si / 1000 Ang^3
#
#
#
# Elastic Constant Matrix: (Units=GPa)
#
#
# Indices 1 2 3 4 5 6 
#
# 1 181.3354 46.5662 45.7060 0.0000 -14.1147 0.0000
# 2 46.5662 86.5314 31.5142 0.0000 5.4592 0.0000
# 3 45.7060 31.5142 167.0763 0.0000 -20.5137 0.0000
# 4 0.0000 0.0000 0.0000 10.9105 0.0000 6.7652
# 5 -14.1147 5.4592 -20.5137 0.0000 51.6890 0.0000
# 6 0.0000 0.0000 0.0000 6.7652 0.0000 21.1681
#
#
#
# Elastic Compliance Matrix: (Units=1/GPa)
#
#
# Indices 1 2 3 4 5 6 
#
# 1 0.006779 -0.003403 -0.000990 0.000000 0.001818 0.000000
# 2 -0.003403 0.014395 -0.002192 0.000000 -0.003319 0.000000
# 3 -0.000990 -0.002192 0.007006 0.000000 0.002742 0.000000
# 4 0.000000 0.000000 0.000000 0.114307 0.000000 -0.036532
# 5 0.001818 -0.003319 0.002742 0.000000 0.021282 0.000000
# 6 0.000000 0.000000 0.000000 -0.036532 0.000000 0.058916
#
#
# Mechanical properties :
#
#
# Convention : Reuss Voigt Hill
#
# Bulk Modulus (GPa) = 66.61137 75.83508 71.22322
# Shear Modulus (GPa) = 20.75916 37.49730 29.12823
#
# Velocity S-wave (km/s) = 2.81907 3.78880 3.33932
# Velocity P-wave (km/s) = 6.00807 6.94059 6.49110
#
# Compressibility (1/GPa) = 0.01501245
#
# Stress axis : x y z
#
# Youngs Moduli (GPa) = 147.50735 69.46718 142.73271
#
# Poissons Ratio (x) = 0.23636 0.14125
# Poissons Ratio (y) = 0.50190 0.31287
# Poissons Ratio (z) = 0.14597 0.15227
#
# Static dielectric constant tensor:
#      x y z
#    x 2.093820 0.000000 0.060570 
#    y 0.000000 2.171060 0.000000 
#    z 0.060570 0.000000 2.027720 
# 
# From -- ./inp_files/162044.got.cif
#   From: 2010.05.17/outbox.cif.g08.bks.cpg/sg15_82_cif.got.tgz:162044.got - 2010.06.03 18:47:42.
