data_PCOD9254350
_publ_section_title
;
Structure prediction by ZEFSAII (Michael W. Deem and Ramdas Pophale) SiO2 
 PCOD9254350
Probable space group: C 2/C
;
_chemical_formula_sum "Si O2"
_cell_formula_units_Z 60
_cell_length_a 27.186230
_cell_length_b 23.691107
_cell_length_c 11.059853
_cell_angle_alpha 90.000000
_cell_angle_beta 28.223367
_cell_angle_gamma 90.000000
_cell_volume 3368.699946
_symmetry_space_group_name_H-M "C 2/C"
_symmetry_group_IT_number 15
_symmetry_cell_setting 'monoclinic'
loop_
_space_group_symop_operation_xyz
x,y,z
-x,y,1/2-z
-x,-y,-z
x,-y,1/2+z
1/2+x,1/2+y,z
1/2-x,1/2+y,1/2-z
1/2-x,1/2-y,-z
1/2+x,1/2-y,1/2+z
loop_
_atom_site_type_symbol
_atom_site_label
_atom_site_fract_x
_atom_site_fract_y
_atom_site_fract_z
Si Si1 0.375096 0.739007 0.800328
Si Si2 0.796114 0.324328 0.274471
Si Si3 0.395148 0.129487 0.220935
Si Si4 0.665934 0.252071 0.376615
Si Si5 0.375175 0.936590 0.003175
Si Si6 0.127012 0.434459 0.969827
Si Si7 0.500000 0.244592 0.250000
Si Si8 0.128986 0.342244 0.141051
O O1 0.361761 0.807316 0.824814
O O2 0.387637 0.724360 0.630753
O O3 0.465543 0.724736 0.700304
O O4 0.268478 0.721595 0.097196
O O5 0.705274 0.298667 0.387973
O O6 0.795575 0.316828 0.420402
O O7 0.815149 0.390727 0.212841
O O8 0.901427 0.293465 0.000256
O O9 0.364008 0.086220 0.391966
O O10 0.350592 0.102238 0.196638
O O11 0.519470 0.138942 0.937084
O O12 0.609213 0.204430 0.579634
O O13 0.500000 0.933877 0.750000
O O14 0.340881 0.000552 0.099972
O O15 0.169321 0.398895 0.990601
O O16 0.000000 0.434869 0.250000
#
# Coordination Sequence:
#
# PCOD9254350 Si02
#       8
#     8   8   8   8   8   8   4   8
#     4  10  18  33  48  64  88 124 163 194 237 290
#     4  11  18  30  46  66  90 130 162 197 235 280
#     4  11  18  32  49  63  92 131 170 195 235 272
#     4  10  21  30  45  67  91 122 163 201 245 278
#     4  11  18  31  46  65  92 129 171 198 226 270
#     4   9  22  27  43  69  91 123 166 207 222 257
#     4  10  16  30  48  64  80 122 164 188 228 276
#     4  11  19  31  44  67  94 124 165 203 231 272
#
# _framework density 17.811025999999998
#
# number of rings (size 3 to 8) (size 9 to 14) (size 15 to 20)
#    0.000    1.600    7.333    0.400    1.867    1.600 
#    0.000    0.000    0.000    0.000    0.000    0.000 
#    0.000    0.000    0.000   15.600    1.067    0.267 
#
# Total GULP energy -167053.201171 kJ/mol
# GULP energy per Si atom -5568.440039 kJ/mol
# Density = 1.777049 g / cm^3
# Si number density = 17.811026 Si / 1000 Ang^3
#
#
#
# Elastic Constant Matrix: (Units=GPa)
#
#
# Indices 1 2 3 4 5 6 
#
# 1 145.2381 31.2939 11.8891 0.0000 19.1736 0.0000
# 2 31.2939 60.4510 5.2100 0.0000 0.7038 0.0000
# 3 11.8891 5.2100 13.5034 -0.0001 9.0545 0.0000
# 4 0.0000 0.0000 -0.0001 6.8979 0.0000 -2.3859
# 5 19.1736 0.7038 9.0545 0.0000 22.4016 0.0000
# 6 0.0000 0.0000 0.0000 -2.3859 0.0000 18.8522
#
#
#
# Elastic Compliance Matrix: (Units=1/GPa)
#
#
# Indices 1 2 3 4 5 6 
#
# 1 0.008853 -0.004371 -0.001535 0.000000 -0.006819 0.000000
# 2 -0.004371 0.019410 -0.007874 0.000000 0.006314 0.000000
# 3 -0.001535 -0.007874 0.106174 0.000001 -0.041353 0.000000
# 4 0.000000 0.000000 0.000001 0.151609 -0.000001 0.019187
# 5 -0.006819 0.006314 -0.041353 -0.000001 0.066993 0.000000
# 6 0.000000 0.000000 0.000000 0.019187 0.000000 0.055472
#
#
# Mechanical properties :
#
#
# Convention : Reuss Voigt Hill
#
# Bulk Modulus (GPa) = 9.35667 35.10871 22.23269
# Shear Modulus (GPa) = 10.59999 21.01698 15.80848
#
# Velocity S-wave (km/s) = 2.44219 3.43884 2.98244
# Velocity P-wave (km/s) = 3.63553 5.96004 4.93655
#
# Compressibility (1/GPa) = 0.10687559
#
# Stress axis : x y z
#
# Youngs Moduli (GPa) = 112.95531 51.51894 9.41847
#
# Poissons Ratio (x) = 0.22520 0.01446
# Poissons Ratio (y) = 0.49376 0.07416
# Poissons Ratio (z) = 0.17344 0.40568
#
# Static dielectric constant tensor:
#      x y z
#    x 1.728260 0.000000 0.024320 
#    y 0.000000 1.602300 0.000000 
#    z 0.024320 0.000000 1.669650 
# 
# From -- ./inp_files/127462.got.cif
#   From: 2010.05.17/outbox.cif.g08.bks.cpg/sg15_64_cif.got.tgz:127462.got - 2010.06.03 18:47:42.
