data_PCOD9254973
_publ_section_title
;
Structure prediction by ZEFSAII (Michael W. Deem and Ramdas Pophale) SiO2 
 PCOD9254973
Probable space group: C 2/C
;
_chemical_formula_sum "Si O2"
_cell_formula_units_Z 48
_cell_length_a 23.123379
_cell_length_b 6.850116
_cell_length_c 24.843732
_cell_angle_alpha 90.000000
_cell_angle_beta 28.751017
_cell_angle_gamma 90.000000
_cell_volume 1892.844971
_symmetry_space_group_name_H-M "C 2/C"
_symmetry_group_IT_number 15
_symmetry_cell_setting 'monoclinic'
loop_
_space_group_symop_operation_xyz
x,y,z
-x,y,1/2-z
-x,-y,-z
x,-y,1/2+z
1/2+x,1/2+y,z
1/2-x,1/2+y,1/2-z
1/2-x,1/2-y,-z
1/2+x,1/2-y,1/2+z
loop_
_atom_site_type_symbol
_atom_site_label
_atom_site_fract_x
_atom_site_fract_y
_atom_site_fract_z
Si Si1 0.559186 0.370105 0.780863
Si Si2 0.245164 0.413403 0.956810
Si Si3 0.619831 0.612198 0.988268
Si Si4 0.814599 0.634258 0.265066
Si Si5 0.514767 0.908813 0.676633
Si Si6 0.879587 0.258734 0.158086
O O1 0.624502 0.450275 0.674936
O O2 0.440257 0.458931 0.906253
O O3 0.526053 0.140552 0.794994
O O4 0.642883 0.352148 0.766556
O O5 0.180282 0.310001 0.959125
O O6 0.155153 0.585666 0.046449
O O7 0.250000 0.250000 0.000000
O O8 0.282500 0.525941 0.117477
O O9 0.509653 0.667559 0.038281
O O10 0.919527 0.709028 0.217984
O O11 0.887628 0.483154 0.168004
O O12 0.728542 0.748537 0.295106
O O13 0.500000 0.855109 0.750000
#
# Coordination Sequence:
#
# PCOD9254973 Si02
#       6
#     8   8   8   8   8   8
#     4   8  17  26  41  68  95 126 155 195 243 286
#     4  11  15  26  45  68 104 128 156 207 259 297
#     4   9  16  30  45  66  98 130 163 198 242 304
#     4  11  18  34  48  74  99 132 166 207 251 301
#     4  10  17  26  44  70  95 125 156 205 251 290
#     4   9  20  30  49  68 101 133 167 203 251 297
#
# _framework density 25.358653
#
# number of rings (size 3 to 8) (size 9 to 14) (size 15 to 20)
#    1.000    1.333    6.667    0.500    0.000    0.000 
#    0.000    3.333    0.000    0.000    0.000    7.000 
#    0.000    6.667    0.000    0.000    0.667    0.000 
#
# Total GULP energy -133783.744320 kJ/mol
# GULP energy per Si atom -5574.322680 kJ/mol
# Density = 2.530094 g / cm^3
# Si number density = 25.358653 Si / 1000 Ang^3
#
#
#
# Elastic Constant Matrix: (Units=GPa)
#
#
# Indices 1 2 3 4 5 6 
#
# 1 110.8007 16.1662 10.5145 -0.0026 -38.1289 -0.0010
# 2 16.1662 39.0246 20.5651 -0.0031 -6.6886 -0.0011
# 3 10.5145 20.5651 109.6010 -0.0031 -15.1576 0.0018
# 4 -0.0026 -0.0031 -0.0031 19.4204 0.0008 -15.2070
# 5 -38.1289 -6.6886 -15.1576 0.0008 42.7150 0.0005
# 6 -0.0010 -0.0011 0.0018 -15.2070 0.0005 26.7757
#
#
#
# Elastic Compliance Matrix: (Units=1/GPa)
#
#
# Indices 1 2 3 4 5 6 
#
# 1 0.013629 -0.004199 0.001127 0.000001 0.011908 0.000001
# 2 -0.004199 0.030028 -0.005363 0.000008 -0.000949 0.000006
# 3 0.001127 -0.005363 0.010564 0.000000 0.003915 -0.000001
# 4 0.000001 0.000008 0.000000 0.092733 0.000000 0.052667
# 5 0.011908 -0.000949 0.003915 0.000000 0.035281 0.000000
# 6 0.000001 0.000006 -0.000001 0.052667 0.000000 0.067259
#
#
# Mechanical properties :
#
#
# Convention : Reuss Voigt Hill
#
# Bulk Modulus (GPa) = 26.77291 39.32421 33.04856
# Shear Modulus (GPa) = 17.93327 31.92759 24.93043
#
# Velocity S-wave (km/s) = 2.66218 3.55215 3.13887
# Velocity P-wave (km/s) = 4.47551 5.68898 5.11834
#
# Compressibility (1/GPa) = 0.03735118
#
# Stress axis : x y z
#
# Youngs Moduli (GPa) = 73.37497 33.30266 94.66525
#
# Poissons Ratio (x) = 0.13983 -0.10671
# Poissons Ratio (y) = 0.30809 0.50766
# Poissons Ratio (z) = -0.08271 0.17859
#
# Static dielectric constant tensor:
#      x y z
#    x 2.012750 0.000000 -0.047180 
#    y 0.000000 2.058890 0.000000 
#    z -0.047180 0.000000 2.094280 
# 
# From -- ./inp_files/300636.got.cif
#   From: 2010.05.17/outbox.cif.g08.bks.cpg/sg15_151_cif.got.tgz:300636.got - 2010.06.03 18:47:42.
