data_PCOD9254281
_publ_section_title
;
Structure prediction by ZEFSAII (Michael W. Deem and Ramdas Pophale) SiO2 
 PCOD9254281
Probable space group: C 2/C
;
_chemical_formula_sum "Si O2"
_cell_formula_units_Z 36
_cell_length_a 8.736861
_cell_length_b 13.880980
_cell_length_c 11.367519
_cell_angle_alpha 90.000000
_cell_angle_beta 87.095617
_cell_angle_gamma 90.000000
_cell_volume 1376.838580
_symmetry_space_group_name_H-M "C 2/C"
_symmetry_group_IT_number 15
_symmetry_cell_setting 'monoclinic'
loop_
_space_group_symop_operation_xyz
x,y,z
-x,y,1/2-z
-x,-y,-z
x,-y,1/2+z
1/2+x,1/2+y,z
1/2-x,1/2+y,1/2-z
1/2-x,1/2-y,-z
1/2+x,1/2-y,1/2+z
loop_
_atom_site_type_symbol
_atom_site_label
_atom_site_fract_x
_atom_site_fract_y
_atom_site_fract_z
Si Si1 0.764018 0.556526 0.323260
Si Si2 0.694350 0.814677 0.886543
Si Si3 0.985213 0.884164 0.507018
Si Si4 0.000000 0.088797 0.750000
Si Si5 0.105000 0.638197 0.631117
O O1 0.842220 0.619006 0.220581
O O2 0.665453 0.628224 0.408599
O O3 0.641936 0.484167 0.265687
O O4 0.865454 0.475892 0.383017
O O5 0.749356 0.707981 0.847060
O O6 0.857966 0.853701 0.934131
O O7 0.572613 0.826458 0.997991
O O8 0.963783 0.854907 0.372106
O O9 0.000000 0.000000 0.500000
O O10 0.000000 0.651100 0.750000
#
# Coordination Sequence:
#
# PCOD9254281 Si02
#       5
#     8   8   8   4   8
#     4  11  18  35  62  88 118 152 202 248 292 349
#     4  11  21  39  63  88 119 159 205 246 289 360
#     4  10  16  30  57  93 107 146 194 255 280 337
#     4  10  16  28  56  94 106 142 194 250 280 332
#     4  11  24  37  58  92 121 163 195 240 308 362
#
# _framework density 26.146856
#
# number of rings (size 3 to 8) (size 9 to 14) (size 15 to 20)
#    0.000    1.333    8.889    1.333    0.000    0.889 
#    0.000    0.000    2.444   12.000    0.000    0.000 
#    0.000    0.000    0.000    0.000    0.000    0.000 
#
# Total GULP energy -100434.441162 kJ/mol
# GULP energy per Si atom -5579.691176 kJ/mol
# Density = 2.608734 g / cm^3
# Si number density = 26.146856 Si / 1000 Ang^3
#
#
#
# Elastic Constant Matrix: (Units=GPa)
#
#
# Indices 1 2 3 4 5 6 
#
# 1 68.9370 15.3497 66.8392 0.0000 -21.3279 0.0000
# 2 15.3497 76.9069 26.2480 0.0000 -2.1623 0.0000
# 3 66.8392 26.2480 212.9613 0.0000 -41.5890 0.0000
# 4 0.0000 0.0000 0.0000 53.0132 0.0000 5.2898
# 5 -21.3279 -2.1623 -41.5890 0.0000 44.7324 0.0000
# 6 0.0000 0.0000 0.0000 5.2898 0.0000 18.5114
#
#
#
# Elastic Compliance Matrix: (Units=1/GPa)
#
#
# Indices 1 2 3 4 5 6 
#
# 1 0.022093 -0.002341 -0.005633 0.000000 0.005183 0.000000
# 2 -0.002341 0.013866 -0.001297 0.000000 -0.001652 0.000000
# 3 -0.005633 -0.001297 0.007437 0.000000 0.004166 0.000000
# 4 0.000000 0.000000 0.000000 0.019417 0.000000 -0.005549
# 5 0.005183 -0.001652 0.004166 0.000000 0.028620 0.000000
# 6 0.000000 0.000000 0.000000 -0.005549 0.000000 0.055606
#
#
# Mechanical properties :
#
#
# Convention : Reuss Voigt Hill
#
# Bulk Modulus (GPa) = 40.23553 63.96434 52.09993
# Shear Modulus (GPa) = 28.75788 39.94262 34.35025
#
# Velocity S-wave (km/s) = 3.32001 3.91273 3.62849
# Velocity P-wave (km/s) = 5.48802 6.70292 6.12566
#
# Compressibility (1/GPa) = 0.02485365
#
# Stress axis : x y z
#
# Youngs Moduli (GPa) = 45.26416 72.11803 134.46121
#
# Poissons Ratio (x) = 0.16884 0.75744
# Poissons Ratio (y) = 0.10597 0.17437
# Poissons Ratio (z) = 0.25498 0.09352
#
# Static dielectric constant tensor:
#      x y z
#    x 2.135670 0.000000 -0.023060 
#    y 0.000000 2.136620 0.000000 
#    z -0.023060 0.000000 2.150850 
# 
# From -- ./inp_files/85015.got.cif
#   From: 2010.05.17/outbox.cif.g08.bks.cpg/sg15_43_cif.got.tgz:85015.got - 2010.06.03 18:47:42.
