data_PCOD9254935
_publ_section_title
;
Structure prediction by ZEFSAII (Michael W. Deem and Ramdas Pophale) SiO2 
 PCOD9254935
Probable space group: C 2/C
;
_chemical_formula_sum "Si O2"
_cell_formula_units_Z 48
_cell_length_a 13.299200
_cell_length_b 9.028024
_cell_length_c 14.774353
_cell_angle_alpha 90.000000
_cell_angle_beta 61.793470
_cell_angle_gamma 90.000000
_cell_volume 1563.239863
_symmetry_space_group_name_H-M "C 2/C"
_symmetry_group_IT_number 15
_symmetry_cell_setting 'monoclinic'
loop_
_space_group_symop_operation_xyz
x,y,z
-x,y,1/2-z
-x,-y,-z
x,-y,1/2+z
1/2+x,1/2+y,z
1/2-x,1/2+y,1/2-z
1/2-x,1/2-y,-z
1/2+x,1/2-y,1/2+z
loop_
_atom_site_type_symbol
_atom_site_label
_atom_site_fract_x
_atom_site_fract_y
_atom_site_fract_z
Si Si1 0.254028 0.098558 0.296762
Si Si2 0.000000 0.347957 0.250000
Si Si3 0.180911 0.595746 0.042250
Si Si4 0.428276 0.632797 0.579634
Si Si5 0.500000 0.640005 0.750000
Si Si6 0.555193 0.845870 0.418273
Si Si7 0.809508 0.896187 0.868757
O O1 0.345348 0.106649 0.339539
O O2 0.157778 0.225875 0.355294
O O3 0.276717 0.111211 0.180641
O O4 0.189310 0.944163 0.343361
O O5 0.036006 0.420027 0.329473
O O6 0.105211 0.241525 0.175451
O O7 0.095201 0.582789 0.994850
O O8 0.259284 0.452008 0.985200
O O9 0.250000 0.750000 0.000000
O O10 0.500000 0.500000 0.500000
O O11 0.481708 0.691814 0.652604
O O12 0.443722 0.755278 0.496651
O O13 0.390372 0.534597 0.808607
#
# Coordination Sequence:
#
# PCOD9254935 Si02
#       7
#     8   4   8   8   4   8   8
#     4   8  15  24  37  58  87 122 145 169 216 268
#     4   9  16  28  44  64  90 125 150 169 214 274
#     4  10  17  25  38  64  95 117 141 187 229 253
#     4   9  14  22  35  56  84 116 147 173 209 265
#     4   9  14  20  34  54  78 113 144 169 198 246
#     4   9  16  24  39  62  89 116 144 182 221 255
#     4   9  15  24  39  59  88 122 150 171 210 271
#
# _framework density 30.705459999999999
#
# number of rings (size 3 to 8) (size 9 to 14) (size 15 to 20)
#    0.000    3.000    0.000    7.000    0.000    0.000 
#    0.000    0.000    0.000    0.000    0.000   32.667 
#    0.000   24.000    0.000   30.667    0.000    0.000 
#
# Total GULP energy -134342.526288 kJ/mol
# GULP energy per Si atom -5597.605262 kJ/mol
# Density = 3.063557 g / cm^3
# Si number density = 30.705460 Si / 1000 Ang^3
#
#
#
# Elastic Constant Matrix: (Units=GPa)
#
#
# Indices 1 2 3 4 5 6 
#
# 1 158.4047 41.5486 64.0898 0.0000 74.4421 0.0000
# 2 41.5486 98.8179 73.8367 0.0000 0.9232 0.0000
# 3 64.0898 73.8367 285.8038 0.0000 60.3637 0.0000
# 4 0.0000 0.0000 0.0000 70.5919 0.0000 -1.9572
# 5 74.4421 0.9232 60.3637 0.0000 77.0593 0.0000
# 6 0.0000 0.0000 0.0000 -1.9572 0.0000 48.3693
#
#
#
# Elastic Compliance Matrix: (Units=1/GPa)
#
#
# Indices 1 2 3 4 5 6 
#
# 1 0.015025 -0.007648 0.001980 0.000000 -0.015974 0.000000
# 2 -0.007648 0.016983 -0.005021 0.000000 0.011117 0.000000
# 3 0.001980 -0.005021 0.005684 0.000000 -0.006305 0.000000
# 4 0.000000 0.000000 0.000000 0.014182 0.000000 0.000574
# 5 -0.015974 0.011117 -0.006305 0.000000 0.033214 0.000000
# 6 0.000000 0.000000 0.000000 0.000574 0.000000 0.020697
#
#
# Mechanical properties :
#
#
# Convention : Reuss Voigt Hill
#
# Bulk Modulus (GPa) = 61.29279 100.21960 80.75619
# Shear Modulus (GPa) = 37.70783 63.44085 50.57434
#
# Velocity S-wave (km/s) = 3.50816 4.55038 4.06283
# Velocity P-wave (km/s) = 6.03443 7.76645 6.95457
#
# Compressibility (1/GPa) = 0.01631513
#
# Stress axis : x y z
#
# Youngs Moduli (GPa) = 66.55749 58.88374 175.94695
#
# Poissons Ratio (x) = 0.45033 -0.34845
# Poissons Ratio (y) = 0.50901 0.88334
# Poissons Ratio (z) = -0.13181 0.29563
#
# Static dielectric constant tensor:
#      x y z
#    x 2.463450 0.000000 -0.049670 
#    y 0.000000 2.469110 0.000000 
#    z -0.049670 0.000000 2.255280 
# 
# From -- ./inp_files/151904.got.cif
#   From: 2010.05.17/outbox.cif.g08.bks.cpg/sg15_76_cif.got.tgz:151904.got - 2010.06.03 18:47:42.
