data_PCOD9254338
_publ_section_title
;
Structure prediction by ZEFSAII (Michael W. Deem and Ramdas Pophale) SiO2 
 PCOD9254338
Probable space group: C 2/C
;
_chemical_formula_sum "Si O2"
_cell_formula_units_Z 56
_cell_length_a 20.387975
_cell_length_b 10.321230
_cell_length_c 19.169311
_cell_angle_alpha 90.000000
_cell_angle_beta 139.952108
_cell_angle_gamma 90.000000
_cell_volume 2595.444856
_symmetry_space_group_name_H-M "C 2/C"
_symmetry_group_IT_number 15
_symmetry_cell_setting 'monoclinic'
loop_
_space_group_symop_operation_xyz
x,y,z
-x,y,1/2-z
-x,-y,-z
x,-y,1/2+z
1/2+x,1/2+y,z
1/2-x,1/2+y,1/2-z
1/2-x,1/2-y,-z
1/2+x,1/2-y,1/2+z
loop_
_atom_site_type_symbol
_atom_site_label
_atom_site_fract_x
_atom_site_fract_y
_atom_site_fract_z
Si Si1 0.996088 0.467058 0.162075
Si Si2 0.563735 0.491425 0.982300
Si Si3 0.923556 0.029107 0.253338
Si Si4 0.676205 0.275562 0.340227
Si Si5 0.102187 0.732486 0.437542
Si Si6 0.286786 0.014689 0.649689
Si Si7 0.723757 0.113671 0.012562
O O1 0.977804 0.615774 0.123313
O O2 0.000000 0.467060 0.250000
O O3 0.110232 0.417564 0.238698
O O4 0.892933 0.393315 0.055930
O O5 0.493774 0.412570 0.870820
O O6 0.582975 0.633480 0.962512
O O7 0.500000 0.500000 0.000000
O O8 0.677811 0.438747 0.087925
O O9 0.888666 0.885632 0.249459
O O10 0.000000 0.022719 0.250000
O O11 0.816903 0.088778 0.141011
O O12 0.790828 0.323901 0.447236
O O13 0.622772 0.260532 0.372542
O O14 0.692407 0.136663 0.318883
O O15 0.275408 0.021364 0.555694
O O16 0.750000 0.250000 0.000000
#
# Coordination Sequence:
#
# PCOD9254338 Si02
#       7
#     8   8   8   8   8   8   8
#     4  10  18  32  57  93 125 146 195 262 321 367
#     4  11  24  37  57  89 130 166 199 251 323 392
#     4  12  20  34  62  90 123 154 203 260 312 375
#     4  10  16  29  59  99 117 144 184 259 322 351
#     4  10  16  30  57  90 130 144 188 250 313 374
#     4  10  20  36  58  89 129 149 195 253 316 376
#     4  11  22  36  58  90 120 161 205 254 315 366
#
# _framework density 21.576263000000001
#
# number of rings (size 3 to 8) (size 9 to 14) (size 15 to 20)
#    0.000    1.429    7.143    1.714    0.000    1.714 
#    0.000    0.000    9.429    0.857    0.000    0.000 
#    0.000    0.000    0.000    0.000    0.000    0.000 
#
# Total GULP energy -156105.947669 kJ/mol
# GULP energy per Si atom -5575.212417 kJ/mol
# Density = 2.152715 g / cm^3
# Si number density = 21.576263 Si / 1000 Ang^3
#
#
#
# Elastic Constant Matrix: (Units=GPa)
#
#
# Indices 1 2 3 4 5 6 
#
# 1 65.6851 -10.8370 61.4028 0.0000 36.4084 0.0000
# 2 -10.8370 48.6179 27.7243 0.0000 14.3296 0.0000
# 3 61.4028 27.7243 173.2995 0.0000 70.5037 0.0000
# 4 0.0000 0.0000 0.0000 12.8289 0.0000 4.8933
# 5 36.4084 14.3296 70.5037 0.0000 38.6779 0.0000
# 6 0.0000 0.0000 0.0000 4.8933 0.0000 6.9075
#
#
#
# Elastic Compliance Matrix: (Units=1/GPa)
#
#
# Indices 1 2 3 4 5 6 
#
# 1 0.057535 0.032123 0.005227 0.000000 -0.075588 0.000000
# 2 0.032123 0.041055 0.002090 0.000000 -0.049258 0.000000
# 3 0.005227 0.002090 0.022835 0.000000 -0.047319 0.000000
# 4 0.000000 0.000000 0.000000 0.106809 0.000000 -0.075663
# 5 -0.075588 -0.049258 -0.047319 0.000000 0.201511 0.000000
# 6 0.000000 0.000000 0.000000 -0.075663 0.000000 0.198371
#
#
# Mechanical properties :
#
#
# Convention : Reuss Voigt Hill
#
# Bulk Modulus (GPa) = 4.99238 49.35363 27.17301
# Shear Modulus (GPa) = 8.11683 25.63703 16.87693
#
# Velocity S-wave (km/s) = 1.94167 3.45077 2.79982
# Velocity P-wave (km/s) = 2.71029 6.22903 4.80346
#
# Compressibility (1/GPa) = 0.20030513
#
# Stress axis : x y z
#
# Youngs Moduli (GPa) = 17.38070 24.35747 43.79293
#
# Poissons Ratio (x) = -0.78243 -0.22891
# Poissons Ratio (y) = -0.55832 -0.09154
# Poissons Ratio (z) = -0.09085 -0.05092
#
# Static dielectric constant tensor:
#      x y z
#    x 1.773030 0.000000 0.065050 
#    y 0.000000 1.880850 0.000000 
#    z 0.065050 0.000000 1.881030 
# 
# From -- ./inp_files/252430.got.cif
#   From: 2010.05.17/outbox.cif.g08.bks.cpg/sg15_127_cif.got.tgz:252430.got - 2010.06.03 18:47:42.
