data_PCOD9254091
_publ_section_title
;
Structure prediction by ZEFSAII (Michael W. Deem and Ramdas Pophale) SiO2 
 PCOD9254091
Probable space group: C 2/C
;
_chemical_formula_sum "Si O2"
_cell_formula_units_Z 44
_cell_length_a 20.319201
_cell_length_b 13.521748
_cell_length_c 14.087848
_cell_angle_alpha 90.000000
_cell_angle_beta 29.756009
_cell_angle_gamma 90.000000
_cell_volume 1921.033807
_symmetry_space_group_name_H-M "C 2/C"
_symmetry_group_IT_number 15
_symmetry_cell_setting 'monoclinic'
loop_
_space_group_symop_operation_xyz
x,y,z
-x,y,1/2-z
-x,-y,-z
x,-y,1/2+z
1/2+x,1/2+y,z
1/2-x,1/2+y,1/2-z
1/2-x,1/2-y,-z
1/2+x,1/2-y,1/2+z
loop_
_atom_site_type_symbol
_atom_site_label
_atom_site_fract_x
_atom_site_fract_y
_atom_site_fract_z
Si Si1 0.285917 0.519996 0.714686
Si Si2 0.000000 0.449657 0.750000
Si Si3 0.561117 0.218406 0.021321
Si Si4 0.229600 0.501789 0.090031
Si Si5 0.940200 0.919881 0.196133
Si Si6 0.829157 0.333819 0.692110
O O1 0.231480 0.563760 0.683325
O O2 0.423300 0.467761 0.509397
O O3 0.335548 0.581464 0.740812
O O4 0.186641 0.427860 0.858701
O O5 0.057467 0.376546 0.595084
O O6 0.112369 0.512322 0.662770
O O7 0.477427 0.308045 0.174205
O O8 0.477052 0.202397 0.028977
O O9 0.710084 0.258804 0.820006
O O10 0.368339 0.512177 0.863140
O O11 0.206713 0.612044 0.162658
#
# Coordination Sequence:
#
# PCOD9254091 Si02
#       6
#     8   4   8   8   8   8
#     4   8  18  29  39  63  90 112 153 180 206 272
#     4  10  18  26  42  68  94 112 144 168 226 284
#     4  10  16  25  42  65  87 118 137 177 220 268
#     4   9  17  29  42  60  91 119 141 178 218 259
#     4  10  16  27  45  62  85 121 145 179 224 250
#     4   8  17  27  41  62  92 110 146 172 218 263
#
# _framework density 22.904333000000001
#
# number of rings (size 3 to 8) (size 9 to 14) (size 15 to 20)
#    1.091    1.818    0.000    2.727    0.000    2.909 
#    0.000    0.909    0.000    0.000    0.000    1.273 
#    0.000    5.818    0.000    0.545    0.000    0.000 
#
# Total GULP energy -122483.532135 kJ/mol
# GULP energy per Si atom -5567.433279 kJ/mol
# Density = 2.285220 g / cm^3
# Si number density = 22.904333 Si / 1000 Ang^3
#
#
#
# Elastic Constant Matrix: (Units=GPa)
#
#
# Indices 1 2 3 4 5 6 
#
# 1 190.9066 38.1350 35.9143 0.0000 -42.0130 0.0000
# 2 38.1350 40.3258 13.7523 0.0000 -10.7617 0.0000
# 3 35.9143 13.7523 52.5340 0.0000 -31.8894 0.0000
# 4 0.0000 0.0000 0.0000 15.3920 0.0000 -10.0442
# 5 -42.0130 -10.7617 -31.8894 0.0000 44.3261 0.0000
# 6 0.0000 0.0000 0.0000 -10.0442 0.0000 42.3084
#
#
#
# Elastic Compliance Matrix: (Units=1/GPa)
#
#
# Indices 1 2 3 4 5 6 
#
# 1 0.007672 -0.005630 -0.000331 0.000000 0.005666 0.000000
# 2 -0.005630 0.031535 -0.005322 0.000000 -0.001509 0.000000
# 3 -0.000331 -0.005322 0.034938 0.000000 0.023529 0.000000
# 4 0.000000 0.000000 0.000000 0.076879 0.000000 0.018252
# 5 0.005666 -0.001509 0.023529 0.000000 0.044492 0.000000
# 6 0.000000 0.000000 0.000000 0.018252 0.000000 0.027969
#
#
# Mechanical properties :
#
#
# Convention : Reuss Voigt Hill
#
# Bulk Modulus (GPa) = 19.38862 51.04106 35.21484
# Shear Modulus (GPa) = 18.99376 33.46960 26.23168
#
# Velocity S-wave (km/s) = 2.88282 3.82681 3.38786
# Velocity P-wave (km/s) = 4.42315 6.46984 5.54180
#
# Compressibility (1/GPa) = 0.05157665
#
# Stress axis : x y z
#
# Youngs Moduli (GPa) = 130.34046 31.71119 28.62242
#
# Poissons Ratio (x) = 0.17854 0.00949
# Poissons Ratio (y) = 0.73384 0.15234
# Poissons Ratio (z) = 0.04321 0.16878
#
# Static dielectric constant tensor:
#      x y z
#    x 1.945140 0.000000 0.000860 
#    y 0.000000 1.880020 0.000000 
#    z 0.000860 0.000000 1.941770 
# 
# From -- ./inp_files/113038.got.cif
#   From: 2010.05.17/outbox.cif.g08.bks.cpg/sg15_57_cif.got.tgz:113038.got - 2010.06.03 18:47:42.
