data_PCOD9254222
_publ_section_title
;
Structure prediction by ZEFSAII (Michael W. Deem and Ramdas Pophale) SiO2 
 PCOD9254222
Probable space group: C 2/C
;
_chemical_formula_sum "Si O2"
_cell_formula_units_Z 60
_cell_length_a 9.823319
_cell_length_b 19.900707
_cell_length_c 18.851425
_cell_angle_alpha 90.000000
_cell_angle_beta 131.621354
_cell_angle_gamma 90.000000
_cell_volume 2754.936094
_symmetry_space_group_name_H-M "C 2/C"
_symmetry_group_IT_number 15
_symmetry_cell_setting 'monoclinic'
loop_
_space_group_symop_operation_xyz
x,y,z
-x,y,1/2-z
-x,-y,-z
x,-y,1/2+z
1/2+x,1/2+y,z
1/2-x,1/2+y,1/2-z
1/2-x,1/2-y,-z
1/2+x,1/2-y,1/2+z
loop_
_atom_site_type_symbol
_atom_site_label
_atom_site_fract_x
_atom_site_fract_y
_atom_site_fract_z
Si Si1 0.442875 0.311697 0.599751
Si Si2 0.533780 0.192200 0.984565
Si Si3 0.212465 0.488593 0.400573
Si Si4 0.036634 0.954594 0.621312
Si Si5 0.777229 0.989894 0.146810
Si Si6 0.636418 0.109226 0.699378
Si Si7 0.000000 0.709913 0.750000
Si Si8 0.045778 0.585955 0.442854
O O1 0.458880 0.270669 0.531666
O O2 0.235624 0.335817 0.538086
O O3 0.572808 0.375707 0.645171
O O4 0.461773 0.259283 0.671266
O O5 0.411961 0.160014 0.881153
O O6 0.472558 0.162863 0.038849
O O7 0.376731 0.460918 0.506264
O O8 0.295569 0.503021 0.352184
O O9 0.039500 0.439354 0.348167
O O10 0.151665 0.561201 0.410402
O O11 0.945520 0.981314 0.661346
O O12 0.787900 0.935939 0.213957
O O13 0.653075 0.052127 0.129290
O O14 0.654608 0.951563 0.044292
O O15 0.654422 0.157709 0.774147
#
# Coordination Sequence:
#
# PCOD9254222 Si02
#       8
#     8   8   8   8   8   8   4   8
#     4  10  18  29  45  73  95 130 155 205 226 287
#     4   9  15  27  51  69  94 122 168 187 234 274
#     4   9  17  26  49  74 104 118 149 202 253 279
#     4  10  16  28  46  80 101 120 149 201 246 290
#     4   8  13  23  46  68  97 115 150 191 238 271
#     4   9  16  32  48  73  88 125 158 202 233 291
#     4  10  22  32  48  68  96 120 172 202 234 278
#     4   8  12  24  42  73  94 121 149 193 226 280
#
# _framework density 21.779088000000002
#
# number of rings (size 3 to 8) (size 9 to 14) (size 15 to 20)
#    0.000    2.933    2.667    1.600    0.000    0.000 
#    0.000    2.000    0.000    0.000    3.467    0.000 
#    0.000    0.000    0.000    0.000    0.000    0.000 
#
# Total GULP energy -167131.432950 kJ/mol
# GULP energy per Si atom -5571.047765 kJ/mol
# Density = 2.172952 g / cm^3
# Si number density = 21.779088 Si / 1000 Ang^3
#
#
#
# Elastic Constant Matrix: (Units=GPa)
#
#
# Indices 1 2 3 4 5 6 
#
# 1 81.1014 32.6277 10.5837 0.0000 -28.5780 0.0000
# 2 32.6277 77.3405 14.6043 0.0000 -14.7780 0.0000
# 3 10.5837 14.6043 38.7098 0.0000 -18.0120 0.0000
# 4 0.0000 0.0000 0.0000 22.9329 0.0000 -12.0837
# 5 -28.5780 -14.7780 -18.0120 0.0000 33.9893 0.0000
# 6 0.0000 0.0000 0.0000 -12.0837 0.0000 34.8082
#
#
#
# Elastic Compliance Matrix: (Units=1/GPa)
#
#
# Indices 1 2 3 4 5 6 
#
# 1 0.020064 -0.006152 0.004566 0.000000 0.016615 0.000000
# 2 -0.006152 0.016307 -0.004749 0.000000 -0.000599 0.000000
# 3 0.004566 -0.004749 0.036105 0.000000 0.020908 0.000000
# 4 0.000000 0.000000 0.000000 0.053367 0.000000 0.018526
# 5 0.016615 -0.000599 0.020908 0.000000 0.054210 0.000000
# 6 0.000000 0.000000 0.000000 0.018526 0.000000 0.035160
#
#
# Mechanical properties :
#
#
# Convention : Reuss Voigt Hill
#
# Bulk Modulus (GPa) = 16.72058 34.75368 25.73713
# Shear Modulus (GPa) = 20.17604 27.63515 23.90559
#
# Velocity S-wave (km/s) = 3.04698 3.56601 3.31666
# Velocity P-wave (km/s) = 4.48026 5.73996 5.14878
#
# Compressibility (1/GPa) = 0.05980653
#
# Stress axis : x y z
#
# Youngs Moduli (GPa) = 49.84084 61.32151 27.69704
#
# Poissons Ratio (x) = 0.37725 -0.12647
# Poissons Ratio (y) = 0.30662 0.13154
# Poissons Ratio (z) = -0.22758 0.29122
#
# Static dielectric constant tensor:
#      x y z
#    x 1.807270 0.000000 0.011600 
#    y 0.000000 1.830970 0.000000 
#    z 0.011600 0.000000 1.910420 
# 
# From -- ./inp_files/233568.got.cif
#   From: 2010.05.17/outbox.cif.g08.bks.cpg/sg15_117_cif.got.tgz:233568.got - 2010.06.03 18:47:42.
