data_PCOD9254829
_publ_section_title
;
Structure prediction by ZEFSAII (Michael W. Deem and Ramdas Pophale) SiO2 
 PCOD9254829
Probable space group: C 2/C
;
_chemical_formula_sum "Si O2"
_cell_formula_units_Z 44
_cell_length_a 13.405613
_cell_length_b 7.206345
_cell_length_c 16.118686
_cell_angle_alpha 90.000000
_cell_angle_beta 93.786766
_cell_angle_gamma 90.000000
_cell_volume 1553.753617
_symmetry_space_group_name_H-M "C 2/C"
_symmetry_group_IT_number 15
_symmetry_cell_setting 'monoclinic'
loop_
_space_group_symop_operation_xyz
x,y,z
-x,y,1/2-z
-x,-y,-z
x,-y,1/2+z
1/2+x,1/2+y,z
1/2-x,1/2+y,1/2-z
1/2-x,1/2-y,-z
1/2+x,1/2-y,1/2+z
loop_
_atom_site_type_symbol
_atom_site_label
_atom_site_fract_x
_atom_site_fract_y
_atom_site_fract_z
Si Si1 0.706161 0.357184 0.849232
Si Si2 0.887231 0.862761 0.409139
Si Si3 0.000000 0.227197 0.750000
Si Si4 0.646331 0.160232 0.692553
Si Si5 0.162183 0.736609 0.384646
Si Si6 0.052852 0.729473 0.531988
O O1 0.772973 0.208717 0.902546
O O2 0.635540 0.251891 0.780798
O O3 0.793223 0.468319 0.804115
O O4 0.652153 0.533952 0.888001
O O5 0.929127 0.869350 0.315901
O O6 0.952243 0.725844 0.472443
O O7 0.917531 0.059343 0.447328
O O8 0.078180 0.325673 0.815097
O O9 0.729082 0.286117 0.647624
O O10 0.556664 0.140865 0.623048
O O11 0.138788 0.658230 0.473533
#
# Coordination Sequence:
#
# PCOD9254829 Si02
#       6
#     8   8   4   8   8   8
#     4  10  20  35  55  82 108 148 185 229 272 329
#     4  10  20  35  56  81 109 150 185 229 273 331
#     4  10  16  36  56  78 106 150 190 214 268 344
#     4  10  19  34  55  81 109 143 186 228 270 328
#     4   9  20  31  58  81 106 146 185 228 273 329
#     4  10  20  35  56  82 112 144 187 228 280 328
#
# _framework density 28.318515999999999
#
# number of rings (size 3 to 8) (size 9 to 14) (size 15 to 20)
#    1.091    1.091    1.818    2.727    0.000    1.455 
#    0.000    0.000    0.000    8.727    0.000    0.000 
#    0.000    0.000    0.000    0.000    0.000    0.000 
#
# Total GULP energy -122879.584629 kJ/mol
# GULP energy per Si atom -5585.435665 kJ/mol
# Density = 2.825406 g / cm^3
# Si number density = 28.318516 Si / 1000 Ang^3
#
#
#
# Elastic Constant Matrix: (Units=GPa)
#
#
# Indices 1 2 3 4 5 6 
#
# 1 89.4506 23.4483 66.5598 0.0000 -3.1502 0.0000
# 2 23.4483 105.9686 37.3445 0.0000 4.5625 0.0000
# 3 66.5598 37.3445 201.1442 0.0000 21.5520 0.0000
# 4 0.0000 0.0000 0.0000 29.9335 0.0000 -0.7411
# 5 -3.1502 4.5625 21.5520 0.0000 55.7937 0.0000
# 6 0.0000 0.0000 0.0000 -0.7411 0.0000 30.9983
#
#
#
# Elastic Compliance Matrix: (Units=1/GPa)
#
#
# Indices 1 2 3 4 5 6 
#
# 1 0.015581 -0.001762 -0.005151 0.000000 0.003014 0.000000
# 2 -0.001762 0.010297 -0.001281 0.000000 -0.000447 0.000000
# 3 -0.005151 -0.001281 0.007233 0.000000 -0.002980 0.000000
# 4 0.000000 0.000000 0.000000 0.033427 0.000000 0.000799
# 5 0.003014 -0.000447 -0.002980 0.000000 0.019281 0.000000
# 6 0.000000 0.000000 0.000000 0.000799 0.000000 0.032279
#
#
# Mechanical properties :
#
#
# Convention : Reuss Voigt Hill
#
# Bulk Modulus (GPa) = 59.79943 72.36318 66.08131
# Shear Modulus (GPa) = 35.69870 41.29249 38.49559
#
# Velocity S-wave (km/s) = 3.55436 3.82271 3.69098
# Velocity P-wave (km/s) = 6.16500 6.71513 6.44593
#
# Compressibility (1/GPa) = 0.01672257
#
# Stress axis : x y z
#
# Youngs Moduli (GPa) = 64.18253 97.11323 138.24855
#
# Poissons Ratio (x) = 0.17111 0.71219
# Poissons Ratio (y) = 0.11308 0.17708
# Poissons Ratio (z) = 0.33064 0.12439
#
# Static dielectric constant tensor:
#      x y z
#    x 2.186950 0.000000 0.019960 
#    y 0.000000 2.285020 0.000000 
#    z 0.019960 0.000000 2.200840 
# 
# From -- ./inp_files/159974.got.cif
#   From: 2010.05.17/outbox.cif.g08.bks.cpg/sg15_80_cif.got.tgz:159974.got - 2010.06.03 18:47:42.
