data_PCOD9254218
_publ_section_title
;
Structure prediction by ZEFSAII (Michael W. Deem and Ramdas Pophale) SiO2 
 PCOD9254218
Probable space group: C 2/C
;
_chemical_formula_sum "Si O2"
_cell_formula_units_Z 60
_cell_length_a 28.953273
_cell_length_b 6.886398
_cell_length_c 24.049581
_cell_angle_alpha 90.000000
_cell_angle_beta 29.008059
_cell_angle_gamma 90.000000
_cell_volume 2325.298503
_symmetry_space_group_name_H-M "C 2/C"
_symmetry_group_IT_number 15
_symmetry_cell_setting 'monoclinic'
loop_
_space_group_symop_operation_xyz
x,y,z
-x,y,1/2-z
-x,-y,-z
x,-y,1/2+z
1/2+x,1/2+y,z
1/2-x,1/2+y,1/2-z
1/2-x,1/2-y,-z
1/2+x,1/2-y,1/2+z
loop_
_atom_site_type_symbol
_atom_site_label
_atom_site_fract_x
_atom_site_fract_y
_atom_site_fract_z
Si Si1 0.592843 0.997808 0.460177
Si Si2 0.056115 0.957203 0.498214
Si Si3 0.728923 0.876853 0.895126
Si Si4 0.924165 0.891358 0.736810
Si Si5 0.644310 0.748716 0.085555
Si Si6 0.000000 0.405981 0.750000
Si Si7 0.927225 0.578508 0.206944
Si Si8 0.273349 0.988117 0.286829
O O1 0.566298 0.224335 0.487449
O O2 0.662531 0.965456 0.438699
O O3 0.498703 0.888424 0.579437
O O4 0.653523 0.981854 0.341118
O O5 0.164052 0.042525 0.386844
O O6 0.996482 0.989162 0.618035
O O7 0.000000 0.000000 0.500000
O O8 0.819104 0.960847 0.830767
O O9 0.769590 0.739955 0.805196
O O10 0.666964 0.724190 0.997172
O O11 0.916492 0.893213 0.811809
O O12 0.930005 0.655102 0.719805
O O13 0.590389 0.955091 0.141260
O O14 0.750000 0.750000 0.000000
O O15 0.036967 0.324283 0.772027
O O16 0.823342 0.595874 0.286939
#
# Coordination Sequence:
#
# PCOD9254218 Si02
#       8
#     8   8   8   8   8   4   8   8
#     4  10  18  31  48  70 103 135 163 211 248 304
#     4  10  20  34  51  73 102 135 172 208 252 308
#     4   9  16  29  46  70 102 135 167 204 253 309
#     4   8  16  28  46  70 101 133 166 209 254 302
#     4   9  16  26  44  69  98 135 167 207 265 309
#     4  10  16  28  46  70 104 134 172 212 266 320
#     4   9  17  29  45  69 101 135 166 204 260 309
#     4  10  20  30  46  71 104 132 168 203 254 307
#
# _framework density 25.803139999999999
#
# number of rings (size 3 to 8) (size 9 to 14) (size 15 to 20)
#    0.000    2.667    1.333    2.000    1.867    1.067 
#    0.000    0.000    0.000    0.000    0.000    0.933 
#    8.000    0.133    0.000    0.000    0.000    0.000 
#
# Total GULP energy -167122.727876 kJ/mol
# GULP energy per Si atom -5570.757596 kJ/mol
# Density = 2.574441 g / cm^3
# Si number density = 25.803140 Si / 1000 Ang^3
#
#
#
# Elastic Constant Matrix: (Units=GPa)
#
#
# Indices 1 2 3 4 5 6 
#
# 1 198.0328 11.2822 89.2583 0.0011 -33.4330 -0.0027
# 2 11.2822 60.9266 25.9952 0.0267 11.6748 -0.0230
# 3 89.2583 25.9952 178.6921 0.0117 10.0022 -0.0122
# 4 0.0011 0.0267 0.0117 13.7840 -0.0111 10.2256
# 5 -33.4330 11.6748 10.0022 -0.0111 49.2187 0.0064
# 6 -0.0027 -0.0230 -0.0122 10.2256 0.0064 17.0807
#
#
#
# Elastic Compliance Matrix: (Units=1/GPa)
#
#
# Indices 1 2 3 4 5 6 
#
# 1 0.008173 -0.000946 -0.004317 0.000026 0.006653 -0.000021
# 2 -0.000946 0.018292 -0.001931 -0.000101 -0.004589 0.000085
# 3 -0.004317 -0.001931 0.008266 -0.000017 -0.004154 0.000014
# 4 0.000026 -0.000101 -0.000017 0.130510 0.000085 -0.078131
# 5 0.006653 -0.004589 -0.004154 0.000085 0.026770 -0.000069
# 6 -0.000021 0.000085 0.000014 -0.078131 -0.000069 0.105320
#
#
# Mechanical properties :
#
#
# Convention : Reuss Voigt Hill
#
# Bulk Modulus (GPa) = 49.16161 76.74699 62.95430
# Shear Modulus (GPa) = 15.69857 36.75773 26.22815
#
# Velocity S-wave (km/s) = 2.46925 3.77841 3.19167
# Velocity P-wave (km/s) = 5.21762 6.98878 6.16711
#
# Compressibility (1/GPa) = 0.02034108
#
# Stress axis : x y z
#
# Youngs Moduli (GPa) = 122.35980 54.66882 120.97572
#
# Poissons Ratio (x) = 0.05174 0.52226
# Poissons Ratio (y) = 0.11580 0.23365
# Poissons Ratio (z) = 0.52823 0.10559
#
# Static dielectric constant tensor:
#      x y z
#    x 2.183890 -0.000020 -0.026350 
#    y -0.000020 2.083450 0.000020 
#    z -0.026350 0.000020 2.036680 
# 
# From -- ./inp_files/284540.got.cif
#   From: 2010.05.17/outbox.cif.g08.bks.cpg/sg15_143_cif.got.tgz:284540.got - 2010.06.03 18:47:42.
