data_PCOD9254385
_publ_section_title
;
Structure prediction by ZEFSAII (Michael W. Deem and Ramdas Pophale) SiO2 
 PCOD9254385
Probable space group: C 2/C
;
_chemical_formula_sum "Si O2"
_cell_formula_units_Z 52
_cell_length_a 9.565209
_cell_length_b 18.821986
_cell_length_c 13.783096
_cell_angle_alpha 90.000000
_cell_angle_beta 75.913427
_cell_angle_gamma 90.000000
_cell_volume 2406.836953
_symmetry_space_group_name_H-M "C 2/C"
_symmetry_group_IT_number 15
_symmetry_cell_setting 'monoclinic'
loop_
_space_group_symop_operation_xyz
x,y,z
-x,y,1/2-z
-x,-y,-z
x,-y,1/2+z
1/2+x,1/2+y,z
1/2-x,1/2+y,1/2-z
1/2-x,1/2-y,-z
1/2+x,1/2-y,1/2+z
loop_
_atom_site_type_symbol
_atom_site_label
_atom_site_fract_x
_atom_site_fract_y
_atom_site_fract_z
Si Si1 0.828307 0.059511 0.761018
Si Si2 0.981109 0.137018 0.465489
Si Si3 0.883154 0.204223 0.684505
Si Si4 0.231234 0.448787 0.616307
Si Si5 0.817328 0.634111 0.202833
Si Si6 0.786769 0.463758 0.550504
Si Si7 0.500000 0.341719 0.750000
O O1 0.784519 0.139641 0.739465
O O2 0.000000 0.060841 0.750000
O O3 0.790126 0.009185 0.678384
O O4 0.757432 0.025466 0.867020
O O5 0.946642 0.179501 0.569796
O O6 0.853055 0.079741 0.467688
O O7 0.131760 0.094322 0.449961
O O8 0.991882 0.185352 0.364195
O O9 0.816282 0.282004 0.688700
O O10 0.000000 0.212822 0.750000
O O11 0.141979 0.393300 0.697291
O O12 0.147540 0.493976 0.550269
O O13 0.874178 0.593618 0.099089
O O14 0.646302 0.613900 0.230837
#
# Coordination Sequence:
#
# PCOD9254385 Si02
#       7
#     8   8   8   8   8   8   4
#     4  10  17  27  47  77 108 129 171 210 267 315
#     4  10  17  30  53  80 112 135 167 218 273 322
#     4  11  22  34  49  81 112 147 169 215 269 323
#     4  10  16  30  50  77 104 137 171 218 265 309
#     4   9  21  34  51  77 112 141 173 213 271 319
#     4  10  17  28  50  76 101 137 172 221 260 311
#     4   8  18  34  52  76 104 146 170 208 256 316
#
# _framework density 21.605118000000001
#
# number of rings (size 3 to 8) (size 9 to 14) (size 15 to 20)
#    0.000    2.154    3.077    3.231    2.154    2.462 
#    0.000    6.923    0.000    0.923    8.000    0.000 
#    0.000    0.000    0.000    0.000    0.000    0.000 
#
# Total GULP energy -144742.126661 kJ/mol
# GULP energy per Si atom -5567.004872 kJ/mol
# Density = 2.155594 g / cm^3
# Si number density = 21.605118 Si / 1000 Ang^3
#
#
#
# Elastic Constant Matrix: (Units=GPa)
#
#
# Indices 1 2 3 4 5 6 
#
# 1 30.7722 16.2135 9.1578 0.0000 -2.4328 0.0000
# 2 16.2135 169.4946 62.9597 0.0000 1.8146 0.0000
# 3 9.1578 62.9597 161.4409 0.0000 21.2973 0.0000
# 4 0.0000 0.0000 0.0000 -2.7778 0.0000 -0.1144
# 5 -2.4328 1.8146 21.2973 0.0000 15.2757 0.0000
# 6 0.0000 0.0000 0.0000 -0.1144 0.0000 6.1880
#
#
#
# Elastic Compliance Matrix: (Units=1/GPa)
#
#
# Indices 1 2 3 4 5 6 
#
# 1 0.035244 -0.002675 -0.002130 0.000000 0.008900 0.000000
# 2 -0.002675 0.007267 -0.003078 0.000000 0.003003 0.000000
# 3 -0.002130 -0.003078 0.009205 0.000000 -0.012807 0.000000
# 4 0.000000 0.000000 0.000000 -0.359726 0.000000 -0.006649
# 5 0.008900 0.003003 -0.012807 0.000000 0.084380 0.000000
# 6 0.000000 0.000000 0.000000 -0.006649 0.000000 0.161481
#
#
# Mechanical properties :
#
#
# Convention : Reuss Voigt Hill
#
# Bulk Modulus (GPa) = 27.81744 59.81883 43.81814
# Shear Modulus (GPa) = -145.35565 21.96229 -61.69668
#
# Velocity S-wave (km/s) = -8.21124 3.19177 -5.34963
# Velocity P-wave (km/s) = 8.77473 6.42889 4.22287
#
# Compressibility (1/GPa) = 0.03594867
#
# Stress axis : x y z
#
# Youngs Moduli (GPa) = 28.37352 137.60506 108.63531
#
# Poissons Ratio (x) = 0.36816 0.23139
# Poissons Ratio (y) = 0.07591 0.33443
# Poissons Ratio (z) = 0.06044 0.42361
#
# Static dielectric constant tensor:
#      x y z
#    x 1.847800 0.000000 0.008220 
#    y 0.000000 1.809070 0.000000 
#    z 0.008220 0.000000 1.895740 
# 
# From -- ./inp_files/145087.got.cif
#   From: 2010.05.17/outbox.cif.g08.bks.cpg/sg15_73_cif.got.tgz:145087.got - 2010.06.03 18:47:42.
