data_PCOD9254162
_publ_section_title
;
Structure prediction by ZEFSAII (Michael W. Deem and Ramdas Pophale) SiO2 
 PCOD9254162
Probable space group: C 2/C
;
_chemical_formula_sum "Si O2"
_cell_formula_units_Z 48
_cell_length_a 17.324326
_cell_length_b 21.737357
_cell_length_c 5.562460
_cell_angle_alpha 90.000000
_cell_angle_beta 104.298667
_cell_angle_gamma 90.000000
_cell_volume 2029.847398
_symmetry_space_group_name_H-M "C 2/C"
_symmetry_group_IT_number 15
_symmetry_cell_setting 'monoclinic'
loop_
_space_group_symop_operation_xyz
x,y,z
-x,y,1/2-z
-x,-y,-z
x,-y,1/2+z
1/2+x,1/2+y,z
1/2-x,1/2+y,1/2-z
1/2-x,1/2-y,-z
1/2+x,1/2-y,1/2+z
loop_
_atom_site_type_symbol
_atom_site_label
_atom_site_fract_x
_atom_site_fract_y
_atom_site_fract_z
Si Si1 0.288865 0.462422 0.828470
Si Si2 0.663627 0.703611 0.169303
Si Si3 0.247805 0.330041 0.264921
Si Si4 0.609850 0.920405 0.193916
Si Si5 0.044846 0.890280 0.537821
Si Si6 0.889508 0.430447 0.805387
O O1 0.287592 0.499324 0.576102
O O2 0.371581 0.426246 0.899038
O O3 0.206390 0.424302 0.763576
O O4 0.700271 0.678167 0.451518
O O5 0.681950 0.775818 0.203924
O O6 0.573269 0.680538 0.082721
O O7 0.703241 0.680544 0.945475
O O8 0.199591 0.393486 0.249944
O O9 0.577860 0.902103 0.426913
O O10 0.602569 0.995020 0.190243
O O11 0.577306 0.902941 0.911720
O O12 0.000000 0.907847 0.750000
O O13 0.000000 0.900931 0.250000
#
# Coordination Sequence:
#
# PCOD9254162 Si02
#       6
#     8   8   8   8   8   8
#     4  12  21  33  50  65  89 129 177 214 250 278
#     4  10  22  35  54  75  95 122 171 209 271 304
#     4  10  19  34  56  78  94 123 159 223 255 310
#     4  10  16  27  44  68  98 120 156 183 251 305
#     4  12  26  40  52  69  99 140 174 221 256 287
#     4  10  18  27  44  73  93 131 153 191 251 302
#
# _framework density 23.647099000000001
#
# number of rings (size 3 to 8) (size 9 to 14) (size 15 to 20)
#    0.000    1.333    3.333    5.000    0.000    2.000 
#    0.000    0.000    0.000    0.000    0.000    0.000 
#    0.000    0.000    0.000   18.000    0.000    0.000 
#
# Total GULP energy -133917.326476 kJ/mol
# GULP energy per Si atom -5579.888603 kJ/mol
# Density = 2.359328 g / cm^3
# Si number density = 23.647099 Si / 1000 Ang^3
#
#
#
# Elastic Constant Matrix: (Units=GPa)
#
#
# Indices 1 2 3 4 5 6 
#
# 1 106.1379 16.3031 80.3991 0.0000 -7.7934 0.0000
# 2 16.3031 38.5675 35.7307 0.0000 -4.2612 0.0000
# 3 80.3991 35.7307 282.5107 0.0000 -34.2250 0.0000
# 4 0.0000 0.0000 0.0000 38.0666 0.0000 17.9120
# 5 -7.7934 -4.2612 -34.2250 0.0000 55.5899 0.0000
# 6 0.0000 0.0000 0.0000 17.9120 0.0000 84.3291
#
#
#
# Elastic Compliance Matrix: (Units=1/GPa)
#
#
# Indices 1 2 3 4 5 6 
#
# 1 0.012183 -0.002194 -0.003245 0.000000 -0.000458 0.000000
# 2 -0.002194 0.029765 -0.003135 0.000000 0.000044 0.000000
# 3 -0.003245 -0.003135 0.005160 0.000000 0.002482 0.000000
# 4 0.000000 0.000000 0.000000 0.029187 0.000000 -0.006199
# 5 -0.000458 0.000044 0.002482 0.000000 0.019456 0.000000
# 6 0.000000 0.000000 0.000000 -0.006199 0.000000 0.013175
#
#
# Mechanical properties :
#
#
# Convention : Reuss Voigt Hill
#
# Bulk Modulus (GPa) = 33.37733 76.89800 55.13767
# Shear Modulus (GPa) = 36.74792 55.24933 45.99863
#
# Velocity S-wave (km/s) = 3.94637 4.83889 4.41524
# Velocity P-wave (km/s) = 5.90852 7.98808 7.02567
#
# Compressibility (1/GPa) = 0.02996045
#
# Stress axis : x y z
#
# Youngs Moduli (GPa) = 82.07927 33.59633 193.78424
#
# Poissons Ratio (x) = 0.07372 0.62887
# Poissons Ratio (y) = 0.18010 0.60747
# Poissons Ratio (z) = 0.26637 0.10532
#
# Static dielectric constant tensor:
#      x y z
#    x 1.908470 0.000000 -0.015420 
#    y 0.000000 1.975930 0.000000 
#    z -0.015420 0.000000 1.932220 
# 
# From -- ./inp_files/10930.got.cif
#   From: 2010.05.17/outbox.cif.g08.bks.cpg/sg15_6_cif.got.tgz:10930.got - 2010.06.03 18:47:42.
