data_PCOD9254079
_publ_section_title
;
Structure prediction by ZEFSAII (Michael W. Deem and Ramdas Pophale) SiO2 
 PCOD9254079
Probable space group: C 2/C
;
_chemical_formula_sum "Si O2"
_cell_formula_units_Z 32
_cell_length_a 7.382807
_cell_length_b 34.952532
_cell_length_c 5.355095
_cell_angle_alpha 90.000000
_cell_angle_beta 83.783127
_cell_angle_gamma 90.000000
_cell_volume 1373.743853
_symmetry_space_group_name_H-M "C 2/C"
_symmetry_group_IT_number 15
_symmetry_cell_setting 'monoclinic'
loop_
_space_group_symop_operation_xyz
x,y,z
-x,y,1/2-z
-x,-y,-z
x,-y,1/2+z
1/2+x,1/2+y,z
1/2-x,1/2+y,1/2-z
1/2-x,1/2-y,-z
1/2+x,1/2-y,1/2+z
loop_
_atom_site_type_symbol
_atom_site_label
_atom_site_fract_x
_atom_site_fract_y
_atom_site_fract_z
Si Si1 0.724615 0.639840 0.224582
Si Si2 0.211163 0.985876 0.420401
Si Si3 0.216557 0.100440 0.727510
Si Si4 0.710899 0.726138 0.255088
O O1 0.500000 0.637994 0.250000
O O2 0.784016 0.613026 0.445789
O O3 0.788427 0.683320 0.257807
O O4 0.790232 0.625176 0.946312
O O5 0.230406 0.943777 0.302927
O O6 0.289132 0.012214 0.187675
O O7 0.000000 0.000000 0.500000
O O8 0.000000 0.108103 0.750000
O O9 0.500000 0.718986 0.250000
O O10 0.750000 0.750000 0.500000
O O11 0.750000 0.750000 0.000000
#
# Coordination Sequence:
#
# PCOD9254079 Si02
#       4
#     8   8   8   8
#     4   9  19  29  44  66  90 128 172 220 262 319
#     4  10  17  22  32  51  80 119 174 214 243 293
#     4  10  16  25  38  55  87 123 169 224 245 303
#     4  11  22  39  60  84 113 145 191 242 287 349
#
# _framework density 23.294008000000002
#
# number of rings (size 3 to 8) (size 9 to 14) (size 15 to 20)
#    0.000    2.000    2.500    3.750    7.000    4.000 
#    0.000    0.000    0.000    0.000    0.000    0.000 
#    0.000    0.000    0.000    0.000    0.000  315.000 
#
# Total GULP energy -89287.931965 kJ/mol
# GULP energy per Si atom -5580.495748 kJ/mol
# Density = 2.324099 g / cm^3
# Si number density = 23.294008 Si / 1000 Ang^3
#
#
#
# Elastic Constant Matrix: (Units=GPa)
#
#
# Indices 1 2 3 4 5 6 
#
# 1 49.8241 -1.3127 10.2383 0.0000 15.8132 0.0000
# 2 -1.3127 180.5450 106.2002 0.0000 -6.4969 0.0000
# 3 10.2383 106.2002 248.5489 0.0000 -19.8203 0.0000
# 4 0.0000 0.0000 0.0000 48.5219 0.0000 -2.3720
# 5 15.8132 -6.4969 -19.8203 0.0000 23.7500 0.0000
# 6 0.0000 0.0000 0.0000 -2.3720 0.0000 0.9810
#
#
#
# Elastic Compliance Matrix: (Units=1/GPa)
#
#
# Indices 1 2 3 4 5 6 
#
# 1 0.027361 0.001453 -0.003395 0.000000 -0.020653 0.000000
# 2 0.001453 0.007485 -0.003398 0.000000 -0.001755 0.000000
# 3 -0.003395 -0.003398 0.006129 0.000000 0.006446 0.000000
# 4 0.000000 0.000000 0.000000 0.023372 0.000000 0.056511
# 5 -0.020653 -0.001755 0.006446 0.000000 0.060756 0.000000
# 6 0.000000 0.000000 0.000000 0.056511 0.000000 1.155974
#
#
# Mechanical properties :
#
#
# Convention : Reuss Voigt Hill
#
# Bulk Modulus (GPa) = 33.00854 78.79663 55.90259
# Shear Modulus (GPa) = 3.84067 38.90340 21.37204
#
# Velocity S-wave (km/s) = 1.28544 4.09112 3.03230
# Velocity P-wave (km/s) = 4.05022 7.49779 6.02582
#
# Compressibility (1/GPa) = 0.03029519
#
# Stress axis : x y z
#
# Youngs Moduli (GPa) = 36.54777 133.60146 163.15629
#
# Poissons Ratio (x) = -0.19406 0.55387
# Poissons Ratio (y) = -0.05309 0.55440
# Poissons Ratio (z) = 0.12407 0.45398
#
# Static dielectric constant tensor:
#      x y z
#    x 2.014350 0.000000 0.117190 
#    y 0.000000 1.963200 0.000000 
#    z 0.117190 0.000000 1.929860 
# 
# From -- ./inp_files/2389.got.cif
#   From: 2010.05.17/outbox.cif.g08.bks.cpg/sg15_2_cif.got.tgz:2389.got - 2010.06.03 18:47:42.
