data_PCOD9254747
_publ_section_title
;
Structure prediction by ZEFSAII (Michael W. Deem and Ramdas Pophale) SiO2 
 PCOD9254747
Probable space group: C 2/C
;
_chemical_formula_sum "Si O2"
_cell_formula_units_Z 48
_cell_length_a 37.652616
_cell_length_b 9.086163
_cell_length_c 5.679591
_cell_angle_alpha 90.000000
_cell_angle_beta 100.450150
_cell_angle_gamma 90.000000
_cell_volume 1910.859366
_symmetry_space_group_name_H-M "C 2/C"
_symmetry_group_IT_number 15
_symmetry_cell_setting 'monoclinic'
loop_
_space_group_symop_operation_xyz
x,y,z
-x,y,1/2-z
-x,-y,-z
x,-y,1/2+z
1/2+x,1/2+y,z
1/2-x,1/2+y,1/2-z
1/2-x,1/2-y,-z
1/2+x,1/2-y,1/2+z
loop_
_atom_site_type_symbol
_atom_site_label
_atom_site_fract_x
_atom_site_fract_y
_atom_site_fract_z
Si Si1 0.912981 0.070026 0.952334
Si Si2 0.272114 0.651423 0.343642
Si Si3 0.797582 0.370541 0.973125
Si Si4 0.013573 0.824864 0.016286
Si Si5 0.630959 0.056810 0.425853
Si Si6 0.839119 0.152480 0.677730
O O1 0.869977 0.083936 0.877172
O O2 0.920767 0.967442 0.733545
O O3 0.943052 0.191568 0.934645
O O4 0.250000 0.750000 0.500000
O O5 0.240300 0.565365 0.169524
O O6 0.307293 0.571798 0.494353
O O7 0.288360 0.769406 0.182285
O O8 0.828647 0.487980 0.052550
O O9 0.815707 0.258268 0.813968
O O10 0.000000 0.764640 0.750000
O O11 0.000000 0.765317 0.250000
O O12 0.000000 0.000000 0.000000
O O13 0.636722 0.232842 0.450881
O O14 0.614960 0.009631 0.149885
#
# Coordination Sequence:
#
# PCOD9254747 Si02
#       6
#     8   8   8   8   8   8
#     4  12  24  37  57  84 121 158 183 227 288 332
#     4   9  17  34  54  74 102 137 184 238 282 332
#     4   9  18  34  57  75 104 140 190 241 279 332
#     4  10  16  34  58  82 106 149 187 226 260 344
#     4  10  19  34  56  80 100 140 180 232 279 319
#     4  10  22  35  54  81 115 142 186 237 283 344
#
# _framework density 25.119589000000001
#
# number of rings (size 3 to 8) (size 9 to 14) (size 15 to 20)
#    0.000    2.000    5.000    0.000    2.333    0.000 
#    0.000    6.667    0.000    0.000    0.000    0.000 
#    0.000   16.000    0.000    0.000    0.000    0.000 
#
# Total GULP energy -133891.559256 kJ/mol
# GULP energy per Si atom -5578.814969 kJ/mol
# Density = 2.506242 g / cm^3
# Si number density = 25.119589 Si / 1000 Ang^3
#
#
#
# Elastic Constant Matrix: (Units=GPa)
#
#
# Indices 1 2 3 4 5 6 
#
# 1 122.7994 -8.8391 40.0881 0.0000 8.5315 0.0000
# 2 -8.8391 36.2035 3.9649 0.0000 -1.8139 0.0000
# 3 40.0881 3.9649 140.9908 0.0000 -20.3565 0.0000
# 4 0.0000 0.0000 0.0000 21.2411 0.0000 -3.3641
# 5 8.5315 -1.8139 -20.3565 0.0000 34.7165 0.0000
# 6 0.0000 0.0000 0.0000 -3.3641 0.0000 4.9163
#
#
#
# Elastic Compliance Matrix: (Units=1/GPa)
#
#
# Indices 1 2 3 4 5 6 
#
# 1 0.009757 0.002546 -0.003466 0.000000 -0.004297 0.000000
# 2 0.002546 0.028409 -0.001528 0.000000 -0.000038 0.000000
# 3 -0.003466 -0.001528 0.008994 0.000000 0.006046 0.000000
# 4 0.000000 0.000000 0.000000 0.052801 0.000000 0.036131
# 5 -0.004297 -0.000038 0.006046 0.000000 0.033404 0.000000
# 6 0.000000 0.000000 0.000000 0.036131 0.000000 0.228130
#
#
# Mechanical properties :
#
#
# Convention : Reuss Voigt Hill
#
# Bulk Modulus (GPa) = 23.66112 41.15795 32.40953
# Shear Modulus (GPa) = 13.14136 29.82676 21.48406
#
# Velocity S-wave (km/s) = 2.28973 3.44959 2.92767
# Velocity P-wave (km/s) = 4.05344 5.68213 4.93543
#
# Compressibility (1/GPa) = 0.04226343
#
# Stress axis : x y z
#
# Youngs Moduli (GPa) = 102.49333 35.20028 111.18422
#
# Poissons Ratio (x) = -0.08963 0.38538
# Poissons Ratio (y) = -0.26099 0.16993
# Poissons Ratio (z) = 0.35526 0.05380
#
# Static dielectric constant tensor:
#      x y z
#    x 1.993330 0.000000 0.068410 
#    y 0.000000 2.043550 0.000000 
#    z 0.068410 0.000000 2.216050 
# 
# From -- ./inp_files/18150.got.cif
#   From: 2010.05.17/outbox.cif.g08.bks.cpg/sg15_10_cif.got.tgz:18150.got - 2010.06.03 18:47:42.
