data_PCOD9254881
_publ_section_title
;
Structure prediction by ZEFSAII (Michael W. Deem and Ramdas Pophale) SiO2 
 PCOD9254881
Probable space group: C 2/C
;
_chemical_formula_sum "Si O2"
_cell_formula_units_Z 48
_cell_length_a 13.660487
_cell_length_b 11.655196
_cell_length_c 12.097251
_cell_angle_alpha 90.000000
_cell_angle_beta 118.445666
_cell_angle_gamma 90.000000
_cell_volume 1693.535563
_symmetry_space_group_name_H-M "C 2/C"
_symmetry_group_IT_number 15
_symmetry_cell_setting 'monoclinic'
loop_
_space_group_symop_operation_xyz
x,y,z
-x,y,1/2-z
-x,-y,-z
x,-y,1/2+z
1/2+x,1/2+y,z
1/2-x,1/2+y,1/2-z
1/2-x,1/2-y,-z
1/2+x,1/2-y,1/2+z
loop_
_atom_site_type_symbol
_atom_site_label
_atom_site_fract_x
_atom_site_fract_y
_atom_site_fract_z
Si Si1 0.258744 0.920855 0.548673
Si Si2 0.660629 0.333991 0.729611
Si Si3 0.350117 0.289876 0.404084
Si Si4 0.544710 0.533574 0.398954
Si Si5 0.987564 0.377813 0.612106
Si Si6 0.148426 0.415319 0.233428
O O1 0.140933 0.941449 0.427932
O O2 0.329146 0.031617 0.632420
O O3 0.222191 0.861447 0.645716
O O4 0.354207 0.871473 0.520987
O O5 0.763127 0.313957 0.866887
O O6 0.572947 0.430186 0.717519
O O7 0.597794 0.211266 0.698068
O O8 0.386634 0.352456 0.533316
O O9 0.456936 0.233743 0.408783
O O10 0.279337 0.377421 0.286274
O O11 0.500000 0.500000 0.500000
O O12 0.000000 0.363031 0.750000
O O13 0.066177 0.491589 0.633346
#
# Coordination Sequence:
#
# PCOD9254881 Si02
#       6
#     8   8   8   8   8   8
#     4  10  20  40  74 104 141 183 244 301 357 433
#     4  10  20  41  69 102 145 182 237 305 367 420
#     4   9  20  39  66 107 144 185 233 302 360 426
#     4  11  25  44  66 103 147 196 239 293 358 434
#     4  10  16  36  72 107 140 181 240 301 358 433
#     4   8  16  33  62 105 137 172 220 292 360 419
#
# _framework density 28.343070999999998
#
# number of rings (size 3 to 8) (size 9 to 14) (size 15 to 20)
#    1.000    1.333    3.333    0.500    0.000    2.667 
#    3.000    3.333    0.000    8.000    0.000    1.167 
#    0.000    0.000    0.000    0.000    0.000    0.000 
#
# Total GULP energy -133715.304833 kJ/mol
# GULP energy per Si atom -5571.471035 kJ/mol
# Density = 2.827856 g / cm^3
# Si number density = 28.343071 Si / 1000 Ang^3
#
#
#
# Elastic Constant Matrix: (Units=GPa)
#
#
# Indices 1 2 3 4 5 6 
#
# 1 189.8171 65.2848 29.0712 0.0000 36.7701 0.0000
# 2 65.2848 63.9215 22.0829 0.0000 10.6655 0.0000
# 3 29.0712 22.0829 133.9458 0.0000 41.6920 0.0000
# 4 0.0000 0.0000 0.0000 48.1972 0.0000 9.8959
# 5 36.7701 10.6655 41.6920 0.0000 45.4359 0.0000
# 6 0.0000 0.0000 0.0000 9.8959 0.0000 38.4463
#
#
#
# Elastic Compliance Matrix: (Units=1/GPa)
#
#
# Indices 1 2 3 4 5 6 
#
# 1 0.009519 -0.009108 0.001635 0.000000 -0.007066 0.000000
# 2 -0.009108 0.025426 -0.003712 0.000000 0.004808 0.000000
# 3 0.001635 -0.003712 0.011007 0.000000 -0.010552 0.000000
# 4 0.000000 0.000000 0.000000 0.021906 0.000000 -0.005638
# 5 -0.007066 0.004808 -0.010552 0.000000 0.036281 0.000000
# 6 0.000000 0.000000 0.000000 -0.005638 0.000000 0.027462
#
#
# Mechanical properties :
#
#
# Convention : Reuss Voigt Hill
#
# Bulk Modulus (GPa) = 42.40340 68.95136 55.67738
# Shear Modulus (GPa) = 30.89621 44.49892 37.69757
#
# Velocity S-wave (km/s) = 3.30522 3.96663 3.65094
# Velocity P-wave (km/s) = 5.43684 6.73492 6.12039
#
# Compressibility (1/GPa) = 0.02358302
#
# Stress axis : x y z
#
# Youngs Moduli (GPa) = 105.05133 39.32906 90.84932
#
# Poissons Ratio (x) = 0.35821 -0.14853
# Poissons Ratio (y) = 0.95681 0.33721
# Poissons Ratio (z) = -0.17175 0.14598
#
# Static dielectric constant tensor:
#      x y z
#    x 2.361190 0.000000 -0.164650 
#    y 0.000000 2.347640 0.000000 
#    z -0.164650 0.000000 2.525460 
# 
# From -- ./inp_files/248222.got.cif
#   From: 2010.05.17/outbox.cif.g08.bks.cpg/sg15_125_cif.got.tgz:248222.got - 2010.06.03 18:47:42.
