data_PCOD9254838
_publ_section_title
;
Structure prediction by ZEFSAII (Michael W. Deem and Ramdas Pophale) SiO2 
 PCOD9254838
Probable space group: C 2/C
;
_chemical_formula_sum "Si O2"
_cell_formula_units_Z 52
_cell_length_a 16.819307
_cell_length_b 13.249313
_cell_length_c 18.817038
_cell_angle_alpha 90.000000
_cell_angle_beta 140.493503
_cell_angle_gamma 90.000000
_cell_volume 2667.613943
_symmetry_space_group_name_H-M "C 2/C"
_symmetry_group_IT_number 15
_symmetry_cell_setting 'monoclinic'
loop_
_space_group_symop_operation_xyz
x,y,z
-x,y,1/2-z
-x,-y,-z
x,-y,1/2+z
1/2+x,1/2+y,z
1/2-x,1/2+y,1/2-z
1/2-x,1/2-y,-z
1/2+x,1/2-y,1/2+z
loop_
_atom_site_type_symbol
_atom_site_label
_atom_site_fract_x
_atom_site_fract_y
_atom_site_fract_z
Si Si1 0.731447 0.881865 0.617071
Si Si2 0.000000 0.918912 0.250000
Si Si3 0.915269 0.099391 0.947225
Si Si4 0.297029 0.600830 0.712091
Si Si5 0.049210 0.272820 0.214276
Si Si6 0.034022 0.684885 0.548143
Si Si7 0.352437 0.411783 0.560702
O O1 0.818135 0.784391 0.689012
O O2 0.596605 0.868729 0.558908
O O3 0.737034 0.895057 0.534982
O O4 0.792526 0.980967 0.692906
O O5 0.098110 0.858578 0.269730
O O6 0.076166 0.990706 0.357894
O O7 0.838322 0.114361 0.821844
O O8 0.834187 0.086031 0.963646
O O9 0.005322 0.196641 0.018336
O O10 0.000000 0.000000 0.000000
O O11 0.161338 0.646630 0.601931
O O12 0.049723 0.334207 0.142922
O O13 0.000000 0.328980 0.250000
O O14 0.947301 0.181945 0.137338
#
# Coordination Sequence:
#
# PCOD9254838 Si02
#       7
#     8   4   8   8   8   8   8
#     4  10  19  36  56  79 115 148 176 217 280 334
#     4  10  16  36  60  76 102 146 196 214 260 322
#     4  11  21  36  58  84 107 145 188 223 265 325
#     4  11  21  37  58  79 110 146 184 230 271 321
#     4   9  16  31  52  78 113 143 173 212 263 333
#     4  11  23  32  52  90 114 137 180 230 282 319
#     4   9  16  32  58  82 102 145 184 216 258 332
#
# _framework density 19.493075999999999
#
# number of rings (size 3 to 8) (size 9 to 14) (size 15 to 20)
#    0.000    1.846    5.385    2.308    0.000    6.769 
#    0.000    0.769    0.000    0.000    0.000    0.000 
#    0.000    0.000    0.000    0.000    0.000    0.000 
#
# Total GULP energy -144987.958711 kJ/mol
# GULP energy per Si atom -5576.459950 kJ/mol
# Density = 1.944871 g / cm^3
# Si number density = 19.493076 Si / 1000 Ang^3
#
#
#
# Elastic Constant Matrix: (Units=GPa)
#
#
# Indices 1 2 3 4 5 6 
#
# 1 114.8336 11.8556 45.1455 0.0000 8.4600 0.0000
# 2 11.8556 28.5301 7.2929 0.0000 2.9008 0.0000
# 3 45.1455 7.2929 62.8505 0.0000 5.4774 0.0000
# 4 0.0000 0.0000 0.0000 18.9762 0.0000 1.4509
# 5 8.4600 2.9008 5.4774 0.0000 41.1872 0.0000
# 6 0.0000 0.0000 0.0000 1.4509 0.0000 20.7295
#
#
#
# Elastic Compliance Matrix: (Units=1/GPa)
#
#
# Indices 1 2 3 4 5 6 
#
# 1 0.012433 -0.002872 -0.008491 0.000000 -0.001222 0.000000
# 2 -0.002872 0.036951 -0.002073 0.000000 -0.001737 0.000000
# 3 -0.008491 -0.002073 0.022345 0.000000 -0.001082 0.000000
# 4 0.000000 0.000000 0.000000 0.052981 0.000000 -0.003708
# 5 -0.001222 -0.001737 -0.001082 0.000000 0.024797 0.000000
# 6 0.000000 0.000000 0.000000 -0.003708 0.000000 0.048500
#
#
# Mechanical properties :
#
#
# Convention : Reuss Voigt Hill
#
# Bulk Modulus (GPa) = 22.29349 37.20025 29.74687
# Shear Modulus (GPa) = 20.84813 25.63992 23.24403
#
# Velocity S-wave (km/s) = 3.27389 3.63069 3.45690
# Velocity P-wave (km/s) = 5.07470 6.05815 5.58810
#
# Compressibility (1/GPa) = 0.04485614
#
# Stress axis : x y z
#
# Youngs Moduli (GPa) = 80.43223 27.06309 44.75368
#
# Poissons Ratio (x) = 0.07772 0.37999
# Poissons Ratio (y) = 0.23098 0.09280
# Poissons Ratio (z) = 0.68293 0.05611
#
# Static dielectric constant tensor:
#      x y z
#    x 1.749150 0.000000 -0.005400 
#    y 0.000000 1.671140 0.000000 
#    z -0.005400 0.000000 1.735840 
# 
# From -- ./inp_files/205789.got.cif
#   From: 2010.05.17/outbox.cif.g08.bks.cpg/sg15_103_cif.got.tgz:205789.got - 2010.06.03 18:47:42.
