data_PCOD9254855
_publ_section_title
;
Structure prediction by ZEFSAII (Michael W. Deem and Ramdas Pophale) SiO2 
 PCOD9254855
Probable space group: C 2/C
;
_chemical_formula_sum "Si O2"
_cell_formula_units_Z 44
_cell_length_a 7.639099
_cell_length_b 22.738492
_cell_length_c 14.207987
_cell_angle_alpha 90.000000
_cell_angle_beta 123.935873
_cell_angle_gamma 90.000000
_cell_volume 2047.566558
_symmetry_space_group_name_H-M "C 2/C"
_symmetry_group_IT_number 15
_symmetry_cell_setting 'monoclinic'
loop_
_space_group_symop_operation_xyz
x,y,z
-x,y,1/2-z
-x,-y,-z
x,-y,1/2+z
1/2+x,1/2+y,z
1/2-x,1/2+y,1/2-z
1/2-x,1/2-y,-z
1/2+x,1/2-y,1/2+z
loop_
_atom_site_type_symbol
_atom_site_label
_atom_site_fract_x
_atom_site_fract_y
_atom_site_fract_z
Si Si1 0.000000 0.092618 0.750000
Si Si2 0.313687 0.564288 0.998231
Si Si3 0.247228 0.601750 0.173814
Si Si4 0.725040 0.497089 0.195136
Si Si5 0.986609 0.716236 0.353558
Si Si6 0.061847 0.163721 0.957609
O O1 0.072468 0.130953 0.860464
O O2 0.181949 0.050786 0.762626
O O3 0.192235 0.533412 0.875278
O O4 0.441146 0.619860 0.992097
O O5 0.179540 0.585079 0.047541
O O6 0.489664 0.519116 0.091438
O O7 0.500000 0.597649 0.250000
O O8 0.171177 0.553988 0.226744
O O9 0.186785 0.666838 0.184082
O O10 0.952159 0.773160 0.407832
O O11 0.204995 0.682233 0.440718
O O12 0.000000 0.736391 0.250000
#
# Coordination Sequence:
#
# PCOD9254855 Si02
#       6
#     4   8   8   8   8   8
#     4  10  16  36  62  84 114 152 202 238 284 366
#     4   9  17  32  57  86 110 151 200 239 299 348
#     4  10  19  35  59  86 116 155 197 245 302 351
#     4   9  16  30  58  83 115 149 196 235 294 360
#     4  11  22  39  57  85 121 158 207 245 291 352
#     4  10  22  36  61  85 115 160 203 245 293 350
#
# _framework density 21.488921999999999
#
# number of rings (size 3 to 8) (size 9 to 14) (size 15 to 20)
#    0.000    2.182    3.636    2.182    0.000    0.727 
#    0.000    0.909    4.000    2.182    0.000    0.000 
#    0.000    0.000    0.000    0.000    0.000    0.000 
#
# Total GULP energy -122842.781865 kJ/mol
# GULP energy per Si atom -5583.762812 kJ/mol
# Density = 2.144001 g / cm^3
# Si number density = 21.488922 Si / 1000 Ang^3
#
#
#
# Elastic Constant Matrix: (Units=GPa)
#
#
# Indices 1 2 3 4 5 6 
#
# 1 50.4665 30.6253 21.0356 0.0000 -15.6613 0.0000
# 2 30.6253 117.8362 28.2146 0.0000 -3.5755 0.0000
# 3 21.0356 28.2146 78.2720 0.0000 -23.7605 0.0000
# 4 0.0000 0.0000 0.0000 38.3901 0.0000 -45.7128
# 5 -15.6613 -3.5755 -23.7605 0.0000 25.9939 0.0000
# 6 0.0000 0.0000 0.0000 -45.7128 0.0000 137.3168
#
#
#
# Elastic Compliance Matrix: (Units=1/GPa)
#
#
# Indices 1 2 3 4 5 6 
#
# 1 0.029313 -0.007031 -0.000382 0.000000 0.016345 0.000000
# 2 -0.007031 0.011090 -0.004057 0.000000 -0.006419 0.000000
# 3 -0.000382 -0.004057 0.019517 0.000000 0.017052 0.000000
# 4 0.000000 0.000000 0.000000 0.043155 0.000000 0.014366
# 5 0.016345 -0.006419 0.017052 0.000000 0.063023 0.000000
# 6 0.000000 0.000000 0.000000 0.014366 0.000000 0.012065
#
#
# Mechanical properties :
#
#
# Convention : Reuss Voigt Hill
#
# Bulk Modulus (GPa) = 27.04000 45.14732 36.09366
# Shear Modulus (GPa) = 23.42687 51.45344 37.44015
#
# Velocity S-wave (km/s) = 3.30537 4.89859 4.17862
# Velocity P-wave (km/s) = 5.21324 7.28355 6.33356
#
# Compressibility (1/GPa) = 0.03698225
#
# Stress axis : x y z
#
# Youngs Moduli (GPa) = 34.11400 90.16914 51.23660
#
# Poissons Ratio (x) = 0.63399 0.01956
# Poissons Ratio (y) = 0.23986 0.20785
# Poissons Ratio (z) = 0.01302 0.36578
#
# Static dielectric constant tensor:
#      x y z
#    x 1.813240 0.000000 0.018090 
#    y 0.000000 1.772620 0.000000 
#    z 0.018090 0.000000 1.855030 
# 
# From -- ./inp_files/78719.got.cif
#   From: 2010.05.17/outbox.cif.g08.bks.cpg/sg15_40_cif.got.tgz:78719.got - 2010.06.03 18:47:42.
