data_PCOD9254626
_publ_section_title
;
Structure prediction by ZEFSAII (Michael W. Deem and Ramdas Pophale) SiO2 
 PCOD9254626
Probable space group: C 2/C
;
_chemical_formula_sum "Si O2"
_cell_formula_units_Z 52
_cell_length_a 28.158360
_cell_length_b 6.386575
_cell_length_c 13.510331
_cell_angle_alpha 90.000000
_cell_angle_beta 73.087939
_cell_angle_gamma 90.000000
_cell_volume 2324.560796
_symmetry_space_group_name_H-M "C 2/C"
_symmetry_group_IT_number 15
_symmetry_cell_setting 'monoclinic'
loop_
_space_group_symop_operation_xyz
x,y,z
-x,y,1/2-z
-x,-y,-z
x,-y,1/2+z
1/2+x,1/2+y,z
1/2-x,1/2+y,1/2-z
1/2-x,1/2-y,-z
1/2+x,1/2-y,1/2+z
loop_
_atom_site_type_symbol
_atom_site_label
_atom_site_fract_x
_atom_site_fract_y
_atom_site_fract_z
Si Si1 0.823410 0.463266 0.699780
Si Si2 0.958893 0.362156 0.472273
Si Si3 0.500000 0.004929 0.750000
Si Si4 0.577236 0.302549 0.316711
Si Si5 0.353785 0.354023 0.800556
Si Si6 0.708818 0.265575 0.108442
Si Si7 0.645063 0.973780 0.025396
O O1 0.871041 0.318290 0.694917
O O2 0.839325 0.694784 0.722227
O O3 0.781852 0.378181 0.800484
O O4 0.815871 0.445390 0.587513
O O5 0.978297 0.345561 0.348855
O O6 0.946780 0.178416 0.558281
O O7 0.908336 0.495137 0.491772
O O8 0.000000 0.500000 0.500000
O O9 0.458215 0.847995 0.728044
O O10 0.596347 0.517304 0.256376
O O11 0.307742 0.508815 0.845748
O O12 0.358745 0.221335 0.898159
O O13 0.750000 0.250000 0.000000
O O14 0.660899 0.167750 0.081832
#
# Coordination Sequence:
#
# PCOD9254626 Si02
#       7
#     8   8   4   8   8   8   8
#     4   9  20  39  59  85 114 155 199 243 303 357
#     4   9  18  33  59  86 119 160 203 246 300 359
#     4  10  16  32  56  86 122 160 198 260 298 350
#     4   9  19  35  56  84 118 158 203 243 303 359
#     4  10  20  38  63  82 120 156 199 253 294 367
#     4  10  22  40  58  90 121 153 197 247 305 367
#     4  10  21  39  61  87 118 164 201 246 309 355
#
# _framework density 22.369817000000001
#
# number of rings (size 3 to 8) (size 9 to 14) (size 15 to 20)
#    0.000    2.462    0.000    2.769    0.000    6.154 
#    5.538    6.154    0.000   24.000    0.000    0.000 
#    0.000    0.000    0.000    0.000    0.000    0.000 
#
# Total GULP energy -145029.079160 kJ/mol
# GULP energy per Si atom -5578.041506 kJ/mol
# Density = 2.231890 g / cm^3
# Si number density = 22.369817 Si / 1000 Ang^3
#
#
#
# Elastic Constant Matrix: (Units=GPa)
#
#
# Indices 1 2 3 4 5 6 
#
# 1 46.0756 13.3589 18.8850 0.0000 0.3388 0.0000
# 2 13.3589 84.0030 47.8155 0.0000 -3.3093 0.0000
# 3 18.8850 47.8155 222.3982 0.0000 -12.0538 0.0000
# 4 0.0000 0.0000 0.0000 12.7765 0.0000 -5.7324
# 5 0.3388 -3.3093 -12.0538 0.0000 33.7452 0.0000
# 6 0.0000 0.0000 0.0000 -5.7324 0.0000 0.9701
#
#
#
# Elastic Compliance Matrix: (Units=1/GPa)
#
#
# Indices 1 2 3 4 5 6 
#
# 1 0.023129 -0.002927 -0.001390 0.000000 -0.001016 0.000000
# 2 -0.002927 0.013938 -0.002725 0.000000 0.000423 0.000000
# 3 -0.001390 -0.002725 0.005289 0.000000 0.001636 0.000000
# 4 0.000000 0.000000 0.000000 -0.047398 0.000000 -0.280088
# 5 -0.001016 0.000423 0.001636 0.000000 0.030270 0.000000
# 6 0.000000 0.000000 0.000000 -0.280088 0.000000 -0.624264
#
#
# Mechanical properties :
#
#
# Convention : Reuss Voigt Hill
#
# Bulk Modulus (GPa) = 35.37086 56.95508 46.16297
# Shear Modulus (GPa) = -8.68768 27.65952 9.48592
#
# Velocity S-wave (km/s) = -1.97284 3.52016 2.06148
# Velocity P-wave (km/s) = 3.26447 6.48367 5.13297
#
# Compressibility (1/GPa) = 0.02827186
#
# Stress axis : x y z
#
# Youngs Moduli (GPa) = 43.23533 71.74804 189.07114
#
# Poissons Ratio (x) = 0.21002 0.26276
# Poissons Ratio (y) = 0.12656 0.51524
# Poissons Ratio (z) = 0.06009 0.19552
#
# Static dielectric constant tensor:
#      x y z
#    x 1.860640 0.000000 -0.017520 
#    y 0.000000 1.917320 0.000000 
#    z -0.017520 0.000000 1.972380 
# 
# From -- ./inp_files/180030.got.cif
#   From: 2010.05.17/outbox.cif.g08.bks.cpg/sg15_91_cif.got.tgz:180030.got - 2010.06.03 18:47:42.
