data_PCOD9254569
_publ_section_title
;
Structure prediction by ZEFSAII (Michael W. Deem and Ramdas Pophale) SiO2 
 PCOD9254569
Probable space group: C 2/C
;
_chemical_formula_sum "Si O2"
_cell_formula_units_Z 28
_cell_length_a 8.893725
_cell_length_b 15.439696
_cell_length_c 7.996582
_cell_angle_alpha 90.000000
_cell_angle_beta 85.993173
_cell_angle_gamma 90.000000
_cell_volume 1095.377977
_symmetry_space_group_name_H-M "C 2/C"
_symmetry_group_IT_number 15
_symmetry_cell_setting 'monoclinic'
loop_
_space_group_symop_operation_xyz
x,y,z
-x,y,1/2-z
-x,-y,-z
x,-y,1/2+z
1/2+x,1/2+y,z
1/2-x,1/2+y,1/2-z
1/2-x,1/2-y,-z
1/2+x,1/2-y,1/2+z
loop_
_atom_site_type_symbol
_atom_site_label
_atom_site_fract_x
_atom_site_fract_y
_atom_site_fract_z
Si Si1 0.242089 0.062846 0.234174
Si Si2 0.973422 0.634579 0.431414
Si Si3 0.412522 0.706833 0.444642
Si Si4 0.000000 0.087159 0.750000
O O1 0.321360 0.083816 0.404901
O O2 0.382978 0.070542 0.092548
O O3 0.138517 0.144786 0.201007
O O4 0.144218 0.977146 0.233323
O O5 0.980259 0.708120 0.568944
O O6 0.000000 0.683816 0.250000
O O7 0.250000 0.750000 0.500000
O O8 0.474883 0.644039 0.585756
#
# Coordination Sequence:
#
# PCOD9254569 Si02
#       4
#     8   8   8   4
#     4   8  18  29  47  74  93 116 156 195 229 259
#     4   7  15  34  49  63  95 126 161 166 222 297
#     4  10  16  32  52  66  88 134 159 175 221 296
#     4  12  18  28  50  76  94 108 156 214 224 250
#
# _framework density 25.561955000000001
#
# number of rings (size 3 to 8) (size 9 to 14) (size 15 to 20)
#    1.714    1.143    1.429    0.857    0.000    0.000 
#    0.000   14.286    0.000   30.857    0.000    0.000 
#    0.000    0.000    0.000    0.000    0.000    0.000 
#
# Total GULP energy -78005.373392 kJ/mol
# GULP energy per Si atom -5571.812385 kJ/mol
# Density = 2.550377 g / cm^3
# Si number density = 25.561955 Si / 1000 Ang^3
#
#
#
# Elastic Constant Matrix: (Units=GPa)
#
#
# Indices 1 2 3 4 5 6 
#
# 1 153.4660 82.3307 53.7381 0.0000 43.4332 0.0000
# 2 82.3307 171.1320 88.0865 0.0000 34.5782 0.0000
# 3 53.7381 88.0865 100.3637 0.0000 31.1723 0.0000
# 4 0.0000 0.0000 0.0000 42.8953 0.0000 15.4834
# 5 43.4332 34.5782 31.1723 0.0000 41.6172 0.0000
# 6 0.0000 0.0000 0.0000 15.4834 0.0000 46.2736
#
#
#
# Elastic Compliance Matrix: (Units=1/GPa)
#
#
# Indices 1 2 3 4 5 6 
#
# 1 0.010741 -0.003393 -0.000218 0.000000 -0.008228 0.000000
# 2 -0.003393 0.011919 -0.008690 0.000000 0.000147 0.000000
# 3 -0.000218 -0.008690 0.020061 0.000000 -0.007579 0.000000
# 4 0.000000 0.000000 0.000000 0.026515 0.000000 -0.008872
# 5 -0.008228 0.000147 -0.007579 0.000000 0.038170 0.000000
# 6 0.000000 0.000000 0.000000 -0.008872 0.000000 0.024579
#
#
# Mechanical properties :
#
#
# Convention : Reuss Voigt Hill
#
# Bulk Modulus (GPa) = 55.18763 97.03027 76.10895
# Shear Modulus (GPa) = 30.74519 39.54433 35.14476
#
# Velocity S-wave (km/s) = 3.47186 3.93746 3.71197
# Velocity P-wave (km/s) = 6.14072 7.66242 6.94338
#
# Compressibility (1/GPa) = 0.01812000
#
# Stress axis : x y z
#
# Youngs Moduli (GPa) = 93.09997 83.89920 49.84724
#
# Poissons Ratio (x) = 0.28467 0.01086
# Poissons Ratio (y) = 0.31588 0.43317
# Poissons Ratio (z) = 0.02028 0.72908
#
# Static dielectric constant tensor:
#      x y z
#    x 2.277050 0.000000 -0.296800 
#    y 0.000000 1.970570 0.000000 
#    z -0.296800 0.000000 2.381350 
# 
# From -- ./inp_files/83530.got.cif
#   From: 2010.05.17/outbox.cif.g08.bks.cpg/sg15_42_cif.got.tgz:83530.got - 2010.06.03 18:47:42.
