data_PCOD9254536
_publ_section_title
;
Structure prediction by ZEFSAII (Michael W. Deem and Ramdas Pophale) SiO2 
 PCOD9254536
Probable space group: C 2/C
;
_chemical_formula_sum "Si O2"
_cell_formula_units_Z 56
_cell_length_a 13.981975
_cell_length_b 12.985791
_cell_length_c 17.473107
_cell_angle_alpha 90.000000
_cell_angle_beta 50.191178
_cell_angle_gamma 90.000000
_cell_volume 2437.097273
_symmetry_space_group_name_H-M "C 2/C"
_symmetry_group_IT_number 15
_symmetry_cell_setting 'monoclinic'
loop_
_space_group_symop_operation_xyz
x,y,z
-x,y,1/2-z
-x,-y,-z
x,-y,1/2+z
1/2+x,1/2+y,z
1/2-x,1/2+y,1/2-z
1/2-x,1/2-y,-z
1/2+x,1/2-y,1/2+z
loop_
_atom_site_type_symbol
_atom_site_label
_atom_site_fract_x
_atom_site_fract_y
_atom_site_fract_z
Si Si1 0.778238 0.161959 0.805130
Si Si2 0.118998 0.689085 0.575138
Si Si3 0.797027 0.508643 0.524779
Si Si4 0.031344 0.099880 0.143654
Si Si5 0.751628 0.378115 0.901140
Si Si6 0.212943 0.594907 0.678215
Si Si7 0.467848 0.595665 0.597031
O O1 0.734142 0.070821 0.883412
O O2 0.772217 0.268784 0.852273
O O3 0.697236 0.143731 0.769539
O O4 0.918810 0.151651 0.698907
O O5 0.250000 0.750000 0.500000
O O6 0.109877 0.589474 0.524509
O O7 0.023817 0.782932 0.620693
O O8 0.130387 0.642175 0.654355
O O9 0.668507 0.450665 0.568400
O O10 0.821397 0.591570 0.444951
O O11 0.000000 0.095979 0.250000
O O12 0.953223 0.023106 0.130944
O O13 0.793328 0.471744 0.824516
O O14 0.605151 0.381147 0.999263
O O15 0.361254 0.618458 0.589227
#
# Coordination Sequence:
#
# PCOD9254536 Si02
#       7
#     8   8   8   8   8   8   8
#     4  10  20  33  58  81 115 158 194 244 301 356
#     4   9  19  32  54  80 114 151 178 242 311 345
#     4   9  18  34  50  81 112 143 195 239 292 352
#     4  10  16  31  57  85 109 141 198 253 286 343
#     4  10  19  33  57  80 112 152 196 246 297 346
#     4   9  20  36  52  84 118 145 199 244 298 364
#     4   9  20  34  57  86 115 145 204 245 288 356
#
# _framework density 22.978155000000001
#
# number of rings (size 3 to 8) (size 9 to 14) (size 15 to 20)
#    0.857    1.714    1.429    1.714    0.000    3.429 
#    0.000    0.000    6.286    0.857    0.000    0.000 
#    0.000    0.000    0.000    0.000    0.000    0.000 
#
# Total GULP energy -156069.369574 kJ/mol
# GULP energy per Si atom -5573.906056 kJ/mol
# Density = 2.292586 g / cm^3
# Si number density = 22.978155 Si / 1000 Ang^3
#
#
#
# Elastic Constant Matrix: (Units=GPa)
#
#
# Indices 1 2 3 4 5 6 
#
# 1 8.7287 21.1945 19.8883 0.0000 2.1266 0.0000
# 2 21.1945 177.8714 86.7018 0.0000 10.3138 0.0000
# 3 19.8883 86.7018 104.0558 0.0000 14.6144 0.0000
# 4 0.0000 0.0000 0.0000 30.6624 0.0000 -4.8082
# 5 2.1266 10.3138 14.6144 0.0000 25.5531 0.0000
# 6 0.0000 0.0000 0.0000 -4.8082 0.0000 15.8881
#
#
#
# Elastic Compliance Matrix: (Units=1/GPa)
#
#
# Indices 1 2 3 4 5 6 
#
# 1 0.212290 -0.009198 -0.033654 0.000000 0.005293 0.000000
# 2 -0.009198 0.009879 -0.006547 0.000000 0.000522 0.000000
# 3 -0.033654 -0.006547 0.022544 0.000000 -0.007450 0.000000
# 4 0.000000 0.000000 0.000000 0.034238 0.000000 0.010361
# 5 0.005293 0.000522 -0.007450 0.000000 0.042744 0.000000
# 6 0.000000 0.000000 0.000000 0.010361 0.000000 0.066076
#
#
# Mechanical properties :
#
#
# Convention : Reuss Voigt Hill
#
# Bulk Modulus (GPa) = 6.85334 60.69169 33.77251
# Shear Modulus (GPa) = 9.34219 25.27881 17.31050
#
# Velocity S-wave (km/s) = 2.01854 3.32041 2.74769
# Velocity P-wave (km/s) = 2.90202 6.41641 4.97956
#
# Compressibility (1/GPa) = 0.14591433
#
# Stress axis : x y z
#
# Youngs Moduli (GPa) = 4.71054 101.22633 44.35814
#
# Poissons Ratio (x) = 0.93108 1.49285
# Poissons Ratio (y) = 0.04333 0.29040
# Poissons Ratio (z) = 0.15853 0.66269
#
# Static dielectric constant tensor:
#      x y z
#    x 1.932040 0.000000 -0.043140 
#    y 0.000000 1.866350 0.000000 
#    z -0.043140 0.000000 1.943530 
# 
# From -- ./inp_files/248320.got.cif
#   From: 2010.05.17/outbox.cif.g08.bks.cpg/sg15_125_cif.got.tgz:248320.got - 2010.06.03 18:47:42.
