data_PCOD9254634
_publ_section_title
;
Structure prediction by ZEFSAII (Michael W. Deem and Ramdas Pophale) SiO2 
 PCOD9254634
Probable space group: C 2/C
;
_chemical_formula_sum "Si O2"
_cell_formula_units_Z 60
_cell_length_a 9.955179
_cell_length_b 20.842735
_cell_length_c 14.135023
_cell_angle_alpha 90.000000
_cell_angle_beta 54.687603
_cell_angle_gamma 90.000000
_cell_volume 2393.299956
_symmetry_space_group_name_H-M "C 2/C"
_symmetry_group_IT_number 15
_symmetry_cell_setting 'monoclinic'
loop_
_space_group_symop_operation_xyz
x,y,z
-x,y,1/2-z
-x,-y,-z
x,-y,1/2+z
1/2+x,1/2+y,z
1/2-x,1/2+y,1/2-z
1/2-x,1/2-y,-z
1/2+x,1/2-y,1/2+z
loop_
_atom_site_type_symbol
_atom_site_label
_atom_site_fract_x
_atom_site_fract_y
_atom_site_fract_z
Si Si1 0.518636 0.499909 0.879017
Si Si2 0.620722 0.950719 0.290930
Si Si3 0.347403 0.374239 0.448274
Si Si4 0.810099 0.324185 0.321439
Si Si5 0.500000 0.731500 0.750000
Si Si6 0.511165 0.081772 0.361192
Si Si7 0.455798 0.635338 0.433955
Si Si8 0.750900 0.305283 0.730981
O O1 0.710919 0.510391 0.788570
O O2 0.415240 0.558361 0.880197
O O3 0.500000 0.500000 0.000000
O O4 0.455611 0.430599 0.876611
O O5 0.500000 0.941966 0.250000
O O6 0.693926 0.876788 0.264189
O O7 0.519893 0.006521 0.387740
O O8 0.420655 0.315028 0.360892
O O9 0.427034 0.370307 0.520527
O O10 0.152323 0.383315 0.533879
O O11 0.723391 0.353855 0.448955
O O12 0.723897 0.255215 0.347392
O O13 0.000000 0.310218 0.250000
O O14 0.353226 0.778044 0.778118
O O15 0.500000 0.080516 0.250000
O O16 0.663690 0.127285 0.328607
O O17 0.558831 0.685933 0.331962
#
# Coordination Sequence:
#
# PCOD9254634 Si02
#       8
#     8   8   8   8   4   8   8   8
#     4  10  16  32  57  90 116 149 202 261 310 350
#     4  10  17  32  57  89 116 146 203 261 305 351
#     4  11  22  36  60  99 128 162 204 256 332 375
#     4  11  25  39  61  88 125 166 212 257 305 373
#     4  12  24  38  60  94 138 170 190 254 336 392
#     4  11  20  34  62  99 123 148 206 272 318 366
#     4  11  20  37  63  89 118 163 214 263 301 369
#     4  12  23  39  60  92 130 164 204 255 322 379
#
# _framework density 25.069986
#
# number of rings (size 3 to 8) (size 9 to 14) (size 15 to 20)
#    0.000    1.067    7.333    2.400    3.733    1.600 
#    0.000    0.000    1.467    3.200    0.000    0.000 
#    0.000    0.000    0.000    0.000    0.000    0.000 
#
# Total GULP energy -167345.003536 kJ/mol
# GULP energy per Si atom -5578.166785 kJ/mol
# Density = 2.501293 g / cm^3
# Si number density = 25.069986 Si / 1000 Ang^3
#
#
#
# Elastic Constant Matrix: (Units=GPa)
#
#
# Indices 1 2 3 4 5 6 
#
# 1 38.8135 17.1785 36.1595 0.0000 -14.1541 0.0000
# 2 17.1785 138.5164 14.2519 0.0000 6.7773 0.0000
# 3 36.1595 14.2519 96.5193 0.0000 -21.1282 0.0000
# 4 0.0000 0.0000 0.0000 24.2864 0.0000 -21.0102
# 5 -14.1541 6.7773 -21.1282 0.0000 40.1583 0.0000
# 6 0.0000 0.0000 0.0000 -21.0102 0.0000 11.4911
#
#
#
# Elastic Compliance Matrix: (Units=1/GPa)
#
#
# Indices 1 2 3 4 5 6 
#
# 1 0.043874 -0.004457 -0.013821 0.000000 0.008945 0.000000
# 2 -0.004457 0.007935 -0.000157 0.000000 -0.002993 0.000000
# 3 -0.013821 -0.000157 0.016388 0.000000 0.003778 0.000000
# 4 0.000000 0.000000 0.000000 -0.070779 0.000000 -0.129412
# 5 0.008945 -0.002993 0.003778 0.000000 0.030547 0.000000
# 6 0.000000 0.000000 0.000000 -0.129412 0.000000 -0.149592
#
#
# Mechanical properties :
#
#
# Convention : Reuss Voigt Hill
#
# Bulk Modulus (GPa) = 31.92007 45.44767 38.68387
# Shear Modulus (GPa) = -67.28080 28.93780 -19.17150
#
# Velocity S-wave (km/s) = -5.18608 3.40116 -2.76836
# Velocity P-wave (km/s) = 4.80631 5.79582 2.29030
#
# Compressibility (1/GPa) = 0.03132826
#
# Stress axis : x y z
#
# Youngs Moduli (GPa) = 22.79237 126.02932 61.01859
#
# Poissons Ratio (x) = 0.56169 0.84332
# Poissons Ratio (y) = 0.10158 0.00958
# Poissons Ratio (z) = 0.31501 0.01979
#
# Static dielectric constant tensor:
#      x y z
#    x 2.029330 0.000000 0.017170 
#    y 0.000000 2.052790 0.000000 
#    z 0.017170 0.000000 1.948390 
# 
# From -- ./inp_files/200510.got.cif
#   From: 2010.05.17/outbox.cif.g08.bks.cpg/sg15_101_cif.got.tgz:200510.got - 2010.06.03 18:47:42.
