data_PCOD9254857
_publ_section_title
;
Structure prediction by ZEFSAII (Michael W. Deem and Ramdas Pophale) SiO2 
 PCOD9254857
Probable space group: C 2/C
;
_chemical_formula_sum "Si O2"
_cell_formula_units_Z 36
_cell_length_a 18.206309
_cell_length_b 6.635656
_cell_length_c 13.703527
_cell_angle_alpha 90.000000
_cell_angle_beta 120.256438
_cell_angle_gamma 90.000000
_cell_volume 1430.015420
_symmetry_space_group_name_H-M "C 2/C"
_symmetry_group_IT_number 15
_symmetry_cell_setting 'monoclinic'
loop_
_space_group_symop_operation_xyz
x,y,z
-x,y,1/2-z
-x,-y,-z
x,-y,1/2+z
1/2+x,1/2+y,z
1/2-x,1/2+y,1/2-z
1/2-x,1/2-y,-z
1/2+x,1/2-y,1/2+z
loop_
_atom_site_type_symbol
_atom_site_label
_atom_site_fract_x
_atom_site_fract_y
_atom_site_fract_z
Si Si1 0.000000 0.074216 0.250000
Si Si2 0.597411 0.247436 0.217752
Si Si3 0.212178 0.463274 0.942566
Si Si4 0.436323 0.879895 0.527300
Si Si5 0.388018 0.589454 0.990938
O O1 0.084230 0.952237 0.269957
O O2 0.039910 0.155532 0.379998
O O3 0.660757 0.088717 0.308727
O O4 0.502663 0.161138 0.156578
O O5 0.615028 0.307515 0.117554
O O6 0.144074 0.498683 0.983525
O O7 0.250000 0.250000 0.000000
O O8 0.294072 0.595064 0.974436
O O9 0.408537 0.650718 0.480972
O O10 0.500000 0.000000 0.500000
#
# Coordination Sequence:
#
# PCOD9254857 Si02
#       5
#     4   8   8   8   8
#     4  10  16  36  62  88 120 152 212 246 304 364
#     4  11  19  38  66  87 120 169 209 250 311 383
#     4  10  19  37  60  88 121 160 204 258 308 367
#     4  10  20  37  63  88 124 161 203 256 318 376
#     4  10  22  36  67  92 121 166 213 252 311 381
#
# _framework density 25.174553
#
# number of rings (size 3 to 8) (size 9 to 14) (size 15 to 20)
#    0.000    1.778    6.667    2.667    0.000    3.556 
#    0.000    1.111   24.444    0.000    0.000    0.000 
#    0.000    0.000    0.000    0.000    0.000    0.000 
#
# Total GULP energy -100288.312973 kJ/mol
# GULP energy per Si atom -5571.572943 kJ/mol
# Density = 2.511725 g / cm^3
# Si number density = 25.174553 Si / 1000 Ang^3
#
#
#
# Elastic Constant Matrix: (Units=GPa)
#
#
# Indices 1 2 3 4 5 6 
#
# 1 199.1363 45.5007 41.5932 0.0000 -19.1868 0.0000
# 2 45.5007 69.9548 11.6661 0.0000 -7.9358 0.0000
# 3 41.5932 11.6661 91.2399 0.0000 -22.7290 0.0000
# 4 0.0000 0.0000 0.0000 20.7007 0.0000 -4.2105
# 5 -19.1868 -7.9358 -22.7290 0.0000 60.8988 0.0000
# 6 0.0000 0.0000 0.0000 -4.2105 0.0000 53.4350
#
#
#
# Elastic Compliance Matrix: (Units=1/GPa)
#
#
# Indices 1 2 3 4 5 6 
#
# 1 0.006412 -0.003713 -0.002277 0.000000 0.000686 0.000000
# 2 -0.003713 0.016855 -0.000228 0.000000 0.000942 0.000000
# 3 -0.002277 -0.000228 0.013055 0.000000 0.004125 0.000000
# 4 0.000000 0.000000 0.000000 0.049094 0.000000 0.003869
# 5 0.000686 0.000942 0.004125 0.000000 0.018299 0.000000
# 6 0.000000 0.000000 0.000000 0.003869 0.000000 0.019019
#
#
# Mechanical properties :
#
#
# Convention : Reuss Voigt Hill
#
# Bulk Modulus (GPa) = 41.86639 61.98345 51.92492
# Shear Modulus (GPa) = 34.93274 44.44496 39.68885
#
# Velocity S-wave (km/s) = 3.72912 4.20631 3.97488
# Velocity P-wave (km/s) = 5.93366 6.94735 6.46042
#
# Compressibility (1/GPa) = 0.02388551
#
# Stress axis : x y z
#
# Youngs Moduli (GPa) = 155.96263 59.33065 76.59886
#
# Poissons Ratio (x) = 0.22028 0.17443
# Poissons Ratio (y) = 0.57906 0.01746
# Poissons Ratio (z) = 0.35516 0.01353
#
# Static dielectric constant tensor:
#      x y z
#    x 2.195080 0.000000 -0.210420 
#    y 0.000000 2.833630 0.000000 
#    z -0.210420 0.000000 2.231060 
# 
# From -- ./inp_files/109301.got.cif
#   From: 2010.05.17/outbox.cif.g08.bks.cpg/sg15_55_cif.got.tgz:109301.got - 2010.06.03 18:47:42.
