data_PCOD9254874
_publ_section_title
;
Structure prediction by ZEFSAII (Michael W. Deem and Ramdas Pophale) SiO2 
 PCOD9254874
Probable space group: C 2/C
;
_chemical_formula_sum "Si O2"
_cell_formula_units_Z 44
_cell_length_a 29.652359
_cell_length_b 8.684000
_cell_length_c 16.009454
_cell_angle_alpha 90.000000
_cell_angle_beta 150.094108
_cell_angle_gamma 90.000000
_cell_volume 2055.359166
_symmetry_space_group_name_H-M "C 2/C"
_symmetry_group_IT_number 15
_symmetry_cell_setting 'monoclinic'
loop_
_space_group_symop_operation_xyz
x,y,z
-x,y,1/2-z
-x,-y,-z
x,-y,1/2+z
1/2+x,1/2+y,z
1/2-x,1/2+y,1/2-z
1/2-x,1/2-y,-z
1/2+x,1/2-y,1/2+z
loop_
_atom_site_type_symbol
_atom_site_label
_atom_site_fract_x
_atom_site_fract_y
_atom_site_fract_z
Si Si1 0.641438 0.780093 0.041406
Si Si2 0.000000 0.518185 0.750000
Si Si3 0.203819 0.120975 0.981737
Si Si4 0.649721 0.937434 0.220362
Si Si5 0.000383 0.018641 0.652351
Si Si6 0.985842 0.302606 0.054561
O O1 0.701249 0.686306 0.072534
O O2 0.684272 0.865011 0.189091
O O3 0.586184 0.906842 0.899583
O O4 0.567636 0.661263 0.959026
O O5 0.005852 0.618105 0.676104
O O6 0.267772 0.972625 0.086455
O O7 0.250000 0.250000 0.000000
O O8 0.101377 0.077487 0.794060
O O9 0.573680 0.830020 0.138926
O O10 0.595967 0.097850 0.115733
O O11 0.970464 0.876626 0.547265
O O12 0.000000 0.969627 0.750000
#
# Coordination Sequence:
#
# PCOD9254874 Si02
#       6
#     8   4   8   8   8   8
#     4  10  21  41  63  87 124 165 202 253 311 371
#     4  10  16  36  66  86 112 164 200 244 302 370
#     4  11  23  41  63  92 126 165 206 257 305 362
#     4  10  24  39  60  91 127 155 207 254 317 364
#     4  10  21  40  66  89 118 158 213 246 303 369
#     4  10  21  38  64  91 118 163 206 250 306 375
#
# _framework density 21.407450999999998
#
# number of rings (size 3 to 8) (size 9 to 14) (size 15 to 20)
#    0.000    1.818    3.636    1.091    5.091    4.364 
#    3.273    0.000    0.000    0.000    0.000    0.000 
#    0.000    0.000    0.000    0.000    0.000    0.000 
#
# Total GULP energy -122958.122070 kJ/mol
# GULP energy per Si atom -5589.005549 kJ/mol
# Density = 2.135873 g / cm^3
# Si number density = 21.407451 Si / 1000 Ang^3
#
#
#
# Elastic Constant Matrix: (Units=GPa)
#
#
# Indices 1 2 3 4 5 6 
#
# 1 61.8097 12.9729 22.2602 0.0000 13.2036 0.0000
# 2 12.9729 73.0908 19.8385 0.0000 5.4620 0.0000
# 3 22.2602 19.8385 36.3568 0.0000 9.7392 0.0000
# 4 0.0000 0.0000 0.0000 16.5450 0.0000 -15.0945
# 5 13.2036 5.4620 9.7392 0.0000 23.1779 0.0000
# 6 0.0000 0.0000 0.0000 -15.0945 0.0000 35.3045
#
#
#
# Elastic Compliance Matrix: (Units=1/GPa)
#
#
# Indices 1 2 3 4 5 6 
#
# 1 0.021919 -0.000273 -0.011205 0.000000 -0.007714 0.000000
# 2 -0.000273 0.016064 -0.008593 0.000000 -0.000019 0.000000
# 3 -0.011205 -0.008593 0.041470 0.000000 -0.009017 0.000000
# 4 0.000000 0.000000 0.000000 0.099095 0.000000 0.042368
# 5 -0.007714 -0.000019 -0.009017 0.000000 0.051332 0.000000
# 6 0.000000 0.000000 0.000000 0.042368 0.000000 0.046440
#
#
# Mechanical properties :
#
#
# Convention : Reuss Voigt Hill
#
# Bulk Modulus (GPa) = 25.43821 31.26672 28.35247
# Shear Modulus (GPa) = 15.17144 22.75120 18.96132
#
# Velocity S-wave (km/s) = 2.66503 3.26355 2.97936
# Velocity P-wave (km/s) = 4.62369 5.37013 5.01083
#
# Compressibility (1/GPa) = 0.03931094
#
# Stress axis : x y z
#
# Youngs Moduli (GPa) = 45.62211 62.25151 24.11363
#
# Poissons Ratio (x) = 0.01697 0.27020
# Poissons Ratio (y) = 0.01244 0.20722
# Poissons Ratio (z) = 0.51121 0.53495
#
# Static dielectric constant tensor:
#      x y z
#    x 1.791570 0.000000 0.001020 
#    y 0.000000 1.780210 0.000000 
#    z 0.001020 0.000000 1.759260 
# 
# From -- ./inp_files/159187.got.cif
#   From: 2010.05.17/outbox.cif.g08.bks.cpg/sg15_80_cif.got.tgz:159187.got - 2010.06.03 18:47:42.
