data_PCOD9254094
_publ_section_title
;
Structure prediction by ZEFSAII (Michael W. Deem and Ramdas Pophale) SiO2 
 PCOD9254094
Probable space group: C 2/C
;
_chemical_formula_sum "Si O2"
_cell_formula_units_Z 40
_cell_length_a 7.452727
_cell_length_b 17.510392
_cell_length_c 11.676292
_cell_angle_alpha 90.000000
_cell_angle_beta 104.108942
_cell_angle_gamma 90.000000
_cell_volume 1477.792393
_symmetry_space_group_name_H-M "C 2/C"
_symmetry_group_IT_number 15
_symmetry_cell_setting 'monoclinic'
loop_
_space_group_symop_operation_xyz
x,y,z
-x,y,1/2-z
-x,-y,-z
x,-y,1/2+z
1/2+x,1/2+y,z
1/2-x,1/2+y,1/2-z
1/2-x,1/2-y,-z
1/2+x,1/2-y,1/2+z
loop_
_atom_site_type_symbol
_atom_site_label
_atom_site_fract_x
_atom_site_fract_y
_atom_site_fract_z
Si Si1 0.571813 0.170401 0.884606
Si Si2 0.052463 0.747930 0.107813
Si Si3 0.725005 0.012944 0.893573
Si Si4 0.695514 0.370876 0.716992
Si Si5 0.893235 0.108497 0.551393
O O1 0.500000 0.198122 0.750000
O O2 0.781534 0.200432 0.917199
O O3 0.578666 0.079360 0.882051
O O4 0.482553 0.197922 0.989105
O O5 0.159977 0.687959 0.206125
O O6 0.912074 0.814474 0.129716
O O7 0.712489 0.953860 0.786580
O O8 0.920797 0.057657 0.905265
O O9 0.745566 0.960149 0.010500
O O10 0.500000 0.376615 0.750000
O O11 0.632257 0.352906 0.577994
#
# Coordination Sequence:
#
# PCOD9254094 Si02
#       5
#     8   8   8   8   8
#     4  10  18  29  45  68  99 123 150 194 238 275
#     4  10  17  25  46  75  92 116 154 199 236 262
#     4   8  17  29  41  63  99 131 147 177 245 282
#     4  10  16  25  43  67  93 121 154 193 225 274
#     4   8  16  29  42  64 102 125 146 186 241 283
#
# _framework density 27.067399000000002
#
# number of rings (size 3 to 8) (size 9 to 14) (size 15 to 20)
#    1.200    1.600    0.000    5.400    0.000    0.000 
#    0.000    1.000    0.000    0.000    0.000    7.000 
#    0.000    7.800    0.000    0.000    0.000    0.000 
#
# Total GULP energy -111483.816723 kJ/mol
# GULP energy per Si atom -5574.190836 kJ/mol
# Density = 2.700579 g / cm^3
# Si number density = 27.067399 Si / 1000 Ang^3
#
#
#
# Elastic Constant Matrix: (Units=GPa)
#
#
# Indices 1 2 3 4 5 6 
#
# 1 91.7466 26.3696 11.2433 0.0000 3.0750 0.0000
# 2 26.3696 242.4103 58.2241 0.0000 6.1937 0.0000
# 3 11.2433 58.2241 137.2508 0.0000 10.4479 0.0000
# 4 0.0000 0.0000 0.0000 29.9708 0.0000 13.3155
# 5 3.0750 6.1937 10.4479 0.0000 22.3682 0.0000
# 6 0.0000 0.0000 0.0000 13.3155 0.0000 17.3974
#
#
#
# Elastic Compliance Matrix: (Units=1/GPa)
#
#
# Indices 1 2 3 4 5 6 
#
# 1 0.011301 -0.001113 -0.000372 0.000000 -0.001072 0.000000
# 2 -0.001113 0.004706 -0.001885 0.000000 -0.000270 0.000000
# 3 -0.000372 -0.001885 0.008370 0.000000 -0.003336 0.000000
# 4 0.000000 0.000000 0.000000 0.050558 0.000000 -0.038696
# 5 -0.001072 -0.000270 -0.003336 0.000000 0.046487 0.000000
# 6 0.000000 0.000000 0.000000 -0.038696 0.000000 0.087097
#
#
# Mechanical properties :
#
#
# Convention : Reuss Voigt Hill
#
# Bulk Modulus (GPa) = 56.69622 73.67575 65.18599
# Shear Modulus (GPa) = 22.61058 38.98534 30.79796
#
# Velocity S-wave (km/s) = 2.89337 3.79925 3.37683
# Velocity P-wave (km/s) = 5.67044 6.82087 6.27209
#
# Compressibility (1/GPa) = 0.01763786
#
# Stress axis : x y z
#
# Youngs Moduli (GPa) = 88.48870 212.50309 119.47597
#
# Poissons Ratio (x) = 0.23642 0.04447
# Poissons Ratio (y) = 0.09845 0.22517
# Poissons Ratio (z) = 0.03294 0.40049
#
# Static dielectric constant tensor:
#      x y z
#    x 2.127500 0.000000 -0.005630 
#    y 0.000000 2.130810 0.000000 
#    z -0.005630 0.000000 2.130100 
# 
# From -- ./inp_files/204687.got.cif
#   From: 2010.05.17/outbox.cif.g08.bks.cpg/sg15_103_cif.got.tgz:204687.got - 2010.06.03 18:47:42.
