data_PCOD9254720
_publ_section_title
;
Structure prediction by ZEFSAII (Michael W. Deem and Ramdas Pophale) SiO2 
 PCOD9254720
Probable space group: C 2/C
;
_chemical_formula_sum "Si O2"
_cell_formula_units_Z 64
_cell_length_a 20.240688
_cell_length_b 12.303371
_cell_length_c 21.192910
_cell_angle_alpha 90.000000
_cell_angle_beta 150.252292
_cell_angle_gamma 90.000000
_cell_volume 2618.670108
_symmetry_space_group_name_H-M "C 2/C"
_symmetry_group_IT_number 15
_symmetry_cell_setting 'monoclinic'
loop_
_space_group_symop_operation_xyz
x,y,z
-x,y,1/2-z
-x,-y,-z
x,-y,1/2+z
1/2+x,1/2+y,z
1/2-x,1/2+y,1/2-z
1/2-x,1/2-y,-z
1/2+x,1/2-y,1/2+z
loop_
_atom_site_type_symbol
_atom_site_label
_atom_site_fract_x
_atom_site_fract_y
_atom_site_fract_z
Si Si1 0.557559 0.513815 0.617475
Si Si2 0.729752 0.650302 0.332588
Si Si3 0.442514 0.185765 0.266166
Si Si4 0.857773 0.480831 0.044580
Si Si5 0.396885 0.848321 0.236951
Si Si6 0.567682 0.161697 0.102275
Si Si7 0.157052 0.407617 0.168305
Si Si8 0.208197 0.041837 0.032040
O O1 0.500000 0.500000 0.500000
O O2 0.614707 0.403624 0.695540
O O3 0.688463 0.585709 0.717999
O O4 0.438185 0.551105 0.563132
O O5 0.811572 0.556682 0.437694
O O6 0.663588 0.731086 0.328421
O O7 0.836233 0.704417 0.373457
O O8 0.500000 0.242703 0.250000
O O9 0.429403 0.220595 0.328024
O O10 0.542432 0.081981 0.360585
O O11 0.296647 0.145117 0.124612
O O12 0.726766 0.514864 0.974120
O O13 0.949589 0.382079 0.148369
O O14 0.388850 0.848608 0.306515
O O15 0.290925 0.940906 0.130535
O O16 0.615229 0.034466 0.146623
O O17 0.420553 0.150201 0.952594
#
# Coordination Sequence:
#
# PCOD9254720 Si02
#       8
#     8   8   8   8   8   8   8   8
#     4  11  21  35  51  76 102 144 181 231 286 315
#     4  11  24  32  54  76 111 146 189 226 262 330
#     4   9  16  31  57  78  99 130 178 226 271 321
#     4  10  20  37  50  75 108 150 188 217 258 327
#     4  11  20  36  51  79 107 150 186 224 267 316
#     4  10  16  34  54  78  98 135 183 228 270 320
#     4  10  18  31  58  72 104 140 178 233 275 317
#     4  10  20  34  52  73 113 146 179 225 265 318
#
# _framework density 24.439886999999999
#
# number of rings (size 3 to 8) (size 9 to 14) (size 15 to 20)
#    0.000    1.750    5.000    3.375    1.750    1.000 
#    2.250    0.000    0.000    0.000    0.000    0.875 
#    7.500    0.000    0.000    0.000    0.000    0.000 
#
# Total GULP energy -178681.131699 kJ/mol
# GULP energy per Si atom -5583.785366 kJ/mol
# Density = 2.438426 g / cm^3
# Si number density = 24.439887 Si / 1000 Ang^3
#
#
#
# Elastic Constant Matrix: (Units=GPa)
#
#
# Indices 1 2 3 4 5 6 
#
# 1 148.5175 -4.2124 45.7527 0.0001 23.9706 0.0000
# 2 -4.2124 37.2321 1.0557 -0.0001 5.7665 0.0000
# 3 45.7527 1.0557 100.8534 0.0000 20.4499 0.0000
# 4 0.0001 -0.0001 0.0000 0.0217 0.0000 7.1293
# 5 23.9706 5.7665 20.4499 0.0000 52.6152 0.0000
# 6 0.0000 0.0000 0.0000 7.1293 0.0000 29.0252
#
#
#
# Elastic Compliance Matrix: (Units=1/GPa)
#
#
# Indices 1 2 3 4 5 6 
#
# 1 0.008184 0.001426 -0.003191 0.000000 -0.002644 0.000000
# 2 0.001426 0.027582 -0.000207 -0.000001 -0.003592 0.000000
# 3 -0.003191 -0.000207 0.012013 0.000000 -0.003192 0.000000
# 4 0.000000 -0.000001 0.000000 -0.578225 0.000000 0.142027
# 5 -0.002644 -0.003592 -0.003192 0.000000 0.021845 0.000000
# 6 0.000000 0.000000 0.000000 0.142027 0.000000 -0.000432
#
#
# Mechanical properties :
#
#
# Convention : Reuss Voigt Hill
#
# Bulk Modulus (GPa) = 22.81391 41.31057 32.06224
# Shear Modulus (GPa) = -10.19413 32.59955 11.20271
#
# Velocity S-wave (km/s) = -2.04454 3.65618 2.14330
# Velocity P-wave (km/s) = 1.94459 5.89603 4.39002
#
# Compressibility (1/GPa) = 0.04383291
#
# Stress axis : x y z
#
# Youngs Moduli (GPa) = 122.19646 36.25548 83.24600
#
# Poissons Ratio (x) = -0.05170 0.26566
# Poissons Ratio (y) = -0.17424 0.01725
# Poissons Ratio (z) = 0.38996 0.00751
#
# Static dielectric constant tensor:
#      x y z
#    x 2.012420 -0.000010 -0.042850 
#    y -0.000010 -5.526680 0.000000 
#    z -0.042850 0.000000 1.910590 
# 
# From -- ./inp_files/253235.got.cif
#   From: 2010.05.17/outbox.cif.g08.bks.cpg/sg15_127_cif.got.tgz:253235.got - 2010.06.03 18:47:42.
