data_PCOD9254111
_publ_section_title
;
Structure prediction by ZEFSAII (Michael W. Deem and Ramdas Pophale) SiO2 
 PCOD9254111
Probable space group: C 2/C
;
_chemical_formula_sum "Si O2"
_cell_formula_units_Z 48
_cell_length_a 16.998638
_cell_length_b 18.074575
_cell_length_c 8.478358
_cell_angle_alpha 90.000000
_cell_angle_beta 48.131632
_cell_angle_gamma 90.000000
_cell_volume 1939.830293
_symmetry_space_group_name_H-M "C 2/C"
_symmetry_group_IT_number 15
_symmetry_cell_setting 'monoclinic'
loop_
_space_group_symop_operation_xyz
x,y,z
-x,y,1/2-z
-x,-y,-z
x,-y,1/2+z
1/2+x,1/2+y,z
1/2-x,1/2+y,1/2-z
1/2-x,1/2-y,-z
1/2+x,1/2-y,1/2+z
loop_
_atom_site_type_symbol
_atom_site_label
_atom_site_fract_x
_atom_site_fract_y
_atom_site_fract_z
Si Si1 0.153622 0.576127 0.128543
Si Si2 0.369955 0.589843 0.478928
Si Si3 0.630392 0.152042 0.847979
Si Si4 0.361266 0.910580 0.491427
Si Si5 0.827200 0.803372 0.796604
Si Si6 0.103656 0.926763 0.200322
O O1 0.099809 0.619306 0.056906
O O2 0.152787 0.492276 0.062467
O O3 0.276434 0.603108 0.978642
O O4 0.104127 0.580584 0.370871
O O5 0.248284 0.614855 0.673520
O O6 0.402819 0.653739 0.313616
O O7 0.382138 0.511184 0.378015
O O8 0.418838 0.579712 0.584702
O O9 0.586388 0.131585 0.731291
O O10 0.622718 0.240906 0.878605
O O11 0.250357 0.866645 0.662741
O O12 0.750000 0.750000 0.000000
O O13 0.000000 0.896050 0.250000
#
# Coordination Sequence:
#
# PCOD9254111 Si02
#       6
#     8   8   8   8   8   8
#     4  11  17  27  43  58  79 114 138 180 200 236
#     4   9  17  28  40  52  79 106 137 180 207 231
#     4   9  18  29  42  57  76 102 144 175 211 251
#     4  10  16  26  43  55  78 103 139 171 211 235
#     4   8  16  28  42  54  75 102 139 176 210 250
#     4  11  19  26  38  60  81 110 148 181 199 230
#
# _framework density 24.744432
#
# number of rings (size 3 to 8) (size 9 to 14) (size 15 to 20)
#    0.000    2.667    5.000    1.500    0.000    0.667 
#    0.000    0.000    0.000    0.000    0.000    0.000 
#    0.000    0.000    0.000    0.000    0.000   68.333 
#
# Total GULP energy -133601.059296 kJ/mol
# GULP energy per Si atom -5566.710804 kJ/mol
# Density = 2.468811 g / cm^3
# Si number density = 24.744432 Si / 1000 Ang^3
#
#
#
# Elastic Constant Matrix: (Units=GPa)
#
#
# Indices 1 2 3 4 5 6 
#
# 1 139.0257 50.2912 88.5307 0.0000 48.0122 0.0000
# 2 50.2912 86.0698 68.7644 0.0000 41.0353 0.0000
# 3 88.5307 68.7644 173.5402 0.0000 35.2689 0.0000
# 4 0.0000 0.0000 0.0000 0.7332 0.0000 16.7634
# 5 48.0122 41.0353 35.2689 0.0000 66.8276 0.0000
# 6 0.0000 0.0000 0.0000 16.7634 0.0000 0.3510
#
#
#
# Elastic Compliance Matrix: (Units=1/GPa)
#
#
# Indices 1 2 3 4 5 6 
#
# 1 0.012706 -0.000435 -0.005050 0.000000 -0.006196 0.000000
# 2 -0.000435 0.021498 -0.006359 0.000000 -0.009532 0.000000
# 3 -0.005050 -0.006359 0.010448 0.000000 0.002019 0.000000
# 4 0.000000 0.000000 0.000000 -0.001250 0.000000 0.059708
# 5 -0.006196 -0.009532 0.002019 0.000000 0.024203 0.000000
# 6 0.000000 0.000000 0.000000 0.059708 0.000000 -0.002612
#
#
# Mechanical properties :
#
#
# Convention : Reuss Voigt Hill
#
# Bulk Modulus (GPa) = 47.70384 90.42315 69.06349
# Shear Modulus (GPa) = 52.26270 26.31898 39.29084
#
# Velocity S-wave (km/s) = 4.60074 3.26488 3.98913
# Velocity P-wave (km/s) = 6.89514 7.12985 7.01347
#
# Compressibility (1/GPa) = 0.02096268
#
# Stress axis : x y z
#
# Youngs Moduli (GPa) = 78.70189 46.51612 95.71062
#
# Poissons Ratio (x) = 0.02025 0.48336
# Poissons Ratio (y) = 0.03427 0.60864
# Poissons Ratio (z) = 0.39746 0.29580
#
# Static dielectric constant tensor:
#      x y z
#    x 2.074850 0.000000 -0.064100 
#    y 0.000000 1.975860 0.000000 
#    z -0.064100 0.000000 2.094540 
# 
# From -- ./inp_files/57193.got.cif
#   From: 2010.05.17/outbox.cif.g08.bks.cpg/sg15_29_cif.got.tgz:57193.got - 2010.06.03 18:47:42.
