data_PCOD9254336
_publ_section_title
;
Structure prediction by ZEFSAII (Michael W. Deem and Ramdas Pophale) SiO2 
 PCOD9254336
Probable space group: C 2/C
;
_chemical_formula_sum "Si O2"
_cell_formula_units_Z 56
_cell_length_a 12.160614
_cell_length_b 10.882426
_cell_length_c 23.530453
_cell_angle_alpha 90.000000
_cell_angle_beta 64.016367
_cell_angle_gamma 90.000000
_cell_volume 2799.188770
_symmetry_space_group_name_H-M "C 2/C"
_symmetry_group_IT_number 15
_symmetry_cell_setting 'monoclinic'
loop_
_space_group_symop_operation_xyz
x,y,z
-x,y,1/2-z
-x,-y,-z
x,-y,1/2+z
1/2+x,1/2+y,z
1/2-x,1/2+y,1/2-z
1/2-x,1/2-y,-z
1/2+x,1/2-y,1/2+z
loop_
_atom_site_type_symbol
_atom_site_label
_atom_site_fract_x
_atom_site_fract_y
_atom_site_fract_z
Si Si1 0.513350 0.380766 0.653581
Si Si2 0.755185 0.943382 0.724677
Si Si3 0.806196 0.109189 0.484850
Si Si4 0.573041 0.106657 0.837165
Si Si5 0.298875 0.037354 0.876090
Si Si6 0.877785 0.485753 0.562981
Si Si7 0.748940 0.697159 0.165465
O O1 0.401015 0.470563 0.691968
O O2 0.565745 0.387050 0.577431
O O3 0.455339 0.245670 0.671786
O O4 0.628909 0.379101 0.670234
O O5 0.732779 0.830204 0.772727
O O6 0.666413 0.044205 0.772747
O O7 0.721963 0.932313 0.665860
O O8 0.750000 0.250000 0.500000
O O9 0.790875 0.049135 0.549862
O O10 0.725698 0.026350 0.460773
O O11 0.439467 0.041047 0.865099
O O12 0.626244 0.090521 0.888338
O O13 0.274542 0.164687 0.847695
O O14 0.860339 0.361519 0.604327
O O15 0.000000 0.500000 0.500000
#
# Coordination Sequence:
#
# PCOD9254336 Si02
#       7
#     8   8   8   8   8   8   8
#     4  10  20  37  59  82 114 142 191 241 270 337
#     4  11  22  32  52  85 114 151 186 231 287 326
#     4  11  18  35  61  92 109 143 189 242 281 324
#     4  10  20  35  59  84 112 149 188 235 277 332
#     4  11  20  36  59  84 114 144 190 238 279 332
#     4  10  16  29  58  92 112 136 183 236 282 333
#     4   9  20  35  57  82 110 145 192 237 274 328
#
# _framework density 20.005796
#
# number of rings (size 3 to 8) (size 9 to 14) (size 15 to 20)
#    0.000    1.714    5.714    1.714    0.000    2.857 
#    0.000    0.000    0.000   38.571    0.000    0.000 
#    0.000    0.000    0.000    0.000    0.000    0.000 
#
# Total GULP energy -155986.906550 kJ/mol
# GULP energy per Si atom -5570.960948 kJ/mol
# Density = 1.996026 g / cm^3
# Si number density = 20.005796 Si / 1000 Ang^3
#
#
#
# Elastic Constant Matrix: (Units=GPa)
#
#
# Indices 1 2 3 4 5 6 
#
# 1 43.9785 20.2487 7.5436 0.0000 4.0200 0.0000
# 2 20.2487 22.7853 9.7823 0.0000 1.0786 0.0000
# 3 7.5436 9.7823 106.3138 0.0000 7.7406 0.0000
# 4 0.0000 0.0000 0.0000 26.2382 0.0000 -1.3033
# 5 4.0200 1.0786 7.7406 0.0000 51.1327 0.0000
# 6 0.0000 0.0000 0.0000 -1.3033 0.0000 32.7272
#
#
#
# Elastic Compliance Matrix: (Units=1/GPa)
#
#
# Indices 1 2 3 4 5 6 
#
# 1 0.038796 -0.034624 0.000609 0.000000 -0.002412 0.000000
# 2 -0.034624 0.076600 -0.004724 0.000000 0.001821 0.000000
# 3 0.000609 -0.004724 0.009903 0.000000 -0.001447 0.000000
# 4 0.000000 0.000000 0.000000 0.038188 0.000000 0.001521
# 5 -0.002412 0.001821 -0.001447 0.000000 0.019927 0.000000
# 6 0.000000 0.000000 0.000000 0.001521 0.000000 0.030616
#
#
# Mechanical properties :
#
#
# Convention : Reuss Voigt Hill
#
# Bulk Modulus (GPa) = 20.91196 27.58075 24.24636
# Shear Modulus (GPa) = 16.26284 31.05317 23.65800
#
# Velocity S-wave (km/s) = 2.85424 3.94408 3.44256
# Velocity P-wave (km/s) = 4.61930 5.87855 5.28655
#
# Compressibility (1/GPa) = 0.04781951
#
# Stress axis : x y z
#
# Youngs Moduli (GPa) = 25.77568 13.05489 100.97978
#
# Poissons Ratio (x) = 0.45202 -0.06146
# Poissons Ratio (y) = 0.89247 0.47703
# Poissons Ratio (z) = -0.01569 0.06167
#
# Static dielectric constant tensor:
#      x y z
#    x 1.754790 0.000000 -0.001220 
#    y 0.000000 1.738040 0.000000 
#    z -0.001220 0.000000 1.771610 
# 
# From -- ./inp_files/268719.got.cif
#   From: 2010.05.17/outbox.cif.g08.bks.cpg/sg15_135_cif.got.tgz:268719.got - 2010.06.03 18:47:42.
