data_PCOD9254770
_publ_section_title
;
Structure prediction by ZEFSAII (Michael W. Deem and Ramdas Pophale) SiO2 
 PCOD9254770
Probable space group: C 2/C
;
_chemical_formula_sum "Si O2"
_cell_formula_units_Z 32
_cell_length_a 9.924112
_cell_length_b 7.956259
_cell_length_c 16.206023
_cell_angle_alpha 90.000000
_cell_angle_beta 74.529318
_cell_angle_gamma 90.000000
_cell_volume 1233.244264
_symmetry_space_group_name_H-M "C 2/C"
_symmetry_group_IT_number 15
_symmetry_cell_setting 'monoclinic'
loop_
_space_group_symop_operation_xyz
x,y,z
-x,y,1/2-z
-x,-y,-z
x,-y,1/2+z
1/2+x,1/2+y,z
1/2-x,1/2+y,1/2-z
1/2-x,1/2-y,-z
1/2+x,1/2-y,1/2+z
loop_
_atom_site_type_symbol
_atom_site_label
_atom_site_fract_x
_atom_site_fract_y
_atom_site_fract_z
Si Si1 0.194773 0.672665 0.739293
Si Si2 0.842069 0.329861 0.849204
Si Si3 0.540941 0.654958 0.404832
Si Si4 0.084005 0.234835 0.916152
O O1 0.163533 0.489277 0.710987
O O2 0.321261 0.677245 0.787274
O O3 0.071768 0.757636 0.812547
O O4 0.264507 0.762140 0.648373
O O5 0.695450 0.327386 0.921900
O O6 0.972101 0.346862 0.887060
O O7 0.430831 0.740630 0.483288
O O8 0.528776 0.454383 0.402304
#
# Coordination Sequence:
#
# PCOD9254770 Si02
#       4
#     8   8   8   8
#     4   9  19  34  56  89 121 151 200 248 288 367
#     4   9  18  33  59  83 123 156 197 246 296 356
#     4   8  19  31  57  93 121 148 210 245 286 367
#     4  10  16  34  61  86 117 169 188 248 313 334
#
# _framework density 25.947818999999999
#
# number of rings (size 3 to 8) (size 9 to 14) (size 15 to 20)
#    1.500    1.500    0.000    1.500    0.000    0.000 
#    0.000    1.250   11.000    1.500    0.000    3.500 
#    0.000    0.000    0.000    0.000    0.000    0.000 
#
# Total GULP energy -89236.668037 kJ/mol
# GULP energy per Si atom -5577.291752 kJ/mol
# Density = 2.588876 g / cm^3
# Si number density = 25.947819 Si / 1000 Ang^3
#
#
#
# Elastic Constant Matrix: (Units=GPa)
#
#
# Indices 1 2 3 4 5 6 
#
# 1 62.1578 9.1699 49.7331 0.0000 -4.7673 0.0000
# 2 9.1699 72.9653 42.7791 0.0000 5.1030 0.0000
# 3 49.7331 42.7791 197.3389 0.0000 -39.1602 0.0000
# 4 0.0000 0.0000 0.0000 35.7828 0.0000 -5.2051
# 5 -4.7673 5.1030 -39.1602 0.0000 54.1306 0.0000
# 6 0.0000 0.0000 0.0000 -5.2051 0.0000 16.3712
#
#
#
# Elastic Compliance Matrix: (Units=1/GPa)
#
#
# Indices 1 2 3 4 5 6 
#
# 1 0.020449 0.001064 -0.005893 0.000000 -0.002562 0.000000
# 2 0.001064 0.016804 -0.004912 0.000000 -0.005044 0.000000
# 3 -0.005893 -0.004912 0.008881 0.000000 0.006369 0.000000
# 4 0.000000 0.000000 0.000000 0.029302 0.000000 0.009316
# 5 -0.002562 -0.005044 0.006369 0.000000 0.023331 0.000000
# 6 0.000000 0.000000 0.000000 0.009316 0.000000 0.064045
#
#
# Mechanical properties :
#
#
# Convention : Reuss Voigt Hill
#
# Bulk Modulus (GPa) = 37.51842 59.53623 48.52732
# Shear Modulus (GPa) = 26.15364 36.64225 31.39795
#
# Velocity S-wave (km/s) = 3.17824 3.76194 3.48234
# Velocity P-wave (km/s) = 5.28761 6.47024 5.90859
#
# Compressibility (1/GPa) = 0.02665358
#
# Stress axis : x y z
#
# Youngs Moduli (GPa) = 48.90096 59.50986 112.59734
#
# Poissons Ratio (x) = -0.06333 0.66352
# Poissons Ratio (y) = -0.05204 0.55306
# Poissons Ratio (z) = 0.28817 0.29230
#
# Static dielectric constant tensor:
#      x y z
#    x 2.083860 0.000000 -0.070920 
#    y 0.000000 2.045000 0.000000 
#    z -0.070920 0.000000 2.051790 
# 
# From -- ./inp_files/201980.got.cif
#   From: 2010.05.17/outbox.cif.g08.bks.cpg/sg15_101_cif.got.tgz:201980.got - 2010.06.03 18:47:42.
