data_PCOD9254553
_publ_section_title
;
Structure prediction by ZEFSAII (Michael W. Deem and Ramdas Pophale) SiO2 
 PCOD9254553
Probable space group: C 2/C
;
_chemical_formula_sum "Si O2"
_cell_formula_units_Z 44
_cell_length_a 24.419558
_cell_length_b 14.583429
_cell_length_c 11.417397
_cell_angle_alpha 90.000000
_cell_angle_beta 149.977313
_cell_angle_gamma 90.000000
_cell_volume 2034.380912
_symmetry_space_group_name_H-M "C 2/C"
_symmetry_group_IT_number 15
_symmetry_cell_setting 'monoclinic'
loop_
_space_group_symop_operation_xyz
x,y,z
-x,y,1/2-z
-x,-y,-z
x,-y,1/2+z
1/2+x,1/2+y,z
1/2-x,1/2+y,1/2-z
1/2-x,1/2-y,-z
1/2+x,1/2-y,1/2+z
loop_
_atom_site_type_symbol
_atom_site_label
_atom_site_fract_x
_atom_site_fract_y
_atom_site_fract_z
Si Si1 0.840366 0.160253 0.570935
Si Si2 0.611986 0.641132 0.585759
Si Si3 0.747867 0.755415 0.687145
Si Si4 0.000000 0.983980 0.250000
Si Si5 0.986249 0.675132 0.098930
Si Si6 0.538245 0.824425 0.195623
O O1 0.819477 0.137699 0.667319
O O2 0.746139 0.185905 0.305390
O O3 0.908826 0.079930 0.638258
O O4 0.917186 0.250155 0.717983
O O5 0.689984 0.661752 0.620244
O O6 0.549129 0.548432 0.441708
O O7 0.524423 0.725133 0.427752
O O8 0.668235 0.805109 0.449190
O O9 0.872229 0.733292 0.885723
O O10 0.000000 0.624929 0.250000
O O11 0.988449 0.626794 0.976645
O O12 0.500000 0.864609 0.250000
#
# Coordination Sequence:
#
# PCOD9254553 Si02
#       6
#     8   8   8   4   8   8
#     4  10  20  32  50  75 110 143 176 222 270 320
#     4  10  20  32  50  75 110 143 176 222 270 320
#     4  10  16  32  48  74 101 142 187 214 263 318
#     4  12  18  36  48  78 110 142 178 212 282 320
#     4   9  17  30  47  72 102 136 177 220 262 308
#     4   9  17  30  47  72 102 136 177 220 262 308
#
# _framework density 21.628201000000001
#
# number of rings (size 3 to 8) (size 9 to 14) (size 15 to 20)
#    0.000    2.182    5.455    1.636    0.000    1.455 
#    0.000    0.000    0.000    0.000    0.000   11.455 
#    0.000   40.727    0.000    0.000    0.000    0.000 
#
# Total GULP energy -122599.717645 kJ/mol
# GULP energy per Si atom -5572.714438 kJ/mol
# Density = 2.157897 g / cm^3
# Si number density = 21.628201 Si / 1000 Ang^3
#
#
#
# Elastic Constant Matrix: (Units=GPa)
#
#
# Indices 1 2 3 4 5 6 
#
# 1 78.7941 -2.6733 33.0253 0.0000 -39.7010 0.0000
# 2 -2.6733 29.4537 6.2487 0.0000 -0.9508 0.0000
# 3 33.0253 6.2487 120.9716 0.0000 -32.5259 0.0000
# 4 0.0000 0.0000 0.0000 13.8580 0.0000 4.5109
# 5 -39.7010 -0.9508 -32.5259 0.0000 49.6493 0.0000
# 6 0.0000 0.0000 0.0000 4.5109 0.0000 11.8249
#
#
#
# Elastic Compliance Matrix: (Units=1/GPa)
#
#
# Indices 1 2 3 4 5 6 
#
# 1 0.021715 0.002856 -0.001690 0.000000 0.016312 0.000000
# 2 0.002856 0.034719 -0.002161 0.000000 0.001533 0.000000
# 3 -0.001690 -0.002161 0.010275 0.000000 0.005338 0.000000
# 4 0.000000 0.000000 0.000000 0.082391 0.000000 -0.031430
# 5 0.016312 0.001533 0.005338 0.000000 0.036711 0.000000
# 6 0.000000 0.000000 0.000000 -0.031430 0.000000 0.096557
#
#
# Mechanical properties :
#
#
# Convention : Reuss Voigt Hill
#
# Bulk Modulus (GPa) = 15.45137 33.60230 24.52683
# Shear Modulus (GPa) = 16.34352 27.90768 22.12560
#
# Velocity S-wave (km/s) = 2.75191 3.59602 3.20190
# Velocity P-wave (km/s) = 4.15414 5.72817 5.00344
#
# Compressibility (1/GPa) = 0.06471920
#
# Stress axis : x y z
#
# Youngs Moduli (GPa) = 46.05024 28.80291 97.32621
#
# Poissons Ratio (x) = -0.08226 0.16449
# Poissons Ratio (y) = -0.13152 0.21031
# Poissons Ratio (z) = 0.07783 0.06224
#
# Static dielectric constant tensor:
#      x y z
#    x 1.930900 0.000000 0.018970 
#    y 0.000000 1.714090 0.000000 
#    z 0.018970 0.000000 1.945440 
# 
# From -- ./inp_files/95084.got.cif
#   From: 2010.05.17/outbox.cif.g08.bks.cpg/sg15_48_cif.got.tgz:95084.got - 2010.06.03 18:47:42.
