data_PCOD9254992
_publ_section_title
;
Structure prediction by ZEFSAII (Michael W. Deem and Ramdas Pophale) SiO2 
 PCOD9254992
Probable space group: C 2/C
;
_chemical_formula_sum "Si O2"
_cell_formula_units_Z 48
_cell_length_a 19.387483
_cell_length_b 24.534892
_cell_length_c 14.372073
_cell_angle_alpha 90.000000
_cell_angle_beta 22.387266
_cell_angle_gamma 90.000000
_cell_volume 2603.729898
_symmetry_space_group_name_H-M "C 2/C"
_symmetry_group_IT_number 15
_symmetry_cell_setting 'monoclinic'
loop_
_space_group_symop_operation_xyz
x,y,z
-x,y,1/2-z
-x,-y,-z
x,-y,1/2+z
1/2+x,1/2+y,z
1/2-x,1/2+y,1/2-z
1/2-x,1/2-y,-z
1/2+x,1/2-y,1/2+z
loop_
_atom_site_type_symbol
_atom_site_label
_atom_site_fract_x
_atom_site_fract_y
_atom_site_fract_z
Si Si1 0.799401 0.969309 0.499162
Si Si2 0.862269 0.673324 0.503582
Si Si3 0.008220 0.786178 0.126692
Si Si4 0.297031 0.564142 0.788280
Si Si5 0.954616 0.535929 0.915805
Si Si6 0.686092 0.606660 0.343600
O O1 0.769585 0.943208 0.434434
O O2 0.803676 0.921400 0.568406
O O3 0.640970 0.011179 0.721978
O O4 0.000000 0.995276 0.250000
O O5 0.944687 0.723904 0.456490
O O6 0.683812 0.696804 0.675805
O O7 0.809800 0.616681 0.616195
O O8 0.000000 0.659241 0.250000
O O9 0.000000 0.789794 0.250000
O O10 0.145644 0.830230 0.912691
O O11 0.509624 0.578694 0.513411
O O12 0.203017 0.509395 0.869449
O O13 0.000000 0.541411 0.750000
O O14 0.868696 0.590676 0.063025
#
# Coordination Sequence:
#
# PCOD9254992 Si02
#       6
#     8   8   8   8   8   8
#     4   9  17  29  44  64  91 117 142 175 218 265
#     4  10  17  27  42  63  90 118 141 169 212 264
#     4  10  19  28  43  65  91 118 142 173 214 262
#     4   9  18  30  46  66  90 118 145 177 218 265
#     4  10  19  30  46  65  88 120 151 181 215 254
#     4  10  18  30  44  65  92 119 147 179 216 258
#
# _framework density 18.435092000000001
#
# number of rings (size 3 to 8) (size 9 to 14) (size 15 to 20)
#    0.000    2.333    0.000    7.000    0.000    1.333 
#    0.000    0.000    0.000    0.000    0.000    4.667 
#    0.000    5.333    0.000    0.000    0.000    0.000 
#
# Total GULP energy -133850.141557 kJ/mol
# GULP energy per Si atom -5577.089232 kJ/mol
# Density = 1.839313 g / cm^3
# Si number density = 18.435092 Si / 1000 Ang^3
#
#
#
# Elastic Constant Matrix: (Units=GPa)
#
#
# Indices 1 2 3 4 5 6 
#
# 1 21.3399 -2.1086 -3.1404 0.0109 -0.7316 -0.0572
# 2 -2.1086 78.9266 43.8866 0.0030 -4.8154 -0.0763
# 3 -3.1404 43.8866 65.7050 0.0219 -7.0705 -0.1101
# 4 0.0109 0.0030 0.0219 27.7282 -0.0055 -21.3806
# 5 -0.7316 -4.8154 -7.0705 -0.0055 12.4440 0.0537
# 6 -0.0572 -0.0763 -0.1101 -21.3806 0.0537 -25.9221
#
#
#
# Elastic Compliance Matrix: (Units=1/GPa)
#
#
# Indices 1 2 3 4 5 6 
#
# 1 0.047412 0.000019 0.002721 -0.000063 0.004341 -0.000056
# 2 0.000019 0.020156 -0.013445 0.000004 0.000162 -0.000005
# 3 0.002721 -0.013445 0.025336 -0.000037 0.009353 -0.000024
# 4 -0.000063 0.000004 -0.000037 0.022045 0.000065 -0.018182
# 5 0.004341 0.000162 0.009353 0.000065 0.085991 0.000074
# 6 -0.000056 -0.000005 -0.000024 -0.018182 0.000074 -0.023580
#
#
# Mechanical properties :
#
#
# Convention : Reuss Voigt Hill
#
# Bulk Modulus (GPa) = 13.98734 27.02738 20.50736
# Shear Modulus (GPa) = 22.46162 11.33896 16.90029
#
# Velocity S-wave (km/s) = 3.49437 2.48276 3.03107
# Velocity P-wave (km/s) = 4.88719 4.78659 4.83715
#
# Compressibility (1/GPa) = 0.07149323
#
# Stress axis : x y z
#
# Youngs Moduli (GPa) = 21.09188 49.61250 39.46916
#
# Poissons Ratio (x) = -0.00092 -0.10738
# Poissons Ratio (y) = -0.00039 0.53065
# Poissons Ratio (z) = -0.05738 0.66703
#
# Static dielectric constant tensor:
#      x y z
#    x 1.668610 -0.000020 -0.044970 
#    y -0.000020 1.651340 0.000020 
#    z -0.044970 0.000020 1.663390 
# 
# From -- ./inp_files/33066.got.cif
#   From: 2010.05.17/outbox.cif.g08.bks.cpg/sg15_17_cif.got.tgz:33066.got - 2010.06.03 18:47:42.
