data_PCOD9254682
_publ_section_title
;
Structure prediction by ZEFSAII (Michael W. Deem and Ramdas Pophale) SiO2 
 PCOD9254682
Probable space group: C 2/C
;
_chemical_formula_sum "Si O2"
_cell_formula_units_Z 60
_cell_length_a 9.288931
_cell_length_b 19.265328
_cell_length_c 26.063986
_cell_angle_alpha 90.000000
_cell_angle_beta 138.650528
_cell_angle_gamma 90.000000
_cell_volume 3081.445445
_symmetry_space_group_name_H-M "C 2/C"
_symmetry_group_IT_number 15
_symmetry_cell_setting 'monoclinic'
loop_
_space_group_symop_operation_xyz
x,y,z
-x,y,1/2-z
-x,-y,-z
x,-y,1/2+z
1/2+x,1/2+y,z
1/2-x,1/2+y,1/2-z
1/2-x,1/2-y,-z
1/2+x,1/2-y,1/2+z
loop_
_atom_site_type_symbol
_atom_site_label
_atom_site_fract_x
_atom_site_fract_y
_atom_site_fract_z
Si Si1 0.894203 0.272878 0.423274
Si Si2 0.075644 0.619392 0.110937
Si Si3 0.458462 0.185787 0.296697
Si Si4 0.571511 0.206944 0.686691
Si Si5 0.585544 0.277268 0.075186
Si Si6 0.783753 0.113769 0.555736
Si Si7 0.115255 0.919778 0.229103
Si Si8 0.000000 0.948400 0.750000
O O1 0.653648 0.239876 0.358031
O O2 0.968811 0.281693 0.385146
O O3 0.865978 0.347012 0.442514
O O4 0.030586 0.226627 0.499780
O O5 0.032496 0.624777 0.159859
O O6 0.049856 0.699582 0.086613
O O7 0.324580 0.594940 0.170773
O O8 0.889178 0.579093 0.029390
O O9 0.500000 0.161261 0.250000
O O10 0.235632 0.229821 0.244132
O O11 0.338681 0.207176 0.651290
O O12 0.691866 0.133947 0.728965
O O13 0.426167 0.330846 0.060913
O O14 0.956677 0.074996 0.637794
O O15 0.000000 0.888182 0.250000
O O16 0.148936 0.998488 0.256683
#
# Coordination Sequence:
#
# PCOD9254682 Si02
#       8
#     8   8   8   8   8   8   8   4
#     4  10  16  33  48  84 120 153 173 219 293 352
#     4  11  20  37  57  87 121 142 186 235 291 344
#     4  10  18  31  57  81 113 155 174 220 298 349
#     4  11  19  31  56  82 119 150 192 231 273 341
#     4  11  21  30  55  98 119 140 179 239 301 339
#     4  11  19  35  61  82 119 150 182 238 286 340
#     4  10  20  39  55  78 105 154 206 226 272 324
#     4  10  24  38  60  80 108 152 204 240 264 328
#
# _framework density 19.471381000000001
#
# number of rings (size 3 to 8) (size 9 to 14) (size 15 to 20)
#    0.400    1.067    5.333    2.400    0.000    2.133 
#    0.000    0.000    2.933    0.800    0.000    0.000 
#    0.000    0.000    0.000    0.000    0.000    0.000 
#
# Total GULP energy -167128.898122 kJ/mol
# GULP energy per Si atom -5570.963271 kJ/mol
# Density = 1.942706 g / cm^3
# Si number density = 19.471381 Si / 1000 Ang^3
#
#
#
# Elastic Constant Matrix: (Units=GPa)
#
#
# Indices 1 2 3 4 5 6 
#
# 1 48.7325 3.1193 34.1749 0.0000 6.7030 0.0000
# 2 3.1193 19.4507 11.2078 0.0000 -3.9695 0.0000
# 3 34.1749 11.2078 122.6781 0.0000 -4.6843 0.0000
# 4 0.0000 0.0000 0.0000 7.5679 0.0000 5.0298
# 5 6.7030 -3.9695 -4.6843 0.0000 39.0748 0.0000
# 6 0.0000 0.0000 0.0000 5.0298 0.0000 4.3732
#
#
#
# Elastic Compliance Matrix: (Units=1/GPa)
#
#
# Indices 1 2 3 4 5 6 
#
# 1 0.026642 -0.001069 -0.007537 -0.000001 -0.005582 0.000001
# 2 -0.001069 0.055278 -0.004552 -0.000001 0.005253 0.000002
# 3 -0.007537 -0.004552 0.010748 0.000001 0.002119 -0.000001
# 4 -0.000001 -0.000001 0.000001 0.560855 0.000000 -0.645059
# 5 -0.005582 0.005253 0.002119 0.000000 0.027337 0.000000
# 6 0.000001 0.000002 -0.000001 -0.645059 0.000000 0.970569
#
#
# Mechanical properties :
#
#
# Convention : Reuss Voigt Hill
#
# Bulk Modulus (GPa) = 15.07101 31.98504 23.52802
# Shear Modulus (GPa) = 2.94141 19.69383 11.31762
#
# Velocity S-wave (km/s) = 1.23041 3.18374 2.41352
# Velocity P-wave (km/s) = 3.12657 5.47515 4.45829
#
# Compressibility (1/GPa) = 0.06635257
#
# Stress axis : x y z
#
# Youngs Moduli (GPa) = 37.53450 18.09025 93.04157
#
# Poissons Ratio (x) = 0.01933 0.70128
# Poissons Ratio (y) = 0.04011 0.42352
# Poissons Ratio (z) = 0.28291 0.08235
#
# Static dielectric constant tensor:
#      x y z
#    x 1.709480 0.000000 -0.030760 
#    y 0.000000 1.672330 0.000000 
#    z -0.030760 0.000000 1.769870 
# 
# From -- ./inp_files/290224.got.cif
#   From: 2010.05.17/outbox.cif.g08.bks.cpg/sg15_146_cif.got.tgz:290224.got - 2010.06.03 18:47:42.
