data_PCOD9254505
_publ_section_title
;
Structure prediction by ZEFSAII (Michael W. Deem and Ramdas Pophale) SiO2 
 PCOD9254505
Probable space group: C 2/C
;
_chemical_formula_sum "Si O2"
_cell_formula_units_Z 44
_cell_length_a 26.634083
_cell_length_b 12.572514
_cell_length_c 5.315813
_cell_angle_alpha 90.000000
_cell_angle_beta 93.000176
_cell_angle_gamma 90.000000
_cell_volume 1777.599453
_symmetry_space_group_name_H-M "C 2/C"
_symmetry_group_IT_number 15
_symmetry_cell_setting 'monoclinic'
loop_
_space_group_symop_operation_xyz
x,y,z
-x,y,1/2-z
-x,-y,-z
x,-y,1/2+z
1/2+x,1/2+y,z
1/2-x,1/2+y,1/2-z
1/2-x,1/2-y,-z
1/2+x,1/2-y,1/2+z
loop_
_atom_site_type_symbol
_atom_site_label
_atom_site_fract_x
_atom_site_fract_y
_atom_site_fract_z
Si Si1 0.471820 0.835948 0.490836
Si Si2 0.351542 0.634640 0.522092
Si Si3 0.364383 0.933645 0.531126
Si Si4 0.256559 0.928787 0.408113
Si Si5 0.106667 0.895896 0.966999
Si Si6 0.500000 0.371987 0.750000
O O1 0.500000 0.880216 0.250000
O O2 0.414924 0.871388 0.489213
O O3 0.478273 0.709197 0.452704
O O4 0.500000 0.867720 0.750000
O O5 0.292813 0.641271 0.565649
O O6 0.364180 0.507252 0.500972
O O7 0.369302 0.670997 0.253597
O O8 0.384186 0.667014 0.772823
O O9 0.311185 0.876734 0.463173
O O10 0.364301 0.027275 0.320020
O O11 0.254382 0.017698 0.631209
O O12 0.048885 0.924961 0.885279
#
# Coordination Sequence:
#
# PCOD9254505 Si02
#       6
#     8   8   8   8   8   4
#     4  10  23  40  55  77 112 144 184 220 261 323
#     4  10  18  32  53  86 104 137 173 238 260 320
#     4  10  21  34  60  89 106 137 173 224 278 321
#     4  10  16  31  52  84 114 131 162 218 286 318
#     4  10  20  32  55  75 111 141 183 215 275 302
#     4  10  26  38  54  74 108 160 182 218 256 322
#
# _framework density 24.752483000000002
#
# number of rings (size 3 to 8) (size 9 to 14) (size 15 to 20)
#    0.545    1.455    3.636    1.091    2.545    5.091 
#    0.000    0.000    0.000    2.182    0.000    0.000 
#    0.000    0.000    0.000    0.000    0.000    0.000 
#
# Total GULP energy -122934.816078 kJ/mol
# GULP energy per Si atom -5587.946185 kJ/mol
# Density = 2.469614 g / cm^3
# Si number density = 24.752483 Si / 1000 Ang^3
#
#
#
# Elastic Constant Matrix: (Units=GPa)
#
#
# Indices 1 2 3 4 5 6 
#
# 1 198.4326 16.4876 34.8416 0.0000 20.8541 0.0000
# 2 16.4876 45.3621 -0.4080 0.0000 5.6246 0.0000
# 3 34.8416 -0.4080 170.1387 0.0000 -14.8166 0.0000
# 4 0.0000 0.0000 0.0000 -443.6589 0.0000 15.5587
# 5 20.8541 5.6246 -14.8166 0.0000 50.4560 0.0000
# 6 0.0000 0.0000 0.0000 15.5587 0.0000 24.3590
#
#
#
# Elastic Compliance Matrix: (Units=1/GPa)
#
#
# Indices 1 2 3 4 5 6 
#
# 1 0.005701 -0.001766 -0.001396 0.000000 -0.002569 0.000000
# 2 -0.001766 0.022906 0.000265 0.000000 -0.001746 0.000000
# 3 -0.001396 0.000265 0.006375 0.000000 0.002419 0.000000
# 4 0.000000 0.000000 0.000000 -0.002205 0.000000 0.001408
# 5 -0.002569 -0.001746 0.002419 0.000000 0.021786 0.000000
# 6 0.000000 0.000000 0.000000 0.001408 0.000000 0.040153
#
#
# Mechanical properties :
#
#
# Convention : Reuss Voigt Hill
#
# Bulk Modulus (GPa) = 34.26143 57.30842 45.78492
# Shear Modulus (GPa) = 45.35567 -49.56798 -2.10615
#
# Velocity S-wave (km/s) = 4.28526 -4.47984 -0.92344
# Velocity P-wave (km/s) = 6.19324 1.88566 4.17136
#
# Compressibility (1/GPa) = 0.02918734
#
# Stress axis : x y z
#
# Youngs Moduli (GPa) = 175.39869 43.65736 156.87133
#
# Poissons Ratio (x) = 0.07711 0.21892
# Poissons Ratio (y) = 0.30979 -0.04151
# Poissons Ratio (z) = 0.24477 -0.01155
#
# Static dielectric constant tensor:
#      x y z
#    x 1.969430 0.000000 -0.036340 
#    y 0.000000 2.005380 0.000000 
#    z -0.036340 0.000000 2.021160 
# 
# From -- ./inp_files/15369.got.cif
#   From: 2010.05.17/outbox.cif.g08.bks.cpg/sg15_8_cif.got.tgz:15369.got - 2010.06.03 18:47:42.
