data_PCOD9254035
_publ_section_title
;
Structure prediction by ZEFSAII (Michael W. Deem and Ramdas Pophale) SiO2 
 PCOD9254035
Probable space group: C 2/C
;
_chemical_formula_sum "Si O2"
_cell_formula_units_Z 48
_cell_length_a 9.893529
_cell_length_b 27.218668
_cell_length_c 21.067461
_cell_angle_alpha 90.000000
_cell_angle_beta 26.267717
_cell_angle_gamma 90.000000
_cell_volume 2510.778172
_symmetry_space_group_name_H-M "C 2/C"
_symmetry_group_IT_number 15
_symmetry_cell_setting 'monoclinic'
loop_
_space_group_symop_operation_xyz
x,y,z
-x,y,1/2-z
-x,-y,-z
x,-y,1/2+z
1/2+x,1/2+y,z
1/2-x,1/2+y,1/2-z
1/2-x,1/2-y,-z
1/2+x,1/2-y,1/2+z
loop_
_atom_site_type_symbol
_atom_site_label
_atom_site_fract_x
_atom_site_fract_y
_atom_site_fract_z
Si Si1 0.608201 0.151935 0.778789
Si Si2 0.627920 0.971888 0.768404
Si Si3 0.662844 0.201094 0.119191
Si Si4 0.749573 0.437072 0.456282
Si Si5 0.375822 0.598370 0.997893
Si Si6 0.769845 0.255891 0.682126
O O1 0.500000 0.151882 0.750000
O O2 0.373850 0.117973 0.915598
O O3 0.650858 0.209283 0.774426
O O4 0.930154 0.123228 0.639832
O O5 0.500000 0.968105 0.750000
O O6 0.418087 0.933378 0.895049
O O7 0.981324 0.957073 0.614355
O O8 0.531442 0.025312 0.833931
O O9 0.500000 0.220421 0.250000
O O10 0.767045 0.145161 0.084840
O O11 0.422116 0.204370 0.163195
O O12 0.957015 0.232454 0.974908
O O13 0.597847 0.434000 0.449326
O O14 0.500000 0.272616 0.750000
#
# Coordination Sequence:
#
# PCOD9254035 Si02
#       6
#     8   8   8   8   8   8
#     4   8  14  26  40  54  79 114 149 185 227 271
#     4  10  16  21  32  53  81 113 147 178 216 274
#     4  10  19  32  49  70  95 126 162 202 244 285
#     4  10  16  23  36  55  83 119 151 181 225 280
#     4   9  16  25  37  56  84 116 148 183 225 273
#     4   9  19  33  49  69  94 125 164 203 241 286
#
# _framework density 19.117578999999999
#
# number of rings (size 3 to 8) (size 9 to 14) (size 15 to 20)
#    0.000    2.667    0.000    7.000    0.000    0.667 
#    0.000    0.000    0.000    0.000    0.000    0.000 
#    0.000    1.333    0.000   63.333    0.000   30.667 
#
# Total GULP energy -133680.703471 kJ/mol
# GULP energy per Si atom -5570.029311 kJ/mol
# Density = 1.907407 g / cm^3
# Si number density = 19.117579 Si / 1000 Ang^3
#
#
#
# Elastic Constant Matrix: (Units=GPa)
#
#
# Indices 1 2 3 4 5 6 
#
# 1 29.2681 -0.3555 18.2798 0.1116 -9.3054 -0.0073
# 2 -0.3555 36.5886 17.0202 0.0314 0.8215 -0.0157
# 3 18.2798 17.0202 84.7318 0.9008 -13.7259 -0.0657
# 4 0.1116 0.0314 0.9008 -61.4140 0.2614 0.9276
# 5 -9.3054 0.8215 -13.7259 0.2614 11.2395 -0.0179
# 6 -0.0073 -0.0157 -0.0657 0.9276 -0.0179 4.2521
#
#
#
# Elastic Compliance Matrix: (Units=1/GPa)
#
#
# Indices 1 2 3 4 5 6 
#
# 1 0.048102 0.002288 -0.005504 0.000150 0.032933 0.000111
# 2 0.002288 0.031604 -0.008611 -0.000153 -0.010927 -0.000025
# 3 -0.005504 -0.008611 0.017550 0.000321 0.017498 0.000233
# 4 0.000150 -0.000153 0.000321 -0.016221 0.000910 0.003547
# 5 0.032933 -0.010927 0.017498 0.000910 0.138385 0.000669
# 6 0.000111 -0.000025 0.000233 0.003547 0.000669 0.234409
#
#
# Mechanical properties :
#
#
# Convention : Reuss Voigt Hill
#
# Bulk Modulus (GPa) = 13.58616 24.49750 19.04183
# Shear Modulus (GPa) = 9.95982 -1.47487 4.24248
#
# Velocity S-wave (km/s) = 2.28497 -0.87929 1.49130
# Velocity P-wave (km/s) = 3.75280 3.43672 3.59823
#
# Compressibility (1/GPa) = 0.07360431
#
# Stress axis : x y z
#
# Youngs Moduli (GPa) = 20.78910 31.64155 56.97924
#
# Poissons Ratio (x) = -0.07240 0.31359
# Poissons Ratio (y) = -0.04757 0.49062
# Poissons Ratio (z) = 0.11441 0.27245
#
# Static dielectric constant tensor:
#      x y z
#    x 1.625280 0.000000 -0.010080 
#    y 0.000000 1.718000 0.000000 
#    z -0.010080 0.000000 1.747510 
# 
# From -- ./inp_files/33115.got.cif
#   From: 2010.05.17/outbox.cif.g08.bks.cpg/sg15_17_cif.got.tgz:33115.got - 2010.06.03 18:47:42.
