data_PCOD9254742
_publ_section_title
;
Structure prediction by ZEFSAII (Michael W. Deem and Ramdas Pophale) SiO2 
 PCOD9254742
Probable space group: C 2/C
;
_chemical_formula_sum "Si O2"
_cell_formula_units_Z 56
_cell_length_a 31.802729
_cell_length_b 12.498392
_cell_length_c 5.553669
_cell_angle_alpha 90.000000
_cell_angle_beta 90.055195
_cell_angle_gamma 90.000000
_cell_volume 2207.487845
_symmetry_space_group_name_H-M "C 2/C"
_symmetry_group_IT_number 15
_symmetry_cell_setting 'monoclinic'
loop_
_space_group_symop_operation_xyz
x,y,z
-x,y,1/2-z
-x,-y,-z
x,-y,1/2+z
1/2+x,1/2+y,z
1/2-x,1/2+y,1/2-z
1/2-x,1/2-y,-z
1/2+x,1/2-y,1/2+z
loop_
_atom_site_type_symbol
_atom_site_label
_atom_site_fract_x
_atom_site_fract_y
_atom_site_fract_z
Si Si1 0.124114 0.948664 0.573557
Si Si2 0.794250 0.065968 0.583748
Si Si3 0.000000 0.439344 0.750000
Si Si4 0.500000 0.761193 0.250000
Si Si5 0.299892 0.874926 0.490131
Si Si6 0.166821 0.376569 0.509909
Si Si7 0.928361 0.304340 0.929246
Si Si8 0.039414 0.113351 0.857900
O O1 0.161741 0.873915 0.474872
O O2 0.074759 0.929683 0.537359
O O3 0.130333 0.962950 0.858609
O O4 0.749993 0.122530 0.547749
O O5 0.794100 0.980517 0.356916
O O6 0.043086 0.372545 0.751887
O O7 0.000000 0.500000 0.500000
O O8 0.543974 0.814442 0.327245
O O9 0.488051 0.693756 0.482208
O O10 0.310038 0.831160 0.754542
O O11 0.319291 0.997540 0.500810
O O12 0.319395 0.828911 0.245684
O O13 0.117559 0.352432 0.544110
O O14 0.931870 0.182294 0.830318
O O15 0.000000 0.045726 0.750000
#
# Coordination Sequence:
#
# PCOD9254742 Si02
#       8
#     8   8   4   4   8   8   8   8
#     4  10  24  39  66 103 122 153 201 263 308 370
#     4  10  16  34  57  86 123 155 192 242 313 377
#     4  12  27  38  58  85 120 154 212 266 293 332
#     4  10  21  44  64  77 118 176 212 238 311 382
#     4  10  18  34  52  86 116 159 191 258 309 342
#     4  10  21  30  56  81 115 148 210 242 292 353
#     4  11  24  41  59  86 120 174 210 253 312 368
#     4  10  23  43  65  85 125 170 206 247 316 387
#
# _framework density 25.368203999999999
#
# number of rings (size 3 to 8) (size 9 to 14) (size 15 to 20)
#    0.000    1.714    5.000    0.429   10.000    0.571 
#    0.000    0.000    0.000    1.714    0.000    0.000 
#    0.000    0.000    0.000    0.000    0.000    0.000 
#
# Total GULP energy -156032.034319 kJ/mol
# GULP energy per Si atom -5572.572654 kJ/mol
# Density = 2.531047 g / cm^3
# Si number density = 25.368204 Si / 1000 Ang^3
#
#
#
# Elastic Constant Matrix: (Units=GPa)
#
#
# Indices 1 2 3 4 5 6 
#
# 1 205.0137 9.1666 32.2092 0.0000 -3.3005 0.0000
# 2 9.1666 38.3072 26.1014 0.0000 -1.8675 0.0000
# 3 32.2092 26.1014 189.9785 0.0000 10.1649 0.0000
# 4 0.0000 0.0000 0.0000 51.1722 0.0000 -26.8295
# 5 -3.3005 -1.8675 10.1649 0.0000 56.2562 0.0000
# 6 0.0000 0.0000 0.0000 -26.8295 0.0000 29.0081
#
#
#
# Elastic Compliance Matrix: (Units=1/GPa)
#
#
# Indices 1 2 3 4 5 6 
#
# 1 0.005037 -0.000649 -0.000787 0.000000 0.000416 0.000000
# 2 -0.000649 0.029044 -0.003968 0.000000 0.001643 0.000000
# 3 -0.000787 -0.003968 0.006010 0.000000 -0.001264 0.000000
# 4 0.000000 0.000000 0.000000 0.037940 0.000000 0.035090
# 5 0.000416 0.001643 -0.001264 0.000000 0.018083 0.000000
# 6 0.000000 0.000000 0.000000 0.035090 0.000000 0.066928
#
#
# Mechanical properties :
#
#
# Convention : Reuss Voigt Hill
#
# Bulk Modulus (GPa) = 34.14974 63.13931 48.64453
# Shear Modulus (GPa) = 27.23147 51.67546 39.45346
#
# Velocity S-wave (km/s) = 3.27991 4.51823 3.94792
# Velocity P-wave (km/s) = 5.27585 7.22235 6.32443
#
# Compressibility (1/GPa) = 0.02928280
#
# Stress axis : x y z
#
# Youngs Moduli (GPa) = 198.52718 34.43050 166.38815
#
# Poissons Ratio (x) = 0.02234 0.13097
# Poissons Ratio (y) = 0.12879 0.66028
# Poissons Ratio (z) = 0.15627 0.13663
#
# Static dielectric constant tensor:
#      x y z
#    x 2.021620 0.000000 0.106780 
#    y 0.000000 2.392210 0.000000 
#    z 0.106780 0.000000 1.962320 
# 
# From -- ./inp_files/18225.got.cif
#   From: 2010.05.17/outbox.cif.g08.bks.cpg/sg15_10_cif.got.tgz:18225.got - 2010.06.03 18:47:42.
