data_PCOD9254945
_publ_section_title
;
Structure prediction by ZEFSAII (Michael W. Deem and Ramdas Pophale) SiO2 
 PCOD9254945
Probable space group: C 2/C
;
_chemical_formula_sum "Si O2"
_cell_formula_units_Z 60
_cell_length_a 17.765768
_cell_length_b 7.582175
_cell_length_c 21.378501
_cell_angle_alpha 90.000000
_cell_angle_beta 52.591637
_cell_angle_gamma 90.000000
_cell_volume 2287.461516
_symmetry_space_group_name_H-M "C 2/C"
_symmetry_group_IT_number 15
_symmetry_cell_setting 'monoclinic'
loop_
_space_group_symop_operation_xyz
x,y,z
-x,y,1/2-z
-x,-y,-z
x,-y,1/2+z
1/2+x,1/2+y,z
1/2-x,1/2+y,1/2-z
1/2-x,1/2-y,-z
1/2+x,1/2-y,1/2+z
loop_
_atom_site_type_symbol
_atom_site_label
_atom_site_fract_x
_atom_site_fract_y
_atom_site_fract_z
Si Si1 0.399268 0.771173 0.067106
Si Si2 0.202663 0.119889 0.612483
Si Si3 0.500000 0.593762 0.750000
Si Si4 0.046532 0.490565 0.658892
Si Si5 0.259738 0.561926 0.530029
Si Si6 0.751855 0.253309 0.340709
Si Si7 0.062681 0.664138 0.393523
Si Si8 0.561535 0.689139 0.320682
O O1 0.405574 0.651067 0.125629
O O2 0.297747 0.773679 0.083307
O O3 0.416948 0.971007 0.085254
O O4 0.486974 0.740115 0.976433
O O5 0.099910 0.187990 0.686282
O O6 0.192943 0.065121 0.544719
O O7 0.222563 0.933321 0.638802
O O8 0.473531 0.468901 0.704682
O O9 0.157725 0.475927 0.594313
O O10 0.000000 0.511523 0.750000
O O11 0.987551 0.355964 0.647079
O O12 0.026211 0.678164 0.634479
O O13 0.250000 0.750000 0.500000
O O14 0.289677 0.620759 0.584262
O O15 0.667435 0.239864 0.334197
O O16 0.850454 0.293024 0.256638
#
# Coordination Sequence:
#
# PCOD9254945 Si02
#       8
#     8   8   4   8   8   8   8   8
#     4   9  17  27  42  64  96 131 160 197 246 293
#     4   9  17  28  40  66  98 129 160 200 244 298
#     4  10  18  28  44  70 102 126 164 200 252 288
#     4  11  17  28  43  69  99 133 160 204 248 293
#     4  10  17  25  42  64 103 128 159 202 250 292
#     4   9  17  27  38  65  95 130 158 199 242 292
#     4   9  18  27  41  64  99 129 166 194 247 298
#     4  10  17  26  42  66  95 128 160 197 243 293
#
# _framework density 26.229949000000001
#
# number of rings (size 3 to 8) (size 9 to 14) (size 15 to 20)
#    0.000    2.400    3.333    1.600    7.467    0.000 
#    0.000    0.000    0.000    0.000    1.733    3.733 
#    0.000    0.133    0.000    0.000    0.000    0.000 
#
# Total GULP energy -167864.833716 kJ/mol
# GULP energy per Si atom -5595.494457 kJ/mol
# Density = 2.617025 g / cm^3
# Si number density = 26.229949 Si / 1000 Ang^3
#
#
#
# Elastic Constant Matrix: (Units=GPa)
#
#
# Indices 1 2 3 4 5 6 
#
# 1 163.0787 9.2381 62.1826 0.0002 -12.4195 0.0011
# 2 9.2381 66.5047 11.1778 0.0005 -3.6238 0.0022
# 3 62.1826 11.1778 111.6190 0.0000 -11.9521 0.0000
# 4 0.0002 0.0005 0.0000 31.5424 0.0000 -6.3479
# 5 -12.4195 -3.6238 -11.9521 0.0000 52.0990 0.0001
# 6 0.0011 0.0022 0.0000 -6.3479 0.0001 19.5918
#
#
#
# Elastic Compliance Matrix: (Units=1/GPa)
#
#
# Indices 1 2 3 4 5 6 
#
# 1 0.007833 -0.000328 -0.004237 0.000000 0.000872 0.000000
# 2 -0.000328 0.015335 -0.001278 -0.000001 0.000695 -0.000002
# 3 -0.004237 -0.001278 0.011615 0.000000 0.001566 0.000000
# 4 0.000000 -0.000001 0.000000 0.033915 0.000000 0.010989
# 5 0.000872 0.000695 0.001566 0.000000 0.019810 0.000000
# 6 0.000000 -0.000002 0.000000 0.010989 0.000000 0.054602
#
#
# Mechanical properties :
#
#
# Convention : Reuss Voigt Hill
#
# Bulk Modulus (GPa) = 43.29945 56.26662 49.78303
# Shear Modulus (GPa) = 30.77000 37.88689 34.32844
#
# Velocity S-wave (km/s) = 3.42875 3.80467 3.62159
# Velocity P-wave (km/s) = 5.67614 6.38737 6.04223
#
# Compressibility (1/GPa) = 0.02309498
#
# Stress axis : x y z
#
# Youngs Moduli (GPa) = 127.66919 65.21080 86.09320
#
# Poissons Ratio (x) = 0.02141 0.36480
# Poissons Ratio (y) = 0.04192 0.11006
# Poissons Ratio (z) = 0.54098 0.08336
#
# Static dielectric constant tensor:
#      x y z
#    x 2.036840 0.000000 0.042460 
#    y 0.000000 2.230590 0.000000 
#    z 0.042460 0.000000 1.975390 
# 
# From -- ./inp_files/244182.got.cif
#   From: 2010.05.17/outbox.cif.g08.bks.cpg/sg15_123_cif.got.tgz:244182.got - 2010.06.03 18:47:42.
