data_PCOD9254187
_publ_section_title
;
Structure prediction by ZEFSAII (Michael W. Deem and Ramdas Pophale) SiO2 
 PCOD9254187
Probable space group: C 2/C
;
_chemical_formula_sum "Si O2"
_cell_formula_units_Z 56
_cell_length_a 17.819819
_cell_length_b 17.843063
_cell_length_c 9.189929
_cell_angle_alpha 90.000000
_cell_angle_beta 119.655058
_cell_angle_gamma 90.000000
_cell_volume 2539.303224
_symmetry_space_group_name_H-M "C 2/C"
_symmetry_group_IT_number 15
_symmetry_cell_setting 'monoclinic'
loop_
_space_group_symop_operation_xyz
x,y,z
-x,y,1/2-z
-x,-y,-z
x,-y,1/2+z
1/2+x,1/2+y,z
1/2-x,1/2+y,1/2-z
1/2-x,1/2-y,-z
1/2+x,1/2-y,1/2+z
loop_
_atom_site_type_symbol
_atom_site_label
_atom_site_fract_x
_atom_site_fract_y
_atom_site_fract_z
Si Si1 0.000000 0.518282 0.250000
Si Si2 0.838597 0.147826 0.454992
Si Si3 0.500000 0.436018 0.250000
Si Si4 0.641451 0.465964 0.784543
Si Si5 0.420327 0.904185 0.391029
Si Si6 0.072413 0.757547 0.666506
Si Si7 0.894342 0.163096 0.023778
Si Si8 0.263464 0.381004 0.160203
O O1 0.935459 0.464555 0.278791
O O2 0.043442 0.566483 0.419862
O O3 0.923865 0.115530 0.616592
O O4 0.828444 0.088413 0.314900
O O5 0.863089 0.224824 0.402070
O O6 0.762622 0.154050 0.498339
O O7 0.449920 0.490276 0.314817
O O8 0.627557 0.414930 0.914644
O O9 0.708997 0.533443 0.852213
O O10 0.462909 0.825579 0.384121
O O11 0.320751 0.886574 0.323454
O O12 0.119775 0.773792 0.864947
O O13 0.994890 0.819353 0.584130
O O14 0.836360 0.161056 0.825598
#
# Coordination Sequence:
#
# PCOD9254187 Si02
#       8
#     4   8   4   8   8   8   8   8
#     4  10  26  51  73  98 112 170 226 278 338 390
#     4  10  20  31  52  88 130 171 210 259 318 388
#     4  10  16  27  49  82 126 174 224 248 300 384
#     4  10  19  32  54  90 128 179 210 264 315 375
#     4  11  26  47  74  95 126 166 222 285 331 392
#     4  10  21  42  62  91 137 179 221 253 321 404
#     4  10  21  37  63  93 134 182 217 264 316 393
#     4  11  23  36  61  99 133 169 218 275 329 371
#
# _framework density 22.053294000000001
#
# number of rings (size 3 to 8) (size 9 to 14) (size 15 to 20)
#    0.000    1.714    0.000    6.429    4.000    2.857 
#    0.000    0.000    0.000    0.000    0.000    0.000 
#    0.000    0.000    0.000    0.000    0.000    0.000 
#
# Total GULP energy -156217.118916 kJ/mol
# GULP energy per Si atom -5579.182818 kJ/mol
# Density = 2.200310 g / cm^3
# Si number density = 22.053294 Si / 1000 Ang^3
#
#
#
# Elastic Constant Matrix: (Units=GPa)
#
#
# Indices 1 2 3 4 5 6 
#
# 1 87.9287 8.7737 22.3523 0.0000 -24.0007 0.0000
# 2 8.7737 101.3058 31.5752 0.0000 -7.6528 0.0000
# 3 22.3523 31.5752 75.9267 0.0000 -32.7529 0.0000
# 4 0.0000 0.0000 0.0000 11.1822 0.0000 -5.7215
# 5 -24.0007 -7.6528 -32.7529 0.0000 27.4390 0.0000
# 6 0.0000 0.0000 0.0000 -5.7215 0.0000 17.8243
#
#
#
# Elastic Compliance Matrix: (Units=1/GPa)
#
#
# Indices 1 2 3 4 5 6 
#
# 1 0.015279 -0.001057 0.003256 0.000000 0.016956 0.000000
# 2 -0.001057 0.011769 -0.007352 0.000000 -0.006418 0.000000
# 3 0.003256 -0.007352 0.032187 0.000000 0.039218 0.000000
# 4 0.000000 0.000000 0.000000 0.107001 0.000000 0.034347
# 5 0.016956 -0.006418 0.039218 0.000000 0.096299 0.000000
# 6 0.000000 0.000000 0.000000 0.034347 0.000000 0.067128
#
#
# Mechanical properties :
#
#
# Convention : Reuss Voigt Hill
#
# Bulk Modulus (GPa) = 20.43742 43.39597 31.91670
# Shear Modulus (GPa) = 14.03394 24.78643 19.41018
#
# Velocity S-wave (km/s) = 2.52536 3.35615 2.96995
# Velocity P-wave (km/s) = 4.21790 5.89396 5.12491
#
# Compressibility (1/GPa) = 0.04892985
#
# Stress axis : x y z
#
# Youngs Moduli (GPa) = 65.44968 84.96748 31.06852
#
# Poissons Ratio (x) = 0.08983 -0.10116
# Poissons Ratio (y) = 0.06920 0.22840
# Poissons Ratio (z) = -0.21311 0.62464
#
# Static dielectric constant tensor:
#      x y z
#    x 1.860540 0.000000 -0.026380 
#    y 0.000000 1.840020 0.000000 
#    z -0.026380 0.000000 1.821330 
# 
# From -- ./inp_files/49189.got.cif
#   From: 2010.05.17/outbox.cif.g08.bks.cpg/sg15_25_cif.got.tgz:49189.got - 2010.06.03 18:47:42.
