data_PCOD9254092
_publ_section_title
;
Structure prediction by ZEFSAII (Michael W. Deem and Ramdas Pophale) SiO2 
 PCOD9254092
Probable space group: C 2/C
;
_chemical_formula_sum "Si O2"
_cell_formula_units_Z 40
_cell_length_a 6.832440
_cell_length_b 26.787279
_cell_length_c 9.660243
_cell_angle_alpha 90.000000
_cell_angle_beta 104.293346
_cell_angle_gamma 90.000000
_cell_volume 1713.310827
_symmetry_space_group_name_H-M "C 2/C"
_symmetry_group_IT_number 15
_symmetry_cell_setting 'monoclinic'
loop_
_space_group_symop_operation_xyz
x,y,z
-x,y,1/2-z
-x,-y,-z
x,-y,1/2+z
1/2+x,1/2+y,z
1/2-x,1/2+y,1/2-z
1/2-x,1/2-y,-z
1/2+x,1/2-y,1/2+z
loop_
_atom_site_type_symbol
_atom_site_label
_atom_site_fract_x
_atom_site_fract_y
_atom_site_fract_z
Si Si1 0.989257 0.711465 0.417511
Si Si2 0.936297 0.179219 0.582344
Si Si3 0.340512 0.109851 0.428460
Si Si4 0.850529 0.483673 0.094662
Si Si5 0.703703 0.412531 0.603904
O O1 0.838943 0.669174 0.447328
O O2 0.000000 0.705040 0.250000
O O3 0.945314 0.769650 0.433482
O O4 0.203780 0.698451 0.526794
O O5 0.937096 0.129769 0.488127
O O6 0.000000 0.165975 0.750000
O O7 0.286198 0.071826 0.541124
O O8 0.575269 0.099257 0.424774
O O9 0.219435 0.096160 0.269768
O O10 0.686359 0.527769 0.080967
O O11 0.000000 0.482333 0.250000
O O12 0.000000 0.500000 0.000000
#
# Coordination Sequence:
#
# PCOD9254092 Si02
#       5
#     8   8   8   8   8
#     4   9  14  25  39  61  87 112 140 178 224 256
#     4   9  16  22  38  61  91 112 138 179 223 256
#     4   9  14  24  41  59  86 110 137 178 218 254
#     4  10  16  25  42  67  89 109 141 186 221 248
#     4   9  14  25  37  60  88 111 136 174 223 256
#
# _framework density 23.346609000000001
#
# number of rings (size 3 to 8) (size 9 to 14) (size 15 to 20)
#    0.000    2.800    8.000    0.000    0.000    0.000 
#    0.000    0.000    0.000    1.200    0.000    1.400 
#    0.000    0.000    0.000    0.000    0.000    0.000 
#
# Total GULP energy -111522.677961 kJ/mol
# GULP energy per Si atom -5576.133898 kJ/mol
# Density = 2.329347 g / cm^3
# Si number density = 23.346609 Si / 1000 Ang^3
#
#
#
# Elastic Constant Matrix: (Units=GPa)
#
#
# Indices 1 2 3 4 5 6 
#
# 1 43.3627 48.5952 18.6680 0.0000 15.6716 0.0000
# 2 48.5952 268.5492 101.3126 0.0000 1.9696 0.0000
# 3 18.6680 101.3126 172.1053 0.0000 -2.3727 0.0000
# 4 0.0000 0.0000 0.0000 49.3813 0.0000 3.2630
# 5 15.6716 1.9696 -2.3727 0.0000 12.7492 0.0000
# 6 0.0000 0.0000 0.0000 3.2630 0.0000 44.5788
#
#
#
# Elastic Compliance Matrix: (Units=1/GPa)
#
#
# Indices 1 2 3 4 5 6 
#
# 1 0.062401 -0.010016 -0.001914 0.000000 -0.075513 0.000000
# 2 -0.010016 0.006415 -0.002540 0.000000 0.010848 0.000000
# 3 -0.001914 -0.002540 0.007571 0.000000 0.004154 0.000000
# 4 0.000000 0.000000 0.000000 0.020349 0.000000 -0.001489
# 5 -0.075513 0.010848 0.004154 0.000000 0.170356 0.000000
# 6 0.000000 0.000000 0.000000 -0.001489 0.000000 0.022541
#
#
# Mechanical properties :
#
#
# Convention : Reuss Voigt Hill
#
# Bulk Modulus (GPa) = 21.07625 91.24097 56.15861
# Shear Modulus (GPa) = 14.95268 42.37129 28.66199
#
# Velocity S-wave (km/s) = 2.53349 4.26476 3.50762
# Velocity P-wave (km/s) = 4.19586 7.96347 6.36483
#
# Compressibility (1/GPa) = 0.04744678
#
# Stress axis : x y z
#
# Youngs Moduli (GPa) = 16.02543 155.88628 132.09011
#
# Poissons Ratio (x) = 1.56136 0.25276
# Poissons Ratio (y) = 0.16051 0.33555
# Poissons Ratio (z) = 0.03066 0.39599
#
# Static dielectric constant tensor:
#      x y z
#    x 1.954110 0.000000 0.031080 
#    y 0.000000 1.994010 0.000000 
#    z 0.031080 0.000000 1.804800 
# 
# From -- ./inp_files/81009.got.cif
#   From: 2010.05.17/outbox.cif.g08.bks.cpg/sg15_41_cif.got.tgz:81009.got - 2010.06.03 18:47:42.
