data_PCOD9254918
_publ_section_title
;
Structure prediction by ZEFSAII (Michael W. Deem and Ramdas Pophale) SiO2 
 PCOD9254918
Probable space group: C 2/C
;
_chemical_formula_sum "Si O2"
_cell_formula_units_Z 48
_cell_length_a 11.120151
_cell_length_b 12.995861
_cell_length_c 26.343874
_cell_angle_alpha 90.000000
_cell_angle_beta 144.718154
_cell_angle_gamma 90.000000
_cell_volume 2198.982731
_symmetry_space_group_name_H-M "C 2/C"
_symmetry_group_IT_number 15
_symmetry_cell_setting 'monoclinic'
loop_
_space_group_symop_operation_xyz
x,y,z
-x,y,1/2-z
-x,-y,-z
x,-y,1/2+z
1/2+x,1/2+y,z
1/2-x,1/2+y,1/2-z
1/2-x,1/2-y,-z
1/2+x,1/2-y,1/2+z
loop_
_atom_site_type_symbol
_atom_site_label
_atom_site_fract_x
_atom_site_fract_y
_atom_site_fract_z
Si Si1 0.449306 0.680577 0.081875
Si Si2 0.334066 0.673879 0.737188
Si Si3 0.153191 0.003521 0.608907
Si Si4 0.534001 0.063934 0.693302
Si Si5 0.860865 0.200297 0.158789
Si Si6 0.516623 0.286323 0.414037
O O1 0.668142 0.739635 0.163336
O O2 0.504340 0.593081 0.061281
O O3 0.386193 0.639614 0.115615
O O4 0.250000 0.750000 0.000000
O O5 0.500000 0.659202 0.750000
O O6 0.179368 0.577845 0.694884
O O7 0.438486 0.702705 0.828120
O O8 0.681222 0.997087 0.379852
O O9 0.312674 0.014642 0.711971
O O10 0.017829 0.104695 0.570322
O O11 0.457112 0.182548 0.681039
O O12 0.636501 0.213806 0.106047
O O13 0.000000 0.152142 0.250000
O O14 0.750000 0.250000 0.500000
#
# Coordination Sequence:
#
# PCOD9254918 Si02
#       6
#     8   8   8   8   8   8
#     4  11  24  37  59  97 134 165 207 272 327 377
#     4  10  21  38  62  94 129 166 208 275 331 373
#     4   9  17  37  63  91 123 161 220 264 307 393
#     4   8  15  36  66  82 115 165 212 256 314 377
#     4  10  16  40  64  82 119 174 211 255 319 386
#     4  10  20  39  67  88 116 173 222 259 314 392
#
# _framework density 21.828274
#
# number of rings (size 3 to 8) (size 9 to 14) (size 15 to 20)
#    0.000    2.333    6.667    0.000    4.667    0.000 
#    0.000   16.667    0.000    0.000    0.000    0.000 
#    0.000    0.000    0.000    0.000    0.000    0.000 
#
# Total GULP energy -133763.971776 kJ/mol
# GULP energy per Si atom -5573.498824 kJ/mol
# Density = 2.177859 g / cm^3
# Si number density = 21.828274 Si / 1000 Ang^3
#
#
#
# Elastic Constant Matrix: (Units=GPa)
#
#
# Indices 1 2 3 4 5 6 
#
# 1 213.4984 28.3497 68.7747 0.0000 44.2809 0.0000
# 2 28.3497 33.1261 35.7876 0.0000 25.4052 0.0000
# 3 68.7747 35.7876 128.1510 0.0001 26.9066 0.0000
# 4 0.0000 0.0000 0.0001 22.4529 0.0000 8.2919
# 5 44.2809 25.4052 26.9066 0.0000 46.7798 0.0000
# 6 0.0000 0.0000 0.0000 8.2919 0.0000 27.9655
#
#
#
# Elastic Compliance Matrix: (Units=1/GPa)
#
#
# Indices 1 2 3 4 5 6 
#
# 1 0.006494 0.001623 -0.002801 0.000000 -0.005418 0.000000
# 2 0.001623 0.065554 -0.012944 0.000000 -0.029693 0.000000
# 3 -0.002801 -0.012944 0.012384 0.000000 0.002558 0.000000
# 4 0.000000 0.000000 0.000000 0.050014 0.000000 -0.014830
# 5 -0.005418 -0.029693 0.002558 0.000000 0.041160 0.000000
# 6 0.000000 0.000000 0.000000 -0.014830 0.000000 0.040155
#
#
# Mechanical properties :
#
#
# Convention : Reuss Voigt Hill
#
# Bulk Modulus (GPa) = 17.79681 71.17772 44.48726
# Shear Modulus (GPa) = 19.03063 35.56389 27.29726
#
# Velocity S-wave (km/s) = 2.95589 4.04079 3.54014
# Velocity P-wave (km/s) = 4.45202 7.37899 6.09385
#
# Compressibility (1/GPa) = 0.05618986
#
# Stress axis : x y z
#
# Youngs Moduli (GPa) = 153.97988 15.25460 80.74829
#
# Poissons Ratio (x) = -0.02476 0.22618
# Poissons Ratio (y) = -0.24996 1.04517
# Poissons Ratio (z) = 0.43131 0.19745
#
# Static dielectric constant tensor:
#      x y z
#    x 1.858570 0.000000 -0.047730 
#    y 0.000000 1.861880 0.000000 
#    z -0.047730 0.000000 1.822250 
# 
# From -- ./inp_files/293135.got.cif
#   From: 2010.05.17/outbox.cif.g08.bks.cpg/sg15_147_cif.got.tgz:293135.got - 2010.06.03 18:47:42.
