data_PCOD9254713
_publ_section_title
;
Structure prediction by ZEFSAII (Michael W. Deem and Ramdas Pophale) SiO2 
 PCOD9254713
Probable space group: C 2/C
;
_chemical_formula_sum "Si O2"
_cell_formula_units_Z 52
_cell_length_a 14.611735
_cell_length_b 7.289805
_cell_length_c 21.254083
_cell_angle_alpha 90.000000
_cell_angle_beta 89.079746
_cell_angle_gamma 90.000000
_cell_volume 2263.622753
_symmetry_space_group_name_H-M "C 2/C"
_symmetry_group_IT_number 15
_symmetry_cell_setting 'monoclinic'
loop_
_space_group_symop_operation_xyz
x,y,z
-x,y,1/2-z
-x,-y,-z
x,-y,1/2+z
1/2+x,1/2+y,z
1/2-x,1/2+y,1/2-z
1/2-x,1/2-y,-z
1/2+x,1/2-y,1/2+z
loop_
_atom_site_type_symbol
_atom_site_label
_atom_site_fract_x
_atom_site_fract_y
_atom_site_fract_z
Si Si1 0.501650 0.154997 0.588912
Si Si2 0.500000 0.465341 0.250000
Si Si3 0.652781 0.052650 0.816365
Si Si4 0.377121 0.355457 0.153614
Si Si5 0.167307 0.406206 0.170936
Si Si6 0.515474 0.273124 0.047223
Si Si7 0.851838 0.162129 0.853377
O O1 0.410328 0.151892 0.631576
O O2 0.588063 0.194796 0.632795
O O3 0.494261 0.279645 0.527335
O O4 0.516117 0.944677 0.565080
O O5 0.416932 0.506985 0.201034
O O6 0.566711 0.388761 0.194714
O O7 0.652607 0.126822 0.745256
O O8 0.757738 0.059444 0.838781
O O9 0.610339 0.846585 0.814674
O O10 0.269010 0.362487 0.148131
O O11 0.430149 0.352764 0.087348
O O12 0.162204 0.623284 0.159629
O O13 0.607576 0.355624 0.076823
#
# Coordination Sequence:
#
# PCOD9254713 Si02
#       7
#     8   4   8   8   8   8   8
#     4   9  19  32  55  73 108 132 185 205 246 302
#     4  10  16  34  50  74  94 142 158 208 236 320
#     4  11  19  33  53  83 101 138 165 220 253 309
#     4  10  20  32  58  73 108 129 177 208 260 298
#     4  11  19  33  53  83 101 138 165 220 253 309
#     4   8  18  36  51  78  95 149 174 208 243 311
#     4  10  20  32  58  73 108 129 177 208 260 298
#
# _framework density 22.972026
#
# number of rings (size 3 to 8) (size 9 to 14) (size 15 to 20)
#    0.000    2.154    3.077    1.385    0.000    1.231 
#    0.000    3.077    0.000    1.846    0.000    0.000 
#    0.000    0.000    0.000    0.000    0.000    0.000 
#
# Total GULP energy -145095.028175 kJ/mol
# GULP energy per Si atom -5580.578007 kJ/mol
# Density = 2.291974 g / cm^3
# Si number density = 22.972026 Si / 1000 Ang^3
#
#
#
# Elastic Constant Matrix: (Units=GPa)
#
#
# Indices 1 2 3 4 5 6 
#
# 1 164.9334 11.1172 88.6968 0.0000 10.8788 0.0000
# 2 11.1172 67.5094 32.8100 0.0000 1.1844 0.0000
# 3 88.6968 32.8100 144.6019 0.0000 15.5129 0.0000
# 4 0.0000 0.0000 0.0000 18.2242 0.0000 -0.6274
# 5 10.8788 1.1844 15.5129 0.0000 27.7120 0.0000
# 6 0.0000 0.0000 0.0000 -0.6274 0.0000 -6.7968
#
#
#
# Elastic Compliance Matrix: (Units=1/GPa)
#
#
# Indices 1 2 3 4 5 6 
#
# 1 0.009163 0.001360 -0.005891 0.000000 -0.000358 0.000000
# 2 0.001360 0.016909 -0.004826 0.000000 0.001445 0.000000
# 3 -0.005891 -0.004826 0.012079 0.000000 -0.004243 0.000000
# 4 0.000000 0.000000 0.000000 0.054698 0.000000 -0.005049
# 5 -0.000358 0.001445 -0.004243 0.000000 0.038539 0.000000
# 6 0.000000 0.000000 0.000000 -0.005049 0.000000 -0.146662
#
#
# Mechanical properties :
#
#
# Convention : Reuss Voigt Hill
#
# Bulk Modulus (GPa) = 51.44576 71.36586 61.40581
# Shear Modulus (GPa) = 504.11625 24.12259 264.11942
#
# Velocity S-wave (km/s) = 14.82984 3.24402 10.73424
# Velocity P-wave (km/s) = 17.76727 6.72052 13.43208
#
# Compressibility (1/GPa) = 0.01943795
#
# Stress axis : x y z
#
# Youngs Moduli (GPa) = 109.13755 59.14064 82.78880
#
# Poissons Ratio (x) = -0.08045 0.48767
# Poissons Ratio (y) = -0.14845 0.39954
# Poissons Ratio (z) = 0.64288 0.28541
#
# Static dielectric constant tensor:
#      x y z
#    x 1.813500 0.000000 0.058830 
#    y 0.000000 1.969830 0.000000 
#    z 0.058830 0.000000 1.822810 
# 
# From -- ./inp_files/242480.got.cif
#   From: 2010.05.17/outbox.cif.g08.bks.cpg/sg15_122_cif.got.tgz:242480.got - 2010.06.03 18:47:42.
