data_PCOD9254743
_publ_section_title
;
Structure prediction by ZEFSAII (Michael W. Deem and Ramdas Pophale) SiO2 
 PCOD9254743
Probable space group: C 2/C
;
_chemical_formula_sum "Si O2"
_cell_formula_units_Z 60
_cell_length_a 17.657735
_cell_length_b 11.266678
_cell_length_c 11.755036
_cell_angle_alpha 90.000000
_cell_angle_beta 98.963668
_cell_angle_gamma 90.000000
_cell_volume 2310.033596
_symmetry_space_group_name_H-M "C 2/C"
_symmetry_group_IT_number 15
_symmetry_cell_setting 'monoclinic'
loop_
_space_group_symop_operation_xyz
x,y,z
-x,y,1/2-z
-x,-y,-z
x,-y,1/2+z
1/2+x,1/2+y,z
1/2-x,1/2+y,1/2-z
1/2-x,1/2-y,-z
1/2+x,1/2-y,1/2+z
loop_
_atom_site_type_symbol
_atom_site_label
_atom_site_fract_x
_atom_site_fract_y
_atom_site_fract_z
Si Si1 0.003177 0.658609 0.617213
Si Si2 0.759488 0.106670 0.992290
Si Si3 0.576226 0.599167 0.362201
Si Si4 0.115838 0.595442 0.094267
Si Si5 0.858373 0.211628 0.353854
Si Si6 0.000000 0.645029 0.250000
Si Si7 0.703719 0.315426 0.223156
Si Si8 0.088324 0.854082 0.391872
O O1 0.970994 0.793995 0.593824
O O2 0.944197 0.590170 0.524340
O O3 0.000000 0.639408 0.750000
O O4 0.093347 0.666316 0.613688
O O5 0.758874 0.090363 0.855871
O O6 0.750000 0.250000 0.000000
O O7 0.843592 0.084773 0.056005
O O8 0.694407 0.046995 0.054839
O O9 0.600796 0.642032 0.241249
O O10 0.536875 0.472007 0.370035
O O11 0.146790 0.726011 0.142442
O O12 0.062720 0.570838 0.192647
O O13 0.772909 0.240631 0.294522
O O14 0.869106 0.151765 0.477662
O O15 0.957868 0.734217 0.150840
O O16 0.651820 0.369203 0.308622
#
# Coordination Sequence:
#
# PCOD9254743 Si02
#       8
#     8   8   8   8   8   4   8   8
#     4  10  19  31  51  80 112 144 189 220 265 321
#     4  10  16  34  58  73 104 147 194 225 252 326
#     4  11  22  34  52  86 115 151 183 220 281 330
#     4  10  17  35  55  75 106 146 195 224 259 320
#     4  11  21  37  53  78 113 150 191 225 270 326
#     4  10  22  36  48  82 116 154 178 212 284 330
#     4  10  20  37  56  75 108 153 194 229 266 324
#     4  11  25  34  53  80 123 149 176 230 278 337
#
# _framework density 25.973647
#
# number of rings (size 3 to 8) (size 9 to 14) (size 15 to 20)
#    0.000    1.600    6.667    1.200    4.667    0.533 
#    0.000    0.000    0.000    0.000    0.000    0.933 
#    6.000    0.000    0.000    0.000    0.000    0.000 
#
# Total GULP energy -167593.000184 kJ/mol
# GULP energy per Si atom -5586.433339 kJ/mol
# Density = 2.591453 g / cm^3
# Si number density = 25.973647 Si / 1000 Ang^3
#
#
#
# Elastic Constant Matrix: (Units=GPa)
#
#
# Indices 1 2 3 4 5 6 
#
# 1 112.9754 20.1709 30.9408 0.0000 -0.9958 0.0000
# 2 20.1709 57.2747 3.2349 0.0000 7.5440 0.0000
# 3 30.9408 3.2349 132.6089 0.0000 13.3420 0.0000
# 4 0.0000 0.0000 0.0000 -11.5106 0.0000 -35.6012
# 5 -0.9958 7.5440 13.3420 0.0000 65.6464 0.0000
# 6 0.0000 0.0000 0.0000 -35.6012 0.0000 -3.2731
#
#
#
# Elastic Compliance Matrix: (Units=1/GPa)
#
#
# Indices 1 2 3 4 5 6 
#
# 1 0.010154 -0.003579 -0.002387 0.000000 0.001051 0.000000
# 2 -0.003579 0.018997 0.000609 0.000000 -0.002361 0.000000
# 3 -0.002387 0.000609 0.008263 0.000000 -0.001786 0.000000
# 4 0.000000 0.000000 0.000000 0.002662 0.000000 -0.028949
# 5 0.001051 -0.002361 -0.001786 0.000000 0.015883 0.000000
# 6 0.000000 0.000000 0.000000 -0.028949 0.000000 0.009360
#
#
# Mechanical properties :
#
#
# Convention : Reuss Voigt Hill
#
# Bulk Modulus (GPa) = 37.45569 45.72802 41.59186
# Shear Modulus (GPa) = 58.87006 26.74004 42.80505
#
# Velocity S-wave (km/s) = 4.76597 3.21207 4.06398
# Velocity P-wave (km/s) = 6.68864 5.60360 6.17002
#
# Compressibility (1/GPa) = 0.02669821
#
# Stress axis : x y z
#
# Youngs Moduli (GPa) = 98.48636 52.64017 121.02411
#
# Poissons Ratio (x) = 0.18842 0.28894
# Poissons Ratio (y) = 0.35253 -0.07374
# Poissons Ratio (z) = 0.23513 -0.03207
#
# Static dielectric constant tensor:
#      x y z
#    x 2.031330 0.000000 -0.072980 
#    y 0.000000 2.188580 0.000000 
#    z -0.072980 0.000000 1.893390 
# 
# From -- ./inp_files/105387.got.cif
#   From: 2010.05.17/outbox.cif.g08.bks.cpg/sg15_53_cif.got.tgz:105387.got - 2010.06.03 18:47:42.
