data_PCOD9254873
_publ_section_title
;
Structure prediction by ZEFSAII (Michael W. Deem and Ramdas Pophale) SiO2 
 PCOD9254873
Probable space group: C 2/C
;
_chemical_formula_sum "Si O2"
_cell_formula_units_Z 44
_cell_length_a 19.985303
_cell_length_b 12.942385
_cell_length_c 26.647442
_cell_angle_alpha 90.000000
_cell_angle_beta 160.854678
_cell_angle_gamma 90.000000
_cell_volume 2260.520404
_symmetry_space_group_name_H-M "C 2/C"
_symmetry_group_IT_number 15
_symmetry_cell_setting 'monoclinic'
loop_
_space_group_symop_operation_xyz
x,y,z
-x,y,1/2-z
-x,-y,-z
x,-y,1/2+z
1/2+x,1/2+y,z
1/2-x,1/2+y,1/2-z
1/2-x,1/2-y,-z
1/2+x,1/2-y,1/2+z
loop_
_atom_site_type_symbol
_atom_site_label
_atom_site_fract_x
_atom_site_fract_y
_atom_site_fract_z
Si Si1 0.443645 0.921607 0.818074
Si Si2 0.636707 0.653385 0.893467
Si Si3 0.954572 0.017669 0.579886
Si Si4 0.000000 0.549604 0.250000
Si Si5 0.808180 0.128968 0.841558
Si Si6 0.887892 0.183666 0.353035
O O1 0.318571 0.844385 0.763672
O O2 0.442585 0.889587 0.759172
O O3 0.330498 0.031515 0.740724
O O4 0.681470 0.919290 0.999359
O O5 0.500000 0.682828 0.750000
O O6 0.516099 0.589646 0.850783
O O7 0.750000 0.750000 0.000000
O O8 0.029893 0.082525 0.584320
O O9 0.712203 0.991872 0.410323
O O10 0.069737 0.909374 0.656005
O O11 0.660705 0.211178 0.710193
O O12 0.933598 0.175269 0.977958
#
# Coordination Sequence:
#
# PCOD9254873 Si02
#       6
#     8   8   8   4   8   8
#     4  10  21  39  65  86 124 165 210 256 307 370
#     4  11  26  39  63  95 128 159 209 260 325 368
#     4  10  21  39  65  86 124 165 210 256 307 370
#     4  10  16  36  66  82 112 158 208 248 304 354
#     4  11  22  39  63  93 124 167 215 251 313 375
#     4  11  22  39  63  93 124 167 215 251 313 375
#
# _framework density 19.464544
#
# number of rings (size 3 to 8) (size 9 to 14) (size 15 to 20)
#    0.000    1.455    3.636    2.182    5.091    5.818 
#    0.000    7.273    4.000    0.000    0.000    0.000 
#    0.000    0.000    0.000    0.000    0.000    0.000 
#
# Total GULP energy -122599.074044 kJ/mol
# GULP energy per Si atom -5572.685184 kJ/mol
# Density = 1.942024 g / cm^3
# Si number density = 19.464544 Si / 1000 Ang^3
#
#
#
# Elastic Constant Matrix: (Units=GPa)
#
#
# Indices 1 2 3 4 5 6 
#
# 1 120.8138 57.2627 54.2530 -0.0031 -1.6246 0.0017
# 2 57.2627 101.9704 50.7327 0.0253 -13.4868 0.0012
# 3 54.2530 50.7327 98.1139 0.0200 -10.3307 0.0005
# 4 -0.0031 0.0253 0.0200 19.2410 0.0004 -8.5949
# 5 -1.6246 -13.4868 -10.3307 0.0004 31.9318 -0.0031
# 6 0.0017 0.0012 0.0005 -8.5949 -0.0031 24.4501
#
#
#
# Elastic Compliance Matrix: (Units=1/GPa)
#
#
# Indices 1 2 3 4 5 6 
#
# 1 0.012853 -0.005290 -0.004698 0.000016 -0.003100 0.000005
# 2 -0.005290 0.015767 -0.004715 -0.000020 0.004865 -0.000007
# 3 -0.004698 -0.004715 0.015522 -0.000012 0.002791 -0.000004
# 4 0.000016 -0.000020 -0.000012 0.061654 -0.000010 0.021673
# 5 -0.003100 0.004865 0.002791 -0.000010 0.034117 0.000001
# 6 0.000005 -0.000007 -0.000004 0.021673 0.000001 0.048518
#
#
# Mechanical properties :
#
#
# Convention : Reuss Voigt Hill
#
# Bulk Modulus (GPa) = 67.86685 71.71053 69.78869
# Shear Modulus (GPa) = 22.44679 25.70122 24.07401
#
# Velocity S-wave (km/s) = 3.39958 3.63769 3.52065
# Velocity P-wave (km/s) = 7.09593 7.38683 7.24284
#
# Compressibility (1/GPa) = 0.01473474
#
# Stress axis : x y z
#
# Youngs Moduli (GPa) = 77.80506 63.42381 64.42447
#
# Poissons Ratio (x) = 0.33553 0.30266
# Poissons Ratio (y) = 0.41161 0.30378
# Poissons Ratio (z) = 0.36552 0.29906
#
# Static dielectric constant tensor:
#      x y z
#    x 1.697530 0.000000 -0.002420 
#    y 0.000000 1.676400 -0.000010 
#    z -0.002420 -0.000010 1.755950 
# 
# From -- ./inp_files/277679.got.cif
#   From: 2010.05.17/outbox.cif.g08.bks.cpg/sg15_139_cif.got.tgz:277679.got - 2010.06.03 18:47:42.
