data_PCOD9254826
_publ_section_title
;
Structure prediction by ZEFSAII (Michael W. Deem and Ramdas Pophale) SiO2 
 PCOD9254826
Probable space group: C 2/C
;
_chemical_formula_sum "Si O2"
_cell_formula_units_Z 44
_cell_length_a 12.081538
_cell_length_b 7.050683
_cell_length_c 23.515156
_cell_angle_alpha 90.000000
_cell_angle_beta 74.644882
_cell_angle_gamma 90.000000
_cell_volume 1931.589578
_symmetry_space_group_name_H-M "C 2/C"
_symmetry_group_IT_number 15
_symmetry_cell_setting 'monoclinic'
loop_
_space_group_symop_operation_xyz
x,y,z
-x,y,1/2-z
-x,-y,-z
x,-y,1/2+z
1/2+x,1/2+y,z
1/2-x,1/2+y,1/2-z
1/2-x,1/2-y,-z
1/2+x,1/2-y,1/2+z
loop_
_atom_site_type_symbol
_atom_site_label
_atom_site_fract_x
_atom_site_fract_y
_atom_site_fract_z
Si Si1 0.833418 0.557616 0.178738
Si Si2 0.500000 0.926456 0.750000
Si Si3 0.904489 0.949173 0.127045
Si Si4 0.916876 0.136304 0.315829
Si Si5 0.660282 0.059767 0.135343
Si Si6 0.003764 0.604875 0.440344
O O1 0.855988 0.786121 0.176598
O O2 0.700125 0.532279 0.187300
O O3 0.906054 0.498396 0.113651
O O4 0.898445 0.479728 0.225053
O O5 0.421758 0.829299 0.808957
O O6 0.795143 0.076929 0.126676
O O7 0.947923 0.820286 0.068145
O O8 0.009471 0.050857 0.142727
O O9 0.874397 0.342347 0.344352
O O10 0.000000 0.140750 0.250000
O O11 0.615182 0.103671 0.078579
O O12 0.000000 0.500000 0.500000
#
# Coordination Sequence:
#
# PCOD9254826 Si02
#       6
#     8   4   8   8   8   8
#     4   8  20  35  56  79 113 142 188 219 272 330
#     4  10  16  36  52  82 110 148 176 226 278 330
#     4   9  21  36  53  83 108 142 187 221 274 325
#     4  11  20  35  56  87 118 142 177 229 279 333
#     4  10  20  36  55  81 112 143 182 227 279 329
#     4   9  20  41  60  75 110 152 187 230 272 316
#
# _framework density 22.779167999999999
#
# number of rings (size 3 to 8) (size 9 to 14) (size 15 to 20)
#    1.091    1.455    0.909    1.091    1.273    0.727 
#    6.545    1.818    0.000    0.000    0.000    0.000 
#    0.000    0.000    0.000    0.000    0.000    0.000 
#
# Total GULP energy -122598.241717 kJ/mol
# GULP energy per Si atom -5572.647351 kJ/mol
# Density = 2.272732 g / cm^3
# Si number density = 22.779168 Si / 1000 Ang^3
#
#
#
# Elastic Constant Matrix: (Units=GPa)
#
#
# Indices 1 2 3 4 5 6 
#
# 1 221.0963 32.8395 30.7546 0.0000 31.8749 0.0000
# 2 32.8395 50.1612 -6.3911 0.0000 1.3932 0.0000
# 3 30.7546 -6.3911 77.7541 0.0000 19.2022 0.0000
# 4 0.0000 0.0000 0.0000 12.6567 0.0000 11.9836
# 5 31.8749 1.3932 19.2022 0.0000 17.9396 0.0000
# 6 0.0000 0.0000 0.0000 11.9836 0.0000 37.1920
#
#
#
# Elastic Compliance Matrix: (Units=1/GPa)
#
#
# Indices 1 2 3 4 5 6 
#
# 1 0.006849 -0.004182 -0.000174 0.000000 -0.011659 0.000000
# 2 -0.004182 0.022976 0.002920 0.000000 0.002521 0.000000
# 3 -0.000174 0.002920 0.017875 0.000000 -0.019051 0.000000
# 4 0.000000 0.000000 0.000000 0.113695 0.000000 -0.036633
# 5 -0.011659 0.002521 -0.019051 0.000000 0.096654 0.000000
# 6 0.000000 0.000000 0.000000 -0.036633 0.000000 0.038691
#
#
# Mechanical properties :
#
#
# Convention : Reuss Voigt Hill
#
# Bulk Modulus (GPa) = 22.30739 51.49085 36.89912
# Shear Modulus (GPa) = 15.89553 33.01157 24.45355
#
# Velocity S-wave (km/s) = 2.64448 3.81097 3.27999
# Velocity P-wave (km/s) = 4.37475 6.48213 5.52976
#
# Compressibility (1/GPa) = 0.04482820
#
# Stress axis : x y z
#
# Youngs Moduli (GPa) = 146.00512 43.52408 55.94535
#
# Poissons Ratio (x) = 0.18203 0.00971
# Poissons Ratio (y) = 0.61063 -0.16337
# Poissons Ratio (z) = 0.02534 -0.12710
#
# Static dielectric constant tensor:
#      x y z
#    x 1.855550 0.000000 -0.017000 
#    y 0.000000 2.049720 0.000000 
#    z -0.017000 0.000000 1.826370 
# 
# From -- ./inp_files/267356.got.cif
#   From: 2010.05.17/outbox.cif.g08.bks.cpg/sg15_134_cif.got.tgz:267356.got - 2010.06.03 18:47:42.
