data_PCOD9254516
_publ_section_title
;
Structure prediction by ZEFSAII (Michael W. Deem and Ramdas Pophale) SiO2 
 PCOD9254516
Probable space group: C 2/C
;
_chemical_formula_sum "Si O2"
_cell_formula_units_Z 60
_cell_length_a 14.701566
_cell_length_b 32.011130
_cell_length_c 5.494738
_cell_angle_alpha 90.000000
_cell_angle_beta 87.672341
_cell_angle_gamma 90.000000
_cell_volume 2583.765592
_symmetry_space_group_name_H-M "C 2/C"
_symmetry_group_IT_number 15
_symmetry_cell_setting 'monoclinic'
loop_
_space_group_symop_operation_xyz
x,y,z
-x,y,1/2-z
-x,-y,-z
x,-y,1/2+z
1/2+x,1/2+y,z
1/2-x,1/2+y,1/2-z
1/2-x,1/2-y,-z
1/2+x,1/2-y,1/2+z
loop_
_atom_site_type_symbol
_atom_site_label
_atom_site_fract_x
_atom_site_fract_y
_atom_site_fract_z
Si Si1 0.046064 0.163568 0.022769
Si Si2 0.644305 0.205198 0.088757
Si Si3 0.349160 0.021969 0.319343
Si Si4 0.179764 0.766929 0.704409
Si Si5 0.804691 0.892235 0.173814
Si Si6 0.856112 0.011187 0.647281
Si Si7 0.310034 0.116012 0.314841
Si Si8 0.000000 0.234809 0.750000
O O1 0.123120 0.196109 0.094693
O O2 0.099498 0.132393 0.843292
O O3 0.000000 0.139746 0.250000
O O4 0.973360 0.199137 0.948026
O O5 0.752525 0.211306 0.108377
O O6 0.628296 0.156917 0.145033
O O7 0.583723 0.234145 0.272540
O O8 0.626761 0.227910 0.832103
O O9 0.362430 0.071681 0.304438
O O10 0.381831 0.001341 0.569779
O O11 0.238919 0.015360 0.335528
O O12 0.250000 0.750000 0.500000
O O13 0.826574 0.940884 0.146167
O O14 0.744838 0.880424 0.937785
O O15 0.754114 0.885285 0.436227
O O16 0.903905 0.001183 0.894017
#
# Coordination Sequence:
#
# PCOD9254516 Si02
#       8
#     8   8   8   8   8   8   8   4
#     4  12  26  42  61  85 124 171 208 263 313 372
#     4  11  25  37  62  90 117 161 208 265 308 376
#     4  10  16  31  53  88 126 153 187 248 316 362
#     4  11  21  41  62  85 115 155 210 261 320 366
#     4  12  23  36  62  93 126 157 210 257 303 372
#     4  10  16  32  55  87 122 157 190 251 311 360
#     4  12  22  36  60  97 123 155 208 262 303 366
#     4  12  26  46  60  84 124 170 216 252 328 368
#
# _framework density 23.221920999999998
#
# number of rings (size 3 to 8) (size 9 to 14) (size 15 to 20)
#    0.000    0.800    9.333    0.800    3.733    0.000 
#    0.000    0.000    0.000    0.800    0.000    0.933 
#    0.000    0.000    0.000    0.000    0.000    0.000 
#
# Total GULP energy -167273.161608 kJ/mol
# GULP energy per Si atom -5575.772054 kJ/mol
# Density = 2.316907 g / cm^3
# Si number density = 23.221921 Si / 1000 Ang^3
#
#
#
# Elastic Constant Matrix: (Units=GPa)
#
#
# Indices 1 2 3 4 5 6 
#
# 1 21.3220 3.8814 2.6826 0.0000 -3.5321 0.0000
# 2 3.8814 138.0523 15.4891 0.0000 6.4478 0.0000
# 3 2.6826 15.4891 141.2352 0.0000 7.0288 0.0000
# 4 0.0000 0.0000 0.0000 29.1033 0.0000 3.0169
# 5 -3.5321 6.4478 7.0288 0.0000 14.7019 0.0000
# 6 0.0000 0.0000 0.0000 3.0169 0.0000 -15.1797
#
#
#
# Elastic Compliance Matrix: (Units=1/GPa)
#
#
# Indices 1 2 3 4 5 6 
#
# 1 0.049638 -0.001864 -0.001406 0.000000 0.013415 0.000000
# 2 -0.001864 0.007527 -0.000618 0.000000 -0.003453 0.000000
# 3 -0.001406 -0.000618 0.007353 0.000000 -0.003582 0.000000
# 4 0.000000 0.000000 0.000000 0.033667 0.000000 0.006691
# 5 0.013415 -0.003453 -0.003582 0.000000 0.074468 0.000000
# 6 0.000000 0.000000 0.000000 0.006691 0.000000 -0.064548
#
#
# Mechanical properties :
#
#
# Convention : Reuss Voigt Hill
#
# Bulk Modulus (GPa) = 17.62390 38.30174 27.96282
# Shear Modulus (GPa) = 37.09294 24.29555 30.69424
#
# Velocity S-wave (km/s) = 4.00099 3.23806 3.63957
# Velocity P-wave (km/s) = 5.38049 5.52355 5.45249
#
# Compressibility (1/GPa) = 0.05674113
#
# Stress axis : x y z
#
# Youngs Moduli (GPa) = 20.14569 132.86041 135.99603
#
# Poissons Ratio (x) = 0.24771 0.19121
# Poissons Ratio (y) = 0.03756 0.08407
# Poissons Ratio (z) = 0.02832 0.08213
#
# Static dielectric constant tensor:
#      x y z
#    x 1.948040 0.000000 0.138090 
#    y 0.000000 1.841330 0.000000 
#    z 0.138090 0.000000 2.179670 
# 
# From -- ./inp_files/12009.got.cif
#   From: 2010.05.17/outbox.cif.g08.bks.cpg/sg15_7_cif.got.tgz:12009.got - 2010.06.03 18:47:42.
