data_PCOD9254799
_publ_section_title
;
Structure prediction by ZEFSAII (Michael W. Deem and Ramdas Pophale) SiO2 
 PCOD9254799
Probable space group: C 2/C
;
_chemical_formula_sum "Si O2"
_cell_formula_units_Z 48
_cell_length_a 17.545923
_cell_length_b 15.645588
_cell_length_c 14.745155
_cell_angle_alpha 90.000000
_cell_angle_beta 148.485548
_cell_angle_gamma 90.000000
_cell_volume 2115.832395
_symmetry_space_group_name_H-M "C 2/C"
_symmetry_group_IT_number 15
_symmetry_cell_setting 'monoclinic'
loop_
_space_group_symop_operation_xyz
x,y,z
-x,y,1/2-z
-x,-y,-z
x,-y,1/2+z
1/2+x,1/2+y,z
1/2-x,1/2+y,1/2-z
1/2-x,1/2-y,-z
1/2+x,1/2-y,1/2+z
loop_
_atom_site_type_symbol
_atom_site_label
_atom_site_fract_x
_atom_site_fract_y
_atom_site_fract_z
Si Si1 0.575837 0.185843 0.730434
Si Si2 0.000000 0.895462 0.250000
Si Si3 0.344070 0.972895 0.295944
Si Si4 0.500000 0.117439 0.250000
Si Si5 0.253225 0.520093 0.617644
Si Si6 0.274748 0.179016 0.352021
Si Si7 0.252046 0.845488 0.628119
O O1 0.500000 0.181714 0.750000
O O2 0.642727 0.096187 0.768803
O O3 0.444986 0.199616 0.527259
O O4 0.689429 0.260904 0.833920
O O5 0.111665 0.840459 0.422843
O O6 0.103001 0.953633 0.290631
O O7 0.500000 0.000000 0.500000
O O8 0.251820 0.938410 0.287231
O O9 0.273301 0.055922 0.180509
O O10 0.602054 0.169927 0.283313
O O11 0.614103 0.057425 0.421421
O O12 0.242942 0.418974 0.630814
O O13 0.229361 0.197528 0.202429
#
# Coordination Sequence:
#
# PCOD9254799 Si02
#       7
#     8   4   8   4   8   8   8
#     4  12  26  41  65  99 129 175 212 264 314 393
#     4  10  24  34  66 102 124 158 216 286 330 366
#     4  11  20  39  69  93 120 172 229 260 309 376
#     4  10  16  34  70  94 116 162 234 270 292 380
#     4  10  21  38  63  95 126 169 212 269 317 381
#     4  11  25  42  59  90 136 174 208 255 339 381
#     4  10  21  40  65  97 127 165 216 274 322 382
#
# _framework density 22.686107
#
# number of rings (size 3 to 8) (size 9 to 14) (size 15 to 20)
#    0.000    1.333    5.000    0.500    8.167    5.333 
#    0.000    0.000    0.000   17.000    0.000    0.000 
#    0.000    0.000    0.000    0.000    0.000    0.000 
#
# Total GULP energy -134197.313469 kJ/mol
# GULP energy per Si atom -5591.554728 kJ/mol
# Density = 2.263447 g / cm^3
# Si number density = 22.686107 Si / 1000 Ang^3
#
#
#
# Elastic Constant Matrix: (Units=GPa)
#
#
# Indices 1 2 3 4 5 6 
#
# 1 168.1573 24.6187 22.9973 0.0001 2.4415 0.0000
# 2 24.6187 54.9150 0.9365 0.0001 2.1421 0.0000
# 3 22.9973 0.9365 79.9082 0.0001 0.3798 0.0000
# 4 0.0001 0.0001 0.0001 7.7436 0.0001 -1.3705
# 5 2.4415 2.1421 0.3798 0.0001 40.2554 0.0000
# 6 0.0000 0.0000 0.0000 -1.3705 0.0000 28.5329
#
#
#
# Elastic Compliance Matrix: (Units=1/GPa)
#
#
# Indices 1 2 3 4 5 6 
#
# 1 0.006636 -0.002934 -0.001874 0.000000 -0.000229 0.000000
# 2 -0.002934 0.019549 0.000619 0.000000 -0.000868 0.000000
# 3 -0.001874 0.000619 0.013047 0.000000 -0.000042 0.000000
# 4 0.000000 0.000000 0.000000 0.130246 0.000000 0.006256
# 5 -0.000229 -0.000868 -0.000042 0.000000 0.024902 0.000000
# 6 0.000000 0.000000 0.000000 0.006256 0.000000 0.035348
#
#
# Mechanical properties :
#
#
# Convention : Reuss Voigt Hill
#
# Bulk Modulus (GPa) = 32.41132 44.45393 38.43263
# Shear Modulus (GPa) = 20.12970 32.26826 26.19898
#
# Velocity S-wave (km/s) = 2.98201 3.77554 3.40199
# Velocity P-wave (km/s) = 5.11609 6.21643 5.69291
#
# Compressibility (1/GPa) = 0.03085342
#
# Stress axis : x y z
#
# Youngs Moduli (GPa) = 150.69254 51.15447 76.64751
#
# Poissons Ratio (x) = 0.15009 0.14366
# Poissons Ratio (y) = 0.44215 -0.04748
# Poissons Ratio (z) = 0.28245 -0.03169
#
# Static dielectric constant tensor:
#      x y z
#    x 1.880440 0.000000 -0.038360 
#    y 0.000000 1.896010 0.000000 
#    z -0.038360 0.000000 1.864130 
# 
# From -- ./inp_files/48428.got.cif
#   From: 2010.05.17/outbox.cif.g08.bks.cpg/sg15_25_cif.got.tgz:48428.got - 2010.06.03 18:47:42.
