data_PCOD9254378
_publ_section_title
;
Structure prediction by ZEFSAII (Michael W. Deem and Ramdas Pophale) SiO2 
 PCOD9254378
Probable space group: C 2/C
;
_chemical_formula_sum "Si O2"
_cell_formula_units_Z 60
_cell_length_a 21.750082
_cell_length_b 13.946063
_cell_length_c 11.937118
_cell_angle_alpha 90.000000
_cell_angle_beta 135.938461
_cell_angle_gamma 90.000000
_cell_volume 2518.058374
_symmetry_space_group_name_H-M "C 2/C"
_symmetry_group_IT_number 15
_symmetry_cell_setting 'monoclinic'
loop_
_space_group_symop_operation_xyz
x,y,z
-x,y,1/2-z
-x,-y,-z
x,-y,1/2+z
1/2+x,1/2+y,z
1/2-x,1/2+y,1/2-z
1/2-x,1/2-y,-z
1/2+x,1/2-y,1/2+z
loop_
_atom_site_type_symbol
_atom_site_label
_atom_site_fract_x
_atom_site_fract_y
_atom_site_fract_z
Si Si1 0.184615 0.429357 0.016362
Si Si2 0.089217 0.596200 0.795268
Si Si3 0.000000 0.153473 0.750000
Si Si4 0.280870 0.690292 0.803065
Si Si5 0.468068 0.876888 0.520303
Si Si6 0.632762 0.211280 0.288603
Si Si7 0.108461 0.170508 0.097380
Si Si8 0.598617 0.323888 0.831291
O O1 0.248689 0.408175 0.203029
O O2 0.090566 0.404069 0.951031
O O3 0.170114 0.533486 0.947349
O O4 0.207587 0.344962 0.957535
O O5 0.065311 0.575145 0.635669
O O6 0.108346 0.708902 0.827609
O O7 0.000000 0.581036 0.750000
O O8 0.921574 0.217870 0.701758
O O9 0.941097 0.110561 0.567687
O O10 0.346332 0.739103 0.800423
O O11 0.202327 0.771526 0.705203
O O12 0.326424 0.660119 0.977761
O O13 0.570312 0.879634 0.679909
O O14 0.454762 0.763637 0.480305
O O15 0.109807 0.127237 0.224169
O O16 0.500000 0.342819 0.750000
#
# Coordination Sequence:
#
# PCOD9254378 Si02
#       8
#     8   8   4   8   8   8   8   8
#     4  11  21  32  47  77 110 148 183 224 278 324
#     4  10  20  32  51  76 107 149 190 215 264 335
#     4  10  16  30  50  72 100 138 178 222 270 322
#     4  11  21  32  52  76 115 146 185 230 277 330
#     4   9  18  33  49  71 106 147 180 220 263 326
#     4  11  17  31  49  72 104 145 184 220 271 322
#     4   9  18  31  50  75 105 144 180 227 271 316
#     4  10  20  37  54  80 111 152 190 223 269 330
#
# _framework density 23.827881999999999
#
# number of rings (size 3 to 8) (size 9 to 14) (size 15 to 20)
#    0.000    1.867    4.000    4.800    0.000    3.200 
#    0.000    0.000    0.000    0.000    0.000    0.000 
#    2.000   30.400    1.867    0.000    0.000    0.000 
#
# Total GULP energy -167191.111834 kJ/mol
# GULP energy per Si atom -5573.037061 kJ/mol
# Density = 2.377365 g / cm^3
# Si number density = 23.827882 Si / 1000 Ang^3
#
#
#
# Elastic Constant Matrix: (Units=GPa)
#
#
# Indices 1 2 3 4 5 6 
#
# 1 91.6975 -0.8191 28.6363 0.0000 -13.1537 0.0000
# 2 -0.8191 7.3289 4.2066 0.0000 -5.7441 0.0000
# 3 28.6363 4.2066 175.1504 0.0000 -28.3044 0.0000
# 4 0.0000 0.0000 0.0000 32.3098 0.0000 -14.2912
# 5 -13.1537 -5.7441 -28.3044 0.0000 35.2636 0.0000
# 6 0.0000 0.0000 0.0000 -14.2912 0.0000 57.8152
#
#
#
# Elastic Compliance Matrix: (Units=1/GPa)
#
#
# Indices 1 2 3 4 5 6 
#
# 1 0.012002 0.005471 -0.001409 0.000000 0.004237 0.000000
# 2 0.005471 0.158935 -0.000228 0.000000 0.027747 0.000000
# 3 -0.001409 -0.000228 0.006727 0.000000 0.004837 0.000000
# 4 0.000000 0.000000 0.000000 0.034750 0.000000 0.008590
# 5 0.004237 0.027747 0.004837 0.000000 0.038340 0.000000
# 6 0.000000 0.000000 0.000000 0.008590 0.000000 0.019420
#
#
# Mechanical properties :
#
#
# Convention : Reuss Voigt Hill
#
# Bulk Modulus (GPa) = 5.39570 37.58050 21.48810
# Shear Modulus (GPa) = 15.41863 41.22125 28.31994
#
# Velocity S-wave (km/s) = 2.54654 4.16379 3.45123
# Velocity P-wave (km/s) = 3.30392 6.23876 4.99189
#
# Compressibility (1/GPa) = 0.18533278
#
# Stress axis : x y z
#
# Youngs Moduli (GPa) = 83.31873 6.29187 148.65898
#
# Poissons Ratio (x) = -0.03442 0.20945
# Poissons Ratio (y) = -0.45584 0.03386
# Poissons Ratio (z) = 0.11739 0.00143
#
# Static dielectric constant tensor:
#      x y z
#    x 1.946740 0.000000 -0.006060 
#    y 0.000000 1.929030 0.000000 
#    z -0.006060 0.000000 2.130110 
# 
# From -- ./inp_files/119470.got.cif
#   From: 2010.05.17/outbox.cif.g08.bks.cpg/sg15_60_cif.got.tgz:119470.got - 2010.06.03 18:47:42.
