data_PCOD9254011
_publ_section_title
;
Structure prediction by ZEFSAII (Michael W. Deem and Ramdas Pophale) SiO2 
 PCOD9254011
Probable space group: C 2/C
;
_chemical_formula_sum "Si O2"
_cell_formula_units_Z 48
_cell_length_a 15.009024
_cell_length_b 13.841671
_cell_length_c 15.008781
_cell_angle_alpha 90.000000
_cell_angle_beta 148.072726
_cell_angle_gamma 90.000000
_cell_volume 1648.969661
_symmetry_space_group_name_H-M "C 2/C"
_symmetry_group_IT_number 15
_symmetry_cell_setting 'monoclinic'
loop_
_space_group_symop_operation_xyz
x,y,z
-x,y,1/2-z
-x,-y,-z
x,-y,1/2+z
1/2+x,1/2+y,z
1/2-x,1/2+y,1/2-z
1/2-x,1/2-y,-z
1/2+x,1/2-y,1/2+z
loop_
_atom_site_type_symbol
_atom_site_label
_atom_site_fract_x
_atom_site_fract_y
_atom_site_fract_z
Si Si1 0.149350 0.168364 0.157516
Si Si2 0.653926 0.231150 0.328804
Si Si3 0.077653 0.069434 0.428451
Si Si4 0.592185 0.787420 0.472879
Si Si5 0.911366 0.480869 0.292893
Si Si6 0.243077 0.058106 0.844881
O O1 0.270270 0.159475 0.178525
O O2 0.245000 0.182600 0.332546
O O3 0.842112 0.164349 0.717031
O O4 0.039473 0.265069 0.057301
O O5 0.500000 0.187386 0.250000
O O6 0.750000 0.250000 0.500000
O O7 0.109964 0.185509 0.433980
O O8 0.256672 0.018533 0.590101
O O9 0.912404 0.011244 0.252724
O O10 0.997983 0.091978 0.458856
O O11 0.503065 0.876924 0.352354
O O12 0.812702 0.472988 0.305514
O O13 0.080863 0.544948 0.451700
#
# Coordination Sequence:
#
# PCOD9254011 Si02
#       6
#     8   8   8   8   8   8
#     4  10  19  34  60  88 127 165 227 256 327 416
#     4  12  27  44  63  85 133 198 230 259 315 406
#     4  10  19  33  62  89 127 159 204 285 345 388
#     4  10  15  32  57  91 128 156 196 267 348 406
#     4  11  20  33  60  89 133 160 202 289 349 380
#     4  11  23  38  55  95 122 166 225 276 328 384
#
# _framework density 29.109086000000001
#
# number of rings (size 3 to 8) (size 9 to 14) (size 15 to 20)
#    1.000    0.333    5.000    1.500    2.333    0.000 
#    3.000    0.000    0.000    0.000    0.000    1.167 
#    0.000    0.000    0.000    0.000    0.000    0.000 
#
# Total GULP energy -133684.585266 kJ/mol
# GULP energy per Si atom -5570.191053 kJ/mol
# Density = 2.904283 g / cm^3
# Si number density = 29.109086 Si / 1000 Ang^3
#
#
#
# Elastic Constant Matrix: (Units=GPa)
#
#
# Indices 1 2 3 4 5 6 
#
# 1 156.2635 16.2524 26.8334 0.0010 -0.9703 0.0007
# 2 16.2524 116.5942 16.1115 0.0014 8.5422 0.0007
# 3 26.8334 16.1115 203.7374 0.0018 26.5749 0.0012
# 4 0.0010 0.0014 0.0018 39.7372 0.0013 6.5820
# 5 -0.9703 8.5422 26.5749 0.0013 23.9080 0.0010
# 6 0.0007 0.0007 0.0012 6.5820 0.0010 14.1824
#
#
#
# Elastic Compliance Matrix: (Units=1/GPa)
#
#
# Indices 1 2 3 4 5 6 
#
# 1 0.006684 -0.000917 -0.001036 0.000000 0.001750 0.000000
# 2 -0.000917 0.008953 -0.000193 0.000000 -0.003021 0.000000
# 3 -0.001036 -0.000193 0.005914 0.000000 -0.006547 0.000000
# 4 0.000000 0.000000 0.000000 0.027261 -0.000001 -0.012652
# 5 0.001750 -0.003021 -0.006547 -0.000001 0.050254 -0.000003
# 6 0.000000 0.000000 0.000000 -0.012652 -0.000003 0.076381
#
#
# Mechanical properties :
#
#
# Convention : Reuss Voigt Hill
#
# Bulk Modulus (GPa) = 57.94361 66.10998 62.02680
# Shear Modulus (GPa) = 26.95542 43.39205 35.17374
#
# Velocity S-wave (km/s) = 3.04635 3.86511 3.47989
# Velocity P-wave (km/s) = 5.68529 6.53293 6.12379
#
# Compressibility (1/GPa) = 0.01725816
#
# Stress axis : x y z
#
# Youngs Moduli (GPa) = 149.62050 111.69968 169.09197
#
# Poissons Ratio (x) = 0.10240 0.17520
# Poissons Ratio (y) = 0.13716 0.03266
# Poissons Ratio (z) = 0.15502 0.02158
#
# Static dielectric constant tensor:
#      x y z
#    x 2.258210 0.000000 -0.008090 
#    y 0.000000 2.417300 0.000000 
#    z -0.008090 0.000000 2.242670 
# 
# From -- ./inp_files/283680.got.cif
#   From: 2010.05.17/outbox.cif.g08.bks.cpg/sg15_142_cif.got.tgz:283680.got - 2010.06.03 18:47:42.
