data_PCOD9254307
_publ_section_title
;
Structure prediction by ZEFSAII (Michael W. Deem and Ramdas Pophale) SiO2 
 PCOD9254307
Probable space group: C 2/C
;
_chemical_formula_sum "Si O2"
_cell_formula_units_Z 44
_cell_length_a 9.694295
_cell_length_b 18.839545
_cell_length_c 15.483219
_cell_angle_alpha 90.000000
_cell_angle_beta 133.529799
_cell_angle_gamma 90.000000
_cell_volume 2050.197257
_symmetry_space_group_name_H-M "C 2/C"
_symmetry_group_IT_number 15
_symmetry_cell_setting 'monoclinic'
loop_
_space_group_symop_operation_xyz
x,y,z
-x,y,1/2-z
-x,-y,-z
x,-y,1/2+z
1/2+x,1/2+y,z
1/2-x,1/2+y,1/2-z
1/2-x,1/2-y,-z
1/2+x,1/2-y,1/2+z
loop_
_atom_site_type_symbol
_atom_site_label
_atom_site_fract_x
_atom_site_fract_y
_atom_site_fract_z
Si Si1 0.458356 0.756316 0.919397
Si Si2 0.279532 0.185598 0.826298
Si Si3 0.000000 0.543468 0.750000
Si Si4 0.319672 0.164604 0.584972
Si Si5 0.341380 0.981680 0.360683
Si Si6 0.297037 0.375898 0.655048
O O1 0.403259 0.713077 0.807708
O O2 0.324770 0.719506 0.935423
O O3 0.365133 0.833440 0.864156
O O4 0.656095 0.772381 0.057429
O O5 0.467006 0.192960 0.844016
O O6 0.273389 0.100128 0.839798
O O7 0.168941 0.597194 0.847534
O O8 0.062879 0.505942 0.691070
O O9 0.255976 0.131187 0.467409
O O10 0.500000 0.000000 0.500000
O O11 0.191586 0.044040 0.307837
O O12 0.500000 0.339807 0.750000
#
# Coordination Sequence:
#
# PCOD9254307 Si02
#       6
#     8   8   4   8   8   8
#     4  11  17  30  50  85 115 138 170 230 290 339
#     4  10  19  28  52  76 112 141 176 219 280 342
#     4  10  18  32  56  78 108 148 184 216 260 346
#     4  10  16  29  49  78 113 138 164 219 287 334
#     4  11  19  37  54  79 111 157 184 219 280 338
#     4  11  21  31  53  83 115 140 181 228 283 332
#
# _framework density 21.461351000000001
#
# number of rings (size 3 to 8) (size 9 to 14) (size 15 to 20)
#    0.000    1.455    9.091    4.364    0.000    0.000 
#    0.000    0.909    0.000    0.000    2.364    2.545 
#    0.000    0.000    0.000    0.000    0.000    0.000 
#
# Total GULP energy -122487.992642 kJ/mol
# GULP energy per Si atom -5567.636029 kJ/mol
# Density = 2.141250 g / cm^3
# Si number density = 21.461351 Si / 1000 Ang^3
#
#
#
# Elastic Constant Matrix: (Units=GPa)
#
#
# Indices 1 2 3 4 5 6 
#
# 1 36.6113 21.6461 33.8481 0.0000 1.7254 0.0000
# 2 21.6461 129.3481 46.6831 0.0000 -12.3046 0.0000
# 3 33.8481 46.6831 133.8367 0.0000 -22.4938 0.0000
# 4 0.0000 0.0000 0.0000 39.6796 0.0000 -10.4594
# 5 1.7254 -12.3046 -22.4938 0.0000 25.5137 0.0000
# 6 0.0000 0.0000 0.0000 -10.4594 0.0000 23.0965
#
#
#
# Elastic Compliance Matrix: (Units=1/GPa)
#
#
# Indices 1 2 3 4 5 6 
#
# 1 0.041033 -0.004157 -0.011424 0.000000 -0.014851 0.000000
# 2 -0.004157 0.009338 -0.001646 0.000000 0.003334 0.000000
# 3 -0.011424 -0.001646 0.012833 0.000000 0.011293 0.000000
# 4 0.000000 0.000000 0.000000 0.028618 0.000000 0.012960
# 5 -0.014851 0.003334 0.011293 0.000000 0.051763 0.000000
# 6 0.000000 0.000000 0.000000 0.012960 0.000000 0.049165
#
#
# Mechanical properties :
#
#
# Convention : Reuss Voigt Hill
#
# Bulk Modulus (GPa) = 34.78030 56.01676 45.39853
# Shear Modulus (GPa) = 21.11620 30.83254 25.97437
#
# Velocity S-wave (km/s) = 3.14015 3.79443 3.48269
# Velocity P-wave (km/s) = 5.42112 6.73460 6.11324
#
# Compressibility (1/GPa) = 0.02875191
#
# Stress axis : x y z
#
# Youngs Moduli (GPa) = 24.37075 107.09286 77.92514
#
# Poissons Ratio (x) = 0.44514 0.89018
# Poissons Ratio (y) = 0.10130 0.12823
# Poissons Ratio (z) = 0.27840 0.17623
#
# Static dielectric constant tensor:
#      x y z
#    x 1.810030 0.000000 0.047870 
#    y 0.000000 1.842710 0.000000 
#    z 0.047870 0.000000 2.102040 
# 
# From -- ./inp_files/87157.got.cif
#   From: 2010.05.17/outbox.cif.g08.bks.cpg/sg15_44_cif.got.tgz:87157.got - 2010.06.03 18:47:42.
