data_PCOD9254884
_publ_section_title
;
Structure prediction by ZEFSAII (Michael W. Deem and Ramdas Pophale) SiO2 
 PCOD9254884
Probable space group: C 2/C
;
_chemical_formula_sum "Si O2"
_cell_formula_units_Z 52
_cell_length_a 12.392697
_cell_length_b 34.581949
_cell_length_c 5.863400
_cell_angle_alpha 90.000000
_cell_angle_beta 106.593010
_cell_angle_gamma 90.000000
_cell_volume 2408.198769
_symmetry_space_group_name_H-M "C 2/C"
_symmetry_group_IT_number 15
_symmetry_cell_setting 'monoclinic'
loop_
_space_group_symop_operation_xyz
x,y,z
-x,y,1/2-z
-x,-y,-z
x,-y,1/2+z
1/2+x,1/2+y,z
1/2-x,1/2+y,1/2-z
1/2-x,1/2-y,-z
1/2+x,1/2-y,1/2+z
loop_
_atom_site_type_symbol
_atom_site_label
_atom_site_fract_x
_atom_site_fract_y
_atom_site_fract_z
Si Si1 0.346237 0.097159 0.043383
Si Si2 0.146384 0.802054 0.508496
Si Si3 0.377596 0.374781 0.292792
Si Si4 0.000000 0.381576 0.250000
Si Si5 0.867313 0.514176 0.198155
Si Si6 0.500000 0.349614 0.750000
Si Si7 0.500000 0.234180 0.250000
Si Si8 0.363602 0.828635 0.876422
O O1 0.223110 0.098918 0.854472
O O2 0.445107 0.093762 0.917048
O O3 0.351008 0.060257 0.206881
O O4 0.367000 0.137811 0.184866
O O5 0.162124 0.831539 0.307703
O O6 0.044485 0.821968 0.581645
O O7 0.102204 0.760916 0.398771
O O8 0.248627 0.806195 0.747452
O O9 0.500000 0.383786 0.250000
O O10 0.401582 0.374577 0.576925
O O11 0.103923 0.353699 0.385386
O O12 0.822900 0.496848 0.413428
O O13 0.000000 0.504694 0.250000
O O14 0.543303 0.204710 0.085809
#
# Coordination Sequence:
#
# PCOD9254884 Si02
#       8
#     8   8   8   4   8   4   4   8
#     4  11  23  40  64  90 128 162 200 258 306 384
#     4  10  21  37  58  77 115 157 203 263 304 369
#     4   9  19  38  61  88 116 160 214 253 304 361
#     4  12  22  39  58  91 120 154 208 254 311 376
#     4  10  23  41  66 100 135 170 209 255 323 394
#     4  10  16  37  58  86 104 149 215 254 302 362
#     4  12  20  42  52  79 118 157 203 260 315 362
#     4  11  24  39  56  85 118 161 205 249 318 369
#
# _framework density 21.592901000000001
#
# number of rings (size 3 to 8) (size 9 to 14) (size 15 to 20)
#    0.000    1.538    3.846    2.308    5.385    0.615 
#    0.000    1.538    0.000    0.923    0.000    0.000 
#    0.000    0.000    0.000    0.000    0.000    0.000 
#
# Total GULP energy -144909.348422 kJ/mol
# GULP energy per Si atom -5573.436478 kJ/mol
# Density = 2.154375 g / cm^3
# Si number density = 21.592901 Si / 1000 Ang^3
#
#
#
# Elastic Constant Matrix: (Units=GPa)
#
#
# Indices 1 2 3 4 5 6 
#
# 1 45.8222 23.6862 11.1697 0.0000 17.1109 0.0000
# 2 23.6862 80.3796 23.2401 0.0000 4.5781 0.0000
# 3 11.1697 23.2401 93.8717 0.0000 14.5591 0.0000
# 4 0.0000 0.0000 0.0000 31.1840 0.0000 5.1322
# 5 17.1109 4.5781 14.5591 0.0000 30.5155 0.0000
# 6 0.0000 0.0000 0.0000 5.1322 0.0000 12.4945
#
#
#
# Elastic Compliance Matrix: (Units=1/GPa)
#
#
# Indices 1 2 3 4 5 6 
#
# 1 0.032734 -0.008948 0.001036 0.000000 -0.017506 0.000000
# 2 -0.008948 0.015852 -0.003530 0.000000 0.004324 0.000000
# 3 0.001036 -0.003530 0.012323 0.000000 -0.005931 0.000000
# 4 0.000000 0.000000 0.000000 0.034393 0.000000 -0.014127
# 5 -0.017506 0.004324 -0.005931 0.000000 0.044767 0.000000
# 6 0.000000 0.000000 0.000000 -0.014127 0.000000 0.085838
#
#
# Mechanical properties :
#
#
# Convention : Reuss Voigt Hill
#
# Bulk Modulus (GPa) = 26.29971 37.36282 31.83126
# Shear Modulus (GPa) = 19.12275 25.63731 22.38003
#
# Velocity S-wave (km/s) = 2.97914 3.44946 3.22289
# Velocity P-wave (km/s) = 4.90305 5.76246 5.35004
#
# Compressibility (1/GPa) = 0.03802324
#
# Stress axis : x y z
#
# Youngs Moduli (GPa) = 30.54950 63.08222 81.14594
#
# Poissons Ratio (x) = 0.56448 -0.08403
# Poissons Ratio (y) = 0.27337 0.28648
# Poissons Ratio (z) = -0.03164 0.22271
#
# Static dielectric constant tensor:
#      x y z
#    x 1.851110 0.000000 0.009590 
#    y 0.000000 1.755950 0.000000 
#    z 0.009590 0.000000 1.915030 
# 
# From -- ./inp_files/9141.got.cif
#   From: 2010.05.17/outbox.cif.g08.bks.cpg/sg15_5_cif.got.tgz:9141.got - 2010.06.03 18:47:42.
