data_PCOD9254266
_publ_section_title
;
Structure prediction by ZEFSAII (Michael W. Deem and Ramdas Pophale) SiO2 
 PCOD9254266
Probable space group: C 2/C
;
_chemical_formula_sum "Si O2"
_cell_formula_units_Z 60
_cell_length_a 28.706040
_cell_length_b 14.598896
_cell_length_c 12.573448
_cell_angle_alpha 90.000000
_cell_angle_beta 151.597067
_cell_angle_gamma 90.000000
_cell_volume 2506.413705
_symmetry_space_group_name_H-M "C 2/C"
_symmetry_group_IT_number 15
_symmetry_cell_setting 'monoclinic'
loop_
_space_group_symop_operation_xyz
x,y,z
-x,y,1/2-z
-x,-y,-z
x,-y,1/2+z
1/2+x,1/2+y,z
1/2-x,1/2+y,1/2-z
1/2-x,1/2-y,-z
1/2+x,1/2-y,1/2+z
loop_
_atom_site_type_symbol
_atom_site_label
_atom_site_fract_x
_atom_site_fract_y
_atom_site_fract_z
Si Si1 0.673097 0.397350 0.333357
Si Si2 0.325828 0.120705 0.781833
Si Si3 0.811780 0.702741 0.977695
Si Si4 0.962425 0.440463 0.828288
Si Si5 0.990645 0.847914 0.351263
Si Si6 0.802876 0.593294 0.294858
Si Si7 0.206200 0.892371 0.830079
Si Si8 0.500000 0.906888 0.250000
O O1 0.704577 0.315529 0.316874
O O2 0.563715 0.400340 0.161852
O O3 0.734938 0.370173 0.564364
O O4 0.689649 0.498678 0.318962
O O5 0.274300 0.139458 0.565613
O O6 0.303598 0.014642 0.767881
O O7 0.293823 0.181143 0.817170
O O8 0.444033 0.120527 0.014435
O O9 0.910755 0.766452 0.175491
O O10 0.865093 0.615848 0.143654
O O11 0.940629 0.521436 0.702267
O O12 0.000000 0.500000 0.000000
O O13 0.000000 0.889967 0.250000
O O14 0.102829 0.838646 0.615432
O O15 0.755784 0.614634 0.313922
O O16 0.912057 0.636941 0.509499
#
# Coordination Sequence:
#
# PCOD9254266 Si02
#       8
#     8   8   8   8   8   8   8   4
#     4  11  23  42  69  96 132 180 242 293 338 409
#     4  10  20  35  63  97 132 173 220 283 351 408
#     4  12  22  42  65  99 134 182 224 277 358 430
#     4  11  18  32  58  93 129 164 212 276 334 404
#     4  12  26  44  66  94 140 186 232 281 353 424
#     4  10  18  35  63 101 132 167 225 296 339 394
#     4  11  22  42  68 101 134 175 242 297 339 402
#     4  10  16  28  52  92 124 150 208 270 338 378
#
# _framework density 23.938586000000001
#
# number of rings (size 3 to 8) (size 9 to 14) (size 15 to 20)
#    0.000    1.067    5.333    4.800    0.000    0.000 
#    0.000    3.333    2.933    0.000    0.000    0.000 
#    0.000    0.000    0.000    0.000    0.000    0.000 
#
# Total GULP energy -167138.987209 kJ/mol
# GULP energy per Si atom -5571.299574 kJ/mol
# Density = 2.388410 g / cm^3
# Si number density = 23.938586 Si / 1000 Ang^3
#
#
#
# Elastic Constant Matrix: (Units=GPa)
#
#
# Indices 1 2 3 4 5 6 
#
# 1 140.8015 -0.9195 53.5923 0.0000 3.2372 0.0000
# 2 -0.9195 27.2539 30.4564 0.0000 8.1055 0.0000
# 3 53.5923 30.4564 112.0344 0.0000 9.9927 0.0000
# 4 0.0000 0.0000 0.0000 34.3602 0.0000 -7.8634
# 5 3.2372 8.1055 9.9927 0.0000 50.3518 0.0000
# 6 0.0000 0.0000 0.0000 -7.8634 0.0000 -45.3947
#
#
#
# Elastic Compliance Matrix: (Units=1/GPa)
#
#
# Indices 1 2 3 4 5 6 
#
# 1 0.009770 0.008141 -0.006835 0.000000 -0.000582 0.000000
# 2 0.008141 0.061168 -0.019951 0.000000 -0.006411 0.000000
# 3 -0.006835 -0.019951 0.017605 0.000000 0.000157 0.000000
# 4 0.000000 0.000000 0.000000 0.027994 0.000000 -0.004849
# 5 -0.000582 -0.006411 0.000157 0.000000 0.020898 0.000000
# 6 0.000000 0.000000 0.000000 -0.004849 0.000000 -0.021189
#
#
# Mechanical properties :
#
#
# Convention : Reuss Voigt Hill
#
# Bulk Modulus (GPa) = 19.51090 49.59424 34.55257
# Shear Modulus (GPa) = 29.30478 20.99417 25.14947
#
# Velocity S-wave (km/s) = 3.50260 2.96463 3.24479
# Velocity P-wave (km/s) = 4.95235 5.69921 5.33885
#
# Compressibility (1/GPa) = 0.05125341
#
# Stress axis : x y z
#
# Youngs Moduli (GPa) = 102.35215 16.34836 56.80267
#
# Poissons Ratio (x) = -0.13308 0.38823
# Poissons Ratio (y) = -0.83320 1.13326
# Poissons Ratio (z) = 0.69955 0.32616
#
# Static dielectric constant tensor:
#      x y z
#    x 2.011910 0.000000 0.015610 
#    y 0.000000 2.496330 0.000000 
#    z 0.015610 0.000000 1.655990 
# 
# From -- ./inp_files/124021.got.cif
#   From: 2010.05.17/outbox.cif.g08.bks.cpg/sg15_63_cif.got.tgz:124021.got - 2010.06.03 18:47:42.
