data_PCOD9254905
_publ_section_title
;
Structure prediction by ZEFSAII (Michael W. Deem and Ramdas Pophale) SiO2 
 PCOD9254905
Probable space group: C 2/C
;
_chemical_formula_sum "Si O2"
_cell_formula_units_Z 44
_cell_length_a 8.024709
_cell_length_b 13.027995
_cell_length_c 18.073632
_cell_angle_alpha 90.000000
_cell_angle_beta 97.274515
_cell_angle_gamma 90.000000
_cell_volume 1874.314523
_symmetry_space_group_name_H-M "C 2/C"
_symmetry_group_IT_number 15
_symmetry_cell_setting 'monoclinic'
loop_
_space_group_symop_operation_xyz
x,y,z
-x,y,1/2-z
-x,-y,-z
x,-y,1/2+z
1/2+x,1/2+y,z
1/2-x,1/2+y,1/2-z
1/2-x,1/2-y,-z
1/2+x,1/2-y,1/2+z
loop_
_atom_site_type_symbol
_atom_site_label
_atom_site_fract_x
_atom_site_fract_y
_atom_site_fract_z
Si Si1 0.889297 0.709047 0.924445
Si Si2 0.579581 0.610742 0.508161
Si Si3 0.717917 0.806606 0.342787
Si Si4 0.192984 0.584666 0.122911
Si Si5 0.000000 0.500000 0.000000
Si Si6 0.822032 0.117664 0.702092
O O1 0.940330 0.806780 0.975949
O O2 0.041748 0.707062 0.873882
O O3 0.723437 0.697326 0.865626
O O4 0.904997 0.607030 0.973726
O O5 0.500000 0.500000 0.500000
O O6 0.660650 0.637818 0.591092
O O7 0.734700 0.606275 0.457392
O O8 0.792640 0.691948 0.335234
O O9 0.702151 0.865363 0.265507
O O10 0.015838 0.536632 0.090199
O O11 0.300840 0.496192 0.167721
O O12 0.000000 0.133014 0.750000
#
# Coordination Sequence:
#
# PCOD9254905 Si02
#       6
#     8   8   8   8   4   8
#     4  10  21  41  69  91 125 178 218 259 324 391
#     4  11  21  39  68  99 125 168 222 269 318 393
#     4  11  21  42  66  95 125 175 228 258 315 409
#     4  10  21  40  66  87 129 171 217 263 317 394
#     4  10  16  38  64  96 116 156 214 274 306 370
#     4  11  25  41  59  97 137 166 210 277 340 372
#
# _framework density 23.475248000000001
#
# number of rings (size 3 to 8) (size 9 to 14) (size 15 to 20)
#    0.000    1.455    3.636    2.727    0.000    4.364 
#    3.273    6.364    0.000    0.000    0.000    0.000 
#    0.000    0.000    0.000    0.000    0.000    0.000 
#
# Total GULP energy -122546.118395 kJ/mol
# GULP energy per Si atom -5570.278109 kJ/mol
# Density = 2.342182 g / cm^3
# Si number density = 23.475248 Si / 1000 Ang^3
#
#
#
# Elastic Constant Matrix: (Units=GPa)
#
#
# Indices 1 2 3 4 5 6 
#
# 1 45.3258 2.4786 32.2603 0.0000 15.2670 0.0000
# 2 2.4786 112.9651 45.5567 0.0000 16.8343 0.0000
# 3 32.2603 45.5567 139.4889 0.0000 33.2347 0.0000
# 4 0.0000 0.0000 0.0000 34.1324 0.0000 -4.8488
# 5 15.2670 16.8343 33.2347 0.0000 45.9731 0.0000
# 6 0.0000 0.0000 0.0000 -4.8488 0.0000 14.1737
#
#
#
# Elastic Compliance Matrix: (Units=1/GPa)
#
#
# Indices 1 2 3 4 5 6 
#
# 1 0.028189 0.002684 -0.005958 0.000000 -0.006037 0.000000
# 2 0.002684 0.010549 -0.003544 0.000000 -0.002192 0.000000
# 3 -0.005958 -0.003544 0.010781 0.000000 -0.004517 0.000000
# 4 0.000000 0.000000 0.000000 0.030794 0.000000 0.010535
# 5 -0.006037 -0.002192 -0.004517 0.000000 0.027825 0.000000
# 6 0.000000 0.000000 0.000000 0.010535 0.000000 0.074157
#
#
# Mechanical properties :
#
#
# Convention : Reuss Voigt Hill
#
# Bulk Modulus (GPa) = 27.86744 50.93011 39.39877
# Shear Modulus (GPa) = 24.05091 33.35478 28.70285
#
# Velocity S-wave (km/s) = 3.20429 3.77350 3.50049
# Velocity P-wave (km/s) = 5.05833 6.38186 5.75825
#
# Compressibility (1/GPa) = 0.03588418
#
# Stress axis : x y z
#
# Youngs Moduli (GPa) = 35.47420 94.79380 92.75972
#
# Poissons Ratio (x) = -0.25440 0.55263
# Poissons Ratio (y) = -0.09520 0.32871
# Poissons Ratio (z) = 0.21134 0.33592
#
# Static dielectric constant tensor:
#      x y z
#    x 1.127050 0.000000 -0.268560 
#    y 0.000000 1.164050 0.000000 
#    z -0.268560 0.000000 1.819960 
# 
# From -- ./inp_files/196650.got.cif
#   From: 2010.05.17/outbox.cif.g08.bks.cpg/sg15_99_cif.got.tgz:196650.got - 2010.06.03 18:47:42.
