data_PCOD9254785
_publ_section_title
;
Structure prediction by ZEFSAII (Michael W. Deem and Ramdas Pophale) SiO2 
 PCOD9254785
Probable space group: C 2/C
;
_chemical_formula_sum "Si O2"
_cell_formula_units_Z 36
_cell_length_a 13.714492
_cell_length_b 17.808918
_cell_length_c 13.676469
_cell_angle_alpha 90.000000
_cell_angle_beta 30.264952
_cell_angle_gamma 90.000000
_cell_volume 1683.531528
_symmetry_space_group_name_H-M "C 2/C"
_symmetry_group_IT_number 15
_symmetry_cell_setting 'monoclinic'
loop_
_space_group_symop_operation_xyz
x,y,z
-x,y,1/2-z
-x,-y,-z
x,-y,1/2+z
1/2+x,1/2+y,z
1/2-x,1/2+y,1/2-z
1/2-x,1/2-y,-z
1/2+x,1/2-y,1/2+z
loop_
_atom_site_type_symbol
_atom_site_label
_atom_site_fract_x
_atom_site_fract_y
_atom_site_fract_z
Si Si1 0.965296 0.087520 0.024054
Si Si2 0.170604 0.162890 0.674538
Si Si3 0.099887 0.330586 0.793540
Si Si4 0.736310 0.677698 0.144262
Si Si5 0.500000 0.189846 0.750000
O O1 0.764084 0.107039 0.142856
O O2 0.924577 0.124734 0.165528
O O3 0.126766 0.128358 0.819038
O O4 0.000000 0.000000 0.000000
O O5 0.162272 0.253507 0.688423
O O6 0.385832 0.143810 0.454063
O O7 0.000000 0.138597 0.750000
O O8 0.111784 0.309856 0.899139
O O9 0.633137 0.753756 0.198989
O O10 0.857092 0.647207 0.947389
#
# Coordination Sequence:
#
# PCOD9254785 Si02
#       5
#     8   8   8   8   4
#     4  10  24  43  60  90 141 181 217 272 355 402
#     4  12  22  37  70 100 131 173 236 282 322 406
#     4  10  21  38  65  97 130 177 220 278 341 392
#     4   9  20  33  60  91 130 172 213 276 336 385
#     4  10  16  34  62  96 122 164 236 280 310 402
#
# _framework density 21.383621999999999
#
# number of rings (size 3 to 8) (size 9 to 14) (size 15 to 20)
#    1.333    0.444    2.222    3.333    0.000    2.667 
#    2.000    0.000    0.000    0.000    0.000    0.000 
#    0.000    0.000    0.000    0.000    0.000    0.000 
#
# Total GULP energy -100421.931907 kJ/mol
# GULP energy per Si atom -5578.996217 kJ/mol
# Density = 2.133495 g / cm^3
# Si number density = 21.383622 Si / 1000 Ang^3
#
#
#
# Elastic Constant Matrix: (Units=GPa)
#
#
# Indices 1 2 3 4 5 6 
#
# 1 65.7238 13.3314 12.8901 0.0027 -0.2640 0.0005
# 2 13.3314 87.6739 43.5787 -0.0066 7.9052 0.0059
# 3 12.8901 43.5787 138.8884 -0.0027 9.8311 0.0068
# 4 0.0027 -0.0066 -0.0027 13.8641 0.0051 -7.3254
# 5 -0.2640 7.9052 9.8311 0.0051 52.8391 -0.0035
# 6 0.0005 0.0059 0.0068 -7.3254 -0.0035 11.8910
#
#
#
# Elastic Compliance Matrix: (Units=1/GPa)
#
#
# Indices 1 2 3 4 5 6 
#
# 1 0.015798 -0.002018 -0.000871 -0.000006 0.000543 -0.000003
# 2 -0.002018 0.013853 -0.004065 0.000006 -0.001326 -0.000001
# 3 -0.000871 -0.004065 0.008627 -0.000002 -0.001001 -0.000004
# 4 -0.000006 0.000006 -0.000002 0.106937 -0.000007 0.065878
# 5 0.000543 -0.001326 -0.001001 -0.000007 0.019313 0.000003
# 6 -0.000003 -0.000001 -0.000004 0.065878 0.000003 0.124681
#
#
# Mechanical properties :
#
#
# Convention : Reuss Voigt Hill
#
# Bulk Modulus (GPa) = 41.03680 47.98738 44.51209
# Shear Modulus (GPa) = 16.06470 30.55124 23.30797
#
# Velocity S-wave (km/s) = 2.74389 3.78394 3.30508
# Velocity P-wave (km/s) = 5.41027 6.44832 5.95197
#
# Compressibility (1/GPa) = 0.02436837
#
# Stress axis : x y z
#
# Youngs Moduli (GPa) = 63.30080 72.18605 115.90976
#
# Poissons Ratio (x) = 0.14567 0.10101
# Poissons Ratio (y) = 0.12774 0.47123
# Poissons Ratio (z) = 0.05516 0.29347
#
# Static dielectric constant tensor:
#      x y z
#    x 1.861780 0.000000 0.031550 
#    y 0.000000 1.699760 0.000000 
#    z 0.031550 0.000000 1.835420 
# 
# From -- ./inp_files/155033.got.cif
#   From: 2010.05.17/outbox.cif.g08.bks.cpg/sg15_78_cif.got.tgz:155033.got - 2010.06.03 18:47:42.
