data_PCOD9254185
_publ_section_title
;
Structure prediction by ZEFSAII (Michael W. Deem and Ramdas Pophale) SiO2 
 PCOD9254185
Probable space group: C 2/C
;
_chemical_formula_sum "Si O2"
_cell_formula_units_Z 40
_cell_length_a 19.602526
_cell_length_b 6.938308
_cell_length_c 16.493917
_cell_angle_alpha 90.000000
_cell_angle_beta 136.501097
_cell_angle_gamma 90.000000
_cell_volume 1544.161995
_symmetry_space_group_name_H-M "C 2/C"
_symmetry_group_IT_number 15
_symmetry_cell_setting 'monoclinic'
loop_
_space_group_symop_operation_xyz
x,y,z
-x,y,1/2-z
-x,-y,-z
x,-y,1/2+z
1/2+x,1/2+y,z
1/2-x,1/2+y,1/2-z
1/2-x,1/2-y,-z
1/2+x,1/2-y,1/2+z
loop_
_atom_site_type_symbol
_atom_site_label
_atom_site_fract_x
_atom_site_fract_y
_atom_site_fract_z
Si Si1 0.172285 0.267631 0.121625
Si Si2 0.935712 0.836841 0.625513
Si Si3 0.180090 0.845930 0.373738
Si Si4 0.198645 0.821248 0.127031
Si Si5 0.534691 0.698495 0.625206
O O1 0.249134 0.402273 0.140204
O O2 0.197251 0.278265 0.238297
O O3 0.200907 0.052560 0.117658
O O4 0.062526 0.299466 0.994094
O O5 0.852716 0.738742 0.498135
O O6 0.000000 0.728802 0.750000
O O7 0.873679 0.982202 0.627897
O O8 0.000601 0.978860 0.621281
O O9 0.250000 0.750000 0.500000
O O10 0.090461 0.727517 0.253782
O O11 0.115452 0.787976 0.124325
#
# Coordination Sequence:
#
# PCOD9254185 Si02
#       5
#     8   8   8   8   8
#     4  10  19  32  51  75 103 133 169 211 256 302
#     4   9  16  28  49  74  97 130 173 212 243 293
#     4  10  16  27  49  76  98 122 172 217 249 277
#     4  10  19  32  51  74 101 133 169 212 253 303
#     4   9  18  29  49  74  99 132 167 210 248 305
#
# _framework density 25.904017
#
# number of rings (size 3 to 8) (size 9 to 14) (size 15 to 20)
#    0.000    2.400    4.000    2.400    0.000    0.000 
#    0.000    4.000    0.000   19.200    0.000    0.000 
#    0.000    0.000    0.000    0.000    0.000    0.000 
#
# Total GULP energy -111557.428462 kJ/mol
# GULP energy per Si atom -5577.871423 kJ/mol
# Density = 2.584506 g / cm^3
# Si number density = 25.904017 Si / 1000 Ang^3
#
#
#
# Elastic Constant Matrix: (Units=GPa)
#
#
# Indices 1 2 3 4 5 6 
#
# 1 72.4773 -12.1559 35.6532 0.0000 0.9176 0.0000
# 2 -12.1559 27.3583 23.9868 0.0000 -2.8840 0.0000
# 3 35.6532 23.9868 348.3957 0.0000 -28.5286 0.0000
# 4 0.0000 0.0000 0.0000 33.9719 0.0000 2.8782
# 5 0.9176 -2.8840 -28.5286 0.0000 46.7435 0.0000
# 6 0.0000 0.0000 0.0000 2.8782 0.0000 6.8005
#
#
#
# Elastic Compliance Matrix: (Units=1/GPa)
#
#
# Indices 1 2 3 4 5 6 
#
# 1 0.016590 0.009385 -0.002445 0.000000 -0.001239 0.000000
# 2 0.009385 0.044238 -0.003998 0.000000 0.000105 0.000000
# 3 -0.002445 -0.003998 0.003557 0.000000 0.001972 0.000000
# 4 0.000000 0.000000 0.000000 0.030531 0.000000 -0.012922
# 5 -0.001239 0.000105 0.001972 0.000000 0.022628 0.000000
# 6 0.000000 0.000000 0.000000 -0.012922 0.000000 0.152518
#
#
# Mechanical properties :
#
#
# Convention : Reuss Voigt Hill
#
# Bulk Modulus (GPa) = 14.23102 60.35548 37.29325
# Shear Modulus (GPa) = 17.38519 44.21966 30.80243
#
# Velocity S-wave (km/s) = 2.59344 4.13614 3.45207
# Velocity P-wave (km/s) = 3.80442 6.79415 5.50609
#
# Compressibility (1/GPa) = 0.07026902
#
# Stress axis : x y z
#
# Youngs Moduli (GPa) = 60.27710 22.60505 281.11321
#
# Poissons Ratio (x) = -0.21214 0.68742
# Poissons Ratio (y) = -0.56568 1.12375
# Poissons Ratio (z) = 0.14740 0.09036
#
# Static dielectric constant tensor:
#      x y z
#    x 2.056330 0.000000 -0.005450 
#    y 0.000000 2.130100 0.000000 
#    z -0.005450 0.000000 2.122710 
# 
# From -- ./inp_files/160209.got.cif
#   From: 2010.05.17/outbox.cif.g08.bks.cpg/sg15_81_cif.got.tgz:160209.got - 2010.06.03 18:47:42.
