data_PCOD9254480
_publ_section_title
;
Structure prediction by ZEFSAII (Michael W. Deem and Ramdas Pophale) SiO2 
 PCOD9254480
Probable space group: C 2/C
;
_chemical_formula_sum "Si O2"
_cell_formula_units_Z 52
_cell_length_a 18.242527
_cell_length_b 11.360111
_cell_length_c 13.552749
_cell_angle_alpha 90.000000
_cell_angle_beta 118.031864
_cell_angle_gamma 90.000000
_cell_volume 2479.141911
_symmetry_space_group_name_H-M "C 2/C"
_symmetry_group_IT_number 15
_symmetry_cell_setting 'monoclinic'
loop_
_space_group_symop_operation_xyz
x,y,z
-x,y,1/2-z
-x,-y,-z
x,-y,1/2+z
1/2+x,1/2+y,z
1/2-x,1/2+y,1/2-z
1/2-x,1/2-y,-z
1/2+x,1/2-y,1/2+z
loop_
_atom_site_type_symbol
_atom_site_label
_atom_site_fract_x
_atom_site_fract_y
_atom_site_fract_z
Si Si1 0.500000 0.109170 0.750000
Si Si2 0.625477 0.915402 0.039042
Si Si3 0.264263 0.527957 0.237460
Si Si4 0.711997 0.378605 0.959889
Si Si5 0.914526 0.927099 0.458012
Si Si6 0.842723 0.451630 0.651885
Si Si7 0.958807 0.674035 0.517775
O O1 0.425433 0.022366 0.736295
O O2 0.466187 0.187181 0.640154
O O3 0.708843 0.921113 0.156087
O O4 0.552038 0.842528 0.039592
O O5 0.634568 0.875478 0.930527
O O6 0.592039 0.051882 0.022998
O O7 0.288746 0.601696 0.157260
O O8 0.345476 0.483190 0.344004
O O9 0.205704 0.591422 0.282199
O O10 0.750000 0.250000 0.000000
O O11 0.626779 0.418311 0.958795
O O12 0.779382 0.459572 0.058124
O O13 0.924254 0.787961 0.442252
O O14 0.000000 0.000000 0.500000
#
# Coordination Sequence:
#
# PCOD9254480 Si02
#       7
#     4   8   8   8   8   8   8
#     4  10  16  30  60  98 128 158 214 278 334 374
#     4   9  18  37  65  93 128 163 221 289 320 391
#     4  10  20  39  63  88 132 171 210 271 342 386
#     4  10  21  41  67  90 123 173 237 280 310 402
#     4  11  25  41  61  95 138 174 218 270 343 420
#     4   9  18  31  58  94 121 158 206 271 341 385
#     4  10  20  36  62  96 132 162 221 277 329 397
#
# _framework density 20.975000000000001
#
# number of rings (size 3 to 8) (size 9 to 14) (size 15 to 20)
#    0.000    2.154    1.538    2.769    0.000    3.077 
#    2.769    0.000   16.923    2.769    0.000    0.000 
#    0.000    0.000    0.000    0.000    0.000    0.000 
#
# Total GULP energy -144923.014763 kJ/mol
# GULP energy per Si atom -5573.962106 kJ/mol
# Density = 2.092726 g / cm^3
# Si number density = 20.975000 Si / 1000 Ang^3
#
#
#
# Elastic Constant Matrix: (Units=GPa)
#
#
# Indices 1 2 3 4 5 6 
#
# 1 162.0145 32.4951 63.1053 0.0000 -13.4762 0.0000
# 2 32.4951 40.1721 18.2831 0.0000 -5.8764 0.0000
# 3 63.1053 18.2831 114.5275 0.0000 -10.1733 0.0000
# 4 0.0000 0.0000 0.0000 19.0459 0.0000 0.2386
# 5 -13.4762 -5.8764 -10.1733 0.0000 45.1273 0.0000
# 6 0.0000 0.0000 0.0000 0.2386 0.0000 17.7174
#
#
#
# Elastic Compliance Matrix: (Units=1/GPa)
#
#
# Indices 1 2 3 4 5 6 
#
# 1 0.008841 -0.005199 -0.003946 0.000000 0.001074 0.000000
# 2 -0.005199 0.030198 -0.001781 0.000000 0.001978 0.000000
# 3 -0.003946 -0.001781 0.011291 0.000000 0.001135 0.000000
# 4 0.000000 0.000000 0.000000 0.052514 0.000000 -0.000707
# 5 0.001074 0.001978 0.001135 0.000000 0.022994 0.000000
# 6 0.000000 0.000000 0.000000 -0.000707 0.000000 0.056451
#
#
# Mechanical properties :
#
#
# Convention : Reuss Voigt Hill
#
# Bulk Modulus (GPa) = 35.11336 60.49789 47.80562
# Shear Modulus (GPa) = 23.40460 29.90015 26.65238
#
# Velocity S-wave (km/s) = 3.34403 3.77969 3.56852
# Velocity P-wave (km/s) = 5.62912 6.92485 6.31033
#
# Compressibility (1/GPa) = 0.02847919
#
# Stress axis : x y z
#
# Youngs Moduli (GPa) = 113.10406 33.11493 88.56551
#
# Poissons Ratio (x) = 0.17215 0.34951
# Poissons Ratio (y) = 0.58799 0.15769
# Poissons Ratio (z) = 0.44635 0.05896
#
# Static dielectric constant tensor:
#      x y z
#    x 1.884170 0.000000 -0.054290 
#    y 0.000000 1.749550 0.000000 
#    z -0.054290 0.000000 1.784480 
# 
# From -- ./inp_files/161049.got.cif
#   From: 2010.05.17/outbox.cif.g08.bks.cpg/sg15_81_cif.got.tgz:161049.got - 2010.06.03 18:47:42.
