data_PCOD9254173
_publ_section_title
;
Structure prediction by ZEFSAII (Michael W. Deem and Ramdas Pophale) SiO2 
 PCOD9254173
Probable space group: C 2/C
;
_chemical_formula_sum "Si O2"
_cell_formula_units_Z 40
_cell_length_a 13.321116
_cell_length_b 5.078800
_cell_length_c 23.519398
_cell_angle_alpha 90.000000
_cell_angle_beta 102.217056
_cell_angle_gamma 90.000000
_cell_volume 1555.175291
_symmetry_space_group_name_H-M "C 2/C"
_symmetry_group_IT_number 15
_symmetry_cell_setting 'monoclinic'
loop_
_space_group_symop_operation_xyz
x,y,z
-x,y,1/2-z
-x,-y,-z
x,-y,1/2+z
1/2+x,1/2+y,z
1/2-x,1/2+y,1/2-z
1/2-x,1/2-y,-z
1/2+x,1/2-y,1/2+z
loop_
_atom_site_type_symbol
_atom_site_label
_atom_site_fract_x
_atom_site_fract_y
_atom_site_fract_z
Si Si1 0.327493 0.643651 0.909241
Si Si2 0.942177 0.973031 0.683200
Si Si3 0.359214 0.168730 0.983944
Si Si4 0.258633 0.738709 0.786193
Si Si5 0.086003 0.494840 0.891202
O O1 0.390218 0.421702 0.950594
O O2 0.343609 0.664464 0.843276
O O3 0.207682 0.560174 0.901671
O O4 0.339067 0.923324 0.940604
O O5 0.935126 0.243211 0.649386
O O6 0.000000 0.987087 0.750000
O O7 0.828534 0.892716 0.689984
O O8 0.973435 0.739637 0.643729
O O9 0.250000 0.250000 0.000000
O O10 0.430619 0.078312 0.044902
O O11 0.213474 0.464989 0.755989
#
# Coordination Sequence:
#
# PCOD9254173 Si02
#       5
#     8   8   8   8   8
#     4  10  18  29  47  75 105 132 165 212 262 307
#     4  11  22  36  53  78 108 140 175 213 255 308
#     4  10  16  27  47  74 104 132 160 211 271 307
#     4  11  21  35  53  77 106 139 174 213 255 306
#     4  10  18  31  50  76 106 135 168 215 263 308
#
# _framework density 25.720573999999999
#
# number of rings (size 3 to 8) (size 9 to 14) (size 15 to 20)
#    0.000    1.600    0.000   12.600    0.000    0.000 
#    0.000    0.000    0.000    0.000    0.000   28.000 
#    0.000    0.000    0.000    0.000    0.000    0.000 
#
# Total GULP energy -112031.223818 kJ/mol
# GULP energy per Si atom -5601.561191 kJ/mol
# Density = 2.566203 g / cm^3
# Si number density = 25.720574 Si / 1000 Ang^3
#
#
#
# Elastic Constant Matrix: (Units=GPa)
#
#
# Indices 1 2 3 4 5 6 
#
# 1 62.7261 6.9819 19.4089 0.0000 5.3748 0.0000
# 2 6.9819 220.0861 99.2644 0.0000 7.4944 0.0000
# 3 19.4089 99.2644 208.8842 0.0000 14.6947 0.0000
# 4 0.0000 0.0000 0.0000 48.2089 0.0000 19.6464
# 5 5.3748 7.4944 14.6947 0.0000 27.8681 0.0000
# 6 0.0000 0.0000 0.0000 19.6464 0.0000 1.6759
#
#
#
# Elastic Compliance Matrix: (Units=1/GPa)
#
#
# Indices 1 2 3 4 5 6 
#
# 1 0.016586 0.000222 -0.001472 0.000000 -0.002482 0.000000
# 2 0.000222 0.005787 -0.002760 0.000000 -0.000143 0.000000
# 3 -0.001472 -0.002760 0.006401 0.000000 -0.002349 0.000000
# 4 0.000000 0.000000 0.000000 -0.005491 0.000000 0.064375
# 5 -0.002482 -0.000143 -0.002349 0.000000 0.037639 0.000000
# 6 0.000000 0.000000 0.000000 0.064375 0.000000 -0.157965
#
#
# Mechanical properties :
#
#
# Convention : Reuss Voigt Hill
#
# Bulk Modulus (GPa) = 48.18560 82.55632 65.37096
# Shear Modulus (GPa) = -60.89689 39.95333 -10.47178
#
# Velocity S-wave (km/s) = -4.87111 3.94555 -2.01995
# Velocity P-wave (km/s) = 3.58637 7.27485 4.47557
#
# Compressibility (1/GPa) = 0.02075309
#
# Stress axis : x y z
#
# Youngs Moduli (GPa) = 60.29256 172.81570 156.22194
#
# Poissons Ratio (x) = -0.03842 0.22998
# Poissons Ratio (y) = -0.01341 0.43123
# Poissons Ratio (z) = 0.08876 0.47704
#
# Static dielectric constant tensor:
#      x y z
#    x 2.161990 0.000000 -0.006130 
#    y 0.000000 1.968570 0.000000 
#    z -0.006130 0.000000 2.210430 
# 
# From -- ./inp_files/246312.got.cif
#   From: 2010.05.17/outbox.cif.g08.bks.cpg/sg15_124_cif.got.tgz:246312.got - 2010.06.03 18:47:42.
