data_PCOD9254600
_publ_section_title
;
Structure prediction by ZEFSAII (Michael W. Deem and Ramdas Pophale) SiO2 
 PCOD9254600
Probable space group: C 2/C
;
_chemical_formula_sum "Si O2"
_cell_formula_units_Z 48
_cell_length_a 27.264835
_cell_length_b 13.147198
_cell_length_c 8.957295
_cell_angle_alpha 90.000000
_cell_angle_beta 122.386101
_cell_angle_gamma 90.000000
_cell_volume 2711.383502
_symmetry_space_group_name_H-M "C 2/C"
_symmetry_group_IT_number 15
_symmetry_cell_setting 'monoclinic'
loop_
_space_group_symop_operation_xyz
x,y,z
-x,y,1/2-z
-x,-y,-z
x,-y,1/2+z
1/2+x,1/2+y,z
1/2-x,1/2+y,1/2-z
1/2-x,1/2-y,-z
1/2+x,1/2-y,1/2+z
loop_
_atom_site_type_symbol
_atom_site_label
_atom_site_fract_x
_atom_site_fract_y
_atom_site_fract_z
Si Si1 0.000000 0.762098 0.750000
Si Si2 0.000000 0.749386 0.250000
Si Si3 0.594541 0.383327 0.576512
Si Si4 0.095234 0.607682 0.870234
Si Si5 0.182128 0.233987 0.404729
Si Si6 0.552636 0.923453 0.628879
Si Si7 0.097662 0.094988 0.419761
O O1 0.042600 0.684098 0.732045
O O2 0.047336 0.833987 0.908689
O O3 0.046921 0.819044 0.410755
O O4 0.030860 0.674278 0.182360
O O5 0.650989 0.313898 0.706915
O O6 0.606496 0.487553 0.509615
O O7 0.574719 0.414900 0.711508
O O8 0.152105 0.660372 0.900060
O O9 0.089124 0.494987 0.798737
O O10 0.086895 0.604413 0.034497
O O11 0.250000 0.250000 0.500000
O O12 0.157648 0.157050 0.493584
O O13 0.500000 0.000000 0.500000
#
# Coordination Sequence:
#
# PCOD9254600 Si02
#       7
#     4   4   8   8   8   8   8
#     4  10  16  32  54  78 120 154 180 230 312 364
#     4  12  22  34  64  90 138 160 196 246 314 392
#     4  10  22  38  58  91 116 159 192 249 307 361
#     4  11  21  35  57  85 120 162 203 252 309 362
#     4   9  22  45  62  79 120 166 210 256 304 356
#     4  12  20  34  55  90 127 159 197 248 308 376
#     4   9  21  36  60  87 119 156 198 248 309 366
#
# _framework density 17.703139
#
# number of rings (size 3 to 8) (size 9 to 14) (size 15 to 20)
#    1.000    0.667    3.333    2.500    0.000    5.333 
#    3.000    0.000    0.000    2.000    0.000    0.000 
#    0.000    0.000    0.000    0.000    0.000    0.000 
#
# Total GULP energy -133619.854405 kJ/mol
# GULP energy per Si atom -5567.493934 kJ/mol
# Density = 1.766285 g / cm^3
# Si number density = 17.703139 Si / 1000 Ang^3
#
#
#
# Elastic Constant Matrix: (Units=GPa)
#
#
# Indices 1 2 3 4 5 6 
#
# 1 127.8981 45.2984 34.7650 0.0000 19.3695 0.0000
# 2 45.2984 103.0960 37.7255 0.0000 3.7202 0.0000
# 3 34.7650 37.7255 77.6536 0.0000 -2.5963 0.0000
# 4 0.0000 0.0000 0.0000 37.9100 0.0000 -13.8651
# 5 19.3695 3.7202 -2.5963 0.0000 24.2746 0.0000
# 6 0.0000 0.0000 0.0000 -13.8651 0.0000 22.9128
#
#
#
# Elastic Compliance Matrix: (Units=1/GPa)
#
#
# Indices 1 2 3 4 5 6 
#
# 1 0.011374 -0.003284 -0.003797 0.000000 -0.008978 0.000000
# 2 -0.003284 0.012890 -0.004787 0.000000 0.000133 0.000000
# 3 -0.003797 -0.004787 0.017090 0.000000 0.005591 0.000000
# 4 0.000000 0.000000 0.000000 0.033875 0.000000 0.020499
# 5 -0.008978 0.000133 0.005591 0.000000 0.048937 0.000000
# 6 0.000000 0.000000 0.000000 0.020499 0.000000 0.056048
#
#
# Mechanical properties :
#
#
# Convention : Reuss Voigt Hill
#
# Bulk Modulus (GPa) = 56.76218 60.46948 58.61583
# Shear Modulus (GPa) = 23.82971 29.74340 26.78656
#
# Velocity S-wave (km/s) = 3.67287 4.10337 3.89407
# Velocity P-wave (km/s) = 7.07952 7.52874 7.30758
#
# Compressibility (1/GPa) = 0.01761736
#
# Stress axis : x y z
#
# Youngs Moduli (GPa) = 87.92352 77.58160 58.51341
#
# Poissons Ratio (x) = 0.25478 0.22215
# Poissons Ratio (y) = 0.28875 0.28012
# Poissons Ratio (z) = 0.33381 0.37141
#
# Static dielectric constant tensor:
#      x y z
#    x 1.608870 0.000000 -0.017160 
#    y 0.000000 1.633830 0.000000 
#    z -0.017160 0.000000 1.658170 
# 
# From -- ./inp_files/68899.got.cif
#   From: 2010.05.17/outbox.cif.g08.bks.cpg/sg15_35_cif.got.tgz:68899.got - 2010.06.03 18:47:42.
