data_PCOD9254325
_publ_section_title
;
Structure prediction by ZEFSAII (Michael W. Deem and Ramdas Pophale) SiO2 
 PCOD9254325
Probable space group: C 2/C
;
_chemical_formula_sum "Si O2"
_cell_formula_units_Z 56
_cell_length_a 9.522958
_cell_length_b 15.452698
_cell_length_c 24.989632
_cell_angle_alpha 90.000000
_cell_angle_beta 44.073661
_cell_angle_gamma 90.000000
_cell_volume 2557.907030
_symmetry_space_group_name_H-M "C 2/C"
_symmetry_group_IT_number 15
_symmetry_cell_setting 'monoclinic'
loop_
_space_group_symop_operation_xyz
x,y,z
-x,y,1/2-z
-x,-y,-z
x,-y,1/2+z
1/2+x,1/2+y,z
1/2-x,1/2+y,1/2-z
1/2-x,1/2-y,-z
1/2+x,1/2-y,1/2+z
loop_
_atom_site_type_symbol
_atom_site_label
_atom_site_fract_x
_atom_site_fract_y
_atom_site_fract_z
Si Si1 0.609556 0.571672 0.164220
Si Si2 0.187618 0.566426 0.947313
Si Si3 0.173580 0.809718 0.820156
Si Si4 0.080086 0.666999 0.141274
Si Si5 0.025235 0.708594 0.444591
Si Si6 0.313040 0.809888 0.432299
Si Si7 0.722204 0.493646 0.963314
O O1 0.500000 0.580894 0.250000
O O2 0.673844 0.472817 0.136456
O O3 0.467922 0.608204 0.155573
O O4 0.800416 0.636128 0.113257
O O5 0.294543 0.551433 0.974657
O O6 0.000000 0.500000 0.000000
O O7 0.103589 0.662672 0.973163
O O8 0.258182 0.811287 0.857070
O O9 0.363660 0.815444 0.728043
O O10 0.026703 0.727371 0.853508
O O11 0.130022 0.567400 0.111949
O O12 0.082975 0.715400 0.083062
O O13 0.140260 0.791633 0.435191
O O14 0.250000 0.750000 0.500000
O O15 0.312889 0.910574 0.445513
O O16 0.500000 0.500000 0.000000
#
# Coordination Sequence:
#
# PCOD9254325 Si02
#       7
#     8   8   8   8   8   8   8
#     4  10  16  29  54  88 116 162 204 246 314 379
#     4   9  18  33  56  87 121 158 205 259 303 374
#     4  10  21  37  62  88 127 164 205 256 334 368
#     4  10  20  39  63  91 126 166 205 266 315 380
#     4   9  19  35  58  88 118 161 209 256 315 367
#     4  11  22  39  63  92 125 168 211 264 317 385
#     4  11  22  40  65  94 122 164 220 259 313 376
#
# _framework density 21.892897999999999
#
# number of rings (size 3 to 8) (size 9 to 14) (size 15 to 20)
#    0.000    2.000    1.429    4.286    0.000    0.000 
#    0.000   10.714    0.000   22.286    0.000    0.000 
#    0.000    0.000    0.000    0.000    0.000    0.000 
#
# Total GULP energy -156441.603525 kJ/mol
# GULP energy per Si atom -5587.200126 kJ/mol
# Density = 2.184307 g / cm^3
# Si number density = 21.892898 Si / 1000 Ang^3
#
#
#
# Elastic Constant Matrix: (Units=GPa)
#
#
# Indices 1 2 3 4 5 6 
#
# 1 116.0688 18.4790 3.9524 0.0001 2.5269 -0.0001
# 2 18.4790 85.7641 52.7114 0.0001 -9.0441 -0.0001
# 3 3.9524 52.7114 82.2616 -0.0004 -3.3780 -0.0001
# 4 0.0001 0.0001 -0.0004 26.5292 0.0002 -1.0527
# 5 2.5269 -9.0441 -3.3780 0.0002 32.3262 0.0000
# 6 -0.0001 -0.0001 -0.0001 -1.0527 0.0000 24.1605
#
#
#
# Elastic Compliance Matrix: (Units=1/GPa)
#
#
# Indices 1 2 3 4 5 6 
#
# 1 0.009070 -0.002966 0.001408 0.000000 -0.001392 0.000000
# 2 -0.002966 0.020765 -0.012971 0.000000 0.004686 0.000000
# 3 0.001408 -0.012971 0.020334 0.000000 -0.001614 0.000000
# 4 0.000000 0.000000 0.000000 0.037760 0.000000 0.001645
# 5 -0.001392 0.004686 -0.001614 0.000000 0.032186 0.000000
# 6 0.000000 0.000000 0.000000 0.001645 0.000000 0.041462
#
#
# Mechanical properties :
#
#
# Convention : Reuss Voigt Hill
#
# Bulk Modulus (GPa) = 47.36993 48.26443 47.81718
# Shear Modulus (GPa) = 25.29442 30.53330 27.91386
#
# Velocity S-wave (km/s) = 3.40276 3.73858 3.57461
# Velocity P-wave (km/s) = 6.09282 6.38197 6.23907
#
# Compressibility (1/GPa) = 0.02111044
#
# Stress axis : x y z
#
# Youngs Moduli (GPa) = 110.25115 48.15739 49.17892
#
# Poissons Ratio (x) = 0.14285 -0.06923
# Poissons Ratio (y) = 0.32704 0.63790
# Poissons Ratio (z) = -0.15521 0.62465
#
# Static dielectric constant tensor:
#      x y z
#    x 1.853590 0.000000 -0.020640 
#    y 0.000000 1.790420 0.000000 
#    z -0.020640 0.000000 1.805290 
# 
# From -- ./inp_files/265474.got.cif
#   From: 2010.05.17/outbox.cif.g08.bks.cpg/sg15_133_cif.got.tgz:265474.got - 2010.06.03 18:47:42.
