data_PCOD9254960
_publ_section_title
;
Structure prediction by ZEFSAII (Michael W. Deem and Ramdas Pophale) SiO2 
 PCOD9254960
Probable space group: C 2/C
;
_chemical_formula_sum "Si O2"
_cell_formula_units_Z 52
_cell_length_a 29.714450
_cell_length_b 9.000618
_cell_length_c 8.724935
_cell_angle_alpha 90.000000
_cell_angle_beta 51.445032
_cell_angle_gamma 90.000000
_cell_volume 1824.798231
_symmetry_space_group_name_H-M "C 2/C"
_symmetry_group_IT_number 15
_symmetry_cell_setting 'monoclinic'
loop_
_space_group_symop_operation_xyz
x,y,z
-x,y,1/2-z
-x,-y,-z
x,-y,1/2+z
1/2+x,1/2+y,z
1/2-x,1/2+y,1/2-z
1/2-x,1/2-y,-z
1/2+x,1/2-y,1/2+z
loop_
_atom_site_type_symbol
_atom_site_label
_atom_site_fract_x
_atom_site_fract_y
_atom_site_fract_z
Si Si1 0.032971 0.297349 0.488324
Si Si2 0.371076 0.637462 0.608558
Si Si3 0.216082 0.138092 0.460632
Si Si4 0.356795 0.835353 0.120375
Si Si5 0.416481 0.898924 0.722357
Si Si6 0.293662 0.178397 0.036720
Si Si7 0.500000 0.366937 0.750000
O O1 0.091875 0.231274 0.425590
O O2 0.053747 0.466827 0.426050
O O3 0.968770 0.303123 0.689464
O O4 0.019758 0.228726 0.351696
O O5 0.386685 0.786872 0.669977
O O6 0.331791 0.696808 0.547889
O O7 0.435232 0.569987 0.433844
O O8 0.327731 0.558792 0.825881
O O9 0.250000 0.250000 0.500000
O O10 0.179917 0.232147 0.413917
O O11 0.263005 0.079410 0.234900
O O12 0.330206 0.905752 0.328798
O O13 0.382091 0.949774 0.944376
O O14 0.250000 0.250000 0.000000
#
# Coordination Sequence:
#
# PCOD9254960 Si02
#       7
#     8   8   8   8   8   8   4
#     4  10  19  27  37  52  83 116 143 164 206 232
#     4   9  16  29  39  57  75 103 132 173 218 241
#     4   8  16  29  43  54  70  91 127 183 228 246
#     4  10  17  26  40  57  68  95 142 176 211 239
#     4   9  20  27  38  52  82 115 142 169 204 237
#     4   9  16  27  43  55  68  89 131 186 222 244
#     4  10  18  26  38  56  84 108 140 174 204 230
#
# _framework density 28.496300999999999
#
# number of rings (size 3 to 8) (size 9 to 14) (size 15 to 20)
#    0.000    2.769    1.538    0.462    6.462    0.000 
#    0.000    0.000    0.000    0.000    0.000    0.000 
#    0.000    0.000    0.000    0.000    0.000    0.000 
#
# Total GULP energy -144809.410304 kJ/mol
# GULP energy per Si atom -5569.592704 kJ/mol
# Density = 2.843144 g / cm^3
# Si number density = 28.496301 Si / 1000 Ang^3
#
#
#
# Elastic Constant Matrix: (Units=GPa)
#
#
# Indices 1 2 3 4 5 6 
#
# 1 263.1306 27.6646 38.7509 0.0000 19.3036 0.0000
# 2 27.6646 51.6398 25.0288 0.0000 5.2602 0.0000
# 3 38.7509 25.0288 247.3865 0.0000 -1.5900 0.0000
# 4 0.0000 0.0000 0.0000 22.5669 0.0000 0.8983
# 5 19.3036 5.2602 -1.5900 0.0000 44.6126 0.0000
# 6 0.0000 0.0000 0.0000 0.8983 0.0000 7.9856
#
#
#
# Elastic Compliance Matrix: (Units=1/GPa)
#
#
# Indices 1 2 3 4 5 6 
#
# 1 0.004183 -0.001845 -0.000479 0.000000 -0.001609 0.000000
# 2 -0.001845 0.021454 -0.001893 0.000000 -0.001799 0.000000
# 3 -0.000479 -0.001893 0.004313 0.000000 0.000584 0.000000
# 4 0.000000 0.000000 0.000000 0.044512 0.000000 -0.005007
# 5 -0.001609 -0.001799 0.000584 0.000000 0.023345 0.000000
# 6 0.000000 0.000000 0.000000 -0.005007 0.000000 0.125789
#
#
# Mechanical properties :
#
#
# Convention : Reuss Voigt Hill
#
# Bulk Modulus (GPa) = 46.47761 82.78285 64.63023
# Shear Modulus (GPa) = 20.90294 46.41386 33.65840
#
# Velocity S-wave (km/s) = 2.71132 4.04018 3.44051
# Velocity P-wave (km/s) = 5.11342 7.13285 6.20583
#
# Compressibility (1/GPa) = 0.02151573
#
# Stress axis : x y z
#
# Youngs Moduli (GPa) = 239.06532 46.61131 231.88049
#
# Poissons Ratio (x) = 0.08599 0.11105
# Poissons Ratio (y) = 0.44104 0.43899
# Poissons Ratio (z) = 0.11449 0.08824
#
# Static dielectric constant tensor:
#      x y z
#    x 2.600470 0.000000 -0.356040 
#    y 0.000000 2.273120 0.000000 
#    z -0.356040 0.000000 2.613960 
# 
# From -- ./inp_files/69790.got.cif
#   From: 2010.05.17/outbox.cif.g08.bks.cpg/sg15_35_cif.got.tgz:69790.got - 2010.06.03 18:47:42.
