data_PCOD9254697
_publ_section_title
;
Structure prediction by ZEFSAII (Michael W. Deem and Ramdas Pophale) SiO2 
 PCOD9254697
Probable space group: C 2/C
;
_chemical_formula_sum "Si O2"
_cell_formula_units_Z 52
_cell_length_a 17.757389
_cell_length_b 16.313309
_cell_length_c 8.504913
_cell_angle_alpha 90.000000
_cell_angle_beta 106.974809
_cell_angle_gamma 90.000000
_cell_volume 2356.381985
_symmetry_space_group_name_H-M "C 2/C"
_symmetry_group_IT_number 15
_symmetry_cell_setting 'monoclinic'
loop_
_space_group_symop_operation_xyz
x,y,z
-x,y,1/2-z
-x,-y,-z
x,-y,1/2+z
1/2+x,1/2+y,z
1/2-x,1/2+y,1/2-z
1/2-x,1/2-y,-z
1/2+x,1/2-y,1/2+z
loop_
_atom_site_type_symbol
_atom_site_label
_atom_site_fract_x
_atom_site_fract_y
_atom_site_fract_z
Si Si1 0.204329 0.111455 0.792909
Si Si2 0.500000 0.839509 0.750000
Si Si3 0.626404 0.531174 0.041474
Si Si4 0.842266 0.575394 0.063001
Si Si5 0.207639 0.599256 0.104204
Si Si6 0.395512 0.749023 0.943345
Si Si7 0.603533 0.613610 0.324365
O O1 0.184086 0.030493 0.676176
O O2 0.162160 0.188306 0.689863
O O3 0.294958 0.123493 0.896178
O O4 0.166877 0.087716 0.937097
O O5 0.567914 0.895948 0.868484
O O6 0.459557 0.784499 0.861065
O O7 0.583407 0.590996 0.134820
O O8 0.578986 0.464799 0.913135
O O9 0.808333 0.591870 0.217745
O O10 0.824932 0.481677 0.002452
O O11 0.156317 0.676732 0.022568
O O12 0.299640 0.614471 0.122835
O O13 0.424525 0.694086 0.105483
#
# Coordination Sequence:
#
# PCOD9254697 Si02
#       7
#     8   4   8   8   8   8   8
#     4  10  17  35  60  92 109 157 191 259 286 347
#     4  10  26  44  52  86 124 178 192 230 296 380
#     4   9  16  29  60  94 117 136 194 245 310 340
#     4  11  21  38  64  83 124 156 207 233 300 358
#     4  11  20  36  57  94 112 153 198 255 294 349
#     4  10  24  36  59  83 127 154 199 249 307 333
#     4  10  16  33  56  93 120 146 189 263 291 348
#
# _framework density 22.067729
#
# number of rings (size 3 to 8) (size 9 to 14) (size 15 to 20)
#    0.000    1.846    4.615    0.462    2.154    4.923 
#    0.000    0.000    0.000   19.385    0.000    0.000 
#    0.000    0.000    0.000    0.000    0.000    0.000 
#
# Total GULP energy -145132.989525 kJ/mol
# GULP energy per Si atom -5582.038059 kJ/mol
# Density = 2.201750 g / cm^3
# Si number density = 22.067729 Si / 1000 Ang^3
#
#
#
# Elastic Constant Matrix: (Units=GPa)
#
#
# Indices 1 2 3 4 5 6 
#
# 1 133.8034 41.1166 29.4559 0.0000 9.6419 0.0000
# 2 41.1166 88.2263 17.0938 0.0000 -6.9415 0.0000
# 3 29.4559 17.0938 92.8450 0.0000 -9.2435 0.0000
# 4 0.0000 0.0000 0.0000 27.5056 0.0000 -15.7070
# 5 9.6419 -6.9415 -9.2435 0.0000 27.6034 0.0000
# 6 0.0000 0.0000 0.0000 -15.7070 0.0000 23.2112
#
#
#
# Elastic Compliance Matrix: (Units=1/GPa)
#
#
# Indices 1 2 3 4 5 6 
#
# 1 0.009881 -0.004486 -0.002860 0.000000 -0.005537 0.000000
# 2 -0.004486 0.013935 -0.000659 0.000000 0.004851 0.000000
# 3 -0.002860 -0.000659 0.012292 0.000000 0.004950 0.000000
# 4 0.000000 0.000000 0.000000 0.059254 0.000000 0.040097
# 5 -0.005537 0.004851 0.004950 0.000000 0.041039 0.000000
# 6 0.000000 0.000000 0.000000 0.040097 0.000000 0.070216
#
#
# Mechanical properties :
#
#
# Convention : Reuss Voigt Hill
#
# Bulk Modulus (GPa) = 49.76055 54.46747 52.11401
# Shear Modulus (GPa) = 21.80292 30.81125 26.30709
#
# Velocity S-wave (km/s) = 3.14666 3.74065 3.45644
# Velocity P-wave (km/s) = 5.98330 6.58727 6.29254
#
# Compressibility (1/GPa) = 0.02009624
#
# Stress axis : x y z
#
# Youngs Moduli (GPa) = 101.20488 71.76339 81.35257
#
# Poissons Ratio (x) = 0.32196 0.23268
# Poissons Ratio (y) = 0.45405 0.05363
# Poissons Ratio (z) = 0.28946 0.04731
#
# Static dielectric constant tensor:
#      x y z
#    x 1.885760 0.000000 0.038820 
#    y 0.000000 1.802820 0.000000 
#    z 0.038820 0.000000 1.852720 
# 
# From -- ./inp_files/48617.got.cif
#   From: 2010.05.17/outbox.cif.g08.bks.cpg/sg15_25_cif.got.tgz:48617.got - 2010.06.03 18:47:42.
