data_PCOD9254146
_publ_section_title
;
Structure prediction by ZEFSAII (Michael W. Deem and Ramdas Pophale) SiO2 
 PCOD9254146
Probable space group: C 2/C
;
_chemical_formula_sum "Si O2"
_cell_formula_units_Z 52
_cell_length_a 11.530936
_cell_length_b 20.631246
_cell_length_c 20.299632
_cell_angle_alpha 90.000000
_cell_angle_beta 39.872339
_cell_angle_gamma 90.000000
_cell_volume 3095.920946
_symmetry_space_group_name_H-M "C 2/C"
_symmetry_group_IT_number 15
_symmetry_cell_setting 'monoclinic'
loop_
_space_group_symop_operation_xyz
x,y,z
-x,y,1/2-z
-x,-y,-z
x,-y,1/2+z
1/2+x,1/2+y,z
1/2-x,1/2+y,1/2-z
1/2-x,1/2-y,-z
1/2+x,1/2-y,1/2+z
loop_
_atom_site_type_symbol
_atom_site_label
_atom_site_fract_x
_atom_site_fract_y
_atom_site_fract_z
Si Si1 0.639571 0.062455 0.442051
Si Si2 0.689415 0.901673 0.566585
Si Si3 0.777361 0.409108 0.744025
Si Si4 0.154030 0.337287 0.437399
Si Si5 0.786699 0.297859 0.834243
Si Si6 0.500000 0.415892 0.250000
Si Si7 0.945896 0.994048 0.896884
O O1 0.882902 0.047875 0.155033
O O2 0.522881 0.125442 0.509421
O O3 0.500000 0.000000 0.500000
O O4 0.793428 0.049392 0.427912
O O5 0.485867 0.926701 0.670411
O O6 0.670201 0.857558 0.508070
O O7 0.747606 0.854917 0.599067
O O8 0.832891 0.958793 0.493780
O O9 0.758716 0.334128 0.776262
O O10 0.772961 0.423352 0.667596
O O11 0.169323 0.263325 0.408227
O O12 0.324431 0.372438 0.331054
O O13 0.000000 0.280184 0.750000
O O14 0.486823 0.459444 0.191199
#
# Coordination Sequence:
#
# PCOD9254146 Si02
#       7
#     8   8   8   8   8   4   8
#     4  11  17  32  52  78 101 124 172 219 255 292
#     4   9  20  32  51  76 100 135 167 214 252 301
#     4  10  19  32  51  74 104 137 161 208 261 304
#     4  10  18  30  51  74 102 128 166 214 249 297
#     4  10  20  34  47  72 108 137 170 197 257 316
#     4  10  16  26  50  78  94 118 162 214 258 280
#     4  11  18  31  53  76 103 123 171 215 257 299
#
# _framework density 16.796295000000001
#
# number of rings (size 3 to 8) (size 9 to 14) (size 15 to 20)
#    0.000    1.846    6.923    0.462    0.000    0.615 
#    0.000    0.769    0.000    0.000    0.000    0.000 
#    0.000    0.000    0.000    0.000    0.000    0.000 
#
# Total GULP energy -144747.475875 kJ/mol
# GULP energy per Si atom -5567.210611 kJ/mol
# Density = 1.675807 g / cm^3
# Si number density = 16.796295 Si / 1000 Ang^3
#
#
#
# Elastic Constant Matrix: (Units=GPa)
#
#
# Indices 1 2 3 4 5 6 
#
# 1 27.5603 41.6692 34.5228 0.0124 -0.6805 -0.0076
# 2 41.6692 108.7996 57.9558 0.0111 -12.6828 -0.0044
# 3 34.5228 57.9558 94.3868 0.0203 -14.5765 -0.0104
# 4 0.0124 0.0111 0.0203 78.7707 -0.0159 -36.7134
# 5 -0.6805 -12.6828 -14.5765 -0.0159 17.1201 0.0093
# 6 -0.0076 -0.0044 -0.0104 -36.7134 0.0093 36.8237
#
#
#
# Elastic Compliance Matrix: (Units=1/GPa)
#
#
# Indices 1 2 3 4 5 6 
#
# 1 0.142858 -0.042770 -0.034548 -0.000010 -0.055422 0.000019
# 2 -0.042770 0.026641 0.002384 0.000003 0.020066 -0.000007
# 3 -0.034548 0.002384 0.025132 0.000001 0.021791 -0.000004
# 4 -0.000010 0.000003 0.000001 0.023715 0.000012 0.023644
# 5 -0.055422 0.020066 0.021791 0.000012 0.089627 -0.000013
# 6 0.000019 -0.000007 -0.000004 0.023644 -0.000013 0.050730
#
#
# Mechanical properties :
#
#
# Convention : Reuss Voigt Hill
#
# Bulk Modulus (GPa) = 22.34035 55.44916 38.89475
# Shear Modulus (GPa) = 9.55126 32.98282 21.26704
#
# Velocity S-wave (km/s) = 2.38723 4.43617 3.56219
# Velocity P-wave (km/s) = 4.57473 7.70220 6.33451
#
# Compressibility (1/GPa) = 0.04476206
#
# Stress axis : x y z
#
# Youngs Moduli (GPa) = 6.99998 37.53637 39.78934
#
# Poissons Ratio (x) = 1.60544 1.37466
# Poissons Ratio (y) = 0.29939 -0.09487
# Poissons Ratio (z) = 0.24184 -0.08950
#
# Static dielectric constant tensor:
#      x y z
#    x 1.587340 0.000000 0.009650 
#    y 0.000000 1.581890 0.000000 
#    z 0.009650 0.000000 1.613860 
# 
# From -- ./inp_files/210994.got.cif
#   From: 2010.05.17/outbox.cif.g08.bks.cpg/sg15_106_cif.got.tgz:210994.got - 2010.06.03 18:47:42.
