data_PCOD9254648
_publ_section_title
;
Structure prediction by ZEFSAII (Michael W. Deem and Ramdas Pophale) SiO2 
 PCOD9254648
Probable space group: C 2/C
;
_chemical_formula_sum "Si O2"
_cell_formula_units_Z 36
_cell_length_a 31.481883
_cell_length_b 11.930632
_cell_length_c 5.288266
_cell_angle_alpha 90.000000
_cell_angle_beta 53.554077
_cell_angle_gamma 90.000000
_cell_volume 1597.788068
_symmetry_space_group_name_H-M "C 2/C"
_symmetry_group_IT_number 15
_symmetry_cell_setting 'monoclinic'
loop_
_space_group_symop_operation_xyz
x,y,z
-x,y,1/2-z
-x,-y,-z
x,-y,1/2+z
1/2+x,1/2+y,z
1/2-x,1/2+y,1/2-z
1/2-x,1/2-y,-z
1/2+x,1/2-y,1/2+z
loop_
_atom_site_type_symbol
_atom_site_label
_atom_site_fract_x
_atom_site_fract_y
_atom_site_fract_z
Si Si1 0.621112 0.923224 0.782465
Si Si2 0.000000 0.577071 0.750000
Si Si3 0.022406 0.869602 0.421430
Si Si4 0.633387 0.560057 0.673639
Si Si5 0.714754 0.741349 0.374700
O O1 0.666244 0.829009 0.581601
O O2 0.627594 0.007866 0.521516
O O3 0.560814 0.876296 0.013069
O O4 0.000000 0.500000 0.500000
O O5 0.084382 0.871572 0.233825
O O6 0.000000 0.815508 0.250000
O O7 0.000000 0.000000 0.500000
O O8 0.000000 0.816653 0.750000
O O9 0.628677 0.456639 0.492500
O O10 0.687968 0.620211 0.442064
O O11 0.750000 0.750000 0.500000
O O12 0.750000 0.750000 0.000000
#
# Coordination Sequence:
#
# PCOD9254648 Si02
#       5
#     8   4   8   8   8
#     4  10  21  42  72  93 125 167 208 274 341 373
#     4   8  16  34  64  98 120 148 206 266 326 394
#     4  10  16  32  58  88 126 158 193 243 299 379
#     4  12  23  40  65  92 129 174 206 257 323 374
#     4  12  28  45  62  95 131 168 232 269 299 391
#
# _framework density 22.531148000000002
#
# number of rings (size 3 to 8) (size 9 to 14) (size 15 to 20)
#    0.000    1.333    4.444    2.667    0.000    5.333 
#    2.000    0.000    9.778    0.000    0.000    0.000 
#    0.000    0.000    0.000    0.000    0.000    0.000 
#
# Total GULP energy -100352.141006 kJ/mol
# GULP energy per Si atom -5575.118945 kJ/mol
# Density = 2.247987 g / cm^3
# Si number density = 22.531148 Si / 1000 Ang^3
#
#
#
# Elastic Constant Matrix: (Units=GPa)
#
#
# Indices 1 2 3 4 5 6 
#
# 1 164.8898 26.1970 69.8232 0.0000 1.2540 0.0000
# 2 26.1970 35.9534 19.2678 0.0000 -9.0944 0.0000
# 3 69.8232 19.2678 166.1279 0.0000 4.8590 0.0000
# 4 0.0000 0.0000 0.0000 44.6577 0.0000 -23.4484
# 5 1.2540 -9.0944 4.8590 0.0000 62.1435 0.0000
# 6 0.0000 0.0000 0.0000 -23.4484 0.0000 17.0974
#
#
#
# Elastic Compliance Matrix: (Units=1/GPa)
#
#
# Indices 1 2 3 4 5 6 
#
# 1 0.007968 -0.004446 -0.002816 0.000000 -0.000591 0.000000
# 2 -0.004446 0.033523 -0.002170 0.000000 0.005165 0.000000
# 3 -0.002816 -0.002170 0.007479 0.000000 -0.000846 0.000000
# 4 0.000000 0.000000 0.000000 0.080006 0.000000 0.109725
# 5 -0.000591 0.005165 -0.000846 0.000000 0.016926 0.000000
# 6 0.000000 0.000000 0.000000 0.109725 0.000000 0.208972
#
#
# Mechanical properties :
#
#
# Convention : Reuss Voigt Hill
#
# Bulk Modulus (GPa) = 33.21660 66.39414 49.80537
# Shear Modulus (GPa) = 13.02848 41.55859 27.29354
#
# Velocity S-wave (km/s) = 2.40728 4.29942 3.48425
# Velocity P-wave (km/s) = 4.74354 7.36059 6.19191
#
# Compressibility (1/GPa) = 0.03010543
#
# Stress axis : x y z
#
# Youngs Moduli (GPa) = 125.50235 29.83008 133.69953
#
# Poissons Ratio (x) = 0.13263 0.37649
# Poissons Ratio (y) = 0.55801 0.29018
# Poissons Ratio (z) = 0.35341 0.06474
#
# Static dielectric constant tensor:
#      x y z
#    x 1.831150 0.000000 0.036570 
#    y 0.000000 1.640650 0.000000 
#    z 0.036570 0.000000 1.847870 
# 
# From -- ./inp_files/16823.got.cif
#   From: 2010.05.17/outbox.cif.g08.bks.cpg/sg15_9_cif.got.tgz:16823.got - 2010.06.03 18:47:42.
