data_PCOD9254823
_publ_section_title
;
Structure prediction by ZEFSAII (Michael W. Deem and Ramdas Pophale) SiO2 
 PCOD9254823
Probable space group: C 2/C
;
_chemical_formula_sum "Si O2"
_cell_formula_units_Z 56
_cell_length_a 9.228239
_cell_length_b 18.628515
_cell_length_c 24.612310
_cell_angle_alpha 90.000000
_cell_angle_beta 140.134495
_cell_angle_gamma 90.000000
_cell_volume 2712.058811
_symmetry_space_group_name_H-M "C 2/C"
_symmetry_group_IT_number 15
_symmetry_cell_setting 'monoclinic'
loop_
_space_group_symop_operation_xyz
x,y,z
-x,y,1/2-z
-x,-y,-z
x,-y,1/2+z
1/2+x,1/2+y,z
1/2-x,1/2+y,1/2-z
1/2-x,1/2-y,-z
1/2+x,1/2-y,1/2+z
loop_
_atom_site_type_symbol
_atom_site_label
_atom_site_fract_x
_atom_site_fract_y
_atom_site_fract_z
Si Si1 0.382282 0.411026 0.932777
Si Si2 0.514552 0.743757 0.084053
Si Si3 0.788541 0.711925 0.269081
Si Si4 0.000000 0.595864 0.250000
Si Si5 0.815263 0.498564 0.531477
Si Si6 0.301975 0.510376 0.628635
Si Si7 0.907946 0.830857 0.165044
Si Si8 0.500000 0.614198 0.250000
O O1 0.402475 0.328312 0.922157
O O2 0.212765 0.444870 0.837993
O O3 0.262171 0.429940 0.955208
O O4 0.636742 0.442603 0.002771
O O5 0.592027 0.737147 0.169770
O O6 0.645933 0.809308 0.092727
O O7 0.250000 0.750000 0.000000
O O8 0.916064 0.649833 0.272383
O O9 0.944839 0.779149 0.330318
O O10 0.699538 0.668523 0.294539
O O11 0.767861 0.492560 0.454007
O O12 0.085652 0.512556 0.607862
O O13 0.437334 0.584728 0.670810
O O14 0.441831 0.439786 0.684479
O O15 0.000000 0.805771 0.250000
#
# Coordination Sequence:
#
# PCOD9254823 Si02
#       8
#     8   8   8   4   8   8   8   4
#     4  10  19  38  60  89 117 162 208 258 299 380
#     4  10  19  35  63  86 120 163 209 245 324 377
#     4  10  20  38  60  91 118 156 217 261 300 378
#     4  10  16  35  66  79 110 160 212 240 298 375
#     4  10  23  37  57  88 131 154 206 260 317 373
#     4  11  22  39  60  88 126 165 202 257 325 370
#     4  10  19  38  60  86 119 162 202 258 307 374
#     4  12  24  37  68  93 120 168 220 262 310 381
#
# _framework density 20.648520000000001
#
# number of rings (size 3 to 8) (size 9 to 14) (size 15 to 20)
#    0.000    1.714    4.286    3.429    0.000    1.143 
#    2.571    0.714    0.000    0.857    0.000    0.000 
#    0.000    0.000    0.000    0.000    0.000    0.000 
#
# Total GULP energy -155964.839080 kJ/mol
# GULP energy per Si atom -5570.172824 kJ/mol
# Density = 2.060152 g / cm^3
# Si number density = 20.648520 Si / 1000 Ang^3
#
#
#
# Elastic Constant Matrix: (Units=GPa)
#
#
# Indices 1 2 3 4 5 6 
#
# 1 82.3940 27.7245 4.9865 0.0001 11.0934 0.0001
# 2 27.7245 78.6697 2.2560 0.0000 6.1373 0.0000
# 3 4.9865 2.2560 68.1059 0.0003 17.2669 0.0002
# 4 0.0001 0.0000 0.0003 24.5425 0.0002 7.2696
# 5 11.0934 6.1373 17.2669 0.0002 29.4493 0.0001
# 6 0.0001 0.0000 0.0002 7.2696 0.0001 20.8442
#
#
#
# Elastic Compliance Matrix: (Units=1/GPa)
#
#
# Indices 1 2 3 4 5 6 
#
# 1 0.014316 -0.004696 0.000266 0.000000 -0.004570 0.000000
# 2 -0.004696 0.014467 0.000212 0.000000 -0.001370 0.000000
# 3 0.000266 0.000212 0.017259 0.000000 -0.010264 0.000000
# 4 0.000000 0.000000 0.000000 0.045440 0.000000 -0.015848
# 5 -0.004570 -0.001370 -0.010264 0.000000 0.041982 0.000000
# 6 0.000000 0.000000 0.000000 -0.015848 0.000000 0.053502
#
#
# Mechanical properties :
#
#
# Convention : Reuss Voigt Hill
#
# Bulk Modulus (GPa) = 26.59179 33.23372 29.91275
# Shear Modulus (GPa) = 24.04570 27.91405 25.97987
#
# Velocity S-wave (km/s) = 3.41621 3.68076 3.55095
# Velocity P-wave (km/s) = 5.33544 5.84756 5.59736
#
# Compressibility (1/GPa) = 0.03760559
#
# Stress axis : x y z
#
# Youngs Moduli (GPa) = 69.85049 69.12156 57.94195
#
# Poissons Ratio (x) = 0.32462 -0.01542
# Poissons Ratio (y) = 0.32804 -0.01229
# Poissons Ratio (z) = -0.01858 -0.01466
#
# Static dielectric constant tensor:
#      x y z
#    x 1.805690 0.000000 0.080520 
#    y 0.000000 1.735570 0.000000 
#    z 0.080520 0.000000 1.870820 
# 
# From -- ./inp_files/289802.got.cif
#   From: 2010.05.17/outbox.cif.g08.bks.cpg/sg15_145_cif.got.tgz:289802.got - 2010.06.03 18:47:42.
