data_PCOD9254684
_publ_section_title
;
Structure prediction by ZEFSAII (Michael W. Deem and Ramdas Pophale) SiO2 
 PCOD9254684
Probable space group: C 2/C
;
_chemical_formula_sum "Si O2"
_cell_formula_units_Z 48
_cell_length_a 19.967119
_cell_length_b 7.097522
_cell_length_c 14.000452
_cell_angle_alpha 90.000000
_cell_angle_beta 115.369652
_cell_angle_gamma 90.000000
_cell_volume 1792.760779
_symmetry_space_group_name_H-M "C 2/C"
_symmetry_group_IT_number 15
_symmetry_cell_setting 'monoclinic'
loop_
_space_group_symop_operation_xyz
x,y,z
-x,y,1/2-z
-x,-y,-z
x,-y,1/2+z
1/2+x,1/2+y,z
1/2-x,1/2+y,1/2-z
1/2-x,1/2-y,-z
1/2+x,1/2-y,1/2+z
loop_
_atom_site_type_symbol
_atom_site_label
_atom_site_fract_x
_atom_site_fract_y
_atom_site_fract_z
Si Si1 0.308452 0.460863 0.098767
Si Si2 0.558764 0.734404 0.859515
Si Si3 0.286943 0.374440 0.870055
Si Si4 0.656089 0.878918 0.246960
Si Si5 0.350453 0.111283 0.537650
Si Si6 0.947660 0.336054 0.927768
O O1 0.396271 0.424774 0.171154
O O2 0.272427 0.282442 0.131736
O O3 0.317534 0.440865 0.989378
O O4 0.233390 0.590563 0.052771
O O5 0.500000 0.824299 0.750000
O O6 0.503366 0.688567 0.913135
O O7 0.614771 0.900829 0.928436
O O8 0.239322 0.540127 0.795667
O O9 0.343449 0.290734 0.828017
O O10 0.605572 0.048426 0.177796
O O11 0.644235 0.814780 0.349744
O O12 0.397973 0.219339 0.487845
O O13 0.000000 0.500000 0.000000
#
# Coordination Sequence:
#
# PCOD9254684 Si02
#       6
#     8   8   8   8   8   8
#     4  10  16  33  52  70 109 154 181 213 289 350
#     4  11  16  26  46  81 106 132 181 242 273 315
#     4  10  18  31  54  73 109 142 187 226 270 333
#     4  11  19  33  51  81 110 141 185 224 282 330
#     4  10  18  31  49  72 114 145 177 221 292 337
#     4  10  19  28  48  77 115 132 175 242 289 312
#
# _framework density 26.774346000000001
#
# number of rings (size 3 to 8) (size 9 to 14) (size 15 to 20)
#    0.000    1.667    8.333    1.000    0.000    0.000 
#    0.000    0.833    0.000    0.000    0.000   29.167 
#   20.000    0.000    0.000    0.000    0.000    0.000 
#
# Total GULP energy -133839.879645 kJ/mol
# GULP energy per Si atom -5576.661652 kJ/mol
# Density = 2.671341 g / cm^3
# Si number density = 26.774346 Si / 1000 Ang^3
#
#
#
# Elastic Constant Matrix: (Units=GPa)
#
#
# Indices 1 2 3 4 5 6 
#
# 1 179.5579 48.5672 48.1614 0.0000 -43.1567 0.0000
# 2 48.5672 50.9033 -8.6793 0.0000 0.8715 0.0000
# 3 48.1614 -8.6793 87.1699 0.0000 -5.0181 0.0000
# 4 0.0000 0.0000 0.0000 18.8515 0.0000 6.2868
# 5 -43.1567 0.8715 -5.0181 0.0000 62.5827 0.0000
# 6 0.0000 0.0000 0.0000 6.2868 0.0000 17.6713
#
#
#
# Elastic Compliance Matrix: (Units=1/GPa)
#
#
# Indices 1 2 3 4 5 6 
#
# 1 0.014421 -0.015449 -0.008962 0.000000 0.009441 0.000000
# 2 -0.015449 0.036535 0.011584 0.000000 -0.010233 0.000000
# 3 -0.008962 0.011584 0.017292 0.000000 -0.004955 0.000000
# 4 0.000000 0.000000 0.000000 0.060187 0.000000 -0.021412
# 5 0.009441 -0.010233 -0.004955 0.000000 0.022235 0.000000
# 6 0.000000 0.000000 0.000000 -0.021412 0.000000 0.064207
#
#
# Mechanical properties :
#
#
# Convention : Reuss Voigt Hill
#
# Bulk Modulus (GPa) = 23.47758 54.85885 39.16821
# Shear Modulus (GPa) = 19.62878 35.12654 27.37766
#
# Velocity S-wave (km/s) = 2.71055 3.62601 3.20118
# Velocity P-wave (km/s) = 4.31090 6.16964 5.32204
#
# Compressibility (1/GPa) = 0.04259383
#
# Stress axis : x y z
#
# Youngs Moduli (GPa) = 69.34379 27.37080 57.83146
#
# Poissons Ratio (x) = 0.42285 0.51830
# Poissons Ratio (y) = 1.07128 -0.66992
# Poissons Ratio (z) = 0.62148 -0.31707
#
# Static dielectric constant tensor:
#      x y z
#    x 2.151960 0.000000 0.015420 
#    y 0.000000 3.424150 0.000000 
#    z 0.015420 0.000000 2.206060 
# 
# From -- ./inp_files/166392.got.cif
#   From: 2010.05.17/outbox.cif.g08.bks.cpg/sg15_84_cif.got.tgz:166392.got - 2010.06.03 18:47:42.
