data_PCOD9254958
_publ_section_title
;
Structure prediction by ZEFSAII (Michael W. Deem and Ramdas Pophale) SiO2 
 PCOD9254958
Probable space group: C 2/C
;
_chemical_formula_sum "Si O2"
_cell_formula_units_Z 48
_cell_length_a 26.012702
_cell_length_b 8.911208
_cell_length_c 9.336669
_cell_angle_alpha 90.000000
_cell_angle_beta 112.865920
_cell_angle_gamma 90.000000
_cell_volume 1994.206314
_symmetry_space_group_name_H-M "C 2/C"
_symmetry_group_IT_number 15
_symmetry_cell_setting 'monoclinic'
loop_
_space_group_symop_operation_xyz
x,y,z
-x,y,1/2-z
-x,-y,-z
x,-y,1/2+z
1/2+x,1/2+y,z
1/2-x,1/2+y,1/2-z
1/2-x,1/2-y,-z
1/2+x,1/2-y,1/2+z
loop_
_atom_site_type_symbol
_atom_site_label
_atom_site_fract_x
_atom_site_fract_y
_atom_site_fract_z
Si Si1 0.060437 0.335665 0.795980
Si Si2 0.704971 0.580249 0.901782
Si Si3 0.642459 0.734757 0.309172
Si Si4 0.377275 0.273949 0.401767
Si Si5 0.676486 0.847409 0.061991
Si Si6 0.442601 0.576526 0.482504
O O1 0.078301 0.310575 0.651209
O O2 0.053346 0.176283 0.871083
O O3 0.000000 0.412800 0.750000
O O4 0.116801 0.391486 0.932499
O O5 0.678028 0.417597 0.865430
O O6 0.677264 0.689223 0.751322
O O7 0.770251 0.568870 0.942142
O O8 0.689353 0.673174 0.028073
O O9 0.634556 0.796689 0.458736
O O10 0.671125 0.845767 0.227065
O O11 0.584693 0.681268 0.170220
O O12 0.402314 0.437010 0.463218
O O13 0.500000 0.500000 0.500000
#
# Coordination Sequence:
#
# PCOD9254958 Si02
#       6
#     8   8   8   8   8   8
#     4  10  18  29  41  62  94 129 155 181 218 279
#     4   9  17  32  47  59  90 126 154 194 227 274
#     4  10  19  29  45  70  91 118 160 194 227 269
#     4  10  18  26  42  65  91 120 154 189 220 262
#     4   9  19  32  45  63  90 126 157 187 235 273
#     4  10  17  26  38  59  90 124 148 173 213 271
#
# _framework density 24.069724999999998
#
# number of rings (size 3 to 8) (size 9 to 14) (size 15 to 20)
#    0.000    2.333    1.667    5.000    0.000    0.667 
#    0.000    0.000    0.000    0.000    0.000    0.000 
#    0.000   21.333    0.000    0.333    0.000    2.500 
#
# Total GULP energy -134225.679998 kJ/mol
# GULP energy per Si atom -5592.736667 kJ/mol
# Density = 2.401494 g / cm^3
# Si number density = 24.069725 Si / 1000 Ang^3
#
#
#
# Elastic Constant Matrix: (Units=GPa)
#
#
# Indices 1 2 3 4 5 6 
#
# 1 191.0342 29.4410 76.8957 0.0000 6.3337 0.0000
# 2 29.4410 55.4566 16.3584 0.0000 -2.3015 0.0000
# 3 76.8957 16.3584 113.2281 0.0000 -36.2600 0.0000
# 4 0.0000 0.0000 0.0000 -17.6888 0.0000 4.6496
# 5 6.3337 -2.3015 -36.2600 0.0000 50.5086 0.0000
# 6 0.0000 0.0000 0.0000 4.6496 0.0000 13.7710
#
#
#
# Elastic Compliance Matrix: (Units=1/GPa)
#
#
# Indices 1 2 3 4 5 6 
#
# 1 0.009146 -0.002767 -0.008076 0.000000 -0.007071 0.000000
# 2 -0.002767 0.019751 -0.000747 0.000000 0.000711 0.000000
# 3 -0.008076 -0.000747 0.019137 0.000000 0.014717 0.000000
# 4 0.000000 0.000000 0.000000 -0.051925 0.000000 0.017532
# 5 -0.007071 0.000711 0.014717 0.000000 0.031283 0.000000
# 6 0.000000 0.000000 0.000000 0.017532 0.000000 0.066697
#
#
# Mechanical properties :
#
#
# Convention : Reuss Voigt Hill
#
# Bulk Modulus (GPa) = 40.23340 67.23437 53.73388
# Shear Modulus (GPa) = 39.82332 25.11974 32.47153
#
# Velocity S-wave (km/s) = 4.07197 3.23402 3.67694
# Velocity P-wave (km/s) = 6.23374 6.47603 6.35604
#
# Compressibility (1/GPa) = 0.02485497
#
# Stress axis : x y z
#
# Youngs Moduli (GPa) = 109.33369 50.63094 52.25386
#
# Poissons Ratio (x) = 0.14009 0.42201
# Poissons Ratio (y) = 0.30251 0.03902
# Poissons Ratio (z) = 0.88299 0.03781
#
# Static dielectric constant tensor:
#      x y z
#    x 1.931030 0.000000 0.015550 
#    y 0.000000 1.911480 0.000000 
#    z 0.015550 0.000000 1.960570 
# 
# From -- ./inp_files/61191.got.cif
#   From: 2010.05.17/outbox.cif.g08.bks.cpg/sg15_31_cif.got.tgz:61191.got - 2010.06.03 18:47:42.
