data_PCOD9254959
_publ_section_title
;
Structure prediction by ZEFSAII (Michael W. Deem and Ramdas Pophale) SiO2 
 PCOD9254959
Probable space group: C 2/C
;
_chemical_formula_sum "Si O2"
_cell_formula_units_Z 64
_cell_length_a 20.283908
_cell_length_b 5.396054
_cell_length_c 34.303090
_cell_angle_alpha 90.000000
_cell_angle_beta 62.634987
_cell_angle_gamma 90.000000
_cell_volume 3334.426824
_symmetry_space_group_name_H-M "C 2/C"
_symmetry_group_IT_number 15
_symmetry_cell_setting 'monoclinic'
loop_
_space_group_symop_operation_xyz
x,y,z
-x,y,1/2-z
-x,-y,-z
x,-y,1/2+z
1/2+x,1/2+y,z
1/2-x,1/2+y,1/2-z
1/2-x,1/2-y,-z
1/2+x,1/2-y,1/2+z
loop_
_atom_site_type_symbol
_atom_site_label
_atom_site_fract_x
_atom_site_fract_y
_atom_site_fract_z
Si Si1 0.673213 0.281520 0.709638
Si Si2 0.345679 0.784848 0.653976
Si Si3 0.170865 0.284810 0.687133
Si Si4 0.819604 0.214733 0.199899
Si Si5 0.453956 0.204469 0.988281
Si Si6 0.214061 0.329245 0.969254
Si Si7 0.083779 0.970133 0.928821
Si Si8 0.234727 0.818438 0.914825
O O1 0.756891 0.285542 0.667616
O O2 0.632847 0.527401 0.706620
O O3 0.687627 0.270949 0.751887
O O4 0.630879 0.038314 0.707727
O O5 0.355091 0.548420 0.679711
O O6 0.394992 0.701794 0.604039
O O7 0.360318 0.045080 0.670903
O O8 0.239890 0.284198 0.699702
O O9 0.202717 0.301261 0.635074
O O10 0.509328 0.315827 0.940766
O O11 0.373006 0.115183 0.998031
O O12 0.430887 0.421931 0.024412
O O13 0.500000 0.000000 0.000000
O O14 0.241681 0.584969 0.941918
O O15 0.229238 0.089174 0.936971
O O16 0.250000 0.250000 0.000000
O O17 0.156415 0.798219 0.912321
#
# Coordination Sequence:
#
# PCOD9254959 Si02
#       8
#     8   8   8   8   8   8   8   8
#     4  10  17  26  39  64 100 139 172 194 253 315
#     4  10  18  26  42  60  95 132 176 195 248 302
#     4  10  17  26  43  66  90 133 175 206 240 303
#     4  10  18  26  39  64  99 141 172 193 252 318
#     4  10  21  34  55  74 104 132 183 225 268 319
#     4  11  24  39  55  75 105 141 178 227 283 321
#     4  10  20  32  48  79  97 135 180 225 257 311
#     4  11  20  34  55  75 100 134 190 214 261 325
#
# _framework density 19.193702999999999
#
# number of rings (size 3 to 8) (size 9 to 14) (size 15 to 20)
#    0.000    1.750    3.750    4.875    7.000    0.000 
#    0.000    0.000    0.000    0.000    0.000    0.000 
#    0.000    0.000    0.000   27.000    1.250    0.000 
#
# Total GULP energy -178248.299886 kJ/mol
# GULP energy per Si atom -5570.259371 kJ/mol
# Density = 1.915002 g / cm^3
# Si number density = 19.193703 Si / 1000 Ang^3
#
#
#
# Elastic Constant Matrix: (Units=GPa)
#
#
# Indices 1 2 3 4 5 6 
#
# 1 24.3202 -1.6741 0.6642 0.0069 8.4690 0.0421
# 2 -1.6741 145.2650 14.5781 -0.0118 8.7666 0.0096
# 3 0.6642 14.5781 55.6244 -0.0178 7.5698 0.0089
# 4 0.0069 -0.0118 -0.0178 36.5016 0.0053 4.0235
# 5 8.4690 8.7666 7.5698 0.0053 10.8188 0.0081
# 6 0.0421 0.0096 0.0089 4.0235 0.0081 10.2792
#
#
#
# Elastic Compliance Matrix: (Units=1/GPa)
#
#
# Indices 1 2 3 4 5 6 
#
# 1 0.059837 0.003349 0.005694 0.000025 -0.053538 -0.000221
# 2 0.003349 0.007500 -0.000908 0.000004 -0.008064 -0.000015
# 3 0.005694 -0.000908 0.020617 0.000015 -0.018147 -0.000032
# 4 0.000025 0.000004 0.000015 0.028631 -0.000039 -0.011207
# 5 -0.053538 -0.008064 -0.018147 -0.000039 0.153572 0.000137
# 6 -0.000221 -0.000015 -0.000032 -0.011207 0.000137 0.101672
#
#
# Mechanical properties :
#
#
# Convention : Reuss Voigt Hill
#
# Bulk Modulus (GPa) = 9.59474 28.03843 18.81658
# Shear Modulus (GPa) = 12.81059 25.62934 19.21996
#
# Velocity S-wave (km/s) = 2.58628 3.65814 3.16787
# Velocity P-wave (km/s) = 3.73205 5.69934 4.81719
#
# Compressibility (1/GPa) = 0.10422382
#
# Stress axis : x y z
#
# Youngs Moduli (GPa) = 16.71207 133.32681 48.50282
#
# Poissons Ratio (x) = -0.44653 -0.27616
# Poissons Ratio (y) = -0.05597 0.04405
# Poissons Ratio (z) = -0.09515 0.12110
#
# Static dielectric constant tensor:
#      x y z
#    x 1.665370 -0.000110 -0.026200 
#    y -0.000110 1.944700 -0.000070 
#    z -0.026200 -0.000070 1.710160 
# 
# From -- ./inp_files/316997.got.cif
#   From: 2010.05.17/outbox.cif.g08.bks.cpg/sg15_159_cif.got.tgz:316997.got - 2010.06.03 18:47:42.
