data_PCOD9254447
_publ_section_title
;
Structure prediction by ZEFSAII (Michael W. Deem and Ramdas Pophale) SiO2 
 PCOD9254447
Probable space group: C 2/C
;
_chemical_formula_sum "Si O2"
_cell_formula_units_Z 64
_cell_length_a 25.847856
_cell_length_b 19.078051
_cell_length_c 21.235181
_cell_angle_alpha 90.000000
_cell_angle_beta 21.644196
_cell_angle_gamma 90.000000
_cell_volume 3862.375053
_symmetry_space_group_name_H-M "C 2/C"
_symmetry_group_IT_number 15
_symmetry_cell_setting 'monoclinic'
loop_
_space_group_symop_operation_xyz
x,y,z
-x,y,1/2-z
-x,-y,-z
x,-y,1/2+z
1/2+x,1/2+y,z
1/2-x,1/2+y,1/2-z
1/2-x,1/2-y,-z
1/2+x,1/2-y,1/2+z
loop_
_atom_site_type_symbol
_atom_site_label
_atom_site_fract_x
_atom_site_fract_y
_atom_site_fract_z
Si Si1 0.628612 0.808858 0.881969
Si Si2 0.131372 0.433141 0.794198
Si Si3 0.886668 0.151129 0.577257
Si Si4 0.197554 0.530422 0.838676
Si Si5 0.160677 0.527044 0.645236
Si Si6 0.309263 0.324348 0.801645
Si Si7 0.163017 0.667165 0.719669
Si Si8 0.171581 0.456737 0.996385
O O1 0.661312 0.854296 0.783339
O O2 0.605647 0.726413 0.896457
O O3 0.746396 0.814586 0.802633
O O4 0.487353 0.840338 0.074685
O O5 0.187103 0.480124 0.789558
O O6 0.192089 0.468035 0.662055
O O7 0.961868 0.439386 0.978797
O O8 0.814095 0.089803 0.698224
O O9 0.783501 0.160447 0.635059
O O10 0.041492 0.138284 0.375724
O O11 0.230630 0.489006 0.865207
O O12 0.187254 0.604592 0.643433
O O13 0.224675 0.515817 0.503685
O O14 0.993167 0.528255 0.823807
O O15 0.331773 0.248228 0.807647
O O16 0.203537 0.374094 0.958321
#
# Coordination Sequence:
#
# PCOD9254447 Si02
#       8
#     8   8   8   8   8   8   8   8
#     4  10  17  32  51  75  99 127 167 205 241 287
#     4  10  16  30  55  73  90 130 173 201 235 287
#     4  10  20  29  50  78 103 126 159 206 248 288
#     4  10  17  31  52  74  97 128 164 207 243 284
#     4  10  19  32  53  72  94 133 172 204 236 284
#     4  10  20  30  47  75 105 131 158 201 249 292
#     4  10  17  32  51  70  99 136 169 193 235 297
#     4  10  20  33  48  74 102 127 166 209 243 280
#
# _framework density 16.570115000000001
#
# number of rings (size 3 to 8) (size 9 to 14) (size 15 to 20)
#    0.000    2.000    5.000    0.750    0.000    1.000 
#    0.000    0.625    0.000    0.750    0.000    0.000 
#    0.000    0.000    0.000    0.000    0.000    0.000 
#
# Total GULP energy -178154.915136 kJ/mol
# GULP energy per Si atom -5567.341098 kJ/mol
# Density = 1.653240 g / cm^3
# Si number density = 16.570115 Si / 1000 Ang^3
#
#
#
# Elastic Constant Matrix: (Units=GPa)
#
#
# Indices 1 2 3 4 5 6 
#
# 1 83.1586 27.7944 18.0790 -0.0017 14.3180 0.0018
# 2 27.7944 50.0638 -1.6137 -0.0024 9.0693 0.0019
# 3 18.0790 -1.6137 19.1030 -0.0041 -7.6236 0.0068
# 4 -0.0017 -0.0024 -0.0041 18.9657 0.0030 -8.9624
# 5 14.3180 9.0693 -7.6236 0.0030 24.4198 -0.0046
# 6 0.0018 0.0019 0.0068 -8.9624 -0.0046 9.3312
#
#
#
# Elastic Compliance Matrix: (Units=1/GPa)
#
#
# Indices 1 2 3 4 5 6 
#
# 1 0.028535 -0.012756 -0.037547 0.000005 -0.023715 0.000018
# 2 -0.012756 0.027158 0.015222 -0.000002 0.002145 -0.000015
# 3 -0.037547 0.015222 0.109316 -0.000019 0.050488 -0.000069
# 4 0.000005 -0.000002 -0.000019 0.096549 -0.000002 0.092733
# 5 -0.023715 0.002145 0.050488 -0.000002 0.069820 -0.000001
# 6 0.000018 -0.000015 -0.000069 0.092733 -0.000001 0.196237
#
#
# Mechanical properties :
#
#
# Convention : Reuss Voigt Hill
#
# Bulk Modulus (GPa) = 10.54308 26.76055 18.65182
# Shear Modulus (GPa) = 7.94418 17.74772 12.84595
#
# Velocity S-wave (km/s) = 2.19196 3.27627 2.78735
# Velocity P-wave (km/s) = 3.57530 5.52240 4.65186
#
# Compressibility (1/GPa) = 0.09484891
#
# Stress axis : x y z
#
# Youngs Moduli (GPa) = 35.04515 36.82098 9.14777
#
# Poissons Ratio (x) = 0.46969 0.34347
# Poissons Ratio (y) = 0.44704 -0.13925
# Poissons Ratio (z) = 1.31583 -0.56050
#
# Static dielectric constant tensor:
#      x y z
#    x 1.564900 0.000000 0.008380 
#    y 0.000000 1.607670 0.000000 
#    z 0.008380 0.000000 1.575670 
# 
# From -- ./inp_files/258059.got.cif
#   From: 2010.05.17/outbox.cif.g08.bks.cpg/sg15_130_cif.got.tgz:258059.got - 2010.06.03 18:47:42.
