data_PCOD9254572
_publ_section_title
;
Structure prediction by ZEFSAII (Michael W. Deem and Ramdas Pophale) SiO2 
 PCOD9254572
Probable space group: C 2/C
;
_chemical_formula_sum "Si O2"
_cell_formula_units_Z 52
_cell_length_a 7.251757
_cell_length_b 28.889433
_cell_length_c 12.401043
_cell_angle_alpha 90.000000
_cell_angle_beta 119.942149
_cell_angle_gamma 90.000000
_cell_volume 2251.251322
_symmetry_space_group_name_H-M "C 2/C"
_symmetry_group_IT_number 15
_symmetry_cell_setting 'monoclinic'
loop_
_space_group_symop_operation_xyz
x,y,z
-x,y,1/2-z
-x,-y,-z
x,-y,1/2+z
1/2+x,1/2+y,z
1/2-x,1/2+y,1/2-z
1/2-x,1/2-y,-z
1/2+x,1/2-y,1/2+z
loop_
_atom_site_type_symbol
_atom_site_label
_atom_site_fract_x
_atom_site_fract_y
_atom_site_fract_z
Si Si1 0.012886 0.737274 0.383684
Si Si2 0.314101 0.330270 0.289510
Si Si3 0.500000 0.512848 0.750000
Si Si4 0.944097 0.909603 0.053054
Si Si5 0.331330 0.023140 0.107870
Si Si6 0.523602 0.145917 0.516135
Si Si7 0.832949 0.552018 0.456173
O O1 0.250000 0.750000 0.500000
O O2 0.956608 0.690509 0.429163
O O3 0.000000 0.729415 0.250000
O O4 0.854350 0.780681 0.355639
O O5 0.500000 0.331368 0.250000
O O6 0.369521 0.372180 0.385253
O O7 0.101443 0.338976 0.158393
O O8 0.489369 0.549474 0.844146
O O9 0.315414 0.476964 0.667026
O O10 0.737945 0.877144 0.024689
O O11 0.861689 0.941319 0.929430
O O12 0.500000 0.027088 0.250000
O O13 0.434859 0.040793 0.025834
O O14 0.299624 0.970102 0.064391
O O15 0.341052 0.106999 0.460351
#
# Coordination Sequence:
#
# PCOD9254572 Si02
#       7
#     8   8   4   8   8   8   8
#     4  11  18  29  46  74 108 140 167 208 267 340
#     4   9  15  26  43  67 102 136 166 192 268 328
#     4  10  16  32  52  72 100 144 186 212 252 306
#     4   9  15  26  46  67 101 141 164 203 256 312
#     4   9  18  32  48  74 104 139 183 216 259 319
#     4  10  17  30  47  71 101 142 172 205 260 326
#     4   9  20  32  52  72 103 146 180 221 266 304
#
# _framework density 23.098262999999999
#
# number of rings (size 3 to 8) (size 9 to 14) (size 15 to 20)
#    0.000    2.462    6.923    0.923    0.000    2.462 
#    0.000    3.077    0.000    0.000    0.000    1.077 
#    0.000    0.000    0.000    0.000    0.000    0.000 
#
# Total GULP energy -144780.470467 kJ/mol
# GULP energy per Si atom -5568.479633 kJ/mol
# Density = 2.304569 g / cm^3
# Si number density = 23.098263 Si / 1000 Ang^3
#
#
#
# Elastic Constant Matrix: (Units=GPa)
#
#
# Indices 1 2 3 4 5 6 
#
# 1 42.9225 26.8745 15.0983 0.0000 -6.7613 0.0000
# 2 26.8745 247.8911 89.1474 0.0000 14.7534 0.0000
# 3 15.0983 89.1474 152.0480 0.0000 15.6368 0.0000
# 4 0.0000 0.0000 0.0000 37.7243 0.0000 15.7344
# 5 -6.7613 14.7534 15.6368 0.0000 26.1762 0.0000
# 6 0.0000 0.0000 0.0000 15.7344 0.0000 17.1332
#
#
#
# Elastic Compliance Matrix: (Units=1/GPa)
#
#
# Indices 1 2 3 4 5 6 
#
# 1 0.027345 -0.002802 -0.002090 0.000000 0.009891 0.000000
# 2 -0.002802 0.005432 -0.002682 0.000000 -0.002183 0.000000
# 3 -0.002090 -0.002682 0.008798 0.000000 -0.004283 0.000000
# 4 0.000000 0.000000 0.000000 0.042965 0.000000 -0.039458
# 5 0.009891 -0.002183 -0.004283 0.000000 0.044547 0.000000
# 6 0.000000 0.000000 0.000000 -0.039458 0.000000 0.094602
#
#
# Mechanical properties :
#
#
# Convention : Reuss Voigt Hill
#
# Bulk Modulus (GPa) = 37.83968 78.34467 58.09218
# Shear Modulus (GPa) = 20.19010 36.98949 28.58979
#
# Velocity S-wave (km/s) = 2.95972 4.00609 3.52198
# Velocity P-wave (km/s) = 5.30071 7.44244 6.46094
#
# Compressibility (1/GPa) = 0.02642728
#
# Stress axis : x y z
#
# Youngs Moduli (GPa) = 36.56964 184.08380 113.66765
#
# Poissons Ratio (x) = 0.51573 0.23756
# Poissons Ratio (y) = 0.10245 0.30489
# Poissons Ratio (z) = 0.07643 0.49377
#
# Static dielectric constant tensor:
#      x y z
#    x 2.104970 0.000000 -0.002180 
#    y 0.000000 1.906550 0.000000 
#    z -0.002180 0.000000 1.847850 
# 
# From -- ./inp_files/148407.got.cif
#   From: 2010.05.17/outbox.cif.g08.bks.cpg/sg15_75_cif.got.tgz:148407.got - 2010.06.03 18:47:42.
