data_PCOD9254728
_publ_section_title
;
Structure prediction by ZEFSAII (Michael W. Deem and Ramdas Pophale) SiO2 
 PCOD9254728
Probable space group: C 2/C
;
_chemical_formula_sum "Si O2"
_cell_formula_units_Z 52
_cell_length_a 13.028222
_cell_length_b 14.139592
_cell_length_c 22.802181
_cell_angle_alpha 90.000000
_cell_angle_beta 147.587292
_cell_angle_gamma 90.000000
_cell_volume 2251.513686
_symmetry_space_group_name_H-M "C 2/C"
_symmetry_group_IT_number 15
_symmetry_cell_setting 'monoclinic'
loop_
_space_group_symop_operation_xyz
x,y,z
-x,y,1/2-z
-x,-y,-z
x,-y,1/2+z
1/2+x,1/2+y,z
1/2-x,1/2+y,1/2-z
1/2-x,1/2-y,-z
1/2+x,1/2-y,1/2+z
loop_
_atom_site_type_symbol
_atom_site_label
_atom_site_fract_x
_atom_site_fract_y
_atom_site_fract_z
Si Si1 0.585472 0.269616 0.036779
Si Si2 0.217219 0.007039 0.305073
Si Si3 0.893282 0.620165 0.624734
Si Si4 0.153932 0.886337 0.174918
Si Si5 0.000000 0.447952 0.750000
Si Si6 0.362284 0.929449 0.984488
Si Si7 0.332548 0.599808 0.333787
O O1 0.797820 0.299868 0.117844
O O2 0.551099 0.308875 0.085646
O O3 0.564210 0.159512 0.017513
O O4 0.458988 0.325152 0.928158
O O5 0.200018 0.023323 0.365967
O O6 0.172369 0.094359 0.239381
O O7 0.128753 0.913565 0.231176
O O8 0.450159 0.992168 0.412170
O O9 0.876419 0.521201 0.651135
O O10 0.793343 0.608515 0.513678
O O11 0.118540 0.634324 0.721431
O O12 0.112525 0.989759 0.126573
O O13 0.875023 0.390758 0.735986
#
# Coordination Sequence:
#
# PCOD9254728 Si02
#       7
#     8   8   8   8   4   8   8
#     4  12  19  29  55  89 104 126 189 224 253 300
#     4   8  18  37  49  68 105 151 173 193 276 326
#     4  10  17  33  50  78 117 141 157 213 271 328
#     4   8  17  33  51  69 108 145 167 209 258 318
#     4  10  16  34  56  70 100 148 176 202 276 308
#     4  10  20  32  52  79 108 145 170 213 267 329
#     4   9  19  33  54  74 101 136 183 221 249 318
#
# _framework density 23.095573000000002
#
# number of rings (size 3 to 8) (size 9 to 14) (size 15 to 20)
#    0.923    1.538    4.615    0.923    0.000    2.462 
#    0.000    0.769    0.000    0.923   12.000    0.000 
#    0.000    0.000    0.000    0.000    0.000    0.000 
#
# Total GULP energy -144829.821683 kJ/mol
# GULP energy per Si atom -5570.377757 kJ/mol
# Density = 2.304301 g / cm^3
# Si number density = 23.095573 Si / 1000 Ang^3
#
#
#
# Elastic Constant Matrix: (Units=GPa)
#
#
# Indices 1 2 3 4 5 6 
#
# 1 52.5992 6.2850 19.3349 0.0005 -30.3229 -0.0002
# 2 6.2850 63.8973 34.9514 0.0001 -5.2559 0.0000
# 3 19.3349 34.9514 115.5228 0.0011 -40.8916 -0.0003
# 4 0.0005 0.0001 0.0011 79.1906 0.0005 -27.3887
# 5 -30.3229 -5.2559 -40.8916 0.0005 52.1041 -0.0001
# 6 -0.0002 0.0000 -0.0003 -27.3887 -0.0001 20.3783
#
#
#
# Elastic Compliance Matrix: (Units=1/GPa)
#
#
# Indices 1 2 3 4 5 6 
#
# 1 0.029192 -0.002738 0.002573 0.000000 0.018732 0.000000
# 2 -0.002738 0.019496 -0.007350 0.000000 -0.005395 0.000000
# 3 0.002573 -0.007350 0.014839 0.000000 0.012402 0.000000
# 4 0.000000 0.000000 0.000000 0.023596 -0.000001 0.031714
# 5 0.018732 -0.005395 0.012402 -0.000001 0.039283 0.000000
# 6 0.000000 0.000000 0.000000 0.031714 0.000000 0.091695
#
#
# Mechanical properties :
#
#
# Convention : Reuss Voigt Hill
#
# Bulk Modulus (GPa) = 20.61967 39.24021 29.92994
# Shear Modulus (GPa) = 20.05643 41.76448 30.91045
#
# Velocity S-wave (km/s) = 2.95008 4.25706 3.66234
# Velocity P-wave (km/s) = 4.53335 6.41800 5.55617
#
# Compressibility (1/GPa) = 0.04849739
#
# Stress axis : x y z
#
# Youngs Moduli (GPa) = 34.25629 51.29252 67.38851
#
# Poissons Ratio (x) = 0.14044 -0.17340
# Poissons Ratio (y) = 0.09379 0.49530
# Poissons Ratio (z) = -0.08815 0.37700
#
# Static dielectric constant tensor:
#      x y z
#    x 1.916490 0.000000 -0.022510 
#    y 0.000000 1.841430 0.000000 
#    z -0.022510 0.000000 1.973030 
# 
# From -- ./inp_files/299037.got.cif
#   From: 2010.05.17/outbox.cif.g08.bks.cpg/sg15_150_cif.got.tgz:299037.got - 2010.06.03 18:47:42.
