data_PCOD9254526
_publ_section_title
;
Structure prediction by ZEFSAII (Michael W. Deem and Ramdas Pophale) SiO2 
 PCOD9254526
Probable space group: C 2/C
;
_chemical_formula_sum "Si O2"
_cell_formula_units_Z 40
_cell_length_a 20.898959
_cell_length_b 17.426558
_cell_length_c 5.405216
_cell_angle_alpha 90.000000
_cell_angle_beta 85.165432
_cell_angle_gamma 90.000000
_cell_volume 1961.559258
_symmetry_space_group_name_H-M "C 2/C"
_symmetry_group_IT_number 15
_symmetry_cell_setting 'monoclinic'
loop_
_space_group_symop_operation_xyz
x,y,z
-x,y,1/2-z
-x,-y,-z
x,-y,1/2+z
1/2+x,1/2+y,z
1/2-x,1/2+y,1/2-z
1/2-x,1/2-y,-z
1/2+x,1/2-y,1/2+z
loop_
_atom_site_type_symbol
_atom_site_label
_atom_site_fract_x
_atom_site_fract_y
_atom_site_fract_z
Si Si1 0.023421 0.122582 0.492585
Si Si2 0.121370 0.326147 0.443534
Si Si3 0.838464 0.174506 0.897667
Si Si4 0.727009 0.049686 0.911804
Si Si5 0.925282 0.737544 0.045567
O O1 0.984917 0.204507 0.507396
O O2 0.000000 0.085128 0.250000
O O3 0.098765 0.137805 0.489632
O O4 0.000000 0.083596 0.750000
O O5 0.171829 0.254772 0.455818
O O6 0.159687 0.404767 0.433561
O O7 0.085295 0.310587 0.198219
O O8 0.078292 0.314398 0.704794
O O9 0.782448 0.114165 0.899972
O O10 0.865470 0.204073 0.622877
O O11 0.732477 0.000940 0.658178
#
# Coordination Sequence:
#
# PCOD9254526 Si02
#       5
#     8   8   8   8   8
#     4  10  16  31  55  93 114 135 180 260 288 338
#     4  10  20  37  60  86 110 151 203 249 285 338
#     4   9  22  35  64  84 120 146 202 244 292 334
#     4  12  27  40  55  83 127 166 195 232 289 353
#     4   9  18  32  62  89 110 138 195 254 291 325
#
# _framework density 20.391940999999999
#
# number of rings (size 3 to 8) (size 9 to 14) (size 15 to 20)
#    1.200    0.800    2.000    1.800    2.800    0.800 
#    0.000    0.000    0.000   15.600    0.000   16.800 
#    0.000    0.000    0.000    0.000    0.000    0.000 
#
# Total GULP energy -111396.723125 kJ/mol
# GULP energy per Si atom -5569.836156 kJ/mol
# Density = 2.034553 g / cm^3
# Si number density = 20.391941 Si / 1000 Ang^3
#
#
#
# Elastic Constant Matrix: (Units=GPa)
#
#
# Indices 1 2 3 4 5 6 
#
# 1 64.9349 24.2149 25.6260 0.0000 1.1530 0.0000
# 2 24.2149 57.7197 29.8510 0.0000 3.0647 0.0000
# 3 25.6260 29.8510 185.2860 0.0000 2.9112 0.0000
# 4 0.0000 0.0000 0.0000 18.6521 0.0000 1.0621
# 5 1.1530 3.0647 2.9112 0.0000 22.1469 0.0000
# 6 0.0000 0.0000 0.0000 1.0621 0.0000 -9.9634
#
#
#
# Elastic Compliance Matrix: (Units=1/GPa)
#
#
# Indices 1 2 3 4 5 6 
#
# 1 0.018600 -0.007071 -0.001436 0.000000 0.000199 0.000000
# 2 -0.007071 0.021697 -0.002481 0.000000 -0.002308 0.000000
# 3 -0.001436 -0.002481 0.006001 0.000000 -0.000371 0.000000
# 4 0.000000 0.000000 0.000000 0.053290 0.000000 0.005681
# 5 0.000199 -0.002308 -0.000371 0.000000 0.045511 0.000000
# 6 0.000000 0.000000 0.000000 0.005681 0.000000 -0.099762
#
#
# Mechanical properties :
#
#
# Convention : Reuss Voigt Hill
#
# Bulk Modulus (GPa) = 41.11610 51.92495 46.52052
# Shear Modulus (GPa) = 66.29303 21.38369 43.83836
#
# Velocity S-wave (km/s) = 5.70789 3.24178 4.64161
# Velocity P-wave (km/s) = 7.97789 6.28736 7.18253
#
# Compressibility (1/GPa) = 0.02432137
#
# Stress axis : x y z
#
# Youngs Moduli (GPa) = 53.76285 46.08839 166.62975
#
# Poissons Ratio (x) = 0.32589 0.23936
# Poissons Ratio (y) = 0.38015 0.41348
# Poissons Ratio (z) = 0.07723 0.11436
#
# Static dielectric constant tensor:
#      x y z
#    x 1.733550 0.000000 -0.003170 
#    y 0.000000 1.707350 0.000000 
#    z -0.003170 0.000000 1.806030 
# 
# From -- ./inp_files/12812.got.cif
#   From: 2010.05.17/outbox.cif.g08.bks.cpg/sg15_7_cif.got.tgz:12812.got - 2010.06.03 18:47:42.
