data_PCOD9254285
_publ_section_title
;
Structure prediction by ZEFSAII (Michael W. Deem and Ramdas Pophale) SiO2 
 PCOD9254285
Probable space group: C 2/C
;
_chemical_formula_sum "Si O2"
_cell_formula_units_Z 44
_cell_length_a 26.713753
_cell_length_b 16.551611
_cell_length_c 14.458194
_cell_angle_alpha 90.000000
_cell_angle_beta 20.910224
_cell_angle_gamma 90.000000
_cell_volume 2281.610392
_symmetry_space_group_name_H-M "C 2/C"
_symmetry_group_IT_number 15
_symmetry_cell_setting 'monoclinic'
loop_
_space_group_symop_operation_xyz
x,y,z
-x,y,1/2-z
-x,-y,-z
x,-y,1/2+z
1/2+x,1/2+y,z
1/2-x,1/2+y,1/2-z
1/2-x,1/2-y,-z
1/2+x,1/2-y,1/2+z
loop_
_atom_site_type_symbol
_atom_site_label
_atom_site_fract_x
_atom_site_fract_y
_atom_site_fract_z
Si Si1 0.128118 0.685861 0.238968
Si Si2 0.858879 0.238211 0.123086
Si Si3 0.914646 0.125800 0.188299
Si Si4 0.071048 0.753810 0.538792
Si Si5 0.500000 0.392710 0.250000
Si Si6 0.834776 0.952897 0.365989
O O1 0.091246 0.702513 0.410076
O O2 0.991863 0.705071 0.413094
O O3 0.250000 0.750000 0.000000
O O4 0.193586 0.598471 0.109924
O O5 0.837070 0.191218 0.257776
O O6 0.724281 0.279218 0.310845
O O7 0.903920 0.166972 0.975807
O O8 0.973667 0.171498 0.175877
O O9 0.823153 0.046592 0.362418
O O10 0.053787 0.092251 0.894440
O O11 0.000000 0.711625 0.750000
O O12 0.406572 0.444431 0.342227
#
# Coordination Sequence:
#
# PCOD9254285 Si02
#       6
#     8   8   8   8   4   8
#     4  11  18  35  59  89 119 157 206 255 304 363
#     4  10  19  34  58  88 118 154 209 253 292 359
#     4   9  21  34  54  87 125 154 193 252 306 360
#     4  11  22  36  57  88 118 163 213 251 297 368
#     4  10  16  28  62  84 108 154 196 250 290 356
#     4  10  18  34  55  87 123 152 195 248 311 361
#
# _framework density 19.284624999999998
#
# number of rings (size 3 to 8) (size 9 to 14) (size 15 to 20)
#    0.000    1.818    7.273    0.000    1.273    2.909 
#    0.000    0.000    0.000   10.909    0.000    0.000 
#    0.000    0.000    0.000    0.000    0.000    0.000 
#
# Total GULP energy -122722.272719 kJ/mol
# GULP energy per Si atom -5578.285124 kJ/mol
# Density = 1.924073 g / cm^3
# Si number density = 19.284625 Si / 1000 Ang^3
#
#
#
# Elastic Constant Matrix: (Units=GPa)
#
#
# Indices 1 2 3 4 5 6 
#
# 1 64.8585 2.9123 8.3826 0.0000 7.5657 0.0000
# 2 2.9123 75.4478 6.4483 0.0000 5.0461 0.0000
# 3 8.3826 6.4483 35.6481 0.0000 11.4152 0.0000
# 4 0.0000 0.0000 0.0000 21.7249 0.0000 2.8937
# 5 7.5657 5.0461 11.4152 0.0000 32.5255 0.0000
# 6 0.0000 0.0000 0.0000 2.8937 0.0000 12.5639
#
#
#
# Elastic Compliance Matrix: (Units=1/GPa)
#
#
# Indices 1 2 3 4 5 6 
#
# 1 0.016116 -0.000194 -0.002888 0.000000 -0.002705 0.000000
# 2 -0.000194 0.013521 -0.001963 0.000000 -0.001363 0.000000
# 3 -0.002888 -0.001963 0.032417 0.000000 -0.010401 0.000000
# 4 0.000000 0.000000 0.000000 0.047487 0.000000 -0.010937
# 5 -0.002705 -0.001363 -0.010401 0.000000 0.035236 0.000000
# 6 0.000000 0.000000 0.000000 -0.010937 0.000000 0.082112
#
#
# Mechanical properties :
#
#
# Convention : Reuss Voigt Hill
#
# Bulk Modulus (GPa) = 19.24523 23.49343 21.36933
# Shear Modulus (GPa) = 19.66175 23.91027 21.78601
#
# Velocity S-wave (km/s) = 3.19651 3.52499 3.36476
# Velocity P-wave (km/s) = 4.86054 5.36435 5.11865
#
# Compressibility (1/GPa) = 0.05196094
#
# Stress axis : x y z
#
# Youngs Moduli (GPa) = 62.05124 73.96067 30.84823
#
# Poissons Ratio (x) = 0.01437 0.08910
# Poissons Ratio (y) = 0.01206 0.06057
# Poissons Ratio (z) = 0.17922 0.14522
#
# Static dielectric constant tensor:
#      x y z
#    x 1.762270 0.000000 0.074280 
#    y 0.000000 1.654430 0.000000 
#    z 0.074280 0.000000 1.727960 
# 
# From -- ./inp_files/134286.got.cif
#   From: 2010.05.17/outbox.cif.g08.bks.cpg/sg15_68_cif.got.tgz:134286.got - 2010.06.03 18:47:42.
