data_PCOD9254070
_publ_section_title
;
Structure prediction by ZEFSAII (Michael W. Deem and Ramdas Pophale) SiO2 
 PCOD9254070
Probable space group: C 2/C
;
_chemical_formula_sum "Si O2"
_cell_formula_units_Z 56
_cell_length_a 5.532023
_cell_length_b 23.307199
_cell_length_c 22.190078
_cell_angle_alpha 90.000000
_cell_angle_beta 75.563807
_cell_angle_gamma 90.000000
_cell_volume 2770.762328
_symmetry_space_group_name_H-M "C 2/C"
_symmetry_group_IT_number 15
_symmetry_cell_setting 'monoclinic'
loop_
_space_group_symop_operation_xyz
x,y,z
-x,y,1/2-z
-x,-y,-z
x,-y,1/2+z
1/2+x,1/2+y,z
1/2-x,1/2+y,1/2-z
1/2-x,1/2-y,-z
1/2+x,1/2-y,1/2+z
loop_
_atom_site_type_symbol
_atom_site_label
_atom_site_fract_x
_atom_site_fract_y
_atom_site_fract_z
Si Si1 0.715385 0.698036 0.284615
Si Si2 0.427078 0.522115 0.572922
Si Si3 0.634590 0.598602 0.365410
Si Si4 0.572507 0.858856 0.927493
Si Si5 0.914446 0.265651 0.085554
Si Si6 0.958073 0.441146 0.041927
Si Si7 0.551289 0.722671 0.948711
O O1 0.500000 0.712500 0.250000
O O2 0.701232 0.629666 0.298768
O O3 0.649314 0.730853 0.350686
O O4 0.000000 0.712500 0.250000
O O5 0.500000 0.500000 0.500000
O O6 0.380088 0.468663 0.619912
O O7 0.670814 0.556094 0.579168
O O8 0.170851 0.556094 0.579168
O O9 0.352086 0.620537 0.395265
O O10 0.857384 0.620537 0.395265
O O11 0.569922 0.790233 0.930078
O O12 0.505894 0.889016 0.994106
O O13 0.672655 0.299976 0.077887
O O14 0.171572 0.299976 0.077887
O O15 0.976124 0.223956 0.023876
O O16 0.000000 0.500000 0.000000
#
# Coordination Sequence:
#
# PCOD9254070 Si02
#       7
#     8   8   8   8   8   8   8
#     4  12  24  37  50  71  99 138 181 205 240 300
#     4  10  16  28  40  67  96 129 160 181 237 292
#     4  12  20  30  48  67 100 135 163 203 241 285
#     4  12  17  28  47  72  99 128 158 197 250 307
#     4  10  20  35  51  69  96 128 165 205 257 305
#     4  10  16  24  40  66  98 131 150 178 225 295
#     4  10  19  32  52  74  95 127 159 205 269 312
#
# _framework density 20.211043
#
# number of rings (size 3 to 8) (size 9 to 14) (size 15 to 20)
#    0.000    1.143    8.571    1.714    0.000    0.000 
#    0.000    0.000    0.000    0.000    0.000    0.000 
#    0.000    6.857    0.000    0.000    0.000    0.000 
#
# Total GULP energy -156249.417051 kJ/mol
# GULP energy per Si atom -5580.336323 kJ/mol
# Density = 2.016504 g / cm^3
# Si number density = 20.211043 Si / 1000 Ang^3
#
#
#
# Elastic Constant Matrix: (Units=GPa)
#
#
# Indices 1 2 3 4 5 6 
#
# 1 255.1363 22.2895 50.4571 0.0000 8.8471 0.0000
# 2 22.2895 49.4693 6.2195 0.0000 0.8622 0.0000
# 3 50.4571 6.2195 73.3847 0.0000 0.9047 0.0000
# 4 0.0000 0.0000 0.0000 36.8915 0.0000 -1.1518
# 5 8.8471 0.8622 0.9047 0.0000 20.3206 0.0000
# 6 0.0000 0.0000 0.0000 -1.1518 0.0000 15.4251
#
#
#
# Elastic Compliance Matrix: (Units=1/GPa)
#
#
# Indices 1 2 3 4 5 6 
#
# 1 0.004746 -0.001717 -0.003095 0.000000 -0.001856 0.000000
# 2 -0.001717 0.021066 -0.000603 0.000000 -0.000119 0.000000
# 3 -0.003095 -0.000603 0.015798 0.000000 0.000670 0.000000
# 4 0.000000 0.000000 0.000000 0.027170 0.000000 0.002029
# 5 -0.001856 -0.000119 0.000670 0.000000 0.049994 0.000000
# 6 0.000000 0.000000 0.000000 0.002029 0.000000 0.064981
#
#
# Mechanical properties :
#
#
# Convention : Reuss Voigt Hill
#
# Bulk Modulus (GPa) = 32.48925 59.54692 46.01809
# Shear Modulus (GPa) = 24.40876 34.46238 29.43557
#
# Velocity S-wave (km/s) = 3.47896 4.13380 3.82043
# Velocity P-wave (km/s) = 5.67868 7.23263 6.50224
#
# Compressibility (1/GPa) = 0.03077941
#
# Stress axis : x y z
#
# Youngs Moduli (GPa) = 210.71090 47.46959 63.30100
#
# Poissons Ratio (x) = 0.08150 0.19590
# Poissons Ratio (y) = 0.36177 0.03820
# Poissons Ratio (z) = 0.65209 0.02864
#
# Static dielectric constant tensor:
#      x y z
#    x 1.768740 0.000000 0.002980 
#    y 0.000000 1.710580 0.000000 
#    z 0.002980 0.000000 1.713130 
# 
# From -- ./inp_files/228332.got.cif
#   From: 2010.05.17/outbox.cif.g08.bks.cpg/sg15_115_cif.got.tgz:228332.got - 2010.06.03 18:47:42.
