data_PCOD9254441
_publ_section_title
;
Structure prediction by ZEFSAII (Michael W. Deem and Ramdas Pophale) SiO2 
 PCOD9254441
Probable space group: C 2/C
;
_chemical_formula_sum "Si O2"
_cell_formula_units_Z 64
_cell_length_a 7.326058
_cell_length_b 16.582081
_cell_length_c 23.264701
_cell_angle_alpha 90.000000
_cell_angle_beta 89.740038
_cell_angle_gamma 90.000000
_cell_volume 2826.196733
_symmetry_space_group_name_H-M "C 2/C"
_symmetry_group_IT_number 15
_symmetry_cell_setting 'monoclinic'
loop_
_space_group_symop_operation_xyz
x,y,z
-x,y,1/2-z
-x,-y,-z
x,-y,1/2+z
1/2+x,1/2+y,z
1/2-x,1/2+y,1/2-z
1/2-x,1/2-y,-z
1/2+x,1/2-y,1/2+z
loop_
_atom_site_type_symbol
_atom_site_label
_atom_site_fract_x
_atom_site_fract_y
_atom_site_fract_z
Si Si1 0.732213 0.788533 0.796892
Si Si2 0.952130 0.752260 0.025980
Si Si3 0.843315 0.801765 0.673350
Si Si4 0.600037 0.098392 0.396615
Si Si5 0.597154 0.181198 0.918330
Si Si6 0.680482 0.356044 0.376133
Si Si7 0.792184 0.479052 0.020786
Si Si8 0.714365 0.466621 0.892426
O O1 0.713410 0.803851 0.729149
O O2 0.664192 0.859489 0.838597
O O3 0.657974 0.704338 0.822584
O O4 0.949582 0.786329 0.807655
O O5 0.975360 0.670344 0.062710
O O6 0.942569 0.824669 0.070814
O O7 0.750000 0.750000 0.000000
O O8 0.075493 0.746692 0.969609
O O9 0.799244 0.726567 0.632531
O O10 0.847352 0.884928 0.638064
O O11 0.434416 0.038457 0.383958
O O12 0.749984 0.050879 0.434252
O O13 0.392204 0.155982 0.897792
O O14 0.691591 0.103605 0.944901
O O15 0.646687 0.449851 0.365587
O O16 0.683523 0.471862 0.961414
O O17 0.000000 0.500000 0.000000
#
# Coordination Sequence:
#
# PCOD9254441 Si02
#       8
#     8   8   8   8   8   8   8   8
#     4   9  21  43  58  72 109 159 203 224 280 351
#     4   9  15  27  52  81 107 150 181 210 272 344
#     4  10  23  38  55  79 116 154 189 239 285 336
#     4  10  18  34  61  84 110 151 187 238 283 336
#     4  10  16  32  53  80 116 151 180 217 286 346
#     4   9  17  32  59  82 107 145 195 232 267 343
#     4  10  16  30  54  89 123 136 174 239 291 338
#     4  11  20  34  58  91 119 135 184 252 293 318
#
# _framework density 22.645275999999999
#
# number of rings (size 3 to 8) (size 9 to 14) (size 15 to 20)
#    0.000    2.250    5.000    1.500    0.000    1.000 
#    2.250    3.750    2.750    0.000    0.000    0.000 
#    0.000    0.000    0.000    0.000    0.000    0.000 
#
# Total GULP energy -178804.147561 kJ/mol
# GULP energy per Si atom -5587.629611 kJ/mol
# Density = 2.259373 g / cm^3
# Si number density = 22.645276 Si / 1000 Ang^3
#
#
#
# Elastic Constant Matrix: (Units=GPa)
#
#
# Indices 1 2 3 4 5 6 
#
# 1 39.6541 3.8542 15.5518 0.0000 6.6802 0.0000
# 2 3.8542 152.6971 76.7730 0.0000 -8.8354 0.0000
# 3 15.5518 76.7730 163.1607 0.0000 -29.3213 0.0000
# 4 0.0000 0.0000 0.0000 24.9080 0.0000 -2.0776
# 5 6.6802 -8.8354 -29.3213 0.0000 25.3517 0.0000
# 6 0.0000 0.0000 0.0000 -2.0776 0.0000 24.2812
#
#
#
# Elastic Compliance Matrix: (Units=1/GPa)
#
#
# Indices 1 2 3 4 5 6 
#
# 1 0.029932 0.001506 -0.006166 0.000000 -0.014494 0.000000
# 2 0.001506 0.008745 -0.004774 0.000000 -0.002871 0.000000
# 3 -0.006166 -0.004774 0.011306 0.000000 0.013037 0.000000
# 4 0.000000 0.000000 0.000000 0.040436 0.000000 0.003460
# 5 -0.014494 -0.002871 0.013037 0.000000 0.057342 0.000000
# 6 0.000000 0.000000 0.000000 0.003460 0.000000 0.041480
#
#
# Mechanical properties :
#
#
# Convention : Reuss Voigt Hill
#
# Bulk Modulus (GPa) = 32.14011 60.87444 46.50727
# Shear Modulus (GPa) = 22.88512 32.19704 27.54108
#
# Velocity S-wave (km/s) = 3.18243 3.77477 3.49118
# Velocity P-wave (km/s) = 5.26569 6.77780 6.06902
#
# Compressibility (1/GPa) = 0.03111377
#
# Stress axis : x y z
#
# Youngs Moduli (GPa) = 33.40941 114.34731 88.44738
#
# Poissons Ratio (x) = -0.17223 0.54540
# Poissons Ratio (y) = -0.05032 0.42229
# Poissons Ratio (z) = 0.20601 0.54595
#
# Static dielectric constant tensor:
#      x y z
#    x 1.959670 0.000000 0.060300 
#    y 0.000000 1.851260 0.000000 
#    z 0.060300 0.000000 1.912050 
# 
# From -- ./inp_files/264718.got.cif
#   From: 2010.05.17/outbox.cif.g08.bks.cpg/sg15_133_cif.got.tgz:264718.got - 2010.06.03 18:47:42.
