data_PCOD9254531
_publ_section_title
;
Structure prediction by ZEFSAII (Michael W. Deem and Ramdas Pophale) SiO2 
 PCOD9254531
Probable space group: C 2/C
;
_chemical_formula_sum "Si O2"
_cell_formula_units_Z 56
_cell_length_a 12.644211
_cell_length_b 19.094389
_cell_length_c 14.097375
_cell_angle_alpha 90.000000
_cell_angle_beta 75.652762
_cell_angle_gamma 90.000000
_cell_volume 3297.426740
_symmetry_space_group_name_H-M "C 2/C"
_symmetry_group_IT_number 15
_symmetry_cell_setting 'monoclinic'
loop_
_space_group_symop_operation_xyz
x,y,z
-x,y,1/2-z
-x,-y,-z
x,-y,1/2+z
1/2+x,1/2+y,z
1/2-x,1/2+y,1/2-z
1/2-x,1/2-y,-z
1/2+x,1/2-y,1/2+z
loop_
_atom_site_type_symbol
_atom_site_label
_atom_site_fract_x
_atom_site_fract_y
_atom_site_fract_z
Si Si1 0.493927 0.641643 0.981642
Si Si2 0.612851 0.852343 0.173193
Si Si3 0.321277 0.430892 0.188242
Si Si4 0.256966 0.719820 0.268075
Si Si5 0.597451 0.415167 0.804899
Si Si6 0.364993 0.776790 0.515942
Si Si7 0.618828 0.684742 0.676781
O O1 0.584109 0.597214 0.903565
O O2 0.552285 0.712193 0.004736
O O3 0.402102 0.666174 0.927389
O O4 0.450799 0.598972 0.080146
O O5 0.500000 0.868342 0.250000
O O6 0.705143 0.910632 0.169348
O O7 0.663626 0.781004 0.208455
O O8 0.597342 0.836478 0.064972
O O9 0.339449 0.511464 0.207175
O O10 0.336540 0.383680 0.278675
O O11 0.325136 0.650246 0.236166
O O12 0.164170 0.706388 0.368794
O O13 0.198788 0.752346 0.188401
O O14 0.500000 0.418527 0.750000
O O15 0.250000 0.750000 0.500000
O O16 0.500000 0.699574 0.750000
#
# Coordination Sequence:
#
# PCOD9254531 Si02
#       7
#     8   8   8   8   8   8   8
#     4  11  19  35  59  82 110 147 189 225 287 325
#     4  10  19  35  59  81 109 146 192 231 274 335
#     4  10  21  37  55  79 117 151 179 229 287 333
#     4  10  19  34  55  84 114 141 188 236 275 322
#     4  12  24  34  54  89 114 143 188 238 277 329
#     4  10  16  31  56  83 108 141 180 235 276 314
#     4   9  17  36  57  77 109 155 184 216 282 340
#
# _framework density 16.982939999999999
#
# number of rings (size 3 to 8) (size 9 to 14) (size 15 to 20)
#    0.000    1.714    5.714    4.714    0.000    0.571 
#    0.000    0.714    0.000    0.857    0.000    0.000 
#    0.000    0.000    0.000    0.000    0.000    0.000 
#
# Total GULP energy -156171.692727 kJ/mol
# GULP energy per Si atom -5577.560455 kJ/mol
# Density = 1.694429 g / cm^3
# Si number density = 16.982940 Si / 1000 Ang^3
#
#
#
# Elastic Constant Matrix: (Units=GPa)
#
#
# Indices 1 2 3 4 5 6 
#
# 1 52.7294 56.6917 25.5601 0.0000 6.8058 0.0000
# 2 56.6917 125.7013 30.9231 0.0000 3.4146 0.0000
# 3 25.5601 30.9231 63.7371 0.0000 11.2599 0.0000
# 4 0.0000 0.0000 0.0000 13.5419 0.0000 -4.2806
# 5 6.8058 3.4146 11.2599 0.0000 26.4027 0.0000
# 6 0.0000 0.0000 0.0000 -4.2806 0.0000 15.2592
#
#
#
# Elastic Compliance Matrix: (Units=1/GPa)
#
#
# Indices 1 2 3 4 5 6 
#
# 1 0.041048 -0.016520 -0.007521 0.000000 -0.005237 0.000000
# 2 -0.016520 0.015696 -0.001497 0.000000 0.002867 0.000000
# 3 -0.007521 -0.001497 0.020608 0.000000 -0.006656 0.000000
# 4 0.000000 0.000000 0.000000 0.081030 0.000000 0.022731
# 5 -0.005237 0.002867 -0.006656 0.000000 0.041693 0.000000
# 6 0.000000 0.000000 0.000000 0.022731 0.000000 0.071911
#
#
# Mechanical properties :
#
#
# Convention : Reuss Voigt Hill
#
# Bulk Modulus (GPa) = 38.05761 52.05753 45.05757
# Shear Modulus (GPa) = 15.06835 19.64030 17.35432
#
# Velocity S-wave (km/s) = 2.98193 3.40438 3.20014
# Velocity P-wave (km/s) = 5.85780 6.79503 6.34375
#
# Compressibility (1/GPa) = 0.02627595
#
# Stress axis : x y z
#
# Youngs Moduli (GPa) = 24.36156 63.70853 48.52578
#
# Poissons Ratio (x) = 1.05249 0.36496
# Poissons Ratio (y) = 0.40246 0.07263
# Poissons Ratio (z) = 0.18322 0.09536
#
# Static dielectric constant tensor:
#      x y z
#    x 1.576650 0.000000 0.010710 
#    y 0.000000 1.552020 0.000000 
#    z 0.010710 0.000000 1.607180 
# 
# From -- ./inp_files/124149.got.cif
#   From: 2010.05.17/outbox.cif.g08.bks.cpg/sg15_63_cif.got.tgz:124149.got - 2010.06.03 18:47:42.
