data_PCOD9254096
_publ_section_title
;
Structure prediction by ZEFSAII (Michael W. Deem and Ramdas Pophale) SiO2 
 PCOD9254096
Probable space group: C 2/C
;
_chemical_formula_sum "Si O2"
_cell_formula_units_Z 64
_cell_length_a 6.969940
_cell_length_b 20.268171
_cell_length_c 18.488550
_cell_angle_alpha 90.000000
_cell_angle_beta 105.830114
_cell_angle_gamma 90.000000
_cell_volume 2512.784644
_symmetry_space_group_name_H-M "C 2/C"
_symmetry_group_IT_number 15
_symmetry_cell_setting 'monoclinic'
loop_
_space_group_symop_operation_xyz
x,y,z
-x,y,1/2-z
-x,-y,-z
x,-y,1/2+z
1/2+x,1/2+y,z
1/2-x,1/2+y,1/2-z
1/2-x,1/2-y,-z
1/2+x,1/2-y,1/2+z
loop_
_atom_site_type_symbol
_atom_site_label
_atom_site_fract_x
_atom_site_fract_y
_atom_site_fract_z
Si Si1 0.282311 0.525450 0.699519
Si Si2 0.262463 0.988978 0.971956
Si Si3 0.096257 0.222105 0.615331
Si Si4 0.857055 0.649288 0.447533
Si Si5 0.210354 0.788619 0.647013
Si Si6 0.801368 0.382548 0.773313
Si Si7 0.753681 0.834560 0.232124
Si Si8 0.171046 0.127656 0.004153
O O1 0.500000 0.538681 0.750000
O O2 0.290929 0.509583 0.615535
O O3 0.224041 0.460391 0.736844
O O4 0.172242 0.593128 0.706581
O O5 0.245523 0.909338 0.981008
O O6 0.500000 0.000000 0.000000
O O7 0.165723 0.047765 0.010164
O O8 0.935338 0.268820 0.641404
O O9 0.969706 0.161396 0.569779
O O10 0.182300 0.272340 0.563937
O O11 0.255873 0.193726 0.687884
O O12 0.813509 0.627613 0.359827
O O13 0.094083 0.642443 0.489310
O O14 0.164314 0.834715 0.711937
O O15 0.153689 0.715999 0.666307
O O16 0.129019 0.830982 0.572423
O O17 0.000000 0.367253 0.750000
O O18 0.000000 0.832518 0.250000
#
# Coordination Sequence:
#
# PCOD9254096 Si02
#       8
#     8   8   8   8   8   8   8   8
#     4  10  21  33  50  75 108 137 172 221 273 318
#     4   9  18  30  44  70 109 142 170 206 274 339
#     4  10  16  25  44  70 101 128 165 224 277 305
#     4   9  16  26  42  69  99 134 164 213 259 322
#     4  10  16  26  47  71  97 126 171 216 261 301
#     4  11  17  31  51  73  99 137 176 212 259 318
#     4   9  16  28  45  67  98 130 162 217 268 304
#     4  10  17  24  42  73 107 129 163 222 276 307
#
# _framework density 25.469753000000001
#
# number of rings (size 3 to 8) (size 9 to 14) (size 15 to 20)
#    0.000    2.250    3.750    4.125    0.000    1.000 
#    0.000    0.000    0.000    3.750    0.000    0.000 
#    0.000    8.500    0.000    0.000    0.000    0.000 
#
# Total GULP energy -178373.016898 kJ/mol
# GULP energy per Si atom -5574.156778 kJ/mol
# Density = 2.541178 g / cm^3
# Si number density = 25.469753 Si / 1000 Ang^3
#
#
#
# Elastic Constant Matrix: (Units=GPa)
#
#
# Indices 1 2 3 4 5 6 
#
# 1 60.1421 20.0515 8.4061 0.0000 -14.5799 0.0000
# 2 20.0515 195.5759 31.6216 0.0000 -4.3794 0.0000
# 3 8.4061 31.6216 73.6118 0.0000 -4.9385 0.0000
# 4 0.0000 0.0000 0.0000 47.1311 0.0000 -3.5450
# 5 -14.5799 -4.3794 -4.9385 0.0000 17.0285 0.0000
# 6 0.0000 0.0000 0.0000 -3.5450 0.0000 33.4130
#
#
#
# Elastic Compliance Matrix: (Units=1/GPa)
#
#
# Indices 1 2 3 4 5 6 
#
# 1 0.021620 -0.001731 -0.000524 0.000000 0.017914 0.000000
# 2 -0.001731 0.005643 -0.002273 0.000000 -0.000690 0.000000
# 3 -0.000524 -0.002273 0.014840 0.000000 0.003271 0.000000
# 4 0.000000 0.000000 0.000000 0.021388 0.000000 0.002269
# 5 0.017914 -0.000690 0.003271 0.000000 0.074835 0.000000
# 6 0.000000 0.000000 0.000000 0.002269 0.000000 0.030169
#
#
# Mechanical properties :
#
#
# Convention : Reuss Voigt Hill
#
# Bulk Modulus (GPa) = 30.25778 49.94313 40.10046
# Shear Modulus (GPa) = 26.51601 37.46456 31.99028
#
# Velocity S-wave (km/s) = 3.23007 3.83945 3.54787
# Velocity P-wave (km/s) = 5.08103 6.26949 5.70629
#
# Compressibility (1/GPa) = 0.03304935
#
# Stress axis : x y z
#
# Youngs Moduli (GPa) = 46.25256 177.22510 67.38439
#
# Poissons Ratio (x) = 0.30675 0.03528
# Poissons Ratio (y) = 0.08006 0.15313
# Poissons Ratio (z) = 0.02422 0.40275
#
# Static dielectric constant tensor:
#      x y z
#    x 2.548480 0.000000 0.353050 
#    y 0.000000 2.279770 0.000000 
#    z 0.353050 0.000000 2.292320 
# 
# From -- ./inp_files/240106.got.cif
#   From: 2010.05.17/outbox.cif.g08.bks.cpg/sg15_121_cif.got.tgz:240106.got - 2010.06.03 18:47:42.
