data_PCOD9254411
_publ_section_title
;
Structure prediction by ZEFSAII (Michael W. Deem and Ramdas Pophale) SiO2 
 PCOD9254411
Probable space group: C 2/C
;
_chemical_formula_sum "Si O2"
_cell_formula_units_Z 44
_cell_length_a 32.747170
_cell_length_b 8.896034
_cell_length_c 8.560229
_cell_angle_alpha 90.000000
_cell_angle_beta 69.295358
_cell_angle_gamma 90.000000
_cell_volume 2332.706514
_symmetry_space_group_name_H-M "C 2/C"
_symmetry_group_IT_number 15
_symmetry_cell_setting 'monoclinic'
loop_
_space_group_symop_operation_xyz
x,y,z
-x,y,1/2-z
-x,-y,-z
x,-y,1/2+z
1/2+x,1/2+y,z
1/2-x,1/2+y,1/2-z
1/2-x,1/2-y,-z
1/2+x,1/2-y,1/2+z
loop_
_atom_site_type_symbol
_atom_site_label
_atom_site_fract_x
_atom_site_fract_y
_atom_site_fract_z
Si Si1 0.650365 0.288226 0.399601
Si Si2 0.355643 0.583281 0.248131
Si Si3 0.284720 0.930561 0.829470
Si Si4 0.794772 0.279672 0.148256
Si Si5 0.500000 0.555767 0.750000
Si Si6 0.562325 0.395549 0.423316
O O1 0.666835 0.421956 0.260364
O O2 0.654901 0.351791 0.568149
O O3 0.676380 0.139453 0.327140
O O4 0.598711 0.278375 0.431579
O O5 0.339436 0.698780 0.138664
O O6 0.406472 0.537608 0.165848
O O7 0.240942 0.848747 0.831420
O O8 0.281604 0.107207 0.804978
O O9 0.294735 0.878814 0.991747
O O10 0.530008 0.451324 0.600613
O O11 0.467242 0.647538 0.683636
#
# Coordination Sequence:
#
# PCOD9254411 Si02
#       6
#     8   8   8   8   4   8
#     4  10  19  34  54  82 116 149 184 232 280 325
#     4  10  19  34  54  82 116 149 184 232 280 325
#     4  11  24  39  57  81 110 151 192 235 279 334
#     4  11  24  39  57  81 110 151 192 235 279 334
#     4  10  16  30  52  86 118 142 188 222 296 332
#     4   9  18  30  52  86 118 148 178 238 278 339
#
# _framework density 18.862210000000001
#
# number of rings (size 3 to 8) (size 9 to 14) (size 15 to 20)
#    1.091    0.727    1.818    3.273    2.545    5.818 
#    0.000    0.000    0.000    0.000    0.000    7.636 
#    0.000    0.000    0.000    0.000    0.000    0.000 
#
# Total GULP energy -122634.876056 kJ/mol
# GULP energy per Si atom -5574.312548 kJ/mol
# Density = 1.881928 g / cm^3
# Si number density = 18.862210 Si / 1000 Ang^3
#
#
#
# Elastic Constant Matrix: (Units=GPa)
#
#
# Indices 1 2 3 4 5 6 
#
# 1 102.1599 20.1594 31.3127 0.0000 20.0036 0.0000
# 2 20.1594 39.3415 -7.0947 0.0000 6.8562 0.0000
# 3 31.3127 -7.0947 44.0263 0.0000 6.0421 0.0000
# 4 0.0000 0.0000 0.0000 22.4362 0.0000 2.2125
# 5 20.0036 6.8562 6.0421 0.0000 29.8224 0.0000
# 6 0.0000 0.0000 0.0000 2.2125 0.0000 16.5125
#
#
#
# Elastic Compliance Matrix: (Units=1/GPa)
#
#
# Indices 1 2 3 4 5 6 
#
# 1 0.016891 -0.009814 -0.012703 0.000000 -0.006500 0.000000
# 2 -0.009814 0.033415 0.012873 0.000000 -0.003708 0.000000
# 3 -0.012703 0.012873 0.034005 0.000000 -0.001328 0.000000
# 4 0.000000 0.000000 0.000000 0.045168 0.000000 -0.006052
# 5 -0.006500 -0.003708 -0.001328 0.000000 0.039013 0.000000
# 6 0.000000 0.000000 0.000000 -0.006052 0.000000 0.061371
#
#
# Mechanical properties :
#
#
# Convention : Reuss Voigt Hill
#
# Bulk Modulus (GPa) = 15.37876 30.47583 22.92729
# Shear Modulus (GPa) = 18.46209 23.16425 20.81317
#
# Velocity S-wave (km/s) = 3.13195 3.50820 3.32540
# Velocity P-wave (km/s) = 4.60974 5.70982 5.18902
#
# Compressibility (1/GPa) = 0.06502477
#
# Stress axis : x y z
#
# Youngs Moduli (GPa) = 59.20149 29.92687 29.40726
#
# Poissons Ratio (x) = 0.29369 0.37356
# Poissons Ratio (y) = 0.58098 -0.37857
# Poissons Ratio (z) = 0.75204 -0.38525
#
# Static dielectric constant tensor:
#      x y z
#    x 1.671060 0.000000 0.024740 
#    y 0.000000 1.644250 0.000000 
#    z 0.024740 0.000000 1.693040 
# 
# From -- ./inp_files/68300.got.cif
#   From: 2010.05.17/outbox.cif.g08.bks.cpg/sg15_35_cif.got.tgz:68300.got - 2010.06.03 18:47:42.
