data_PCOD9254601
_publ_section_title
;
Structure prediction by ZEFSAII (Michael W. Deem and Ramdas Pophale) SiO2 
 PCOD9254601
Probable space group: C 2/C
;
_chemical_formula_sum "Si O2"
_cell_formula_units_Z 56
_cell_length_a 11.101786
_cell_length_b 18.936457
_cell_length_c 17.550805
_cell_angle_alpha 90.000000
_cell_angle_beta 51.518824
_cell_angle_gamma 90.000000
_cell_volume 2888.327571
_symmetry_space_group_name_H-M "C 2/C"
_symmetry_group_IT_number 15
_symmetry_cell_setting 'monoclinic'
loop_
_space_group_symop_operation_xyz
x,y,z
-x,y,1/2-z
-x,-y,-z
x,-y,1/2+z
1/2+x,1/2+y,z
1/2-x,1/2+y,1/2-z
1/2-x,1/2-y,-z
1/2+x,1/2-y,1/2+z
loop_
_atom_site_type_symbol
_atom_site_label
_atom_site_fract_x
_atom_site_fract_y
_atom_site_fract_z
Si Si1 0.237998 0.540094 0.865290
Si Si2 0.116188 0.794115 0.972503
Si Si3 0.886091 0.996111 0.150923
Si Si4 0.633733 0.316078 0.136361
Si Si5 0.354309 0.081791 0.350584
Si Si6 0.901072 0.545492 0.947616
Si Si7 0.617895 0.604627 0.986341
O O1 0.350230 0.519129 0.752217
O O2 0.319886 0.601450 0.881316
O O3 0.076256 0.567551 0.893226
O O4 0.181751 0.475844 0.940601
O O5 0.209832 0.726720 0.906977
O O6 0.239916 0.857908 0.922409
O O7 0.971418 0.821500 0.981034
O O8 0.078063 0.786797 0.076690
O O9 0.738442 0.035693 0.174289
O O10 0.901179 0.927143 0.091642
O O11 0.027424 0.047913 0.075281
O O12 0.500000 0.305682 0.250000
O O13 0.500000 0.113104 0.250000
O O14 0.400998 0.027136 0.398253
O O15 0.793107 0.600263 0.944833
#
# Coordination Sequence:
#
# PCOD9254601 Si02
#       7
#     8   8   8   8   8   8   8
#     4  11  21  34  51  84 116 141 176 229 279 325
#     4  10  21  38  54  77 107 145 186 220 265 329
#     4   9  18  29  54  79 106 139 176 222 277 315
#     4  11  23  36  56  79 109 144 181 229 272 321
#     4  10  16  32  54  79 107 142 174 219 264 334
#     4  10  21  33  52  83 112 142 175 228 280 327
#     4   9  19  35  53  78 105 145 185 221 266 336
#
# _framework density 19.388382
#
# number of rings (size 3 to 8) (size 9 to 14) (size 15 to 20)
#    0.000    2.000    2.857    2.143    2.000    0.000 
#    0.000    0.714    0.000    0.000    0.000    8.000 
#    0.000    0.000    0.000    0.000    0.000    0.000 
#
# Total GULP energy -156250.266897 kJ/mol
# GULP energy per Si atom -5580.366675 kJ/mol
# Density = 1.934425 g / cm^3
# Si number density = 19.388382 Si / 1000 Ang^3
#
#
#
# Elastic Constant Matrix: (Units=GPa)
#
#
# Indices 1 2 3 4 5 6 
#
# 1 73.7911 -6.0564 9.3810 0.0000 -6.7845 0.0000
# 2 -6.0564 32.6385 6.0979 0.0000 1.7834 0.0000
# 3 9.3810 6.0979 111.5728 0.0000 1.1602 0.0000
# 4 0.0000 0.0000 0.0000 14.3058 0.0000 -5.8824
# 5 -6.7845 1.7834 1.1602 0.0000 19.6717 0.0000
# 6 0.0000 0.0000 0.0000 -5.8824 0.0000 27.5364
#
#
#
# Elastic Compliance Matrix: (Units=1/GPa)
#
#
# Indices 1 2 3 4 5 6 
#
# 1 0.014391 0.002671 -0.001406 0.000000 0.004804 0.000000
# 2 0.002671 0.031595 -0.001932 0.000000 -0.001829 0.000000
# 3 -0.001406 -0.001932 0.009195 0.000000 -0.000852 0.000000
# 4 0.000000 0.000000 0.000000 0.076633 0.000000 0.016371
# 5 0.004804 -0.001829 -0.000852 0.000000 0.052707 0.000000
# 6 0.000000 0.000000 0.000000 0.016371 0.000000 0.039813
#
#
# Mechanical properties :
#
#
# Convention : Reuss Voigt Hill
#
# Bulk Modulus (GPa) = 18.57120 26.31638 22.44379
# Shear Modulus (GPa) = 20.52378 26.20809 23.36594
#
# Velocity S-wave (km/s) = 3.25708 3.68059 3.47530
# Velocity P-wave (km/s) = 4.87279 5.62717 5.26352
#
# Compressibility (1/GPa) = 0.05384681
#
# Stress axis : x y z
#
# Youngs Moduli (GPa) = 69.48590 31.65034 108.74955
#
# Poissons Ratio (x) = -0.08453 0.15290
# Poissons Ratio (y) = -0.18557 0.21014
# Poissons Ratio (z) = 0.09769 0.06116
#
# Static dielectric constant tensor:
#      x y z
#    x 1.709960 0.000000 -0.004980 
#    y 0.000000 1.668770 0.000000 
#    z -0.004980 0.000000 1.702960 
# 
# From -- ./inp_files/199442.got.cif
#   From: 2010.05.17/outbox.cif.g08.bks.cpg/sg15_100_cif.got.tgz:199442.got - 2010.06.03 18:47:42.
