data_PCOD9254128
_publ_section_title
;
Structure prediction by ZEFSAII (Michael W. Deem and Ramdas Pophale) SiO2 
 PCOD9254128
Probable space group: C 2/C
;
_chemical_formula_sum "Si O2"
_cell_formula_units_Z 44
_cell_length_a 24.757076
_cell_length_b 6.885647
_cell_length_c 19.885320
_cell_angle_alpha 90.000000
_cell_angle_beta 30.911978
_cell_angle_gamma 90.000000
_cell_volume 1741.420649
_symmetry_space_group_name_H-M "C 2/C"
_symmetry_group_IT_number 15
_symmetry_cell_setting 'monoclinic'
loop_
_space_group_symop_operation_xyz
x,y,z
-x,y,1/2-z
-x,-y,-z
x,-y,1/2+z
1/2+x,1/2+y,z
1/2-x,1/2+y,1/2-z
1/2-x,1/2-y,-z
1/2+x,1/2-y,1/2+z
loop_
_atom_site_type_symbol
_atom_site_label
_atom_site_fract_x
_atom_site_fract_y
_atom_site_fract_z
Si Si1 0.719627 0.587177 0.184801
Si Si2 0.389368 0.888301 0.610277
Si Si3 0.713011 0.972899 0.030389
Si Si4 0.500000 0.804644 0.250000
Si Si5 0.475826 0.427684 0.917247
Si Si6 0.765809 0.944468 0.614138
O O1 0.791720 0.524002 0.170578
O O2 0.595292 0.548151 0.313412
O O3 0.737217 0.822701 0.156750
O O4 0.765615 0.486345 0.069444
O O5 0.426434 0.709785 0.526213
O O6 0.500000 0.000000 0.500000
O O7 0.329744 0.847377 0.743752
O O8 0.591175 0.950395 0.173436
O O9 0.765095 0.086981 0.034993
O O10 0.750000 0.750000 0.000000
O O11 0.522779 0.673237 0.159167
O O12 0.385775 0.592726 0.009597
#
# Coordination Sequence:
#
# PCOD9254128 Si02
#       6
#     8   8   8   4   8   8
#     4  10  19  31  48  73 100 132 164 202 250 292
#     4  11  20  32  47  71 104 134 165 197 245 305
#     4  10  16  26  46  74  99 128 153 195 255 299
#     4  12  14  26  48  74 102 126 152 202 258 300
#     4  11  19  31  51  72 106 132 161 205 248 299
#     4  10  19  30  46  74 106 131 160 199 250 294
#
# _framework density 25.266728000000001
#
# number of rings (size 3 to 8) (size 9 to 14) (size 15 to 20)
#    0.000    1.455   10.909    0.000    0.000    0.727 
#    0.000    0.000    0.000    0.000    0.000    5.091 
#    0.000    0.000    0.000    0.000    0.000    0.000 
#
# Total GULP energy -122867.933446 kJ/mol
# GULP energy per Si atom -5584.906066 kJ/mol
# Density = 2.520922 g / cm^3
# Si number density = 25.266728 Si / 1000 Ang^3
#
#
#
# Elastic Constant Matrix: (Units=GPa)
#
#
# Indices 1 2 3 4 5 6 
#
# 1 153.5448 9.2062 29.5229 -0.0384 -15.6068 0.0198
# 2 9.2062 57.1053 -4.7208 -0.0388 5.3466 0.0279
# 3 29.5229 -4.7208 107.1699 -0.0433 6.5487 0.0313
# 4 -0.0384 -0.0388 -0.0433 22.0748 0.0245 2.2117
# 5 -15.6068 5.3466 6.5487 0.0245 75.8275 -0.0146
# 6 0.0198 0.0279 0.0313 2.2117 -0.0146 21.6363
#
#
#
# Elastic Compliance Matrix: (Units=1/GPa)
#
#
# Indices 1 2 3 4 5 6 
#
# 1 0.007198 -0.001505 -0.002158 0.000004 0.001774 -0.000001
# 2 -0.001505 0.018021 0.001312 0.000036 -0.001694 -0.000029
# 3 -0.002158 0.001312 0.010069 0.000022 -0.001406 -0.000017
# 4 0.000004 0.000036 0.000022 0.045769 -0.000019 -0.004679
# 5 0.001774 -0.001694 -0.001406 -0.000019 0.013794 0.000014
# 6 -0.000001 -0.000029 -0.000017 -0.004679 0.000014 0.046697
#
#
# Mechanical properties :
#
#
# Convention : Reuss Voigt Hill
#
# Bulk Modulus (GPa) = 32.69339 42.87072 37.78206
# Shear Modulus (GPa) = 31.96000 42.82852 37.39426
#
# Velocity S-wave (km/s) = 3.56041 4.12157 3.85122
# Velocity P-wave (km/s) = 5.46529 6.29713 5.89590
#
# Compressibility (1/GPa) = 0.03058722
#
# Stress axis : x y z
#
# Youngs Moduli (GPa) = 138.92454 55.49023 99.31398
#
# Poissons Ratio (x) = 0.08351 0.21428
# Poissons Ratio (y) = 0.20907 -0.13029
# Poissons Ratio (z) = 0.29975 -0.07280
#
# Static dielectric constant tensor:
#      x y z
#    x 2.040830 -0.000020 -0.007500 
#    y -0.000020 2.113080 0.000020 
#    z -0.007500 0.000020 1.963050 
# 
# From -- ./inp_files/167518.got.cif
#   From: 2010.05.17/outbox.cif.g08.bks.cpg/sg15_84_cif.got.tgz:167518.got - 2010.06.03 18:47:42.
