data_PCOD9254368
_publ_section_title
;
Structure prediction by ZEFSAII (Michael W. Deem and Ramdas Pophale) SiO2 
 PCOD9254368
Probable space group: C 2/C
;
_chemical_formula_sum "Si O2"
_cell_formula_units_Z 56
_cell_length_a 22.582385
_cell_length_b 17.098546
_cell_length_c 5.747613
_cell_angle_alpha 90.000000
_cell_angle_beta 120.599616
_cell_angle_gamma 90.000000
_cell_volume 1910.254523
_symmetry_space_group_name_H-M "C 2/C"
_symmetry_group_IT_number 15
_symmetry_cell_setting 'monoclinic'
loop_
_space_group_symop_operation_xyz
x,y,z
-x,y,1/2-z
-x,-y,-z
x,-y,1/2+z
1/2+x,1/2+y,z
1/2-x,1/2+y,1/2-z
1/2-x,1/2-y,-z
1/2+x,1/2-y,1/2+z
loop_
_atom_site_type_symbol
_atom_site_label
_atom_site_fract_x
_atom_site_fract_y
_atom_site_fract_z
Si Si1 0.152346 0.691420 0.554692
Si Si2 0.610385 0.010791 0.470767
Si Si3 0.342314 0.750925 0.934626
Si Si4 0.755860 0.043864 0.261716
Si Si5 0.397095 0.409388 0.044186
Si Si6 0.500000 0.809993 0.250000
Si Si7 0.500000 0.189239 0.250000
Si Si8 0.399266 0.598766 0.048528
O O1 0.141594 0.598224 0.533186
O O2 0.181862 0.714639 0.361488
O O3 0.074777 0.729027 0.399555
O O4 0.181861 0.714639 0.865959
O O5 0.576512 1.000000 0.653020
O O6 0.673536 0.948010 0.597068
O O7 0.333649 0.656909 0.917295
O O8 0.426493 0.765119 0.102985
O O9 0.815099 0.109471 0.380195
O O10 0.767137 0.000000 0.534270
O O11 0.395087 0.504690 0.040171
O O12 0.428574 0.385223 0.863024
O O13 0.428573 0.385223 0.351262
O O14 0.500000 0.852273 0.499008
#
# Coordination Sequence:
#
# PCOD9254368 Si02
#       8
#     8   8   8   8   8   4   4   8
#     4  10  19  35  51  75 103 126 168 200 245 293
#     4  10  21  33  53  77  96 128 168 201 246 292
#     4  10  19  32  53  74 100 134 158 207 241 292
#     4  10  16  30  49  73  87 126 165 206 230 278
#     4  10  17  30  48  73  96 124 167 213 231 291
#     4   8  16  30  48  71  93 130 178 182 226 296
#     4   8  16  30  52  69  95 134 158 200 232 286
#     4  10  18  28  49  76  98 123 166 204 248 275
#
# _framework density 29.315469
#
# number of rings (size 3 to 8) (size 9 to 14) (size 15 to 20)
#    0.000    2.286    2.857    1.714    0.000    0.000 
#    0.000    0.714    0.000    5.143    0.000    0.000 
#    0.000    0.000    0.000    0.000    0.000    0.000 
#
# Total GULP energy -156072.022288 kJ/mol
# GULP energy per Si atom -5574.000796 kJ/mol
# Density = 2.924875 g / cm^3
# Si number density = 29.315469 Si / 1000 Ang^3
#
#
#
# Elastic Constant Matrix: (Units=GPa)
#
#
# Indices 1 2 3 4 5 6 
#
# 1 87.0538 11.9320 159.5609 0.0000 36.3137 0.0000
# 2 11.9320 144.2774 61.5914 0.0000 -32.4561 0.0000
# 3 159.5609 61.5914 276.9576 0.0000 -160.4194 0.0000
# 4 0.0000 0.0000 0.0000 25.5855 0.0000 -20.1920
# 5 36.3137 -32.4561 -160.4194 0.0000 64.5326 0.0000
# 6 0.0000 0.0000 0.0000 -20.1920 0.0000 -5.2974
#
#
#
# Elastic Compliance Matrix: (Units=1/GPa)
#
#
# Indices 1 2 3 4 5 6 
#
# 1 0.001729 0.000118 0.003527 0.000000 0.007855 0.000000
# 2 0.000118 0.007645 -0.000956 0.000000 0.001403 0.000000
# 3 0.003527 -0.000956 -0.000825 0.000000 -0.004517 0.000000
# 4 0.000000 0.000000 0.000000 0.009751 0.000000 -0.037169
# 5 0.007855 0.001403 -0.004517 0.000000 0.000554 0.000000
# 6 0.000000 0.000000 0.000000 -0.037169 0.000000 -0.047097
#
#
# Mechanical properties :
#
#
# Convention : Reuss Voigt Hill
#
# Bulk Modulus (GPa) = 71.79314 108.27303 90.03308
# Shear Modulus (GPa) = -172.53383 35.31111 -68.61136
#
# Velocity S-wave (km/s) = -7.67997 3.47439 -4.84307
# Velocity P-wave (km/s) = 7.35524 7.28760 0.70375
#
# Compressibility (1/GPa) = 0.01392891
#
# Stress axis : x y z
#
# Youngs Moduli (GPa) = 578.35497 130.80692 -1211.96824
#
# Poissons Ratio (x) = -0.01546 4.27503
# Poissons Ratio (y) = -0.06838 -1.15805
# Poissons Ratio (z) = -2.04006 0.12499
#
# Static dielectric constant tensor:
#      x y z
#    x 2.275720 0.000000 0.056340 
#    y 0.000000 2.336270 0.000000 
#    z 0.056340 0.000000 2.189510 
# 
# From -- ./inp_files/18502.got.cif
#   From: 2010.05.17/outbox.cif.g08.bks.cpg/sg15_10_cif.got.tgz:18502.got - 2010.06.03 18:47:42.
