data_PCOD9254877
_publ_section_title
;
Structure prediction by ZEFSAII (Michael W. Deem and Ramdas Pophale) SiO2 
 PCOD9254877
Probable space group: C 2/C
;
_chemical_formula_sum "Si O2"
_cell_formula_units_Z 48
_cell_length_a 14.517623
_cell_length_b 12.924894
_cell_length_c 13.191212
_cell_angle_alpha 90.000000
_cell_angle_beta 120.346172
_cell_angle_gamma 90.000000
_cell_volume 2136.054410
_symmetry_space_group_name_H-M "C 2/C"
_symmetry_group_IT_number 15
_symmetry_cell_setting 'monoclinic'
loop_
_space_group_symop_operation_xyz
x,y,z
-x,y,1/2-z
-x,-y,-z
x,-y,1/2+z
1/2+x,1/2+y,z
1/2-x,1/2+y,1/2-z
1/2-x,1/2-y,-z
1/2+x,1/2-y,1/2+z
loop_
_atom_site_type_symbol
_atom_site_label
_atom_site_fract_x
_atom_site_fract_y
_atom_site_fract_z
Si Si1 0.098786 0.078743 0.563175
Si Si2 0.292758 0.610295 0.297248
Si Si3 0.960277 0.263010 0.494821
Si Si4 0.374901 0.666591 0.139344
Si Si5 0.923438 0.388540 0.109536
Si Si6 0.615566 0.112886 0.365498
O O1 0.132590 0.101699 0.467265
O O2 0.056468 0.187197 0.583824
O O3 0.182208 0.011547 0.672533
O O4 0.000000 0.000000 0.500000
O O5 0.387319 0.687841 0.385914
O O6 0.290960 0.631762 0.177195
O O7 0.197116 0.632666 0.320156
O O8 0.890401 0.305172 0.547499
O O9 0.009517 0.354252 0.452705
O O10 0.500000 0.655793 0.250000
O O11 0.357630 0.786248 0.101419
O O12 0.868171 0.499584 0.075242
O O13 0.000000 0.397835 0.250000
O O14 0.500000 0.115483 0.250000
#
# Coordination Sequence:
#
# PCOD9254877 Si02
#       6
#     8   8   8   8   8   8
#     4   9  18  35  61  94 119 151 200 252 299 357
#     4  11  21  41  64  92 120 165 204 242 313 369
#     4  10  19  40  66  86 119 160 200 257 311 354
#     4  10  16  36  67  88 118 162 203 247 299 366
#     4   9  17  38  64  81 114 164 201 237 295 370
#     4  11  25  42  55  91 128 157 205 255 301 358
#
# _framework density 22.471337999999999
#
# number of rings (size 3 to 8) (size 9 to 14) (size 15 to 20)
#    0.000    2.000    6.667    1.000    0.000    0.000 
#   18.000    1.667    0.000    0.000    0.000    0.000 
#    0.000    0.000    0.000    0.000    0.000    0.000 
#
# Total GULP energy -134019.208268 kJ/mol
# GULP energy per Si atom -5584.133678 kJ/mol
# Density = 2.242019 g / cm^3
# Si number density = 22.471338 Si / 1000 Ang^3
#
#
#
# Elastic Constant Matrix: (Units=GPa)
#
#
# Indices 1 2 3 4 5 6 
#
# 1 152.6522 41.7479 33.6594 0.0000 -52.3451 0.0000
# 2 41.7479 91.3050 38.7062 0.0000 -37.1977 0.0000
# 3 33.6594 38.7062 33.5077 0.0000 -25.8982 0.0000
# 4 0.0000 0.0000 0.0000 24.8165 0.0000 -14.5341
# 5 -52.3451 -37.1977 -25.8982 0.0000 48.6366 0.0000
# 6 0.0000 0.0000 0.0000 -14.5341 0.0000 28.7833
#
#
#
# Elastic Compliance Matrix: (Units=1/GPa)
#
#
# Indices 1 2 3 4 5 6 
#
# 1 0.010606 0.000908 -0.003983 0.000000 0.009988 0.000000
# 2 0.000908 0.022429 -0.021764 0.000000 0.006542 0.000000
# 3 -0.003983 -0.021764 0.072747 0.000000 0.017804 0.000000
# 4 0.000000 0.000000 0.000000 0.057216 0.000000 0.028891
# 5 0.009988 0.006542 0.017804 0.000000 0.045794 0.000000
# 6 0.000000 0.000000 0.000000 0.028891 0.000000 0.049331
#
#
# Mechanical properties :
#
#
# Convention : Reuss Voigt Hill
#
# Bulk Modulus (GPa) = 17.82437 56.18798 37.00617
# Shear Modulus (GPa) = 15.31385 31.33738 23.32562
#
# Velocity S-wave (km/s) = 2.61336 3.73842 3.22532
# Velocity P-wave (km/s) = 4.12982 6.61006 5.51128
#
# Compressibility (1/GPa) = 0.05610298
#
# Stress axis : x y z
#
# Youngs Moduli (GPa) = 94.28931 44.58609 13.74631
#
# Poissons Ratio (x) = -0.04050 0.05475
# Poissons Ratio (y) = -0.08566 0.29918
# Poissons Ratio (z) = 0.37557 0.97038
#
# Static dielectric constant tensor:
#      x y z
#    x 1.997990 0.000000 -0.001540 
#    y 0.000000 1.852520 0.000000 
#    z -0.001540 0.000000 1.918820 
# 
# From -- ./inp_files/152170.got.cif
#   From: 2010.05.17/outbox.cif.g08.bks.cpg/sg15_77_cif.got.tgz:152170.got - 2010.06.03 18:47:42.
