data_PCOD9254888
_publ_section_title
;
Structure prediction by ZEFSAII (Michael W. Deem and Ramdas Pophale) SiO2 
 PCOD9254888
Probable space group: C 2/C
;
_chemical_formula_sum "Si O2"
_cell_formula_units_Z 44
_cell_length_a 27.507231
_cell_length_b 16.409672
_cell_length_c 17.306080
_cell_angle_alpha 90.000000
_cell_angle_beta 164.183832
_cell_angle_gamma 90.000000
_cell_volume 2129.092215
_symmetry_space_group_name_H-M "C 2/C"
_symmetry_group_IT_number 15
_symmetry_cell_setting 'monoclinic'
loop_
_space_group_symop_operation_xyz
x,y,z
-x,y,1/2-z
-x,-y,-z
x,-y,1/2+z
1/2+x,1/2+y,z
1/2-x,1/2+y,1/2-z
1/2-x,1/2-y,-z
1/2+x,1/2-y,1/2+z
loop_
_atom_site_type_symbol
_atom_site_label
_atom_site_fract_x
_atom_site_fract_y
_atom_site_fract_z
Si Si1 0.978747 0.067399 0.899742
Si Si2 0.000000 0.622947 0.750000
Si Si3 0.159683 0.543908 0.310190
Si Si4 0.644094 0.293043 0.748777
Si Si5 0.183210 0.537127 0.176184
Si Si6 0.834886 0.864816 0.556468
O O1 0.782312 0.078806 0.565066
O O2 0.041168 0.154812 0.027579
O O3 0.112071 0.033594 0.037128
O O4 0.000000 0.000000 0.000000
O O5 0.846662 0.675842 0.552423
O O6 0.910568 0.574831 0.542876
O O7 0.182681 0.580218 0.259432
O O8 0.242833 0.451760 0.431538
O O9 0.951035 0.538056 0.012385
O O10 0.585374 0.325124 0.742867
O O11 0.675080 0.197154 0.787921
O O12 0.000000 0.871589 0.750000
#
# Coordination Sequence:
#
# PCOD9254888 Si02
#       6
#     8   4   8   8   8   8
#     4  11  20  35  54  82 116 149 187 236 294 340
#     4  10  16  38  50  80 104 150 178 222 288 338
#     4  11  21  36  56  89 109 149 192 243 284 341
#     4  10  21  32  55  81 112 148 180 235 291 339
#     4  10  21  34  57  78 117 145 186 239 287 343
#     4  11  20  34  55  85 117 143 196 238 284 333
#
# _framework density 20.666084999999999
#
# number of rings (size 3 to 8) (size 9 to 14) (size 15 to 20)
#    0.000    1.455    4.545    2.727    0.000    0.000 
#    0.000    0.000    0.000    4.364    9.455    0.000 
#    0.000    0.000    0.000    0.000    0.000    0.000 
#
# Total GULP energy -122589.876437 kJ/mol
# GULP energy per Si atom -5572.267111 kJ/mol
# Density = 2.061905 g / cm^3
# Si number density = 20.666085 Si / 1000 Ang^3
#
#
#
# Elastic Constant Matrix: (Units=GPa)
#
#
# Indices 1 2 3 4 5 6 
#
# 1 94.9108 1.7530 -3.3810 0.0000 5.5660 0.0000
# 2 1.7530 67.7339 -0.3973 0.0000 -6.3005 0.0000
# 3 -3.3810 -0.3973 76.2759 0.0000 -18.1961 0.0000
# 4 0.0000 0.0000 0.0000 39.6008 0.0000 -4.5072
# 5 5.5660 -6.3005 -18.1961 0.0000 40.2415 0.0000
# 6 0.0000 0.0000 0.0000 -4.5072 0.0000 19.6476
#
#
#
# Elastic Compliance Matrix: (Units=1/GPa)
#
#
# Indices 1 2 3 4 5 6 
#
# 1 0.010635 -0.000413 0.000115 0.000000 -0.001483 0.000000
# 2 -0.000413 0.015033 0.000712 0.000000 0.002733 0.000000
# 3 0.000115 0.000712 0.014731 0.000000 0.006756 0.000000
# 4 0.000000 0.000000 0.000000 0.025929 0.000000 0.005948
# 5 -0.001483 0.002733 0.006756 0.000000 0.028538 0.000000
# 6 0.000000 0.000000 0.000000 0.005948 0.000000 0.052261
#
#
# Mechanical properties :
#
#
# Convention : Reuss Voigt Hill
#
# Bulk Modulus (GPa) = 24.25537 26.09667 25.17602
# Shear Modulus (GPa) = 31.24215 35.96103 33.60159
#
# Velocity S-wave (km/s) = 3.89235 4.17597 4.03666
# Velocity P-wave (km/s) = 5.65357 5.99223 5.82536
#
# Compressibility (1/GPa) = 0.04122798
#
# Stress axis : x y z
#
# Youngs Moduli (GPa) = 94.02972 66.52169 67.88450
#
# Poissons Ratio (x) = 0.02744 -0.00783
# Poissons Ratio (y) = 0.03879 -0.04833
# Poissons Ratio (z) = -0.01085 -0.04736
#
# Static dielectric constant tensor:
#      x y z
#    x 1.826340 0.000000 -0.032010 
#    y 0.000000 1.783810 0.000000 
#    z -0.032010 0.000000 1.773320 
# 
# From -- ./inp_files/86784.got.cif
#   From: 2010.05.17/outbox.cif.g08.bks.cpg/sg15_44_cif.got.tgz:86784.got - 2010.06.03 18:47:42.
