data_PCOD9254496
_publ_section_title
;
Structure prediction by ZEFSAII (Michael W. Deem and Ramdas Pophale) SiO2 
 PCOD9254496
Probable space group: C 2/C
;
_chemical_formula_sum "Si O2"
_cell_formula_units_Z 52
_cell_length_a 22.923942
_cell_length_b 25.549348
_cell_length_c 16.184108
_cell_angle_alpha 90.000000
_cell_angle_beta 162.431975
_cell_angle_gamma 90.000000
_cell_volume 2861.090911
_symmetry_space_group_name_H-M "C 2/C"
_symmetry_group_IT_number 15
_symmetry_cell_setting 'monoclinic'
loop_
_space_group_symop_operation_xyz
x,y,z
-x,y,1/2-z
-x,-y,-z
x,-y,1/2+z
1/2+x,1/2+y,z
1/2-x,1/2+y,1/2-z
1/2-x,1/2-y,-z
1/2+x,1/2-y,1/2+z
loop_
_atom_site_type_symbol
_atom_site_label
_atom_site_fract_x
_atom_site_fract_y
_atom_site_fract_z
Si Si1 0.097606 0.005168 0.007830
Si Si2 0.815228 0.511153 0.638902
Si Si3 0.902709 0.084679 0.854228
Si Si4 0.964836 0.726615 0.795610
Si Si5 0.822494 0.371402 0.173163
Si Si6 0.500000 0.940407 0.750000
Si Si7 0.951185 0.841004 0.558955
O O1 0.263229 0.006958 0.161887
O O2 0.125750 0.961092 0.115410
O O3 0.054536 0.060089 0.994846
O O4 0.895025 0.989389 0.690035
O O5 0.890070 0.570574 0.744297
O O6 0.949384 0.476201 0.761580
O O7 0.694409 0.091442 0.530758
O O8 0.968296 0.136168 0.990907
O O9 0.750000 0.750000 0.500000
O O10 0.970301 0.676184 0.860707
O O11 0.000000 0.708620 0.750000
O O12 0.081888 0.778648 0.978061
O O13 0.643405 0.357381 0.869431
O O14 0.725671 0.368742 0.132383
#
# Coordination Sequence:
#
# PCOD9254496 Si02
#       7
#     8   8   8   8   8   4   8
#     4   9  17  30  53  66  94 133 176 190 234 313
#     4  10  17  33  47  72  99 135 157 203 253 298
#     4  10  18  32  48  71  92 135 175 204 236 291
#     4  10  18  29  46  72 106 126 157 198 244 304
#     4  10  17  28  48  74  97 131 156 195 248 299
#     4  10  24  30  44  72 106 126 170 214 246 266
#     4  10  16  31  50  66  95 137 164 191 240 301
#
# _framework density 18.174886000000001
#
# number of rings (size 3 to 8) (size 9 to 14) (size 15 to 20)
#    0.000    2.154    6.154    0.923    1.077    0.615 
#    0.000    0.000    0.000    0.000    0.000    1.077 
#    0.000    0.000    0.000    0.000    0.000    0.000 
#
# Total GULP energy -144904.212741 kJ/mol
# GULP energy per Si atom -5573.238952 kJ/mol
# Density = 1.813352 g / cm^3
# Si number density = 18.174886 Si / 1000 Ang^3
#
#
#
# Elastic Constant Matrix: (Units=GPa)
#
#
# Indices 1 2 3 4 5 6 
#
# 1 82.5296 22.3823 3.7237 0.0000 3.7117 0.0000
# 2 22.3823 64.0888 -1.8148 0.0000 -8.5962 0.0000
# 3 3.7237 -1.8148 24.0317 0.0001 0.3049 0.0000
# 4 0.0000 0.0000 0.0001 5.4100 0.0000 -0.3210
# 5 3.7117 -8.5962 0.3049 0.0000 17.9529 0.0000
# 6 0.0000 0.0000 0.0000 -0.3210 0.0000 27.9487
#
#
#
# Elastic Compliance Matrix: (Units=1/GPa)
#
#
# Indices 1 2 3 4 5 6 
#
# 1 0.014036 -0.005725 -0.002536 0.000000 -0.005600 0.000000
# 2 -0.005725 0.019041 0.002195 0.000000 0.010264 0.000000
# 3 -0.002536 0.002195 0.042160 -0.000001 0.000859 0.000000
# 4 0.000000 0.000000 -0.000001 0.184967 0.000000 0.002124
# 5 -0.005600 0.010264 0.000859 0.000000 0.061759 0.000000
# 6 0.000000 0.000000 0.000000 0.002124 0.000000 0.035804
#
#
# Mechanical properties :
#
#
# Convention : Reuss Voigt Hill
#
# Bulk Modulus (GPa) = 15.84669 24.35914 20.10292
# Shear Modulus (GPa) = 12.78988 20.01959 16.40474
#
# Velocity S-wave (km/s) = 2.65563 3.32248 3.00760
# Velocity P-wave (km/s) = 4.25924 5.30568 4.81100
#
# Compressibility (1/GPa) = 0.06310465
#
# Stress axis : x y z
#
# Youngs Moduli (GPa) = 71.24688 52.51694 23.71942
#
# Poissons Ratio (x) = 0.30065 0.06015
# Poissons Ratio (y) = 0.40787 -0.05206
# Poissons Ratio (z) = 0.18069 -0.11526
#
# Static dielectric constant tensor:
#      x y z
#    x 1.651560 0.000000 0.009880 
#    y 0.000000 1.646170 0.000000 
#    z 0.009880 0.000000 1.656100 
# 
# From -- ./inp_files/169873.got.cif
#   From: 2010.05.17/outbox.cif.g08.bks.cpg/sg15_85_cif.got.tgz:169873.got - 2010.06.03 18:47:42.
