data_PCOD9254616
_publ_section_title
;
Structure prediction by ZEFSAII (Michael W. Deem and Ramdas Pophale) SiO2 
 PCOD9254616
Probable space group: C 2/C
;
_chemical_formula_sum "Si O2"
_cell_formula_units_Z 40
_cell_length_a 13.436968
_cell_length_b 24.867763
_cell_length_c 5.451773
_cell_angle_alpha 90.000000
_cell_angle_beta 103.323645
_cell_angle_gamma 90.000000
_cell_volume 1772.662399
_symmetry_space_group_name_H-M "C 2/C"
_symmetry_group_IT_number 15
_symmetry_cell_setting 'monoclinic'
loop_
_space_group_symop_operation_xyz
x,y,z
-x,y,1/2-z
-x,-y,-z
x,-y,1/2+z
1/2+x,1/2+y,z
1/2-x,1/2+y,1/2-z
1/2-x,1/2-y,-z
1/2+x,1/2-y,1/2+z
loop_
_atom_site_type_symbol
_atom_site_label
_atom_site_fract_x
_atom_site_fract_y
_atom_site_fract_z
Si Si1 0.826121 0.720627 0.858723
Si Si2 0.877292 0.202128 0.994235
Si Si3 0.000000 0.535986 0.750000
Si Si4 0.500000 0.788289 0.750000
Si Si5 0.781016 0.466317 0.188337
Si Si6 0.942706 0.917238 0.470047
O O1 0.880761 0.771464 0.762573
O O2 0.744127 0.693344 0.631210
O O3 0.750000 0.750000 0.000000
O O4 0.915805 0.684383 0.026585
O O5 0.935393 0.147306 0.982154
O O6 0.926407 0.249476 0.862317
O O7 0.110915 0.564225 0.798169
O O8 0.000000 0.500000 0.500000
O O9 0.781284 0.489846 0.466067
O O10 0.674044 0.436393 0.098478
O O11 0.000000 0.932213 0.250000
O O12 0.000000 0.936423 0.750000
#
# Coordination Sequence:
#
# PCOD9254616 Si02
#       6
#     8   8   4   4   8   8
#     4   9  19  32  55  77 106 145 196 251 290 356
#     4  10  20  35  53  81 111 155 200 238 303 367
#     4   8  16  34  64  85 106 150 202 242 293 362
#     4  10  16  32  56  77 104 144 198 238 299 356
#     4  10  21  40  63  91 121 161 207 252 305 366
#     4  12  25  38  61  90 127 167 202 252 307 368
#
# _framework density 22.564927000000001
#
# number of rings (size 3 to 8) (size 9 to 14) (size 15 to 20)
#    0.000    2.000    1.000    3.000    2.800    2.400 
#    0.000    0.000   13.200    1.200    0.000    0.000 
#    0.000    0.000    0.000    0.000    0.000    0.000 
#
# Total GULP energy -111371.667681 kJ/mol
# GULP energy per Si atom -5568.583384 kJ/mol
# Density = 2.251357 g / cm^3
# Si number density = 22.564927 Si / 1000 Ang^3
#
#
#
# Elastic Constant Matrix: (Units=GPa)
#
#
# Indices 1 2 3 4 5 6 
#
# 1 181.2984 11.7889 52.5835 0.0000 15.5224 0.0000
# 2 11.7889 23.7909 -0.1251 0.0000 -8.7426 0.0000
# 3 52.5835 -0.1251 111.6218 0.0000 7.7223 0.0000
# 4 0.0000 0.0000 0.0000 20.4344 0.0000 82.6260
# 5 15.5224 -8.7426 7.7223 0.0000 71.6341 0.0000
# 6 0.0000 0.0000 0.0000 82.6260 0.0000 325.2350
#
#
#
# Elastic Compliance Matrix: (Units=1/GPa)
#
#
# Indices 1 2 3 4 5 6 
#
# 1 0.006815 -0.003992 -0.003102 0.000000 -0.001629 0.000000
# 2 -0.003992 0.046357 0.001492 0.000000 0.006362 0.000000
# 3 -0.003102 0.001492 0.010441 0.000000 -0.000271 0.000000
# 4 0.000000 0.000000 0.000000 -1.796203 0.000000 0.456326
# 5 -0.001629 0.006362 -0.000271 0.000000 0.015119 0.000000
# 6 0.000000 0.000000 0.000000 0.456326 0.000000 -0.112855
#
#
# Mechanical properties :
#
#
# Convention : Reuss Voigt Hill
#
# Bulk Modulus (GPa) = 19.08079 49.46731 34.27405
# Shear Modulus (GPa) = -2.77523 100.29162 48.75820
#
# Velocity S-wave (km/s) = -1.11020 6.67400 4.65348
# Velocity P-wave (km/s) = 2.61360 9.01995 6.64042
#
# Compressibility (1/GPa) = 0.05240874
#
# Stress axis : x y z
#
# Youngs Moduli (GPa) = 146.74504 21.57189 95.78027
#
# Poissons Ratio (x) = 0.08611 0.29711
# Poissons Ratio (y) = 0.58578 -0.14294
# Poissons Ratio (z) = 0.45520 -0.03219
#
# Static dielectric constant tensor:
#      x y z
#    x 0.903290 0.000000 0.893380 
#    y 0.000000 1.825750 0.000000 
#    z 0.893380 0.000000 1.301570 
# 
# From -- ./inp_files/4957.got.cif
#   From: 2010.05.17/outbox.cif.g08.bks.cpg/sg15_3_cif.got.tgz:4957.got - 2010.06.03 18:47:42.
