data_PCOD9254171
_publ_section_title
;
Structure prediction by ZEFSAII (Michael W. Deem and Ramdas Pophale) SiO2 
 PCOD9254171
Probable space group: C 2/C
;
_chemical_formula_sum "Si O2"
_cell_formula_units_Z 40
_cell_length_a 24.480716
_cell_length_b 12.035582
_cell_length_c 4.931946
_cell_angle_alpha 90.000000
_cell_angle_beta 88.766579
_cell_angle_gamma 90.000000
_cell_volume 1452.810219
_symmetry_space_group_name_H-M "C 2/C"
_symmetry_group_IT_number 15
_symmetry_cell_setting 'monoclinic'
loop_
_space_group_symop_operation_xyz
x,y,z
-x,y,1/2-z
-x,-y,-z
x,-y,1/2+z
1/2+x,1/2+y,z
1/2-x,1/2+y,1/2-z
1/2-x,1/2-y,-z
1/2+x,1/2-y,1/2+z
loop_
_atom_site_type_symbol
_atom_site_label
_atom_site_fract_x
_atom_site_fract_y
_atom_site_fract_z
Si Si1 0.179063 0.378073 0.371575
Si Si2 0.561366 0.071834 0.082890
Si Si3 0.369803 0.648003 0.360249
Si Si4 0.056690 0.169990 0.620947
Si Si5 0.249597 0.873705 0.618743
O O1 0.126737 0.426657 0.533107
O O2 0.312519 0.417716 0.879931
O O3 0.224773 0.356153 0.590794
O O4 0.210665 0.430552 0.108328
O O5 0.547019 0.970605 0.882518
O O6 0.544732 0.200148 0.038797
O O7 0.398268 0.667860 0.645119
O O8 0.349142 0.766082 0.244542
O O9 0.415723 0.609545 0.139547
O O10 0.000000 0.126004 0.750000
O O11 0.250000 0.750000 0.500000
#
# Coordination Sequence:
#
# PCOD9254171 Si02
#       5
#     8   8   8   8   8
#     4  10  18  29  45  66  86 108 142 185 230 276
#     4  11  21  33  46  61  86 121 162 200 227 252
#     4  10  18  31  47  66  86 109 143 188 235 278
#     4  11  22  34  46  62  87 121 163 201 227 253
#     4  10  16  27  47  68  86 104 132 179 235 286
#
# _framework density 27.532844999999998
#
# number of rings (size 3 to 8) (size 9 to 14) (size 15 to 20)
#    0.000    1.600    0.000   12.600    0.000    0.800 
#    0.000    0.000    0.000    0.000    0.000    0.000 
#    0.000    0.000    0.000    0.000    0.000  252.000 
#
# Total GULP energy -111966.936513 kJ/mol
# GULP energy per Si atom -5598.346826 kJ/mol
# Density = 2.747018 g / cm^3
# Si number density = 27.532845 Si / 1000 Ang^3
#
#
#
# Elastic Constant Matrix: (Units=GPa)
#
#
# Indices 1 2 3 4 5 6 
#
# 1 138.5187 -1.0945 10.2540 0.0000 -34.5385 0.0000
# 2 -1.0945 63.5789 0.8951 0.0000 0.9458 0.0000
# 3 10.2540 0.8951 135.5481 0.0000 -16.5278 0.0000
# 4 0.0000 0.0000 0.0000 22.0999 0.0000 -19.3295
# 5 -34.5385 0.9458 -16.5278 0.0000 85.2016 0.0000
# 6 0.0000 0.0000 0.0000 -19.3295 0.0000 25.3231
#
#
#
# Elastic Compliance Matrix: (Units=1/GPa)
#
#
# Indices 1 2 3 4 5 6 
#
# 1 0.008038 0.000094 -0.000217 0.000000 0.003215 0.000000
# 2 0.000094 0.015734 -0.000131 0.000000 -0.000162 0.000000
# 3 -0.000217 -0.000131 0.007563 0.000000 0.001381 0.000000
# 4 0.000000 0.000000 0.000000 0.136140 0.000000 0.103918
# 5 0.003215 -0.000162 0.001381 0.000000 0.013310 0.000000
# 6 0.000000 0.000000 0.000000 0.103918 0.000000 0.118812
#
#
# Mechanical properties :
#
#
# Convention : Reuss Voigt Hill
#
# Bulk Modulus (GPa) = 32.43849 39.75054 36.09451
# Shear Modulus (GPa) = 16.10925 48.36434 32.23680
#
# Velocity S-wave (km/s) = 2.42149 4.19573 3.42548
# Velocity P-wave (km/s) = 4.43007 6.15963 5.36501
#
# Compressibility (1/GPa) = 0.03082758
#
# Stress axis : x y z
#
# Youngs Moduli (GPa) = 124.41366 63.55524 132.22150
#
# Poissons Ratio (x) = -0.00595 0.02864
# Poissons Ratio (y) = -0.01164 0.01729
# Poissons Ratio (z) = 0.02695 0.00831
#
# Static dielectric constant tensor:
#      x y z
#    x 2.333270 0.000000 -0.032460 
#    y 0.000000 2.262740 0.000000 
#    z -0.032460 0.000000 1.935920 
# 
# From -- ./inp_files/12795.got.cif
#   From: 2010.05.17/outbox.cif.g08.bks.cpg/sg15_7_cif.got.tgz:12795.got - 2010.06.03 18:47:42.
