data_PCOD9254172
_publ_section_title
;
Structure prediction by ZEFSAII (Michael W. Deem and Ramdas Pophale) SiO2 
 PCOD9254172
Probable space group: C 2/C
;
_chemical_formula_sum "Si O2"
_cell_formula_units_Z 56
_cell_length_a 27.586654
_cell_length_b 6.783396
_cell_length_c 12.929758
_cell_angle_alpha 90.000000
_cell_angle_beta 114.709916
_cell_angle_gamma 90.000000
_cell_volume 2198.016041
_symmetry_space_group_name_H-M "C 2/C"
_symmetry_group_IT_number 15
_symmetry_cell_setting 'monoclinic'
loop_
_space_group_symop_operation_xyz
x,y,z
-x,y,1/2-z
-x,-y,-z
x,-y,1/2+z
1/2+x,1/2+y,z
1/2-x,1/2+y,1/2-z
1/2-x,1/2-y,-z
1/2+x,1/2-y,1/2+z
loop_
_atom_site_type_symbol
_atom_site_label
_atom_site_fract_x
_atom_site_fract_y
_atom_site_fract_z
Si Si1 0.802464 0.161211 0.277259
Si Si2 0.800639 0.601584 0.180660
Si Si3 0.726205 0.923720 0.545303
Si Si4 0.482031 0.228361 0.468310
Si Si5 0.906420 0.836318 0.982412
Si Si6 0.107502 0.397001 0.476485
Si Si7 0.090044 0.702416 0.290072
O O1 0.809362 0.378653 0.233760
O O2 0.774926 0.032171 0.163839
O O3 0.855490 0.081133 0.377609
O O4 0.754462 0.164460 0.316559
O O5 0.857462 0.708322 0.234546
O O6 0.791320 0.590449 0.048951
O O7 0.750000 0.750000 0.500000
O O8 0.669928 0.843423 0.539338
O O9 0.536362 0.354620 0.520688
O O10 0.435111 0.252410 0.512339
O O11 0.458561 0.237400 0.330908
O O12 0.500000 0.000000 0.500000
O O13 0.895217 0.600092 0.962545
O O14 0.907950 0.851365 0.109516
O O15 0.090783 0.484446 0.347737
#
# Coordination Sequence:
#
# PCOD9254172 Si02
#       7
#     8   8   8   8   8   8   8
#     4  11  20  36  53  79 114 147 181 225 276 328
#     4  10  21  34  56  77 115 145 183 224 276 327
#     4   9  18  33  51  77 108 145 176 225 266 324
#     4  10  16  27  47  71 107 141 170 218 284 329
#     4   9  19  28  46  74 108 140 177 211 270 323
#     4   8  17  30  47  73 103 140 177 214 282 318
#     4   9  18  31  46  76 109 138 181 226 269 329
#
# _framework density 25.477522
#
# number of rings (size 3 to 8) (size 9 to 14) (size 15 to 20)
#    0.857    1.714    0.000    3.857    0.000    0.571 
#    0.000    0.000    0.000    0.000    0.000    9.000 
#    0.000    0.000    0.000    0.000    0.000    0.000 
#
# Total GULP energy -156223.173127 kJ/mol
# GULP energy per Si atom -5579.399040 kJ/mol
# Density = 2.541953 g / cm^3
# Si number density = 25.477522 Si / 1000 Ang^3
#
#
#
# Elastic Constant Matrix: (Units=GPa)
#
#
# Indices 1 2 3 4 5 6 
#
# 1 164.7965 9.7713 42.9616 0.0000 14.4731 0.0000
# 2 9.7713 39.3085 5.6904 0.0000 2.0174 0.0000
# 3 42.9616 5.6904 171.6976 0.0000 18.3566 0.0000
# 4 0.0000 0.0000 0.0000 27.5053 0.0000 -4.1068
# 5 14.4731 2.0174 18.3566 0.0000 37.7394 0.0000
# 6 0.0000 0.0000 0.0000 -4.1068 0.0000 43.9383
#
#
#
# Elastic Compliance Matrix: (Units=1/GPa)
#
#
# Indices 1 2 3 4 5 6 
#
# 1 0.006680 -0.001361 -0.001435 0.000000 -0.001791 0.000000
# 2 -0.001361 0.025876 -0.000448 0.000000 -0.000643 0.000000
# 3 -0.001435 -0.000448 0.006473 0.000000 -0.002574 0.000000
# 4 0.000000 0.000000 0.000000 0.036871 0.000000 0.003446
# 5 -0.001791 -0.000643 -0.002574 0.000000 0.028471 0.000000
# 6 0.000000 0.000000 0.000000 0.003446 0.000000 0.023081
#
#
# Mechanical properties :
#
#
# Convention : Reuss Voigt Hill
#
# Bulk Modulus (GPa) = 30.73021 54.73883 42.73452
# Shear Modulus (GPa) = 34.53321 42.99522 38.76421
#
# Velocity S-wave (km/s) = 3.68562 4.11247 3.90488
# Velocity P-wave (km/s) = 5.49542 6.63940 6.09431
#
# Compressibility (1/GPa) = 0.03254127
#
# Stress axis : x y z
#
# Youngs Moduli (GPa) = 149.69708 38.64588 154.48027
#
# Poissons Ratio (x) = 0.05259 0.22166
# Poissons Ratio (y) = 0.20372 0.06925
# Poissons Ratio (z) = 0.21480 0.01732
#
# Static dielectric constant tensor:
#      x y z
#    x 2.035270 0.000000 -0.025930 
#    y 0.000000 2.175020 0.000000 
#    z -0.025930 0.000000 2.080370 
# 
# From -- ./inp_files/176679.got.cif
#   From: 2010.05.17/outbox.cif.g08.bks.cpg/sg15_89_cif.got.tgz:176679.got - 2010.06.03 18:47:42.
