data_PCOD9254678
_publ_section_title
;
Structure prediction by ZEFSAII (Michael W. Deem and Ramdas Pophale) SiO2 
 PCOD9254678
Probable space group: C 2/C
;
_chemical_formula_sum "Si O2"
_cell_formula_units_Z 44
_cell_length_a 20.279165
_cell_length_b 12.420415
_cell_length_c 14.509194
_cell_angle_alpha 90.000000
_cell_angle_beta 44.489185
_cell_angle_gamma 90.000000
_cell_volume 2560.989680
_symmetry_space_group_name_H-M "C 2/C"
_symmetry_group_IT_number 15
_symmetry_cell_setting 'monoclinic'
loop_
_space_group_symop_operation_xyz
x,y,z
-x,y,1/2-z
-x,-y,-z
x,-y,1/2+z
1/2+x,1/2+y,z
1/2-x,1/2+y,1/2-z
1/2-x,1/2-y,-z
1/2+x,1/2-y,1/2+z
loop_
_atom_site_type_symbol
_atom_site_label
_atom_site_fract_x
_atom_site_fract_y
_atom_site_fract_z
Si Si1 0.500000 0.199386 0.750000
Si Si2 0.035320 0.002105 0.818350
Si Si3 0.242349 0.333745 0.160214
Si Si4 0.820865 0.141346 0.390843
Si Si5 0.560078 0.666461 0.947944
Si Si6 0.029822 0.391189 0.417082
O O1 0.591057 0.278577 0.669375
O O2 0.503266 0.124350 0.656525
O O3 0.030418 0.106737 0.884825
O O4 0.000000 0.015478 0.750000
O O5 0.140886 0.961063 0.700128
O O6 0.983551 0.905871 0.925435
O O7 0.235100 0.212540 0.126775
O O8 0.328596 0.337882 0.144352
O O9 0.143200 0.373839 0.298988
O O10 0.268989 0.391445 0.036498
O O11 0.518136 0.785606 0.990600
O O12 0.000000 0.500000 0.500000
#
# Coordination Sequence:
#
# PCOD9254678 Si02
#       6
#     4   8   8   8   8   8
#     4  10  16  38  60  78 114 152 196 250 276 336
#     4  11  19  37  62  86 123 148 192 256 296 339
#     4  10  19  34  59  89 112 151 199 241 291 342
#     4  10  16  32  64  85 111 147 204 246 282 341
#     4  11  22  37  59  91 116 155 198 242 298 354
#     4  11  23  40  57  85 120 155 197 240 290 356
#
# _framework density 17.180858000000001
#
# number of rings (size 3 to 8) (size 9 to 14) (size 15 to 20)
#    0.000    1.455    8.182    0.000    0.000    1.455 
#    1.636    0.000    0.000    2.182    0.000    0.000 
#    0.000    0.000    0.000    0.000    0.000    0.000 
#
# Total GULP energy -122530.334656 kJ/mol
# GULP energy per Si atom -5569.560666 kJ/mol
# Density = 1.714175 g / cm^3
# Si number density = 17.180858 Si / 1000 Ang^3
#
#
#
# Elastic Constant Matrix: (Units=GPa)
#
#
# Indices 1 2 3 4 5 6 
#
# 1 54.4372 42.1551 34.5259 0.0000 9.6372 0.0000
# 2 42.1551 116.6283 59.7438 0.0000 13.8749 0.0000
# 3 34.5259 59.7438 99.3706 0.0000 -0.2598 0.0000
# 4 0.0000 0.0000 0.0000 27.7447 0.0000 5.9230
# 5 9.6372 13.8749 -0.2598 0.0000 35.7214 0.0000
# 6 0.0000 0.0000 0.0000 5.9230 0.0000 21.1641
#
#
#
# Elastic Compliance Matrix: (Units=1/GPa)
#
#
# Indices 1 2 3 4 5 6 
#
# 1 0.028024 -0.006550 -0.005812 0.000000 -0.005058 0.000000
# 2 -0.006550 0.014829 -0.006650 0.000000 -0.004041 0.000000
# 3 -0.005812 -0.006650 0.016092 0.000000 0.004268 0.000000
# 4 0.000000 0.000000 0.000000 0.038333 0.000000 -0.010728
# 5 -0.005058 -0.004041 0.004268 0.000000 0.030960 0.000000
# 6 0.000000 0.000000 0.000000 -0.010728 0.000000 0.050252
#
#
# Mechanical properties :
#
#
# Convention : Reuss Voigt Hill
#
# Bulk Modulus (GPa) = 47.80048 60.36509 54.08278
# Shear Modulus (GPa) = 22.37250 25.86013 24.11632
#
# Velocity S-wave (km/s) = 3.61248 3.88386 3.75063
# Velocity P-wave (km/s) = 6.72922 7.43800 7.09247
#
# Compressibility (1/GPa) = 0.02092029
#
# Stress axis : x y z
#
# Youngs Moduli (GPa) = 35.68413 67.43403 62.14201
#
# Poissons Ratio (x) = 0.44170 0.36116
# Poissons Ratio (y) = 0.23374 0.41327
# Poissons Ratio (z) = 0.20739 0.44847
#
# Static dielectric constant tensor:
#      x y z
#    x 1.617670 0.000000 -0.035670 
#    y 0.000000 1.572420 0.000000 
#    z -0.035670 0.000000 1.653490 
# 
# From -- ./inp_files/172886.got.cif
#   From: 2010.05.17/outbox.cif.g08.bks.cpg/sg15_87_cif.got.tgz:172886.got - 2010.06.03 18:47:42.
