data_PCOD9254987
_publ_section_title
;
Structure prediction by ZEFSAII (Michael W. Deem and Ramdas Pophale) SiO2 
 PCOD9254987
Probable space group: C 2/C
;
_chemical_formula_sum "Si O2"
_cell_formula_units_Z 48
_cell_length_a 23.606584
_cell_length_b 24.474990
_cell_length_c 10.553652
_cell_angle_alpha 90.000000
_cell_angle_beta 16.677539
_cell_angle_gamma 90.000000
_cell_volume 1749.917837
_symmetry_space_group_name_H-M "C 2/C"
_symmetry_group_IT_number 15
_symmetry_cell_setting 'monoclinic'
loop_
_space_group_symop_operation_xyz
x,y,z
-x,y,1/2-z
-x,-y,-z
x,-y,1/2+z
1/2+x,1/2+y,z
1/2-x,1/2+y,1/2-z
1/2-x,1/2-y,-z
1/2+x,1/2-y,1/2+z
loop_
_atom_site_type_symbol
_atom_site_label
_atom_site_fract_x
_atom_site_fract_y
_atom_site_fract_z
Si Si1 0.740043 0.224386 0.237876
Si Si2 0.282725 0.150220 0.979657
Si Si3 0.235597 0.471573 0.712488
Si Si4 0.716084 0.150494 0.812046
Si Si5 0.254584 0.637232 0.002810
Si Si6 0.780431 0.525688 0.992649
O O1 0.790238 0.193518 0.261479
O O2 0.810705 0.286143 0.089336
O O3 0.814139 0.189947 0.958100
O O4 0.500000 0.225996 0.750000
O O5 0.207129 0.155349 0.997514
O O6 0.520900 0.148522 0.479031
O O7 0.242976 0.088622 0.106652
O O8 0.281759 0.414488 0.539492
O O9 0.301446 0.515532 0.468935
O O10 0.301888 0.497683 0.702884
O O11 0.000000 0.465508 0.250000
O O12 0.500000 0.123142 0.250000
O O13 0.819519 0.127698 0.717822
O O14 0.000000 0.500000 0.500000
#
# Coordination Sequence:
#
# PCOD9254987 Si02
#       6
#     8   8   8   8   8   8
#     4  10  19  35  53  66  98 141 172 201 255 300
#     4  10  18  31  45  68 101 137 158 205 256 300
#     4  10  17  27  40  66  96 136 165 193 247 314
#     4  10  22  31  49  75 100 131 172 216 245 290
#     4  10  17  30  46  65  98 130 166 200 250 293
#     4  10  18  25  44  66  99 133 167 191 252 318
#
# _framework density 27.429859
#
# number of rings (size 3 to 8) (size 9 to 14) (size 15 to 20)
#    0.000    2.000    5.000    1.500    2.333    2.000 
#    0.000    0.000    0.000    0.000    0.000    0.000 
#    0.000    8.000    0.000    0.000    0.000    0.000 
#
# Total GULP energy -133939.513929 kJ/mol
# GULP energy per Si atom -5580.813080 kJ/mol
# Density = 2.736743 g / cm^3
# Si number density = 27.429859 Si / 1000 Ang^3
#
#
#
# Elastic Constant Matrix: (Units=GPa)
#
#
# Indices 1 2 3 4 5 6 
#
# 1 215.4521 8.5167 58.3977 0.0765 55.1810 -0.0794
# 2 8.5167 87.0734 -10.2073 0.0494 18.2012 -0.0309
# 3 58.3977 -10.2073 114.8606 0.2511 9.4551 -0.1622
# 4 0.0765 0.0494 0.2511 0.6693 -0.1267 31.9717
# 5 55.1810 18.2012 9.4551 -0.1267 69.2028 0.1181
# 6 -0.0794 -0.0309 -0.1622 31.9717 0.1181 29.7774
#
#
#
# Elastic Compliance Matrix: (Units=1/GPa)
#
#
# Indices 1 2 3 4 5 6 
#
# 1 0.006726 0.000026 -0.003009 0.000032 -0.004959 -0.000013
# 2 0.000026 0.012366 0.001370 0.000074 -0.003460 -0.000045
# 3 -0.003009 0.001370 0.010306 0.000114 0.000631 -0.000076
# 4 0.000032 0.000074 0.000114 -0.029707 -0.000169 0.031898
# 5 -0.004959 -0.003460 0.000631 -0.000169 0.019228 0.000092
# 6 -0.000013 -0.000045 -0.000076 0.031898 0.000092 -0.000667
#
#
# Mechanical properties :
#
#
# Convention : Reuss Voigt Hill
#
# Bulk Modulus (GPa) = 38.20947 58.97782 48.59365
# Shear Modulus (GPa) = 165.55726 43.97517 104.76621
#
# Velocity S-wave (km/s) = 7.77738 4.00832 6.18685
# Velocity P-wave (km/s) = 9.72678 6.55517 8.29399
#
# Compressibility (1/GPa) = 0.02617152
#
# Stress axis : x y z
#
# Youngs Moduli (GPa) = 148.67563 80.86765 97.03434
#
# Poissons Ratio (x) = -0.00209 0.29200
# Poissons Ratio (y) = -0.00385 -0.13297
# Poissons Ratio (z) = 0.44740 -0.11082
#
# Static dielectric constant tensor:
#      x y z
#    x 2.375680 -0.000100 -0.055970 
#    y -0.000100 2.103750 0.000040 
#    z -0.055970 0.000040 2.166660 
# 
# From -- ./inp_files/127479.got.cif
#   From: 2010.05.17/outbox.cif.g08.bks.cpg/sg15_64_cif.got.tgz:127479.got - 2010.06.03 18:47:42.
