data_PCOD9254895
_publ_section_title
;
Structure prediction by ZEFSAII (Michael W. Deem and Ramdas Pophale) SiO2 
 PCOD9254895
Probable space group: C 2/C
;
_chemical_formula_sum "Si O2"
_cell_formula_units_Z 40
_cell_length_a 8.953684
_cell_length_b 17.873629
_cell_length_c 12.084466
_cell_angle_alpha 90.000000
_cell_angle_beta 84.155741
_cell_angle_gamma 90.000000
_cell_volume 1923.883493
_symmetry_space_group_name_H-M "C 2/C"
_symmetry_group_IT_number 15
_symmetry_cell_setting 'monoclinic'
loop_
_space_group_symop_operation_xyz
x,y,z
-x,y,1/2-z
-x,-y,-z
x,-y,1/2+z
1/2+x,1/2+y,z
1/2-x,1/2+y,1/2-z
1/2-x,1/2-y,-z
1/2+x,1/2-y,1/2+z
loop_
_atom_site_type_symbol
_atom_site_label
_atom_site_fract_x
_atom_site_fract_y
_atom_site_fract_z
Si Si1 0.793977 0.650814 0.604775
Si Si2 0.500000 0.647390 0.750000
Si Si3 0.050516 0.251928 0.119096
Si Si4 0.179643 0.869418 0.451343
Si Si5 0.000000 0.545719 0.750000
Si Si6 0.339714 0.982635 0.956159
O O1 0.646320 0.681450 0.677245
O O2 0.770764 0.594341 0.504450
O O3 0.906525 0.716325 0.565419
O O4 0.895199 0.599212 0.681802
O O5 0.420143 0.611236 0.648893
O O6 0.183093 0.314374 0.097665
O O7 0.000000 0.241557 0.250000
O O8 0.100644 0.177719 0.052941
O O9 0.237810 0.947103 0.494000
O O10 0.115823 0.493453 0.674862
O O11 0.500000 0.000000 0.000000
#
# Coordination Sequence:
#
# PCOD9254895 Si02
#       6
#     8   4   8   8   4   8
#     4  11  20  37  65  87 127 167 215 264 324 397
#     4  12  22  40  61  93 132 172 216 262 344 392
#     4  11  20  43  66  90 124 175 222 266 330 389
#     4  11  23  38  67  93 126 171 219 271 328 400
#     4  10  16  38  59  83 114 172 210 248 334 386
#     4  10  19  37  63  91 118 163 220 261 322 390
#
# _framework density 20.79128
#
# number of rings (size 3 to 8) (size 9 to 14) (size 15 to 20)
#    0.000    1.200    9.000    0.000    0.000    1.600 
#    1.800    3.000    0.000    0.000    0.000    0.000 
#    0.000    0.000    0.000    0.000    0.000    0.000 
#
# Total GULP energy -111380.879269 kJ/mol
# GULP energy per Si atom -5569.043963 kJ/mol
# Density = 2.074396 g / cm^3
# Si number density = 20.791280 Si / 1000 Ang^3
#
#
#
# Elastic Constant Matrix: (Units=GPa)
#
#
# Indices 1 2 3 4 5 6 
#
# 1 93.6525 31.3278 17.7414 0.0000 -14.2355 0.0000
# 2 31.3278 93.4079 47.2549 0.0000 -21.6726 0.0000
# 3 17.7414 47.2549 81.3078 0.0000 -32.9647 0.0000
# 4 0.0000 0.0000 0.0000 18.5261 0.0000 -9.5489
# 5 -14.2355 -21.6726 -32.9647 0.0000 46.9116 0.0000
# 6 0.0000 0.0000 0.0000 -9.5489 0.0000 27.8244
#
#
#
# Elastic Compliance Matrix: (Units=1/GPa)
#
#
# Indices 1 2 3 4 5 6 
#
# 1 0.012207 -0.003804 0.000470 0.000000 0.002278 0.000000
# 2 -0.003804 0.016393 -0.008523 0.000000 0.000430 0.000000
# 3 0.000470 -0.008523 0.021831 0.000000 0.011546 0.000000
# 4 0.000000 0.000000 0.000000 0.065578 0.000000 0.022505
# 5 0.002278 0.000430 0.011546 0.000000 0.030320 0.000000
# 6 0.000000 0.000000 0.000000 0.022505 0.000000 0.043663
#
#
# Mechanical properties :
#
#
# Convention : Reuss Voigt Hill
#
# Bulk Modulus (GPa) = 37.42745 51.22406 44.32576
# Shear Modulus (GPa) = 22.46077 30.12202 26.29140
#
# Velocity S-wave (km/s) = 3.29035 3.81042 3.55989
# Velocity P-wave (km/s) = 5.69876 6.63700 6.18569
#
# Compressibility (1/GPa) = 0.02671836
#
# Stress axis : x y z
#
# Youngs Moduli (GPa) = 81.91863 61.00161 45.80693
#
# Poissons Ratio (x) = 0.23203 -0.02155
# Poissons Ratio (y) = 0.31159 0.39042
# Poissons Ratio (z) = -0.03854 0.51992
#
# Static dielectric constant tensor:
#      x y z
#    x 1.817400 0.000000 0.011120 
#    y 0.000000 1.759540 0.000000 
#    z 0.011120 0.000000 1.825210 
# 
# From -- ./inp_files/77780.got.cif
#   From: 2010.05.17/outbox.cif.g08.bks.cpg/sg15_39_cif.got.tgz:77780.got - 2010.06.03 18:47:42.
