data_PCOD9254893
_publ_section_title
;
Structure prediction by ZEFSAII (Michael W. Deem and Ramdas Pophale) SiO2 
 PCOD9254893
Probable space group: C 2/C
;
_chemical_formula_sum "Si O2"
_cell_formula_units_Z 44
_cell_length_a 15.905977
_cell_length_b 9.960240
_cell_length_c 12.010179
_cell_angle_alpha 90.000000
_cell_angle_beta 112.854289
_cell_angle_gamma 90.000000
_cell_volume 1753.367207
_symmetry_space_group_name_H-M "C 2/C"
_symmetry_group_IT_number 15
_symmetry_cell_setting 'monoclinic'
loop_
_space_group_symop_operation_xyz
x,y,z
-x,y,1/2-z
-x,-y,-z
x,-y,1/2+z
1/2+x,1/2+y,z
1/2-x,1/2+y,1/2-z
1/2-x,1/2-y,-z
1/2+x,1/2-y,1/2+z
loop_
_atom_site_type_symbol
_atom_site_label
_atom_site_fract_x
_atom_site_fract_y
_atom_site_fract_z
Si Si1 0.530700 0.672500 0.128032
Si Si2 0.500000 0.205058 0.250000
Si Si3 0.726803 0.073491 0.612261
Si Si4 0.221054 0.815982 0.757662
Si Si5 0.408945 0.131311 0.431407
Si Si6 0.395558 0.568025 0.564501
O O1 0.618351 0.716418 0.246127
O O2 0.459598 0.558041 0.125686
O O3 0.474959 0.796482 0.050725
O O4 0.582600 0.604055 0.050276
O O5 0.450194 0.130689 0.327279
O O6 0.572318 0.305660 0.344969
O O7 0.730624 0.225334 0.653114
O O8 0.791105 0.043742 0.541494
O O9 0.767627 0.977839 0.731711
O O10 0.625613 0.014576 0.547064
O O11 0.313009 0.784484 0.875640
#
# Coordination Sequence:
#
# PCOD9254893 Si02
#       6
#     8   4   8   8   8   8
#     4  10  22  34  60  90 117 153 203 235 294 346
#     4  10  16  38  58  84 114 156 198 236 288 348
#     4  10  21  40  62  84 124 153 196 241 300 337
#     4  10  22  40  61  87 118 155 194 247 286 354
#     4   9  22  37  59  86 117 151 195 247 286 346
#     4  10  19  34  63  86 115 158 200 240 279 358
#
# _framework density 25.094571999999999
#
# number of rings (size 3 to 8) (size 9 to 14) (size 15 to 20)
#    1.091    1.091    1.818    1.091    5.091    2.182 
#    0.000    1.818    0.000    0.000    0.000    0.000 
#    0.000    0.000    0.000    0.000    0.000    0.000 
#
# Total GULP energy -122720.657300 kJ/mol
# GULP energy per Si atom -5578.211695 kJ/mol
# Density = 2.503746 g / cm^3
# Si number density = 25.094572 Si / 1000 Ang^3
#
#
#
# Elastic Constant Matrix: (Units=GPa)
#
#
# Indices 1 2 3 4 5 6 
#
# 1 165.9294 69.4905 53.9442 0.0000 -0.7756 0.0000
# 2 69.4905 71.9104 22.8251 0.0000 -1.0148 0.0000
# 3 53.9442 22.8251 58.0095 0.0000 4.6410 0.0000
# 4 0.0000 0.0000 0.0000 20.0752 0.0000 3.6109
# 5 -0.7756 -1.0148 4.6410 0.0000 56.1650 0.0000
# 6 0.0000 0.0000 0.0000 3.6109 0.0000 26.6965
#
#
#
# Elastic Compliance Matrix: (Units=1/GPa)
#
#
# Indices 1 2 3 4 5 6 
#
# 1 0.012723 -0.009728 -0.008057 0.000000 0.000666 0.000000
# 2 -0.009728 0.023366 -0.000171 0.000000 0.000302 0.000000
# 3 -0.008057 -0.000171 0.024973 0.000000 -0.002178 0.000000
# 4 0.000000 0.000000 0.000000 0.051055 0.000000 -0.006906
# 5 0.000666 0.000302 -0.002178 0.000000 0.017999 0.000000
# 6 0.000000 0.000000 0.000000 -0.006906 0.000000 0.038392
#
#
# Mechanical properties :
#
#
# Convention : Reuss Voigt Hill
#
# Bulk Modulus (GPa) = 39.76427 65.37431 52.56929
# Shear Modulus (GPa) = 23.49571 30.55995 27.02783
#
# Velocity S-wave (km/s) = 3.06320 3.49347 3.28539
# Velocity P-wave (km/s) = 5.32833 6.51001 5.94858
#
# Compressibility (1/GPa) = 0.02514821
#
# Stress axis : x y z
#
# Youngs Moduli (GPa) = 78.59545 42.79754 40.04368
#
# Poissons Ratio (x) = 0.41635 0.32264
# Poissons Ratio (y) = 0.76461 0.00686
# Poissons Ratio (z) = 0.63326 0.00733
#
# Static dielectric constant tensor:
#      x y z
#    x 2.035870 0.000000 0.054110 
#    y 0.000000 1.956170 0.000000 
#    z 0.054110 0.000000 2.117560 
# 
# From -- ./inp_files/160072.got.cif
#   From: 2010.05.17/outbox.cif.g08.bks.cpg/sg15_81_cif.got.tgz:160072.got - 2010.06.03 18:47:42.
