data_PCOD9254457
_publ_section_title
;
Structure prediction by ZEFSAII (Michael W. Deem and Ramdas Pophale) SiO2 
 PCOD9254457
Probable space group: C 2/C
;
_chemical_formula_sum "Si O2"
_cell_formula_units_Z 52
_cell_length_a 11.868197
_cell_length_b 20.697119
_cell_length_c 9.821753
_cell_angle_alpha 90.000000
_cell_angle_beta 67.708676
_cell_angle_gamma 90.000000
_cell_volume 2232.290972
_symmetry_space_group_name_H-M "C 2/C"
_symmetry_group_IT_number 15
_symmetry_cell_setting 'monoclinic'
loop_
_space_group_symop_operation_xyz
x,y,z
-x,y,1/2-z
-x,-y,-z
x,-y,1/2+z
1/2+x,1/2+y,z
1/2-x,1/2+y,1/2-z
1/2-x,1/2-y,-z
1/2+x,1/2-y,1/2+z
loop_
_atom_site_type_symbol
_atom_site_label
_atom_site_fract_x
_atom_site_fract_y
_atom_site_fract_z
Si Si1 0.377207 0.959666 0.030787
Si Si2 0.681770 0.553803 0.000642
Si Si3 0.702295 0.850176 0.623596
Si Si4 0.139971 0.356325 0.220815
Si Si5 0.312661 0.715709 0.801393
Si Si6 0.500000 0.387056 0.250000
Si Si7 0.587708 0.566148 0.420629
O O1 0.357277 0.912863 0.166943
O O2 0.375528 0.908944 0.903965
O O3 0.500000 0.000000 0.000000
O O4 0.267520 0.009344 0.055188
O O5 0.767697 0.614826 0.932233
O O6 0.649872 0.504523 0.888639
O O7 0.541706 0.572425 0.093830
O O8 0.639859 0.788672 0.721315
O O9 0.770990 0.813520 0.466620
O O10 0.809180 0.882372 0.663197
O O11 0.196563 0.292097 0.258630
O O12 0.000000 0.347908 0.250000
O O13 0.410346 0.662334 0.713068
O O14 0.436913 0.424641 0.403067
#
# Coordination Sequence:
#
# PCOD9254457 Si02
#       7
#     8   8   8   8   8   4   8
#     4  10  19  33  53  82 121 147 176 232 292 348
#     4  10  19  32  51  83 113 149 181 228 289 345
#     4   8  17  32  51  73 104 144 179 228 275 323
#     4  11  20  33  55  82 112 151 189 231 284 348
#     4   9  17  31  52  77 101 138 192 226 267 325
#     4  10  16  30  56  82 104 146 196 234 274 338
#     4   9  18  31  52  80 114 143 185 232 282 338
#
# _framework density 23.294454000000002
#
# number of rings (size 3 to 8) (size 9 to 14) (size 15 to 20)
#    0.000    2.462    3.077    0.923    0.000    0.000 
#    0.000    3.077    0.000    6.462    0.000    0.000 
#    0.000    0.000    0.000    0.000    0.000    0.000 
#
# Total GULP energy -144883.142773 kJ/mol
# GULP energy per Si atom -5572.428568 kJ/mol
# Density = 2.324143 g / cm^3
# Si number density = 23.294454 Si / 1000 Ang^3
#
#
#
# Elastic Constant Matrix: (Units=GPa)
#
#
# Indices 1 2 3 4 5 6 
#
# 1 202.2761 50.7976 7.3692 0.0000 -3.7711 0.0000
# 2 50.7976 108.9126 5.3531 0.0000 -4.5047 0.0000
# 3 7.3692 5.3531 35.5592 0.0000 -4.9871 0.0000
# 4 0.0000 0.0000 0.0000 0.8300 0.0000 -1.8718
# 5 -3.7711 -4.5047 -4.9871 0.0000 14.0073 0.0000
# 6 0.0000 0.0000 0.0000 -1.8718 0.0000 16.2720
#
#
#
# Elastic Compliance Matrix: (Units=1/GPa)
#
#
# Indices 1 2 3 4 5 6 
#
# 1 0.005623 -0.002570 -0.000718 0.000000 0.000432 0.000000
# 2 -0.002570 0.010516 -0.000709 0.000000 0.002438 0.000000
# 3 -0.000718 -0.000709 0.029807 0.000000 0.010191 0.000000
# 4 0.000000 0.000000 0.000000 1.626859 0.000000 0.187143
# 5 0.000432 0.002438 0.010191 0.000000 0.075920 0.000000
# 6 0.000000 0.000000 0.000000 0.187143 0.000000 0.082983
#
#
# Mechanical properties :
#
#
# Convention : Reuss Voigt Hill
#
# Bulk Modulus (GPa) = 26.34800 52.64308 39.49554
# Shear Modulus (GPa) = 2.69927 25.10373 13.90150
#
# Velocity S-wave (km/s) = 1.07763 3.28635 2.44554
# Velocity P-wave (km/s) = 3.58940 6.08672 4.99660
#
# Compressibility (1/GPa) = 0.03795355
#
# Stress axis : x y z
#
# Youngs Moduli (GPa) = 177.83332 95.09498 33.54933
#
# Poissons Ratio (x) = 0.24435 0.02409
# Poissons Ratio (y) = 0.45696 0.02378
# Poissons Ratio (z) = 0.12767 0.06739
#
# Static dielectric constant tensor:
#      x y z
#    x 1.944990 0.000000 -0.048760 
#    y 0.000000 1.906560 0.000000 
#    z -0.048760 0.000000 2.063020 
# 
# From -- ./inp_files/88847.got.cif
#   From: 2010.05.17/outbox.cif.g08.bks.cpg/sg15_45_cif.got.tgz:88847.got - 2010.06.03 18:47:42.
