data_PCOD9254110
_publ_section_title
;
Structure prediction by ZEFSAII (Michael W. Deem and Ramdas Pophale) SiO2 
 PCOD9254110
Probable space group: C 2/C
;
_chemical_formula_sum "Si O2"
_cell_formula_units_Z 60
_cell_length_a 25.697864
_cell_length_b 8.635535
_cell_length_c 10.854387
_cell_angle_alpha 90.000000
_cell_angle_beta 86.684468
_cell_angle_gamma 90.000000
_cell_volume 2404.717340
_symmetry_space_group_name_H-M "C 2/C"
_symmetry_group_IT_number 15
_symmetry_cell_setting 'monoclinic'
loop_
_space_group_symop_operation_xyz
x,y,z
-x,y,1/2-z
-x,-y,-z
x,-y,1/2+z
1/2+x,1/2+y,z
1/2-x,1/2+y,1/2-z
1/2-x,1/2-y,-z
1/2+x,1/2-y,1/2+z
loop_
_atom_site_type_symbol
_atom_site_label
_atom_site_fract_x
_atom_site_fract_y
_atom_site_fract_z
Si Si1 0.000000 0.899488 0.750000
Si Si2 0.405671 0.640948 0.716497
Si Si3 0.319846 0.337415 0.414326
Si Si4 0.037776 0.592279 0.146723
Si Si5 0.868017 0.470356 0.005018
Si Si6 0.226194 0.112838 0.339722
Si Si7 0.029803 0.166907 0.997661
Si Si8 0.683609 0.904338 0.234494
O O1 0.021990 0.793784 0.639083
O O2 0.950424 0.013257 0.735403
O O3 0.352621 0.600621 0.793965
O O4 0.423538 0.802888 0.774617
O O5 0.412452 0.656653 0.568142
O O6 0.271718 0.232572 0.376680
O O7 0.300249 0.444116 0.529213
O O8 0.356257 0.211636 0.480143
O O9 0.071770 0.505127 0.039306
O O10 0.000000 0.512592 0.250000
O O11 0.003661 0.718769 0.080095
O O12 0.837770 0.561505 0.899856
O O13 0.848956 0.485324 0.148722
O O14 0.189268 0.222789 0.263502
O O15 0.259112 0.981846 0.268512
O O16 0.000000 0.000000 0.000000
#
# Coordination Sequence:
#
# PCOD9254110 Si02
#       8
#     4   8   8   8   8   8   8   8
#     4  10  16  26  42  74 116 144 182 238 298 316
#     4   9  14  26  46  72 102 144 194 229 270 348
#     4   8  16  32  53  76 106 153 197 225 274 373
#     4   9  15  30  54  76 102 153 197 223 267 353
#     4   9  19  34  60  82 111 149 193 236 291 344
#     4   9  18  35  56  83 115 149 192 244 297 335
#     4   9  15  26  45  73 111 147 187 231 279 334
#     4  10  20  38  61  85 116 151 193 247 291 351
#
# _framework density 24.950956999999999
#
# number of rings (size 3 to 8) (size 9 to 14) (size 15 to 20)
#    0.000    2.933    3.333    0.800    0.000    0.533 
#    2.400    2.000   11.733    0.000    0.000    0.000 
#    0.000    0.000    0.000    0.000    0.000    0.000 
#
# Total GULP energy -167325.642966 kJ/mol
# GULP energy per Si atom -5577.521432 kJ/mol
# Density = 2.489417 g / cm^3
# Si number density = 24.950957 Si / 1000 Ang^3
#
#
#
# Elastic Constant Matrix: (Units=GPa)
#
#
# Indices 1 2 3 4 5 6 
#
# 1 77.4237 25.5039 46.6904 0.0000 -34.4575 0.0000
# 2 25.5039 65.3725 44.8019 0.0000 -5.5478 0.0000
# 3 46.6904 44.8019 195.2718 0.0000 -54.2255 0.0000
# 4 0.0000 0.0000 0.0000 23.7978 0.0000 -14.8814
# 5 -34.4575 -5.5478 -54.2255 0.0000 43.6437 0.0000
# 6 0.0000 0.0000 0.0000 -14.8814 0.0000 17.1118
#
#
#
# Elastic Compliance Matrix: (Units=1/GPa)
#
#
# Indices 1 2 3 4 5 6 
#
# 1 0.023455 -0.008768 0.001888 0.000000 0.019749 0.000000
# 2 -0.008768 0.021994 -0.006253 0.000000 -0.011896 0.000000
# 3 0.001888 -0.006253 0.009615 0.000000 0.012642 0.000000
# 4 0.000000 0.000000 0.000000 0.092114 0.000000 0.080108
# 5 0.019749 -0.011896 0.012642 0.000000 0.052700 0.000000
# 6 0.000000 0.000000 0.000000 0.080108 0.000000 0.128106
#
#
# Mechanical properties :
#
#
# Convention : Reuss Voigt Hill
#
# Bulk Modulus (GPa) = 34.72650 63.56228 49.14439
# Shear Modulus (GPa) = 13.74192 31.64876 22.69534
#
# Velocity S-wave (km/s) = 2.34937 3.56538 3.01923
# Velocity P-wave (km/s) = 4.61600 6.51762 5.64743
#
# Compressibility (1/GPa) = 0.02879646
#
# Stress axis : x y z
#
# Youngs Moduli (GPa) = 42.63408 45.46773 104.00597
#
# Poissons Ratio (x) = 0.39868 -0.19633
# Poissons Ratio (y) = 0.37383 0.65035
# Poissons Ratio (z) = -0.08048 0.28431
#
# Static dielectric constant tensor:
#      x y z
#    x 2.047350 0.000000 0.044350 
#    y 0.000000 2.075120 0.000000 
#    z 0.044350 0.000000 2.213470 
# 
# From -- ./inp_files/125880.got.cif
#   From: 2010.05.17/outbox.cif.g08.bks.cpg/sg15_63_cif.got.tgz:125880.got - 2010.06.03 18:47:42.
