data_PCOD9254228
_publ_section_title
;
Structure prediction by ZEFSAII (Michael W. Deem and Ramdas Pophale) SiO2 
 PCOD9254228
Probable space group: C 2/C
;
_chemical_formula_sum "Si O2"
_cell_formula_units_Z 40
_cell_length_a 17.155030
_cell_length_b 25.255574
_cell_length_c 10.199499
_cell_angle_alpha 90.000000
_cell_angle_beta 149.506704
_cell_angle_gamma 90.000000
_cell_volume 2242.384901
_symmetry_space_group_name_H-M "C 2/C"
_symmetry_group_IT_number 15
_symmetry_cell_setting 'monoclinic'
loop_
_space_group_symop_operation_xyz
x,y,z
-x,y,1/2-z
-x,-y,-z
x,-y,1/2+z
1/2+x,1/2+y,z
1/2-x,1/2+y,1/2-z
1/2-x,1/2-y,-z
1/2+x,1/2-y,1/2+z
loop_
_atom_site_type_symbol
_atom_site_label
_atom_site_fract_x
_atom_site_fract_y
_atom_site_fract_z
Si Si1 0.085920 0.863969 0.010814
Si Si2 0.677295 0.253623 0.038548
Si Si3 0.325308 0.523546 0.759688
Si Si4 0.876959 0.166015 0.460754
Si Si5 0.312385 0.446844 0.960434
O O1 0.000000 0.876129 0.750000
O O2 0.970379 0.850637 0.963952
O O3 0.182253 0.811432 0.114333
O O4 0.169190 0.917611 0.173116
O O5 0.760074 0.211541 0.251024
O O6 0.500000 0.242351 0.750000
O O7 0.750000 0.250000 0.000000
O O8 0.253904 0.530573 0.513098
O O9 0.500000 0.500000 0.000000
O O10 0.253368 0.482621 0.756621
O O11 0.791032 0.114563 0.394996
O O12 0.000000 0.182609 0.750000
O O13 0.500000 0.450418 0.250000
#
# Coordination Sequence:
#
# PCOD9254228 Si02
#       5
#     8   8   8   8   8
#     4  11  19  32  55  79 118 149 191 236 293 341
#     4  11  23  40  58  83 116 160 200 234 288 355
#     4  10  16  28  47  82 114 145 176 242 302 333
#     4  11  20  37  55  86 117 147 191 245 286 335
#     4   9  17  27  47  77 118 136 185 231 300 330
#
# _framework density 17.838152000000001
#
# number of rings (size 3 to 8) (size 9 to 14) (size 15 to 20)
#    0.000    1.600   10.000    1.800    0.000    0.800 
#    0.000    0.000    0.000    0.000    0.000    7.000 
#    0.000    0.000    0.000    0.000    0.000    0.000 
#
# Total GULP energy -111376.685452 kJ/mol
# GULP energy per Si atom -5568.834273 kJ/mol
# Density = 1.779755 g / cm^3
# Si number density = 17.838152 Si / 1000 Ang^3
#
#
#
# Elastic Constant Matrix: (Units=GPa)
#
#
# Indices 1 2 3 4 5 6 
#
# 1 63.3218 27.3202 40.0027 0.0000 -23.9424 0.0000
# 2 27.3202 141.7521 59.5048 0.0000 -13.8935 0.0000
# 3 40.0027 59.5048 75.8735 0.0000 -27.0699 0.0000
# 4 0.0000 0.0000 0.0000 33.0989 0.0000 -12.9261
# 5 -23.9424 -13.8935 -27.0699 0.0000 33.5530 0.0000
# 6 0.0000 0.0000 0.0000 -12.9261 0.0000 28.9914
#
#
#
# Elastic Compliance Matrix: (Units=1/GPa)
#
#
# Indices 1 2 3 4 5 6 
#
# 1 0.026106 0.000305 -0.010267 0.000000 0.010472 0.000000
# 2 0.000305 0.010776 -0.009748 0.000000 -0.003185 0.000000
# 3 -0.010267 -0.009748 0.031150 0.000000 0.013769 0.000000
# 4 0.000000 0.000000 0.000000 0.036582 0.000000 0.016311
# 5 0.010472 -0.003185 0.013769 0.000000 0.047066 0.000000
# 6 0.000000 0.000000 0.000000 0.016311 0.000000 0.041765
#
#
# Mechanical properties :
#
#
# Convention : Reuss Voigt Hill
#
# Bulk Modulus (GPa) = 34.95050 59.40029 47.17539
# Shear Modulus (GPa) = 20.62683 29.40332 25.01507
#
# Velocity S-wave (km/s) = 3.40418 4.06438 3.74884
# Velocity P-wave (km/s) = 5.92342 7.44294 6.72623
#
# Compressibility (1/GPa) = 0.02861189
#
# Stress axis : x y z
#
# Youngs Moduli (GPa) = 38.30498 92.80157 32.10251
#
# Poissons Ratio (x) = -0.02827 0.32959
# Poissons Ratio (y) = -0.01167 0.31293
# Poissons Ratio (z) = 0.39327 0.90463
#
# Static dielectric constant tensor:
#      x y z
#    x 1.642900 0.000000 -0.030920 
#    y 0.000000 1.630920 0.000000 
#    z -0.030920 0.000000 1.586190 
# 
# From -- ./inp_files/31321.got.cif
#   From: 2010.05.17/outbox.cif.g08.bks.cpg/sg15_16_cif.got.tgz:31321.got - 2010.06.03 18:47:42.
