data_PCOD9254746
_publ_section_title
;
Structure prediction by ZEFSAII (Michael W. Deem and Ramdas Pophale) SiO2 
 PCOD9254746
Probable space group: C 2/C
;
_chemical_formula_sum "Si O2"
_cell_formula_units_Z 48
_cell_length_a 18.733306
_cell_length_b 17.409843
_cell_length_c 5.574726
_cell_angle_alpha 90.000000
_cell_angle_beta 102.533235
_cell_angle_gamma 90.000000
_cell_volume 1774.836683
_symmetry_space_group_name_H-M "C 2/C"
_symmetry_group_IT_number 15
_symmetry_cell_setting 'monoclinic'
loop_
_space_group_symop_operation_xyz
x,y,z
-x,y,1/2-z
-x,-y,-z
x,-y,1/2+z
1/2+x,1/2+y,z
1/2-x,1/2+y,1/2-z
1/2-x,1/2-y,-z
1/2+x,1/2-y,1/2+z
loop_
_atom_site_type_symbol
_atom_site_label
_atom_site_fract_x
_atom_site_fract_y
_atom_site_fract_z
Si Si1 0.659729 0.914288 0.818903
Si Si2 0.000000 0.329810 0.250000
Si Si3 0.968914 0.089629 0.475867
Si Si4 0.813143 0.041503 0.254086
Si Si5 0.747831 0.182105 0.698826
Si Si6 0.000000 0.575912 0.250000
Si Si7 0.638519 0.762494 0.522885
O O1 0.726691 0.936570 0.694334
O O2 0.583243 0.960173 0.786572
O O3 0.633129 0.829149 0.720831
O O4 0.709599 0.895465 0.086102
O O5 0.066748 0.273288 0.324735
O O6 0.992021 0.380523 0.486855
O O7 0.880718 0.097370 0.377364
O O8 0.000000 0.120170 0.250000
O O9 0.000000 0.000000 0.500000
O O10 0.000000 0.122685 0.750000
O O11 0.824763 0.984932 0.490317
O O12 0.750000 0.250000 0.500000
O O13 0.698258 0.209436 0.877896
O O14 0.831478 0.183625 0.848256
#
# Coordination Sequence:
#
# PCOD9254746 Si02
#       7
#     8   4   8   8   8   4   8
#     4  10  22  36  58  85 119 155 201 245 292 347
#     4  10  18  32  58  89 112 152 200 233 274 352
#     4  10  16  34  58  82 105 137 192 238 276 341
#     4  12  24  37  59  90 115 152 200 245 293 348
#     4   9  17  34  56  85 112 145 188 238 294 343
#     4  10  20  36  56  83 116 156 202 239 280 352
#     4   9  18  33  58  87 113 151 193 240 286 346
#
# _framework density 27.044739
#
# number of rings (size 3 to 8) (size 9 to 14) (size 15 to 20)
#    0.000    2.000    5.000    0.000    2.333    0.000 
#    0.000    0.833    0.000    6.000    2.167    0.000 
#    0.000    0.000    0.000    0.000    0.000    0.000 
#
# Total GULP energy -133710.837156 kJ/mol
# GULP energy per Si atom -5571.284882 kJ/mol
# Density = 2.698318 g / cm^3
# Si number density = 27.044739 Si / 1000 Ang^3
#
#
#
# Elastic Constant Matrix: (Units=GPa)
#
#
# Indices 1 2 3 4 5 6 
#
# 1 128.7264 29.0774 31.8838 0.0000 19.3542 0.0000
# 2 29.0774 53.3312 36.9364 0.0000 4.0549 0.0000
# 3 31.8838 36.9364 179.4815 0.0000 -1.7488 0.0000
# 4 0.0000 0.0000 0.0000 23.8262 0.0000 -1.5058
# 5 19.3542 4.0549 -1.7488 0.0000 53.7244 0.0000
# 6 0.0000 0.0000 0.0000 -1.5058 0.0000 22.7773
#
#
#
# Elastic Compliance Matrix: (Units=1/GPa)
#
#
# Indices 1 2 3 4 5 6 
#
# 1 0.009413 -0.004336 -0.000810 0.000000 -0.003090 0.000000
# 2 -0.004336 0.024040 -0.004181 0.000000 -0.000388 0.000000
# 3 -0.000810 -0.004181 0.006584 0.000000 0.000822 0.000000
# 4 0.000000 0.000000 0.000000 0.042147 0.000000 0.002786
# 5 -0.003090 -0.000388 0.000822 0.000000 0.019783 0.000000
# 6 0.000000 0.000000 0.000000 0.002786 0.000000 0.044088
#
#
# Mechanical properties :
#
#
# Convention : Reuss Voigt Hill
#
# Bulk Modulus (GPa) = 46.76611 61.92602 54.34607
# Shear Modulus (GPa) = 29.09749 37.64166 33.36957
#
# Velocity S-wave (km/s) = 3.28365 3.73477 3.51645
# Velocity P-wave (km/s) = 5.63082 6.44557 6.05192
#
# Compressibility (1/GPa) = 0.02138300
#
# Stress axis : x y z
#
# Youngs Moduli (GPa) = 106.23428 41.59709 151.88635
#
# Poissons Ratio (x) = 0.18038 0.12301
# Poissons Ratio (y) = 0.46067 0.63501
# Poissons Ratio (z) = 0.08604 0.17391
#
# Static dielectric constant tensor:
#      x y z
#    x 2.016810 0.000000 -0.195880 
#    y 0.000000 2.224010 0.000000 
#    z -0.195880 0.000000 2.016250 
# 
# From -- ./inp_files/10943.got.cif
#   From: 2010.05.17/outbox.cif.g08.bks.cpg/sg15_6_cif.got.tgz:10943.got - 2010.06.03 18:47:42.
