data_PCOD9254189
_publ_section_title
;
Structure prediction by ZEFSAII (Michael W. Deem and Ramdas Pophale) SiO2 
 PCOD9254189
Probable space group: C 2/C
;
_chemical_formula_sum "Si O2"
_cell_formula_units_Z 60
_cell_length_a 11.488340
_cell_length_b 14.777654
_cell_length_c 27.951437
_cell_angle_alpha 90.000000
_cell_angle_beta 147.108484
_cell_angle_gamma 90.000000
_cell_volume 2576.954953
_symmetry_space_group_name_H-M "C 2/C"
_symmetry_group_IT_number 15
_symmetry_cell_setting 'monoclinic'
loop_
_space_group_symop_operation_xyz
x,y,z
-x,y,1/2-z
-x,-y,-z
x,-y,1/2+z
1/2+x,1/2+y,z
1/2-x,1/2+y,1/2-z
1/2-x,1/2-y,-z
1/2+x,1/2-y,1/2+z
loop_
_atom_site_type_symbol
_atom_site_label
_atom_site_fract_x
_atom_site_fract_y
_atom_site_fract_z
Si Si1 0.542349 0.355641 0.429656
Si Si2 0.500000 0.406841 0.750000
Si Si3 0.849649 0.427390 0.155651
Si Si4 0.902364 0.744549 0.886417
Si Si5 0.129401 0.306353 0.027410
Si Si6 0.724636 0.398495 0.010911
Si Si7 0.288549 0.941608 0.929233
Si Si8 0.335905 0.755922 0.255695
O O1 0.385971 0.425433 0.401994
O O2 0.740168 0.371970 0.462684
O O3 0.626135 0.288600 0.499439
O O4 0.373476 0.301497 0.338327
O O5 0.639553 0.466085 0.833789
O O6 0.623277 0.337844 0.757386
O O7 0.802820 0.455800 0.084091
O O8 0.000000 0.469264 0.250000
O O9 0.968357 0.328387 0.187384
O O10 0.772397 0.703889 0.885929
O O11 0.805438 0.763462 0.801277
O O12 0.079513 0.669053 0.934140
O O13 0.023059 0.832537 0.949600
O O14 0.885233 0.341291 0.950499
O O15 0.683194 0.442134 0.944769
O O16 0.500000 0.000000 0.000000
#
# Coordination Sequence:
#
# PCOD9254189 Si02
#       8
#     8   4   8   8   8   8   8   8
#     4  10  17  27  48  79 110 135 163 222 288 329
#     4  12  18  34  56  76 104 144 196 232 258 338
#     4   9  15  26  47  80 105 136 178 214 275 338
#     4   9  16  26  46  76 104 131 166 224 282 324
#     4  10  19  31  48  78 116 137 164 218 287 333
#     4   9  16  28  49  74 104 132 176 231 268 317
#     4  11  23  38  55  79 107 154 196 231 269 323
#     4  10  16  27  50  78 103 138 184 222 265 341
#
# _framework density 23.283294000000001
#
# number of rings (size 3 to 8) (size 9 to 14) (size 15 to 20)
#    0.000    2.133    6.000    0.000    0.000    0.533 
#    0.000    5.333    0.000    0.800    0.000    0.000 
#    0.000    0.000    0.000    0.000    0.000    0.000 
#
# Total GULP energy -167183.915763 kJ/mol
# GULP energy per Si atom -5572.797192 kJ/mol
# Density = 2.323030 g / cm^3
# Si number density = 23.283294 Si / 1000 Ang^3
#
#
#
# Elastic Constant Matrix: (Units=GPa)
#
#
# Indices 1 2 3 4 5 6 
#
# 1 145.3596 0.6812 46.5998 -0.0001 -41.0573 0.0000
# 2 0.6812 25.7535 2.3784 0.0000 -7.1867 0.0000
# 3 46.5998 2.3784 129.8338 -0.0001 -53.1862 0.0000
# 4 -0.0001 0.0000 -0.0001 4.7669 0.0000 15.4060
# 5 -41.0573 -7.1867 -53.1862 0.0000 51.6860 0.0000
# 6 0.0000 0.0000 0.0000 15.4060 0.0000 -1.5938
#
#
#
# Elastic Compliance Matrix: (Units=1/GPa)
#
#
# Indices 1 2 3 4 5 6 
#
# 1 0.008963 0.001739 -0.000403 0.000000 0.006947 0.000000
# 2 0.001739 0.041289 0.002657 0.000000 0.009857 0.000000
# 3 -0.000403 0.002657 0.013516 0.000000 0.013957 0.000000
# 4 0.000000 0.000000 0.000000 0.006507 0.000000 0.062896
# 5 0.006947 0.009857 0.013957 0.000000 0.040599 0.000000
# 6 0.000000 0.000000 0.000000 0.062896 0.000000 -0.019461
#
#
# Mechanical properties :
#
#
# Convention : Reuss Voigt Hill
#
# Bulk Modulus (GPa) = 13.93668 44.47396 29.20532
# Shear Modulus (GPa) = 46.57952 27.72431 37.15191
#
# Velocity S-wave (km/s) = 4.47761 3.45445 3.99889
# Velocity P-wave (km/s) = 5.72107 5.92061 5.82170
#
# Compressibility (1/GPa) = 0.07175311
#
# Stress axis : x y z
#
# Youngs Moduli (GPa) = 111.57434 24.21960 73.98767
#
# Poissons Ratio (x) = -0.04211 0.02982
# Poissons Ratio (y) = -0.19399 -0.19661
# Poissons Ratio (z) = 0.04497 -0.06436
#
# Static dielectric constant tensor:
#      x y z
#    x 1.862260 0.000000 -0.013980 
#    y 0.000000 2.019900 0.000000 
#    z -0.013980 0.000000 1.914380 
# 
# From -- ./inp_files/293383.got.cif
#   From: 2010.05.17/outbox.cif.g08.bks.cpg/sg15_147_cif.got.tgz:293383.got - 2010.06.03 18:47:42.
