data_PCOD9254400
_publ_section_title
;
Structure prediction by ZEFSAII (Michael W. Deem and Ramdas Pophale) SiO2 
 PCOD9254400
Probable space group: C 2/C
;
_chemical_formula_sum "Si O2"
_cell_formula_units_Z 64
_cell_length_a 10.915876
_cell_length_b 30.056323
_cell_length_c 14.949152
_cell_angle_alpha 90.000000
_cell_angle_beta 43.416902
_cell_angle_gamma 90.000000
_cell_volume 3370.997984
_symmetry_space_group_name_H-M "C 2/C"
_symmetry_group_IT_number 15
_symmetry_cell_setting 'monoclinic'
loop_
_space_group_symop_operation_xyz
x,y,z
-x,y,1/2-z
-x,-y,-z
x,-y,1/2+z
1/2+x,1/2+y,z
1/2-x,1/2+y,1/2-z
1/2-x,1/2-y,-z
1/2+x,1/2-y,1/2+z
loop_
_atom_site_type_symbol
_atom_site_label
_atom_site_fract_x
_atom_site_fract_y
_atom_site_fract_z
Si Si1 0.174487 0.776436 0.454820
Si Si2 0.214252 0.878480 0.443822
Si Si3 0.357934 0.706821 0.241108
Si Si4 0.201168 0.923436 0.625120
Si Si5 0.196378 0.958185 0.328280
Si Si6 0.266820 0.545629 0.077219
Si Si7 0.715622 0.615012 0.293909
Si Si8 0.190110 0.518584 0.927986
O O1 0.250000 0.750000 0.500000
O O2 0.249594 0.826666 0.407969
O O3 0.232913 0.746522 0.340881
O O4 0.969912 0.780731 0.593218
O O5 0.288340 0.895346 0.499995
O O6 0.266333 0.913514 0.339950
O O7 0.999349 0.883275 0.572815
O O8 0.500000 0.698100 0.250000
O O9 0.251011 0.662994 0.268241
O O10 0.278708 0.918099 0.681985
O O11 0.000000 0.907554 0.750000
O O12 0.196632 0.974908 0.603082
O O13 0.234416 0.959938 0.202439
O O14 0.982195 0.957175 0.452925
O O15 0.272047 0.001804 0.340618
O O16 0.215355 0.591292 0.154104
O O17 0.186244 0.545630 0.021224
O O18 0.000000 0.500000 0.000000
#
# Coordination Sequence:
#
# PCOD9254400 Si02
#       8
#     8   8   8   8   8   8   8   8
#     4   9  16  28  45  72 106 138 165 210 273 330
#     4   9  17  29  51  75 101 133 175 224 261 301
#     4   9  16  28  46  75 107 138 170 218 273 326
#     4  10  16  30  52  72  95 134 185 216 241 301
#     4  10  19  35  54  75  95 135 187 219 250 296
#     4  10  19  34  56  74  94 133 189 224 245 297
#     4   9  16  28  51  76  95 128 181 222 249 292
#     4  12  24  34  45  71 110 143 169 210 270 318
#
# _framework density 18.985475000000001
#
# number of rings (size 3 to 8) (size 9 to 14) (size 15 to 20)
#    0.000    2.250    2.500    3.750    0.000    0.500 
#    0.000    5.000    0.000    0.000    0.000    0.875 
#    0.000   10.000    0.000    5.125    0.000    0.000 
#
# Total GULP energy -178135.892570 kJ/mol
# GULP energy per Si atom -5566.746643 kJ/mol
# Density = 1.894226 g / cm^3
# Si number density = 18.985475 Si / 1000 Ang^3
#
#
#
# Elastic Constant Matrix: (Units=GPa)
#
#
# Indices 1 2 3 4 5 6 
#
# 1 58.7966 29.6822 35.2978 0.0000 27.6310 0.0000
# 2 29.6822 132.0912 56.7313 0.0000 32.9639 0.0000
# 3 35.2978 56.7313 70.1694 0.0000 31.8932 0.0000
# 4 0.0000 0.0000 0.0000 35.8077 0.0000 13.1293
# 5 27.6310 32.9639 31.8932 0.0000 36.5143 0.0000
# 6 0.0000 0.0000 0.0000 13.1293 0.0000 17.3155
#
#
#
# Elastic Compliance Matrix: (Units=1/GPa)
#
#
# Indices 1 2 3 4 5 6 
#
# 1 0.028686 0.000901 -0.008163 0.000000 -0.015390 0.000000
# 2 0.000901 0.011949 -0.008128 0.000000 -0.004370 0.000000
# 3 -0.008163 -0.008128 0.031154 0.000000 -0.013697 0.000000
# 4 0.000000 0.000000 0.000000 0.038681 0.000000 -0.029330
# 5 -0.015390 -0.004370 -0.013697 0.000000 0.054941 0.000000
# 6 0.000000 0.000000 0.000000 -0.029330 0.000000 0.079991
#
#
# Mechanical properties :
#
#
# Convention : Reuss Voigt Hill
#
# Bulk Modulus (GPa) = 24.38473 56.05331 40.21902
# Shear Modulus (GPa) = 17.25005 27.21722 22.23363
#
# Velocity S-wave (km/s) = 3.01756 3.79037 3.42583
# Velocity P-wave (km/s) = 5.00126 6.98171 6.07276
#
# Compressibility (1/GPa) = 0.04100927
#
# Stress axis : x y z
#
# Youngs Moduli (GPa) = 34.85964 83.68568 32.09818
#
# Poissons Ratio (x) = -0.07537 0.26202
# Poissons Ratio (y) = -0.03140 0.26089
# Poissons Ratio (z) = 0.28457 0.68019
#
# Static dielectric constant tensor:
#      x y z
#    x 1.725950 0.000000 -0.023900 
#    y 0.000000 1.724710 0.000000 
#    z -0.023900 0.000000 1.731330 
# 
# From -- ./inp_files/149142.got.cif
#   From: 2010.05.17/outbox.cif.g08.bks.cpg/sg15_75_cif.got.tgz:149142.got - 2010.06.03 18:47:42.
