data_PCOD9254898
_publ_section_title
;
Structure prediction by ZEFSAII (Michael W. Deem and Ramdas Pophale) SiO2 
 PCOD9254898
Probable space group: C 2/C
;
_chemical_formula_sum "Si O2"
_cell_formula_units_Z 56
_cell_length_a 26.355114
_cell_length_b 8.890369
_cell_length_c 20.529495
_cell_angle_alpha 90.000000
_cell_angle_beta 141.165033
_cell_angle_gamma 90.000000
_cell_volume 3016.375667
_symmetry_space_group_name_H-M "C 2/C"
_symmetry_group_IT_number 15
_symmetry_cell_setting 'monoclinic'
loop_
_space_group_symop_operation_xyz
x,y,z
-x,y,1/2-z
-x,-y,-z
x,-y,1/2+z
1/2+x,1/2+y,z
1/2-x,1/2+y,1/2-z
1/2-x,1/2-y,-z
1/2+x,1/2-y,1/2+z
loop_
_atom_site_type_symbol
_atom_site_label
_atom_site_fract_x
_atom_site_fract_y
_atom_site_fract_z
Si Si1 0.656424 0.145010 0.608061
Si Si2 0.427925 0.467043 0.979502
Si Si3 0.156423 0.854990 0.204785
Si Si4 0.444404 0.001077 0.602276
Si Si5 0.055596 0.998921 0.713468
Si Si6 0.000000 0.250001 0.250000
Si Si7 0.927925 0.467043 0.876349
Si Si8 0.500000 0.749999 0.750000
O O1 0.602169 0.295527 0.550077
O O2 0.750000 0.179518 0.690983
O O3 0.623211 0.028307 0.520174
O O4 0.642426 0.071072 0.665016
O O5 0.357574 0.571073 0.880165
O O6 0.500000 0.500000 0.000000
O O7 0.469254 0.505199 0.089159
O O8 0.123211 0.971694 0.226247
O O9 0.102168 0.704473 0.154261
O O10 0.444708 0.145671 0.648459
O O11 0.530745 0.005200 0.650650
O O12 0.446621 0.856637 0.651110
O O13 0.053380 0.143360 0.757869
O O14 0.055291 0.854327 0.759041
O O15 0.000000 0.500000 0.000000
#
# Coordination Sequence:
#
# PCOD9254898 Si02
#       8
#     8   8   8   8   8   4   8   4
#     4  11  22  37  59  91 123 149 184 245 309 346
#     4  10  20  36  61  86 113 154 192 241 286 350
#     4  11  22  37  59  91 123 149 184 245 309 346
#     4  10  20  37  60  86 107 153 200 245 274 348
#     4  10  20  37  60  86 107 153 200 245 274 348
#     4  10  24  34  64  82 108 150 216 242 276 322
#     4  10  20  36  61  86 113 154 192 241 286 350
#     4  10  16  38  60  78 108 146 214 236 264 334
#
# _framework density 18.565327
#
# number of rings (size 3 to 8) (size 9 to 14) (size 15 to 20)
#    0.000    1.714    2.857    3.429    8.000    0.000 
#    0.000    1.429    0.000    0.000    0.000    0.000 
#    0.000    0.000    0.000    0.000    0.000    0.000 
#
# Total GULP energy -156080.272962 kJ/mol
# GULP energy per Si atom -5574.295463 kJ/mol
# Density = 1.852307 g / cm^3
# Si number density = 18.565327 Si / 1000 Ang^3
#
#
#
# Elastic Constant Matrix: (Units=GPa)
#
#
# Indices 1 2 3 4 5 6 
#
# 1 74.9007 41.4338 48.0474 0.0000 -7.0211 0.0000
# 2 41.4338 107.7429 38.1016 0.0000 -7.6727 0.0000
# 3 48.0474 38.1016 72.5705 0.0000 1.6524 0.0000
# 4 0.0000 0.0000 0.0000 27.4721 0.0000 -9.2227
# 5 -7.0211 -7.6727 1.6524 0.0000 31.8689 0.0000
# 6 0.0000 0.0000 0.0000 -9.2227 0.0000 31.4783
#
#
#
# Elastic Compliance Matrix: (Units=1/GPa)
#
#
# Indices 1 2 3 4 5 6 
#
# 1 0.025829 -0.004241 -0.014998 0.000000 0.005447 0.000000
# 2 -0.004241 0.012399 -0.003753 0.000000 0.002246 0.000000
# 3 -0.014998 -0.003753 0.025806 0.000000 -0.005546 0.000000
# 4 0.000000 0.000000 0.000000 0.040371 0.000000 0.011828
# 5 0.005447 0.002246 -0.005546 0.000000 0.033407 0.000000
# 6 0.000000 0.000000 0.000000 0.011828 0.000000 0.035233
#
#
# Mechanical properties :
#
#
# Convention : Reuss Voigt Hill
#
# Bulk Modulus (GPa) = 55.40192 56.70887 56.05540
# Shear Modulus (GPa) = 22.21757 26.67261 24.44509
#
# Velocity S-wave (km/s) = 3.46312 3.79448 3.63258
# Velocity P-wave (km/s) = 6.77476 7.05757 6.91761
#
# Compressibility (1/GPa) = 0.01804992
#
# Stress axis : x y z
#
# Youngs Moduli (GPa) = 38.71692 80.64842 38.75006
#
# Poissons Ratio (x) = 0.34203 0.58117
# Poissons Ratio (y) = 0.16420 0.14544
# Poissons Ratio (z) = 0.58067 0.30270
#
# Static dielectric constant tensor:
#      x y z
#    x 1.676700 0.000000 -0.009770 
#    y 0.000000 1.672330 0.000000 
#    z -0.009770 0.000000 1.672450 
# 
# From -- ./inp_files/221663.got.cif
#   From: 2010.05.17/outbox.cif.g08.bks.cpg/sg15_111_cif.got.tgz:221663.got - 2010.06.03 18:47:42.
