data_PCOD9254927
_publ_section_title
;
Structure prediction by ZEFSAII (Michael W. Deem and Ramdas Pophale) SiO2 
 PCOD9254927
Probable space group: C 2/C
;
_chemical_formula_sum "Si O2"
_cell_formula_units_Z 48
_cell_length_a 20.856687
_cell_length_b 9.596649
_cell_length_c 18.001869
_cell_angle_alpha 90.000000
_cell_angle_beta 150.260249
_cell_angle_gamma 90.000000
_cell_volume 1787.383667
_symmetry_space_group_name_H-M "C 2/C"
_symmetry_group_IT_number 15
_symmetry_cell_setting 'monoclinic'
loop_
_space_group_symop_operation_xyz
x,y,z
-x,y,1/2-z
-x,-y,-z
x,-y,1/2+z
1/2+x,1/2+y,z
1/2-x,1/2+y,1/2-z
1/2-x,1/2-y,-z
1/2+x,1/2-y,1/2+z
loop_
_atom_site_type_symbol
_atom_site_label
_atom_site_fract_x
_atom_site_fract_y
_atom_site_fract_z
Si Si1 0.670460 0.049129 0.754816
Si Si2 0.130107 0.849987 0.587791
Si Si3 0.427113 0.081589 0.052709
Si Si4 0.071130 0.151881 0.482309
Si Si5 0.271435 0.494970 0.021990
Si Si6 0.000000 0.776756 0.250000
Si Si7 0.500000 0.301442 0.750000
O O1 0.731433 0.924185 0.766422
O O2 0.517739 0.024084 0.599479
O O3 0.701509 0.028975 0.874423
O O4 0.776487 0.170738 0.844919
O O5 0.143872 0.697776 0.567223
O O6 0.033312 0.827473 0.558742
O O7 0.065522 0.977578 0.471562
O O8 0.515922 0.181274 0.193931
O O9 0.328491 0.019249 0.012372
O O10 0.038179 0.235028 0.373880
O O11 0.368328 0.364298 0.111477
O O12 0.369523 0.617504 0.138471
#
# Coordination Sequence:
#
# PCOD9254927 Si02
#       7
#     8   8   8   8   8   4   4
#     4   9  16  27  39  60  93 119 145 176 212 267
#     4   9  17  28  41  60  91 121 148 176 213 265
#     4  12  17  22  40  68  93 119 138 179 218 262
#     4   8  17  32  42  59  85 122 154 179 209 261
#     4  10  17  24  36  66  94 115 143 171 217 265
#     4  11  16  22  32  56 100 118 133 162 199 264
#     4   9  16  30  48  62  84 124 153 182 211 256
#
# _framework density 26.854894000000002
#
# number of rings (size 3 to 8) (size 9 to 14) (size 15 to 20)
#    1.000    1.333    3.333    2.500    0.000    0.000 
#    0.000    0.000    0.000    1.000    0.000    1.167 
#    0.000    0.000    0.000    0.000    0.000    7.000 
#
# Total GULP energy -133775.874039 kJ/mol
# GULP energy per Si atom -5573.994752 kJ/mol
# Density = 2.679377 g / cm^3
# Si number density = 26.854894 Si / 1000 Ang^3
#
#
#
# Elastic Constant Matrix: (Units=GPa)
#
#
# Indices 1 2 3 4 5 6 
#
# 1 187.4001 38.7677 36.7216 0.0000 28.5902 0.0000
# 2 38.7677 77.6592 19.8354 0.0000 6.2182 0.0000
# 3 36.7216 19.8354 81.6833 0.0000 2.9650 0.0000
# 4 0.0000 0.0000 0.0000 438.5150 0.0000 -355.8106
# 5 28.5902 6.2182 2.9650 0.0000 55.2772 0.0000
# 6 0.0000 0.0000 0.0000 -355.8106 0.0000 340.3446
#
#
#
# Elastic Compliance Matrix: (Units=1/GPa)
#
#
# Indices 1 2 3 4 5 6 
#
# 1 0.006792 -0.002549 -0.002322 0.000000 -0.003101 0.000000
# 2 -0.002549 0.014789 -0.002438 0.000000 -0.000214 0.000000
# 3 -0.002322 -0.002438 0.013851 0.000000 0.000732 0.000000
# 4 0.000000 0.000000 0.000000 0.015030 0.000000 0.015713
# 5 -0.003101 -0.000214 0.000732 0.000000 0.019680 0.000000
# 6 0.000000 0.000000 0.000000 0.015713 0.000000 0.019365
#
#
# Mechanical properties :
#
#
# Convention : Reuss Voigt Hill
#
# Bulk Modulus (GPa) = 48.04085 59.71022 53.87553
# Shear Modulus (GPa) = 45.02028 183.58853 114.30441
#
# Velocity S-wave (km/s) = 4.09886 8.27717 6.53117
# Velocity P-wave (km/s) = 6.35049 10.65980 8.77383
#
# Compressibility (1/GPa) = 0.02081562
#
# Stress axis : x y z
#
# Youngs Moduli (GPa) = 147.24054 67.61769 72.19453
#
# Poissons Ratio (x) = 0.17236 0.16761
# Poissons Ratio (y) = 0.37533 0.17597
# Poissons Ratio (z) = 0.34184 0.16482
#
# Static dielectric constant tensor:
#      x y z
#    x 2.091730 0.000000 -0.115390 
#    y 0.000000 2.240940 0.000000 
#    z -0.115390 0.000000 2.140230 
# 
# From -- ./inp_files/252906.got.cif
#   From: 2010.05.17/outbox.cif.g08.bks.cpg/sg15_127_cif.got.tgz:252906.got - 2010.06.03 18:47:42.
