data_PCOD9254123
_publ_section_title
;
Structure prediction by ZEFSAII (Michael W. Deem and Ramdas Pophale) SiO2 
 PCOD9254123
Probable space group: C 2/C
;
_chemical_formula_sum "Si O2"
_cell_formula_units_Z 44
_cell_length_a 27.250308
_cell_length_b 7.105305
_cell_length_c 12.760375
_cell_angle_alpha 90.000000
_cell_angle_beta 135.566456
_cell_angle_gamma 90.000000
_cell_volume 1729.681682
_symmetry_space_group_name_H-M "C 2/C"
_symmetry_group_IT_number 15
_symmetry_cell_setting 'monoclinic'
loop_
_space_group_symop_operation_xyz
x,y,z
-x,y,1/2-z
-x,-y,-z
x,-y,1/2+z
1/2+x,1/2+y,z
1/2-x,1/2+y,1/2-z
1/2-x,1/2-y,-z
1/2+x,1/2-y,1/2+z
loop_
_atom_site_type_symbol
_atom_site_label
_atom_site_fract_x
_atom_site_fract_y
_atom_site_fract_z
Si Si1 0.357517 0.688772 0.926311
Si Si2 0.770297 0.639612 0.635108
Si Si3 0.847801 0.732671 0.179055
Si Si4 0.854009 0.356702 0.456239
Si Si5 0.009554 0.418026 0.628969
Si Si6 0.000000 0.240580 0.250000
O O1 0.301971 0.592402 0.916825
O O2 0.341137 0.651674 0.778155
O O3 0.345432 0.914702 0.931069
O O4 0.437188 0.646499 0.087807
O O5 0.750000 0.750000 0.500000
O O6 0.816689 0.465947 0.668176
O O7 0.815792 0.731553 0.797575
O O8 0.675407 0.775910 0.978959
O O9 0.930947 0.735181 0.288352
O O10 0.937954 0.339619 0.568055
O O11 0.000000 0.500000 0.500000
O O12 0.036433 0.606742 0.728628
#
# Coordination Sequence:
#
# PCOD9254123 Si02
#       6
#     8   8   8   8   8   4
#     4  10  20  29  47  75 102 133 170 200 244 303
#     4  11  20  31  48  71 103 132 173 200 247 309
#     4  11  19  33  49  71 111 135 163 206 251 302
#     4  10  20  30  49  73 104 137 160 201 261 292
#     4  11  15  26  47  75  99 133 153 197 259 312
#     4  10  16  26  46  70 102 120 168 198 256 288
#
# _framework density 25.438205
#
# number of rings (size 3 to 8) (size 9 to 14) (size 15 to 20)
#    0.000    1.455   10.909    0.000    0.000    0.727 
#    0.000    0.000    0.000    0.000    0.000    1.273 
#   21.818    0.000    0.000    0.000    0.000    0.000 
#
# Total GULP energy -122644.792804 kJ/mol
# GULP energy per Si atom -5574.763309 kJ/mol
# Density = 2.538031 g / cm^3
# Si number density = 25.438205 Si / 1000 Ang^3
#
#
#
# Elastic Constant Matrix: (Units=GPa)
#
#
# Indices 1 2 3 4 5 6 
#
# 1 185.1461 30.5483 68.8916 0.0000 -48.7391 0.0000
# 2 30.5483 66.2212 19.3539 0.0000 -17.4995 0.0000
# 3 68.8916 19.3539 178.3507 0.0000 -35.3135 0.0000
# 4 0.0000 0.0000 0.0000 13.0670 0.0000 -1.4149
# 5 -48.7391 -17.4995 -35.3135 0.0000 61.4715 0.0000
# 6 0.0000 0.0000 0.0000 -1.4149 0.0000 3.9559
#
#
#
# Elastic Compliance Matrix: (Units=1/GPa)
#
#
# Indices 1 2 3 4 5 6 
#
# 1 0.007543 -0.001773 -0.001847 0.000000 0.004415 0.000000
# 2 -0.001773 0.016893 -0.000535 0.000000 0.003096 0.000000
# 3 -0.001847 -0.000535 0.006836 0.000000 0.002310 0.000000
# 4 0.000000 0.000000 0.000000 0.079612 0.000000 0.028475
# 5 0.004415 0.003096 0.002310 0.000000 0.021977 0.000000
# 6 0.000000 0.000000 0.000000 0.028475 0.000000 0.262972
#
#
# Mechanical properties :
#
#
# Convention : Reuss Voigt Hill
#
# Bulk Modulus (GPa) = 43.55169 74.14506 58.84837
# Shear Modulus (GPa) = 12.14186 36.42714 24.28450
#
# Velocity S-wave (km/s) = 2.18711 3.78826 3.09309
# Velocity P-wave (km/s) = 4.85136 6.95306 5.99503
#
# Compressibility (1/GPa) = 0.02296122
#
# Stress axis : x y z
#
# Youngs Moduli (GPa) = 132.56900 59.19457 146.28615
#
# Poissons Ratio (x) = 0.10497 0.27021
# Poissons Ratio (y) = 0.23507 0.07831
# Poissons Ratio (z) = 0.24488 0.03169
#
# Static dielectric constant tensor:
#      x y z
#    x 1.960210 0.000000 -0.052880 
#    y 0.000000 1.633710 0.000000 
#    z -0.052880 0.000000 2.182760 
# 
# From -- ./inp_files/176736.got.cif
#   From: 2010.05.17/outbox.cif.g08.bks.cpg/sg15_89_cif.got.tgz:176736.got - 2010.06.03 18:47:42.
