data_PCOD9254567
_publ_section_title
;
Structure prediction by ZEFSAII (Michael W. Deem and Ramdas Pophale) SiO2 
 PCOD9254567
Probable space group: C 2/C
;
_chemical_formula_sum "Si O2"
_cell_formula_units_Z 56
_cell_length_a 21.513808
_cell_length_b 9.714669
_cell_length_c 18.025164
_cell_angle_alpha 90.000000
_cell_angle_beta 124.980399
_cell_angle_gamma 90.000000
_cell_volume 3086.690139
_symmetry_space_group_name_H-M "C 2/C"
_symmetry_group_IT_number 15
_symmetry_cell_setting 'monoclinic'
loop_
_space_group_symop_operation_xyz
x,y,z
-x,y,1/2-z
-x,-y,-z
x,-y,1/2+z
1/2+x,1/2+y,z
1/2-x,1/2+y,1/2-z
1/2-x,1/2-y,-z
1/2+x,1/2-y,1/2+z
loop_
_atom_site_type_symbol
_atom_site_label
_atom_site_fract_x
_atom_site_fract_y
_atom_site_fract_z
Si Si1 0.965569 0.406758 0.074634
Si Si2 0.208980 0.873157 0.869817
Si Si3 0.108938 0.790736 0.662815
Si Si4 0.717535 0.940283 0.199530
Si Si5 0.348557 0.696802 0.020318
Si Si6 0.120046 0.914903 0.113566
Si Si7 0.078109 0.621771 0.126291
O O1 0.899817 0.331020 0.075874
O O2 0.035344 0.301338 0.120935
O O3 0.007303 0.551380 0.119925
O O4 0.933184 0.415794 0.968781
O O5 0.148839 0.819693 0.768711
O O6 0.167829 0.896822 0.919909
O O7 0.252783 0.995700 0.857501
O O8 0.271096 0.758070 0.933125
O O9 0.170635 0.700606 0.659800
O O10 0.089420 0.935705 0.612671
O O11 0.791658 0.918935 0.300545
O O12 0.658885 0.048717 0.197535
O O13 0.386473 0.617917 0.977789
O O14 0.083648 0.785858 0.132305
#
# Coordination Sequence:
#
# PCOD9254567 Si02
#       7
#     8   8   8   8   8   8   8
#     4   9  18  32  50  77 104 138 174 224 268 324
#     4  10  19  33  52  77 105 141 177 224 268 320
#     4  10  20  30  54  82 104 137 183 224 270 319
#     4  10  16  32  51  79 105 137 180 222 265 314
#     4  10  19  33  52  75 107 141 177 221 271 322
#     4  10  17  31  51  81 103 137 178 228 262 322
#     4   9  17  30  50  75 108 135 174 222 272 305
#
# _framework density 18.142410000000002
#
# number of rings (size 3 to 8) (size 9 to 14) (size 15 to 20)
#    0.000    2.286    4.286    0.857    0.000    2.857 
#    0.000    0.714    0.000    0.000    0.000    6.000 
#    0.000    0.000    0.000    0.000    0.000    0.000 
#
# Total GULP energy -155911.943561 kJ/mol
# GULP energy per Si atom -5568.283699 kJ/mol
# Density = 1.810112 g / cm^3
# Si number density = 18.142410 Si / 1000 Ang^3
#
#
#
# Elastic Constant Matrix: (Units=GPa)
#
#
# Indices 1 2 3 4 5 6 
#
# 1 30.9531 3.9321 27.2850 0.0000 -5.2497 0.0000
# 2 3.9321 82.8893 22.6691 0.0000 -14.2650 0.0000
# 3 27.2850 22.6691 56.8082 0.0000 -3.9005 0.0000
# 4 0.0000 0.0000 0.0000 201.9181 0.0000 224.4760
# 5 -5.2497 -14.2650 -3.9005 0.0000 24.0087 0.0000
# 6 0.0000 0.0000 0.0000 224.4760 0.0000 295.1993
#
#
#
# Elastic Compliance Matrix: (Units=1/GPa)
#
#
# Indices 1 2 3 4 5 6 
#
# 1 0.061643 0.008058 -0.031925 0.000000 0.013080 0.000000
# 2 0.008058 0.015970 -0.009577 0.000000 0.009694 0.000000
# 3 -0.031925 -0.009577 0.036293 0.000000 -0.006775 0.000000
# 4 0.000000 0.000000 0.000000 0.032029 0.000000 -0.024356
# 5 0.013080 0.009694 -0.006775 0.000000 0.049171 0.000000
# 6 0.000000 0.000000 0.000000 -0.024356 0.000000 0.021908
#
#
# Mechanical properties :
#
#
# Convention : Reuss Voigt Hill
#
# Bulk Modulus (GPa) = 21.26854 30.93590 26.10222
# Shear Modulus (GPa) = 16.69035 112.00951 64.34993
#
# Velocity S-wave (km/s) = 3.03638 7.86594 5.96207
# Velocity P-wave (km/s) = 4.90320 9.97929 7.86217
#
# Compressibility (1/GPa) = 0.04701780
#
# Stress axis : x y z
#
# Youngs Moduli (GPa) = 16.22244 62.61877 27.55349
#
# Poissons Ratio (x) = -0.50456 0.87963
# Poissons Ratio (y) = -0.13072 0.26388
# Poissons Ratio (z) = 0.51789 0.59971
#
# Static dielectric constant tensor:
#      x y z
#    x 1.670250 0.000000 0.017020 
#    y 0.000000 1.657980 0.000000 
#    z 0.017020 0.000000 1.627370 
# 
# From -- ./inp_files/213789.got.cif
#   From: 2010.05.17/outbox.cif.g08.bks.cpg/sg15_107_cif.got.tgz:213789.got - 2010.06.03 18:47:42.
