data_PCOD9254915
_publ_section_title
;
Structure prediction by ZEFSAII (Michael W. Deem and Ramdas Pophale) SiO2 
 PCOD9254915
Probable space group: C 2/C
;
_chemical_formula_sum "Si O2"
_cell_formula_units_Z 44
_cell_length_a 20.374202
_cell_length_b 13.270419
_cell_length_c 15.038424
_cell_angle_alpha 90.000000
_cell_angle_beta 25.908368
_cell_angle_gamma 90.000000
_cell_volume 1776.571037
_symmetry_space_group_name_H-M "C 2/C"
_symmetry_group_IT_number 15
_symmetry_cell_setting 'monoclinic'
loop_
_space_group_symop_operation_xyz
x,y,z
-x,y,1/2-z
-x,-y,-z
x,-y,1/2+z
1/2+x,1/2+y,z
1/2-x,1/2+y,1/2-z
1/2-x,1/2-y,-z
1/2+x,1/2-y,1/2+z
loop_
_atom_site_type_symbol
_atom_site_label
_atom_site_fract_x
_atom_site_fract_y
_atom_site_fract_z
Si Si1 0.243262 0.991611 0.504850
Si Si2 0.203660 0.258200 0.844767
Si Si3 0.103231 0.417248 0.825807
Si Si4 0.314227 0.911813 0.087457
Si Si5 0.000000 0.664686 0.750000
Si Si6 0.107955 0.919851 0.823159
O O1 0.381229 0.910957 0.346204
O O2 0.106500 0.933308 0.718710
O O3 0.260926 0.089144 0.549850
O O4 0.251600 0.031724 0.395783
O O5 0.229747 0.150672 0.766917
O O6 0.364420 0.306788 0.679669
O O7 0.094043 0.270542 0.063158
O O8 0.145105 0.324051 0.834100
O O9 0.987942 0.387649 0.887058
O O10 0.000000 0.500000 0.000000
O O11 0.270562 0.029777 0.152126
O O12 0.000000 0.000000 0.000000
#
# Coordination Sequence:
#
# PCOD9254915 Si02
#       6
#     8   8   8   8   4   8
#     4   9  17  36  62  85 114 162 195 237 297 348
#     4  11  23  35  65  89 114 157 203 248 292 347
#     4  12  18  38  65  88 114 154 217 239 272 373
#     4  10  22  36  58  92 116 153 196 249 300 338
#     4  10  16  40  58  86 116 160 200 238 294 358
#     4   9  20  40  56  80 126 156 182 242 314 342
#
# _framework density 24.766811000000001
#
# number of rings (size 3 to 8) (size 9 to 14) (size 15 to 20)
#    1.091    0.727    5.455    0.000    2.545    0.727 
#    0.000    5.455    0.000    0.000    0.000    0.000 
#    0.000    0.000    0.000    0.000    0.000    0.000 
#
# Total GULP energy -122479.030117 kJ/mol
# GULP energy per Si atom -5567.228642 kJ/mol
# Density = 2.471044 g / cm^3
# Si number density = 24.766811 Si / 1000 Ang^3
#
#
#
# Elastic Constant Matrix: (Units=GPa)
#
#
# Indices 1 2 3 4 5 6 
#
# 1 50.5823 25.8393 13.7147 -0.0001 18.1504 0.0001
# 2 25.8393 85.9904 32.0405 -0.0001 24.9277 0.0001
# 3 13.7147 32.0405 111.2496 -0.0001 35.0081 0.0001
# 4 -0.0001 -0.0001 -0.0001 42.2252 0.0001 5.9166
# 5 18.1504 24.9277 35.0081 0.0001 41.5180 -0.0001
# 6 0.0001 0.0001 0.0001 5.9166 -0.0001 34.6083
#
#
#
# Elastic Compliance Matrix: (Units=1/GPa)
#
#
# Indices 1 2 3 4 5 6 
#
# 1 0.025437 -0.005544 0.001242 0.000000 -0.008839 0.000000
# 2 -0.005544 0.015589 -0.002210 0.000000 -0.005073 0.000000
# 3 0.001242 -0.002210 0.012558 0.000000 -0.009805 0.000000
# 4 0.000000 0.000000 0.000000 0.024264 0.000000 -0.004148
# 5 -0.008839 -0.005073 -0.009805 0.000000 0.039263 0.000000
# 6 0.000000 0.000000 0.000000 -0.004148 0.000000 0.029604
#
#
# Mechanical properties :
#
#
# Convention : Reuss Voigt Hill
#
# Bulk Modulus (GPa) = 24.65481 43.44568 34.05025
# Shear Modulus (GPa) = 28.85876 35.41882 32.13879
#
# Velocity S-wave (km/s) = 3.41723 3.78576 3.60621
# Velocity P-wave (km/s) = 5.05434 6.05717 5.57833
#
# Compressibility (1/GPa) = 0.04056003
#
# Stress axis : x y z
#
# Youngs Moduli (GPa) = 39.31321 64.14735 79.63364
#
# Poissons Ratio (x) = 0.35564 -0.09894
# Poissons Ratio (y) = 0.21795 0.17599
# Poissons Ratio (z) = -0.04884 0.14177
#
# Static dielectric constant tensor:
#      x y z
#    x 2.221490 0.000000 0.003950 
#    y 0.000000 1.976630 0.000000 
#    z 0.003950 0.000000 2.139570 
# 
# From -- ./inp_files/168409.got.cif
#   From: 2010.05.17/outbox.cif.g08.bks.cpg/sg15_85_cif.got.tgz:168409.got - 2010.06.03 18:47:42.
