data_PCOD9254530
_publ_section_title
;
Structure prediction by ZEFSAII (Michael W. Deem and Ramdas Pophale) SiO2 
 PCOD9254530
Probable space group: C 2/C
;
_chemical_formula_sum "Si O2"
_cell_formula_units_Z 52
_cell_length_a 19.080778
_cell_length_b 26.761049
_cell_length_c 5.309180
_cell_angle_alpha 90.000000
_cell_angle_beta 91.136849
_cell_angle_gamma 90.000000
_cell_volume 2710.448539
_symmetry_space_group_name_H-M "C 2/C"
_symmetry_group_IT_number 15
_symmetry_cell_setting 'monoclinic'
loop_
_space_group_symop_operation_xyz
x,y,z
-x,y,1/2-z
-x,-y,-z
x,-y,1/2+z
1/2+x,1/2+y,z
1/2-x,1/2+y,1/2-z
1/2-x,1/2-y,-z
1/2+x,1/2-y,1/2+z
loop_
_atom_site_type_symbol
_atom_site_label
_atom_site_fract_x
_atom_site_fract_y
_atom_site_fract_z
Si Si1 0.428247 0.663756 0.347509
Si Si2 0.500000 0.736663 0.750000
Si Si3 0.280658 0.625497 0.305851
Si Si4 0.631705 0.751531 0.507295
Si Si5 0.030746 0.557045 0.498427
Si Si6 0.747474 0.815276 0.291195
Si Si7 0.693318 0.031203 0.473994
O O1 0.500000 0.640081 0.250000
O O2 0.454073 0.698183 0.578800
O O3 0.364054 0.626104 0.370555
O O4 0.397097 0.704690 0.153738
O O5 0.560339 0.769812 0.628801
O O6 0.250291 0.663581 0.511690
O O7 0.245347 0.573741 0.379561
O O8 0.264563 0.645094 0.020094
O O9 0.672319 0.791654 0.345142
O O10 0.692858 0.727753 0.684932
O O11 0.113703 0.551927 0.472495
O O12 0.000000 0.580315 0.750000
O O13 0.000000 0.500000 0.500000
O O14 0.000000 0.582515 0.250000
O O15 0.701921 0.011612 0.760693
#
# Coordination Sequence:
#
# PCOD9254530 Si02
#       7
#     8   4   8   8   8   8   8
#     4   9  19  34  56  87 109 150 198 232 275 327
#     4  10  16  32  56  80 108 154 202 226 264 328
#     4  11  23  38  57  85 119 144 189 247 287 334
#     4   9  19  31  58  80 112 150 191 226 270 344
#     4  10  16  31  56  79  99 126 177 233 262 322
#     4  10  21  36  56  83 116 149 180 229 292 331
#     4  12  22  37  61  85 108 148 192 239 288 344
#
# _framework density 19.185017999999999
#
# number of rings (size 3 to 8) (size 9 to 14) (size 15 to 20)
#    0.000    1.846    4.615    0.923    2.154    1.846 
#    0.000    0.000    5.077    0.923    0.000    0.000 
#    0.000    0.000    0.000    0.000    0.000    0.000 
#
# Total GULP energy -144831.024607 kJ/mol
# GULP energy per Si atom -5570.424023 kJ/mol
# Density = 1.914135 g / cm^3
# Si number density = 19.185018 Si / 1000 Ang^3
#
#
#
# Elastic Constant Matrix: (Units=GPa)
#
#
# Indices 1 2 3 4 5 6 
#
# 1 168.0225 32.7703 7.6664 0.0000 -31.7149 0.0000
# 2 32.7703 21.2531 -2.6479 0.0000 -7.3638 0.0000
# 3 7.6664 -2.6479 70.8570 0.0000 -12.2765 0.0000
# 4 0.0000 0.0000 0.0000 13.2769 0.0000 -10.5792
# 5 -31.7149 -7.3638 -12.2765 0.0000 26.7421 0.0000
# 6 0.0000 0.0000 0.0000 -10.5792 0.0000 24.8741
#
#
#
# Elastic Compliance Matrix: (Units=1/GPa)
#
#
# Indices 1 2 3 4 5 6 
#
# 1 0.009965 -0.012491 -0.000101 0.000000 0.008332 0.000000
# 2 -0.012491 0.069224 0.005078 0.000000 0.006579 0.000000
# 3 -0.000101 0.005078 0.015791 0.000000 0.008527 0.000000
# 4 0.000000 0.000000 0.000000 0.113928 0.000000 0.048455
# 5 0.008332 0.006579 0.008527 0.000000 0.053002 0.000000
# 6 0.000000 0.000000 0.000000 0.048455 0.000000 0.060811
#
#
# Mechanical properties :
#
#
# Convention : Reuss Voigt Hill
#
# Bulk Modulus (GPa) = 12.50744 37.30113 24.90428
# Shear Modulus (GPa) = 13.72118 27.80156 20.76137
#
# Velocity S-wave (km/s) = 2.67723 3.81087 3.29320
# Velocity P-wave (km/s) = 4.01127 6.23287 5.24113
#
# Compressibility (1/GPa) = 0.07995241
#
# Stress axis : x y z
#
# Youngs Moduli (GPa) = 100.35039 14.44579 63.32676
#
# Poissons Ratio (x) = 0.18044 0.00642
# Poissons Ratio (y) = 1.25348 -0.32159
# Poissons Ratio (z) = 0.01017 -0.07336
#
# Static dielectric constant tensor:
#      x y z
#    x 1.685130 0.000000 0.036830 
#    y 0.000000 1.641500 0.000000 
#    z 0.036830 0.000000 1.438320 
# 
# From -- ./inp_files/11838.got.cif
#   From: 2010.05.17/outbox.cif.g08.bks.cpg/sg15_6_cif.got.tgz:11838.got - 2010.06.03 18:47:42.
