data_PCOD9254257
_publ_section_title
;
Structure prediction by ZEFSAII (Michael W. Deem and Ramdas Pophale) SiO2 
 PCOD9254257
Probable space group: C 2/C
;
_chemical_formula_sum "Si O2"
_cell_formula_units_Z 60
_cell_length_a 9.716954
_cell_length_b 23.050603
_cell_length_c 14.552388
_cell_angle_alpha 90.000000
_cell_angle_beta 123.804282
_cell_angle_gamma 90.000000
_cell_volume 2708.431652
_symmetry_space_group_name_H-M "C 2/C"
_symmetry_group_IT_number 15
_symmetry_cell_setting 'monoclinic'
loop_
_space_group_symop_operation_xyz
x,y,z
-x,y,1/2-z
-x,-y,-z
x,-y,1/2+z
1/2+x,1/2+y,z
1/2-x,1/2+y,1/2-z
1/2-x,1/2-y,-z
1/2+x,1/2-y,1/2+z
loop_
_atom_site_type_symbol
_atom_site_label
_atom_site_fract_x
_atom_site_fract_y
_atom_site_fract_z
Si Si1 0.240575 0.548408 0.288121
Si Si2 0.000000 0.650900 0.750000
Si Si3 0.658268 0.925243 0.164551
Si Si4 0.790220 0.438300 0.515767
Si Si5 0.300485 0.731974 0.914310
Si Si6 0.941619 0.124393 0.884632
Si Si7 0.196343 0.851512 0.830086
Si Si8 0.866646 0.060702 0.034600
O O1 0.178858 0.490750 0.212044
O O2 0.160737 0.561402 0.358573
O O3 0.238854 0.604319 0.222326
O O4 0.440556 0.543115 0.378864
O O5 0.023803 0.609450 0.672413
O O6 0.151921 0.693425 0.820153
O O7 0.610392 0.923778 0.039545
O O8 0.829451 0.889459 0.253083
O O9 0.626964 0.398538 0.446096
O O10 0.737285 0.504670 0.481768
O O11 0.445136 0.687766 0.936068
O O12 0.305755 0.794234 0.868978
O O13 0.250000 0.750000 0.000000
O O14 0.853750 0.082158 0.926309
O O15 0.188862 0.887112 0.921652
O O16 0.000000 0.834544 0.750000
#
# Coordination Sequence:
#
# PCOD9254257 Si02
#       8
#     8   4   8   8   8   8   8   8
#     4  10  19  30  55  82 118 146 181 244 295 337
#     4  10  26  40  56  88 116 158 202 232 296 368
#     4  11  20  36  55  79 123 151 183 242 299 357
#     4  11  19  31  55  90 116 146 185 240 306 352
#     4  11  21  38  62  82 118 158 203 247 283 337
#     4  10  19  30  53  86 118 145 189 240 295 349
#     4  10  19  31  54  87 117 150 194 243 283 327
#     4  10  16  28  51  92 115 137 187 238 296 345
#
# _framework density 22.153041999999999
#
# number of rings (size 3 to 8) (size 9 to 14) (size 15 to 20)
#    0.000    1.600    6.000    1.200    0.000    0.000 
#    0.000    0.667    0.000   10.400    0.000    0.000 
#    0.000    0.000    0.000    0.000    0.000    0.000 
#
# Total GULP energy -167478.371819 kJ/mol
# GULP energy per Si atom -5582.612394 kJ/mol
# Density = 2.210262 g / cm^3
# Si number density = 22.153042 Si / 1000 Ang^3
#
#
#
# Elastic Constant Matrix: (Units=GPa)
#
#
# Indices 1 2 3 4 5 6 
#
# 1 56.8561 23.7440 34.0877 0.0000 -26.8699 0.0000
# 2 23.7440 141.8640 15.4831 0.0000 -18.1825 0.0000
# 3 34.0877 15.4831 80.6300 0.0000 -29.3370 0.0000
# 4 0.0000 0.0000 0.0000 13.0834 0.0000 -10.5598
# 5 -26.8699 -18.1825 -29.3370 0.0000 44.0028 0.0000
# 6 0.0000 0.0000 0.0000 -10.5598 0.0000 17.9189
#
#
#
# Elastic Compliance Matrix: (Units=1/GPa)
#
#
# Indices 1 2 3 4 5 6 
#
# 1 0.028461 -0.002493 -0.007400 0.000000 0.011416 0.000000
# 2 -0.002493 0.007672 0.000238 0.000000 0.001807 0.000000
# 3 -0.007400 0.000238 0.018321 0.000000 0.007794 0.000000
# 4 0.000000 0.000000 0.000000 0.145765 0.000000 0.085901
# 5 0.011416 0.001807 0.007794 0.000000 0.035640 0.000000
# 6 0.000000 0.000000 0.000000 0.085901 0.000000 0.106429
#
#
# Mechanical properties :
#
#
# Convention : Reuss Voigt Hill
#
# Bulk Modulus (GPa) = 28.45433 47.33109 37.89271
# Shear Modulus (GPa) = 13.39362 28.73670 21.06516
#
# Velocity S-wave (km/s) = 2.46152 3.60556 3.08700
# Velocity P-wave (km/s) = 4.57724 6.22457 5.46335
#
# Compressibility (1/GPa) = 0.03514404
#
# Stress axis : x y z
#
# Youngs Moduli (GPa) = 35.13586 130.34762 54.58192
#
# Poissons Ratio (x) = 0.32493 0.40391
# Poissons Ratio (y) = 0.08759 -0.01299
# Poissons Ratio (z) = 0.26001 -0.03102
#
# Static dielectric constant tensor:
#      x y z
#    x 1.911460 0.000000 0.013650 
#    y 0.000000 1.804640 0.000000 
#    z 0.013650 0.000000 1.892690 
# 
# From -- ./inp_files/137902.got.cif
#   From: 2010.05.17/outbox.cif.g08.bks.cpg/sg15_69_cif.got.tgz:137902.got - 2010.06.03 18:47:42.
