data_PCOD9254709
_publ_section_title
;
Structure prediction by ZEFSAII (Michael W. Deem and Ramdas Pophale) SiO2 
 PCOD9254709
Probable space group: C 2/C
;
_chemical_formula_sum "Si O2"
_cell_formula_units_Z 52
_cell_length_a 18.788290
_cell_length_b 17.844706
_cell_length_c 8.906264
_cell_angle_alpha 90.000000
_cell_angle_beta 59.637045
_cell_angle_gamma 90.000000
_cell_volume 2576.456552
_symmetry_space_group_name_H-M "C 2/C"
_symmetry_group_IT_number 15
_symmetry_cell_setting 'monoclinic'
loop_
_space_group_symop_operation_xyz
x,y,z
-x,y,1/2-z
-x,-y,-z
x,-y,1/2+z
1/2+x,1/2+y,z
1/2-x,1/2+y,1/2-z
1/2-x,1/2-y,-z
1/2+x,1/2-y,1/2+z
loop_
_atom_site_type_symbol
_atom_site_label
_atom_site_fract_x
_atom_site_fract_y
_atom_site_fract_z
Si Si1 0.500000 0.814295 0.250000
Si Si2 0.000000 0.702989 0.250000
Si Si3 0.387642 0.740693 0.615165
Si Si4 0.622084 0.840582 0.383695
Si Si5 0.715589 0.315718 0.869750
Si Si6 0.000000 0.983761 0.750000
Si Si7 0.792116 0.893003 0.289655
Si Si8 0.617029 0.452896 0.869388
O O1 0.442676 0.767148 0.420730
O O2 0.567743 0.851323 0.291250
O O3 0.945919 0.754442 0.198416
O O4 0.941372 0.651649 0.412398
O O5 0.309199 0.794453 0.729677
O O6 0.350770 0.659401 0.627857
O O7 0.660739 0.756580 0.376403
O O8 0.700843 0.893681 0.317715
O O9 0.680152 0.386254 0.820977
O O10 0.712367 0.345560 0.047371
O O11 0.050623 0.935347 0.813356
O O12 0.063907 0.031381 0.578029
O O13 0.834118 0.973591 0.239762
#
# Coordination Sequence:
#
# PCOD9254709 Si02
#       8
#     4   4   8   8   8   4   8   8
#     4  10  24  37  54 104 118 149 180 262 310 337
#     4  10  16  33  64  90 106 153 184 260 284 337
#     4  10  21  37  64  86 120 146 203 240 298 341
#     4  10  21  37  64  86 120 146 203 240 298 341
#     4  11  21  40  61  90 111 165 201 240 277 370
#     4  10  24  40  50  92 120 166 184 234 278 370
#     4  11  21  40  61  90 111 165 201 240 277 370
#     4  11  24  38  62  81 130 154 198 235 296 336
#
# _framework density 20.182759000000001
#
# number of rings (size 3 to 8) (size 9 to 14) (size 15 to 20)
#    0.000    1.538    4.615    0.923    0.000   12.308 
#    0.000    0.000    0.000    5.538    0.000    0.000 
#    0.000    0.000    0.000    0.000    0.000    0.000 
#
# Total GULP energy -145020.432866 kJ/mol
# GULP energy per Si atom -5577.708956 kJ/mol
# Density = 2.013682 g / cm^3
# Si number density = 20.182759 Si / 1000 Ang^3
#
#
#
# Elastic Constant Matrix: (Units=GPa)
#
#
# Indices 1 2 3 4 5 6 
#
# 1 154.2406 32.4790 57.0323 0.0000 -0.4381 0.0000
# 2 32.4790 50.8125 16.7859 0.0000 -10.3479 0.0000
# 3 57.0323 16.7859 92.1372 0.0000 -5.2408 0.0000
# 4 0.0000 0.0000 0.0000 4.9592 0.0000 11.8067
# 5 -0.4381 -10.3479 -5.2408 0.0000 33.6104 0.0000
# 6 0.0000 0.0000 0.0000 11.8067 0.0000 -4.1427
#
#
#
# Elastic Compliance Matrix: (Units=1/GPa)
#
#
# Indices 1 2 3 4 5 6 
#
# 1 0.009337 -0.004736 -0.005038 0.000000 -0.002122 0.000000
# 2 -0.004736 0.024573 -0.001128 0.000000 0.007328 0.000000
# 3 -0.005038 -0.001128 0.014280 0.000000 0.001814 0.000000
# 4 0.000000 0.000000 0.000000 0.025901 0.000000 0.073818
# 5 -0.002122 0.007328 0.001814 0.000000 0.032264 0.000000
# 6 0.000000 0.000000 0.000000 0.073818 0.000000 -0.031006
#
#
# Mechanical properties :
#
#
# Convention : Reuss Voigt Hill
#
# Bulk Modulus (GPa) = 37.89874 56.64273 47.27073
# Shear Modulus (GPa) = 47.19253 19.61159 33.40206
#
# Velocity S-wave (km/s) = 4.84080 3.12059 4.07256
# Velocity P-wave (km/s) = 7.07552 6.41171 6.75178
#
# Compressibility (1/GPa) = 0.02638610
#
# Stress axis : x y z
#
# Youngs Moduli (GPa) = 107.09592 40.69568 70.02642
#
# Poissons Ratio (x) = 0.19275 0.35277
# Poissons Ratio (y) = 0.50725 0.07900
# Poissons Ratio (z) = 0.53951 0.04591
#
# Static dielectric constant tensor:
#      x y z
#    x 1.750420 0.000000 0.025850 
#    y 0.000000 1.683830 0.000000 
#    z 0.025850 0.000000 1.760580 
# 
# From -- ./inp_files/48488.got.cif
#   From: 2010.05.17/outbox.cif.g08.bks.cpg/sg15_25_cif.got.tgz:48488.got - 2010.06.03 18:47:42.
