data_PCOD9254423
_publ_section_title
;
Structure prediction by ZEFSAII (Michael W. Deem and Ramdas Pophale) SiO2 
 PCOD9254423
Probable space group: C 2/C
;
_chemical_formula_sum "Si O2"
_cell_formula_units_Z 60
_cell_length_a 11.008510
_cell_length_b 8.433002
_cell_length_c 27.517597
_cell_angle_alpha 90.000000
_cell_angle_beta 49.980414
_cell_angle_gamma 90.000000
_cell_volume 1956.368231
_symmetry_space_group_name_H-M "C 2/C"
_symmetry_group_IT_number 15
_symmetry_cell_setting 'monoclinic'
loop_
_space_group_symop_operation_xyz
x,y,z
-x,y,1/2-z
-x,-y,-z
x,-y,1/2+z
1/2+x,1/2+y,z
1/2-x,1/2+y,1/2-z
1/2-x,1/2-y,-z
1/2+x,1/2-y,1/2+z
loop_
_atom_site_type_symbol
_atom_site_label
_atom_site_fract_x
_atom_site_fract_y
_atom_site_fract_z
Si Si1 0.381174 0.550915 0.988224
Si Si2 0.768930 0.411327 0.216543
Si Si3 0.654614 0.131114 0.118185
Si Si4 0.049762 0.333505 0.418306
Si Si5 0.978392 0.043007 0.648518
Si Si6 0.090702 0.683857 0.450356
Si Si7 0.500000 0.839986 0.750000
Si Si8 0.644056 0.311656 0.683579
O O1 0.445506 0.480592 0.921436
O O2 0.423826 0.739364 0.977317
O O3 0.500000 0.500000 0.000000
O O4 0.210061 0.533467 0.056847
O O5 0.925448 0.350020 0.146646
O O6 0.707534 0.441626 0.288014
O O7 0.638225 0.281818 0.232069
O O8 0.736731 0.580248 0.199142
O O9 0.811138 0.211389 0.101556
O O10 0.548503 0.281124 0.131297
O O11 0.556880 0.063094 0.188482
O O12 0.099680 0.503425 0.430025
O O13 0.901521 0.300499 0.493191
O O14 0.057011 0.937517 0.670170
O O15 0.226294 0.771670 0.384067
O O16 0.500000 0.235277 0.750000
#
# Coordination Sequence:
#
# PCOD9254423 Si02
#       8
#     8   8   8   8   8   8   4   8
#     4  11  24  34  44  68 113 146 158 186 250 310
#     4   8  11  23  48  77  98 109 151 215 262 272
#     4   9  15  30  55  78  89 126 173 215 240 285
#     4   8  13  25  52  80  98 113 161 219 261 269
#     4  10  16  30  54  76  94 125 172 210 236 290
#     4   9  16  29  50  73 100 133 157 203 250 291
#     4   8  10  22  50  78  88 108 160 218 248 262
#     4   9  14  28  57  79  93 118 166 217 253 282
#
# _framework density 30.669070000000001
#
# number of rings (size 3 to 8) (size 9 to 14) (size 15 to 20)
#    0.000    2.933    6.000    0.400    0.000    0.000 
#    0.000    0.667   36.667    0.000    0.000    0.000 
#    0.000    0.000    0.000    0.000    0.000    0.000 
#
# Total GULP energy -167748.202022 kJ/mol
# GULP energy per Si atom -5591.606734 kJ/mol
# Density = 3.059927 g / cm^3
# Si number density = 30.669070 Si / 1000 Ang^3
#
#
#
# Elastic Constant Matrix: (Units=GPa)
#
#
# Indices 1 2 3 4 5 6 
#
# 1 66.6953 24.8461 51.9579 0.0000 -4.7243 0.0000
# 2 24.8461 77.8452 41.9810 0.0000 2.0853 0.0000
# 3 51.9579 41.9810 411.9494 0.0000 -13.2107 0.0000
# 4 0.0000 0.0000 0.0000 70.5967 0.0000 1.4001
# 5 -4.7243 2.0853 -13.2107 0.0000 62.1116 0.0000
# 6 0.0000 0.0000 0.0000 1.4001 0.0000 44.4369
#
#
#
# Elastic Compliance Matrix: (Units=1/GPa)
#
#
# Indices 1 2 3 4 5 6 
#
# 1 0.018285 -0.004914 -0.001768 0.000000 0.001180 0.000000
# 2 -0.004914 0.014949 -0.000938 0.000000 -0.001075 0.000000
# 3 -0.001768 -0.000938 0.002762 0.000000 0.000484 0.000000
# 4 0.000000 0.000000 0.000000 0.014174 0.000000 -0.000447
# 5 0.001180 -0.001075 0.000484 0.000000 0.016329 0.000000
# 6 0.000000 0.000000 0.000000 -0.000447 0.000000 0.022518
#
#
# Mechanical properties :
#
#
# Convention : Reuss Voigt Hill
#
# Bulk Modulus (GPa) = 48.17989 88.22888 68.20439
# Shear Modulus (GPa) = 44.97413 64.60938 54.79176
#
# Velocity S-wave (km/s) = 3.83356 4.59482 4.23134
# Velocity P-wave (km/s) = 5.94463 7.54853 6.79407
#
# Compressibility (1/GPa) = 0.02075555
#
# Stress axis : x y z
#
# Youngs Moduli (GPa) = 54.68990 66.89294 362.11505
#
# Poissons Ratio (x) = 0.32874 0.64006
# Poissons Ratio (y) = 0.26877 0.33970
# Poissons Ratio (z) = 0.09667 0.06275
#
# Static dielectric constant tensor:
#      x y z
#    x 2.446040 0.000000 0.008990 
#    y 0.000000 2.498710 0.000000 
#    z 0.008990 0.000000 2.487370 
# 
# From -- ./inp_files/315890.got.cif
#   From: 2010.05.17/outbox.cif.g08.bks.cpg/sg15_158_cif.got.tgz:315890.got - 2010.06.03 18:47:42.
