data_PCOD9254271
_publ_section_title
;
Structure prediction by ZEFSAII (Michael W. Deem and Ramdas Pophale) SiO2 
 PCOD9254271
Probable space group: C 2/C
;
_chemical_formula_sum "Si O2"
_cell_formula_units_Z 52
_cell_length_a 18.357280
_cell_length_b 8.806387
_cell_length_c 16.140344
_cell_angle_alpha 90.000000
_cell_angle_beta 70.309697
_cell_angle_gamma 90.000000
_cell_volume 2456.698910
_symmetry_space_group_name_H-M "C 2/C"
_symmetry_group_IT_number 15
_symmetry_cell_setting 'monoclinic'
loop_
_space_group_symop_operation_xyz
x,y,z
-x,y,1/2-z
-x,-y,-z
x,-y,1/2+z
1/2+x,1/2+y,z
1/2-x,1/2+y,1/2-z
1/2-x,1/2-y,-z
1/2+x,1/2-y,1/2+z
loop_
_atom_site_type_symbol
_atom_site_label
_atom_site_fract_x
_atom_site_fract_y
_atom_site_fract_z
Si Si1 0.886281 0.415776 0.385412
Si Si2 0.500000 0.141817 0.250000
Si Si3 0.635559 0.654456 0.708857
Si Si4 0.413158 0.595730 0.962597
Si Si5 0.917517 0.838679 0.741064
Si Si6 0.249605 0.855451 0.918773
Si Si7 0.009447 0.766671 0.550567
O O1 0.949798 0.533289 0.327220
O O2 0.882280 0.277659 0.321039
O O3 0.806264 0.504769 0.416800
O O4 0.921538 0.348751 0.456491
O O5 0.435790 0.246406 0.229988
O O6 0.611839 0.625369 0.621659
O O7 0.634298 0.488786 0.750429
O O8 0.713031 0.755972 0.670229
O O9 0.455631 0.435093 0.950264
O O10 0.338379 0.590620 0.051066
O O11 0.467555 0.727293 0.978805
O O12 0.944296 0.753493 0.647553
O O13 0.000000 0.889439 0.750000
O O14 0.250000 0.750000 0.000000
#
# Coordination Sequence:
#
# PCOD9254271 Si02
#       7
#     8   4   8   8   8   8   8
#     4  10  18  33  57  81 101 140 195 231 260 328
#     4  10  16  28  54  80  98 132 188 232 262 310
#     4  10  17  32  55  75 105 143 184 218 268 341
#     4  10  19  35  51  80 114 143 170 229 293 327
#     4  10  16  32  55  80  98 135 195 229 257 321
#     4   9  21  35  50  78 113 145 178 217 278 345
#     4  10  19  32  57  82 108 135 184 241 276 316
#
# _framework density 21.166613999999999
#
# number of rings (size 3 to 8) (size 9 to 14) (size 15 to 20)
#    0.000    2.154    6.154    0.000    0.000    0.615 
#    0.000    8.462    0.000    0.000    0.000    0.000 
#    0.000    0.000    0.000    0.000    0.000    0.000 
#
# Total GULP energy -144989.759408 kJ/mol
# GULP energy per Si atom -5576.529208 kJ/mol
# Density = 2.111844 g / cm^3
# Si number density = 21.166614 Si / 1000 Ang^3
#
#
#
# Elastic Constant Matrix: (Units=GPa)
#
#
# Indices 1 2 3 4 5 6 
#
# 1 40.9448 14.9019 21.2618 0.0000 -8.7511 0.0000
# 2 14.9019 92.1309 7.5798 0.0000 -7.2493 0.0000
# 3 21.2618 7.5798 41.6415 0.0000 -8.0770 0.0000
# 4 0.0000 0.0000 0.0000 26.0052 0.0000 -11.5194
# 5 -8.7511 -7.2493 -8.0770 0.0000 20.5630 0.0000
# 6 0.0000 0.0000 0.0000 -11.5194 0.0000 26.2858
#
#
#
# Elastic Compliance Matrix: (Units=1/GPa)
#
#
# Indices 1 2 3 4 5 6 
#
# 1 0.035816 -0.003873 -0.016119 0.000000 0.007546 0.000000
# 2 -0.003873 0.011656 0.000361 0.000000 0.002602 0.000000
# 3 -0.016119 0.000361 0.033419 0.000000 0.006394 0.000000
# 4 0.000000 0.000000 0.000000 0.047717 0.000000 0.020911
# 5 0.007546 0.002602 0.006394 0.000000 0.055271 0.000000
# 6 0.000000 0.000000 0.000000 0.020911 0.000000 0.047207
#
#
# Mechanical properties :
#
#
# Convention : Reuss Voigt Hill
#
# Bulk Modulus (GPa) = 24.02209 29.13380 26.57794
# Shear Modulus (GPa) = 17.59177 23.30239 20.44708
#
# Velocity S-wave (km/s) = 2.88602 3.32159 3.11144
# Velocity P-wave (km/s) = 4.74122 5.33896 5.04894
#
# Compressibility (1/GPa) = 0.04162836
#
# Stress axis : x y z
#
# Youngs Moduli (GPa) = 27.92079 85.79498 29.92302
#
# Poissons Ratio (x) = 0.33230 0.48232
# Poissons Ratio (y) = 0.10814 -0.01080
# Poissons Ratio (z) = 0.45004 -0.03096
#
# Static dielectric constant tensor:
#      x y z
#    x 1.794750 0.000000 0.012590 
#    y 0.000000 1.797090 0.000000 
#    z 0.012590 0.000000 1.810640 
# 
# From -- ./inp_files/213321.got.cif
#   From: 2010.05.17/outbox.cif.g08.bks.cpg/sg15_107_cif.got.tgz:213321.got - 2010.06.03 18:47:42.
