data_PCOD9254998
_publ_section_title
;
Structure prediction by ZEFSAII (Michael W. Deem and Ramdas Pophale) SiO2 
 PCOD9254998
Probable space group: C 2/C
;
_chemical_formula_sum "Si O2"
_cell_formula_units_Z 48
_cell_length_a 24.862249
_cell_length_b 16.088019
_cell_length_c 24.312468
_cell_angle_alpha 90.000000
_cell_angle_beta 161.189778
_cell_angle_gamma 90.000000
_cell_volume 3135.549352
_symmetry_space_group_name_H-M "C 2/C"
_symmetry_group_IT_number 15
_symmetry_cell_setting 'monoclinic'
loop_
_space_group_symop_operation_xyz
x,y,z
-x,y,1/2-z
-x,-y,-z
x,-y,1/2+z
1/2+x,1/2+y,z
1/2-x,1/2+y,1/2-z
1/2-x,1/2-y,-z
1/2+x,1/2-y,1/2+z
loop_
_atom_site_type_symbol
_atom_site_label
_atom_site_fract_x
_atom_site_fract_y
_atom_site_fract_z
Si Si1 0.164557 0.838951 0.746541
Si Si2 0.069287 0.196320 0.378127
Si Si3 0.391744 0.717040 0.903949
Si Si4 0.941271 0.376887 0.251134
Si Si5 0.101970 0.624969 0.576222
Si Si6 0.035968 0.535434 0.952529
O O1 0.273084 0.755667 0.837528
O O2 0.058165 0.834496 0.698902
O O3 0.032748 0.838301 0.569045
O O4 0.290238 0.915430 0.870634
O O5 0.253623 0.159207 0.564366
O O6 0.000000 0.177791 0.250000
O O7 0.061913 0.296648 0.376653
O O8 0.282840 0.665929 0.755692
O O9 0.474309 0.798246 0.956759
O O10 0.000000 0.414500 0.250000
O O11 0.962870 0.437630 0.323311
O O12 0.064638 0.561555 0.491277
O O13 0.080357 0.571715 0.611523
#
# Coordination Sequence:
#
# PCOD9254998 Si02
#       6
#     8   8   8   8   8   8
#     4  10  17  27  43  63  91 120 148 181 213 251
#     4  11  19  28  43  63  89 124 159 176 199 254
#     4   9  17  30  46  62  85 119 151 179 218 263
#     4  11  20  30  44  63  91 123 153 182 214 254
#     4   9  18  31  47  66  90 117 147 183 221 264
#     4  10  19  30  44  67  94 117 145 183 225 257
#
# _framework density 15.308322
#
# number of rings (size 3 to 8) (size 9 to 14) (size 15 to 20)
#    0.000    2.000    0.000    9.000    0.000    0.667 
#    0.000    3.333    0.000    0.000    0.000    1.167 
#    0.000    0.000    0.000    0.000    0.000    0.000 
#
# Total GULP energy -133865.409993 kJ/mol
# GULP energy per Si atom -5577.725416 kJ/mol
# Density = 1.527348 g / cm^3
# Si number density = 15.308322 Si / 1000 Ang^3
#
#
#
# Elastic Constant Matrix: (Units=GPa)
#
#
# Indices 1 2 3 4 5 6 
#
# 1 65.4508 29.8001 31.5959 -0.0034 -15.2927 -0.0007
# 2 29.8001 63.6571 38.6093 -0.0049 -19.6392 -0.0018
# 3 31.5959 38.6093 96.6221 -0.0054 -11.0185 -0.0024
# 4 -0.0034 -0.0049 -0.0054 13.9791 -0.0031 -7.5660
# 5 -15.2927 -19.6392 -11.0185 -0.0031 20.7681 -0.0008
# 6 -0.0007 -0.0018 -0.0024 -7.5660 -0.0008 14.8811
#
#
#
# Elastic Compliance Matrix: (Units=1/GPa)
#
#
# Indices 1 2 3 4 5 6 
#
# 1 0.021583 -0.004780 -0.004099 0.000006 0.009198 0.000003
# 2 -0.004780 0.028583 -0.007640 0.000016 0.019456 0.000011
# 3 -0.004099 -0.007640 0.014449 0.000003 -0.002577 0.000002
# 4 0.000006 0.000016 0.000003 0.098695 0.000038 0.050179
# 5 0.009198 0.019456 -0.002577 0.000038 0.071955 0.000026
# 6 0.000003 0.000011 0.000002 0.050179 0.000026 0.092712
#
#
# Mechanical properties :
#
#
# Convention : Reuss Voigt Hill
#
# Bulk Modulus (GPa) = 31.66787 47.30451 39.48619
# Shear Modulus (GPa) = 13.45755 18.30731 15.88243
#
# Velocity S-wave (km/s) = 2.96818 3.46194 3.22452
# Velocity P-wave (km/s) = 5.69898 6.85188 6.30185
#
# Compressibility (1/GPa) = 0.03157775
#
# Stress axis : x y z
#
# Youngs Moduli (GPa) = 46.33331 34.98575 69.20987
#
# Poissons Ratio (x) = 0.16723 0.28367
# Poissons Ratio (y) = 0.22147 0.52874
# Poissons Ratio (z) = 0.18991 0.26728
#
# Static dielectric constant tensor:
#      x y z
#    x 1.528310 0.000000 0.004320 
#    y 0.000000 1.494180 0.000000 
#    z 0.004320 0.000000 1.550900 
# 
# From -- ./inp_files/61189.got.cif
#   From: 2010.05.17/outbox.cif.g08.bks.cpg/sg15_31_cif.got.tgz:61189.got - 2010.06.03 18:47:42.
