data_PCOD9254605
_publ_section_title
;
Structure prediction by ZEFSAII (Michael W. Deem and Ramdas Pophale) SiO2 
 PCOD9254605
Probable space group: C 2/C
;
_chemical_formula_sum "Si O2"
_cell_formula_units_Z 60
_cell_length_a 11.997255
_cell_length_b 14.145314
_cell_length_c 22.339701
_cell_angle_alpha 90.000000
_cell_angle_beta 129.265298
_cell_angle_gamma 90.000000
_cell_volume 2935.204002
_symmetry_space_group_name_H-M "C 2/C"
_symmetry_group_IT_number 15
_symmetry_cell_setting 'monoclinic'
loop_
_space_group_symop_operation_xyz
x,y,z
-x,y,1/2-z
-x,-y,-z
x,-y,1/2+z
1/2+x,1/2+y,z
1/2-x,1/2+y,1/2-z
1/2-x,1/2-y,-z
1/2+x,1/2-y,1/2+z
loop_
_atom_site_type_symbol
_atom_site_label
_atom_site_fract_x
_atom_site_fract_y
_atom_site_fract_z
Si Si1 0.767343 0.061921 0.297194
Si Si2 0.050644 0.265250 0.353357
Si Si3 0.472510 0.731774 0.613122
Si Si4 0.280853 0.687818 0.195112
Si Si5 0.996756 0.832509 0.949623
Si Si6 0.753781 0.565953 0.606667
Si Si7 0.500000 0.192953 0.250000
Si Si8 0.781553 0.132090 0.471894
O O1 0.766941 0.088228 0.226518
O O2 0.919426 0.096566 0.376580
O O3 0.635195 0.126079 0.278333
O O4 0.750021 0.961558 0.324312
O O5 0.148351 0.193169 0.346492
O O6 0.110085 0.368368 0.358940
O O7 0.890380 0.247405 0.274425
O O8 0.058458 0.246373 0.426708
O O9 0.628423 0.759601 0.641911
O O10 0.474888 0.741260 0.684842
O O11 0.362610 0.816016 0.557744
O O12 0.398448 0.636446 0.564493
O O13 0.865842 0.807549 0.949305
O O14 0.116504 0.880506 0.031682
O O15 0.753831 0.467863 0.569624
#
# Coordination Sequence:
#
# PCOD9254605 Si02
#       8
#     8   8   8   8   8   8   4   8
#     4   9  18  32  55  85 114 147 203 251 300 350
#     4  10  21  37  58  87 119 167 201 248 309 375
#     4  10  19  34  60  84 119 159 205 258 311 367
#     4   9  20  37  55  85 122 157 196 249 319 372
#     4  10  19  35  58  86 121 157 204 248 301 366
#     4  11  20  34  57  90 120 152 210 257 292 354
#     4  10  16  32  54  86 108 152 196 250 300 368
#     4  10  20  35  58  93 117 154 213 259 307 359
#
# _framework density 20.441507999999999
#
# number of rings (size 3 to 8) (size 9 to 14) (size 15 to 20)
#    0.000    2.133    2.667    2.800    0.000    1.067 
#    0.000    0.000    0.000   15.200    0.000    0.000 
#    0.000    0.000    0.000    0.000    0.000    0.000 
#
# Total GULP energy -167131.398930 kJ/mol
# GULP energy per Si atom -5571.046631 kJ/mol
# Density = 2.039498 g / cm^3
# Si number density = 20.441508 Si / 1000 Ang^3
#
#
#
# Elastic Constant Matrix: (Units=GPa)
#
#
# Indices 1 2 3 4 5 6 
#
# 1 100.4530 36.5900 42.5093 0.0000 7.6702 0.0000
# 2 36.5900 68.5212 34.0226 0.0000 -5.0189 0.0000
# 3 42.5093 34.0226 75.9418 0.0000 -0.6884 0.0000
# 4 0.0000 0.0000 0.0000 34.8790 0.0000 -9.9822
# 5 7.6702 -5.0189 -0.6884 0.0000 38.9448 0.0000
# 6 0.0000 0.0000 0.0000 -9.9822 0.0000 32.4232
#
#
#
# Elastic Compliance Matrix: (Units=1/GPa)
#
#
# Indices 1 2 3 4 5 6 
#
# 1 0.014602 -0.005131 -0.005908 0.000000 -0.003641 0.000000
# 2 -0.005131 0.020775 -0.006403 0.000000 0.003575 0.000000
# 3 -0.005908 -0.006403 0.019350 0.000000 0.000680 0.000000
# 4 0.000000 0.000000 0.000000 0.031441 0.000000 0.009680
# 5 -0.003641 0.003575 0.000680 0.000000 0.026867 0.000000
# 6 0.000000 0.000000 0.000000 0.009680 0.000000 0.033822
#
#
# Mechanical properties :
#
#
# Convention : Reuss Voigt Hill
#
# Bulk Modulus (GPa) = 50.39478 52.35107 51.37292
# Shear Modulus (GPa) = 26.54568 30.03567 28.29067
#
# Velocity S-wave (km/s) = 3.60754 3.83736 3.72423
# Velocity P-wave (km/s) = 6.48530 6.73050 6.60904
#
# Compressibility (1/GPa) = 0.01984333
#
# Stress axis : x y z
#
# Youngs Moduli (GPa) = 68.48416 48.13522 51.67999
#
# Poissons Ratio (x) = 0.24696 0.30533
# Poissons Ratio (y) = 0.35136 0.33091
# Poissons Ratio (z) = 0.40461 0.30821
#
# Static dielectric constant tensor:
#      x y z
#    x 1.771290 0.000000 -0.013290 
#    y 0.000000 1.756950 0.000000 
#    z -0.013290 0.000000 1.800270 
# 
# From -- ./inp_files/269973.got.cif
#   From: 2010.05.17/outbox.cif.g08.bks.cpg/sg15_135_cif.got.tgz:269973.got - 2010.06.03 18:47:42.
