data_PCOD9254192
_publ_section_title
;
Structure prediction by ZEFSAII (Michael W. Deem and Ramdas Pophale) SiO2 
 PCOD9254192
Probable space group: C 2/C
;
_chemical_formula_sum "Si O2"
_cell_formula_units_Z 40
_cell_length_a 14.399842
_cell_length_b 7.145678
_cell_length_c 27.602997
_cell_angle_alpha 90.000000
_cell_angle_beta 145.498723
_cell_angle_gamma 90.000000
_cell_volume 1608.790590
_symmetry_space_group_name_H-M "C 2/C"
_symmetry_group_IT_number 15
_symmetry_cell_setting 'monoclinic'
loop_
_space_group_symop_operation_xyz
x,y,z
-x,y,1/2-z
-x,-y,-z
x,-y,1/2+z
1/2+x,1/2+y,z
1/2-x,1/2+y,1/2-z
1/2-x,1/2-y,-z
1/2+x,1/2-y,1/2+z
loop_
_atom_site_type_symbol
_atom_site_label
_atom_site_fract_x
_atom_site_fract_y
_atom_site_fract_z
Si Si1 0.440000 0.566886 0.278721
Si Si2 0.105285 0.571953 0.344280
Si Si3 0.790730 0.469420 0.242915
Si Si4 0.739513 0.805550 0.550758
Si Si5 0.909207 0.837954 0.930648
O O1 0.500000 0.534830 0.250000
O O2 0.302472 0.444599 0.246344
O O3 0.354552 0.771316 0.249137
O O4 0.612789 0.549321 0.380602
O O5 0.191084 0.371039 0.388694
O O6 0.254006 0.712229 0.397570
O O7 0.000000 0.573278 0.250000
O O8 0.963167 0.582137 0.323242
O O9 0.667300 0.570329 0.151537
O O10 0.750000 0.750000 0.500000
O O11 0.547110 0.819306 0.480555
O O12 0.000000 0.000000 0.000000
#
# Coordination Sequence:
#
# PCOD9254192 Si02
#       5
#     8   8   8   8   8
#     4  11  22  38  59  86 116 154 195 236 288 347
#     4   8  16  29  48  74 106 140 183 226 275 332
#     4  10  19  35  57  84 115 150 193 239 283 344
#     4  10  16  27  51  82 105 140 188 230 278 333
#     4   9  15  28  52  83 106 142 191 234 282 338
#
# _framework density 24.863396000000002
#
# number of rings (size 3 to 8) (size 9 to 14) (size 15 to 20)
#    0.000    2.400    2.000    6.000    0.000    0.000 
#    0.000    4.000    0.000   24.000    0.000    0.000 
#    0.000    0.000    0.000    0.000    0.000    0.000 
#
# Total GULP energy -111431.663701 kJ/mol
# GULP energy per Si atom -5571.583185 kJ/mol
# Density = 2.480681 g / cm^3
# Si number density = 24.863396 Si / 1000 Ang^3
#
#
#
# Elastic Constant Matrix: (Units=GPa)
#
#
# Indices 1 2 3 4 5 6 
#
# 1 198.0857 42.1551 54.5565 0.0000 39.1008 0.0000
# 2 42.1551 56.4761 18.6514 0.0000 27.1001 0.0001
# 3 54.5565 18.6514 123.7277 0.0000 29.8027 0.0000
# 4 0.0000 0.0000 0.0000 7.7402 0.0000 12.2088
# 5 39.1008 27.1001 29.8027 0.0000 55.9759 0.0000
# 6 0.0000 0.0001 0.0000 12.2088 0.0000 26.8703
#
#
#
# Elastic Compliance Matrix: (Units=1/GPa)
#
#
# Indices 1 2 3 4 5 6 
#
# 1 0.006706 -0.003401 -0.001965 0.000000 -0.001992 0.000000
# 2 -0.003401 0.024878 0.000090 0.000000 -0.009716 0.000000
# 3 -0.001965 0.000090 0.009882 0.000000 -0.003933 0.000000
# 4 0.000000 0.000000 0.000000 0.455995 0.000000 -0.207186
# 5 -0.001992 -0.009716 -0.003933 0.000000 0.026054 0.000000
# 6 0.000000 0.000000 0.000000 -0.207186 0.000000 0.131353
#
#
# Mechanical properties :
#
#
# Convention : Reuss Voigt Hill
#
# Bulk Modulus (GPa) = 32.34671 67.66838 50.00755
# Shear Modulus (GPa) = 7.39946 35.64572 21.52259
#
# Velocity S-wave (km/s) = 1.72699 3.79048 2.94536
# Velocity P-wave (km/s) = 4.12489 6.81411 5.63235
#
# Compressibility (1/GPa) = 0.03091504
#
# Stress axis : x y z
#
# Youngs Moduli (GPa) = 149.11078 40.19604 101.19137
#
# Poissons Ratio (x) = 0.13671 0.19880
# Poissons Ratio (y) = 0.50715 -0.00910
# Poissons Ratio (z) = 0.29294 -0.00361
#
# Static dielectric constant tensor:
#      x y z
#    x 2.068990 0.000000 0.050540 
#    y 0.000000 2.123890 0.000000 
#    z 0.050540 0.000000 1.962490 
# 
# From -- ./inp_files/195741.got.cif
#   From: 2010.05.17/outbox.cif.g08.bks.cpg/sg15_98_cif.got.tgz:195741.got - 2010.06.03 18:47:42.
