data_PCOD9254387
_publ_section_title
;
Structure prediction by ZEFSAII (Michael W. Deem and Ramdas Pophale) SiO2 
 PCOD9254387
Probable space group: C 2/C
;
_chemical_formula_sum "Si O2"
_cell_formula_units_Z 52
_cell_length_a 14.453375
_cell_length_b 21.397991
_cell_length_c 16.247779
_cell_angle_alpha 90.000000
_cell_angle_beta 142.869128
_cell_angle_gamma 90.000000
_cell_volume 3033.280661
_symmetry_space_group_name_H-M "C 2/C"
_symmetry_group_IT_number 15
_symmetry_cell_setting 'monoclinic'
loop_
_space_group_symop_operation_xyz
x,y,z
-x,y,1/2-z
-x,-y,-z
x,-y,1/2+z
1/2+x,1/2+y,z
1/2-x,1/2+y,1/2-z
1/2-x,1/2-y,-z
1/2+x,1/2-y,1/2+z
loop_
_atom_site_type_symbol
_atom_site_label
_atom_site_fract_x
_atom_site_fract_y
_atom_site_fract_z
Si Si1 0.010313 0.047458 0.431772
Si Si2 0.500000 0.951403 0.250000
Si Si3 0.268724 0.505563 0.042333
Si Si4 0.821103 0.243827 0.141837
Si Si5 0.272727 0.888058 0.850925
Si Si6 0.405291 0.066335 0.949568
Si Si7 0.716124 0.874354 0.298235
O O1 0.139742 0.096955 0.550667
O O2 0.851653 0.082046 0.299376
O O3 0.071559 0.011682 0.393108
O O4 0.000000 0.000000 0.500000
O O5 0.562666 0.905830 0.225268
O O6 0.640029 0.991997 0.380273
O O7 0.246511 0.567594 0.082198
O O8 0.211950 0.449781 0.060367
O O9 0.767113 0.180936 0.147902
O O10 0.788713 0.302092 0.179889
O O11 0.000000 0.240299 0.250000
O O12 0.750000 0.250000 0.000000
O O13 0.444329 0.890413 0.935763
O O14 0.298348 0.098334 0.804031
O O15 0.500000 0.000000 0.000000
#
# Coordination Sequence:
#
# PCOD9254387 Si02
#       7
#     8   4   8   8   8   8   8
#     4  11  23  35  53  80 114 139 177 235 289 323
#     4  10  16  30  50  78  98 136 182 212 256 320
#     4  10  20  33  55  75 107 142 181 222 274 331
#     4  12  22  34  53  79 114 153 183 216 274 341
#     4  11  21  35  50  83 113 142 176 225 269 326
#     4  10  19  35  55  75 105 145 188 222 261 326
#     4  11  20  34  52  77 108 151 183 215 272 341
#
# _framework density 17.143153999999999
#
# number of rings (size 3 to 8) (size 9 to 14) (size 15 to 20)
#    0.000    1.231    3.846    6.923    2.154    0.000 
#    0.000    0.000    0.000    0.000    0.000    6.462 
#    0.000    0.000    0.000    0.000    0.000    0.000 
#
# Total GULP energy -144802.452405 kJ/mol
# GULP energy per Si atom -5569.325092 kJ/mol
# Density = 1.710414 g / cm^3
# Si number density = 17.143154 Si / 1000 Ang^3
#
#
#
# Elastic Constant Matrix: (Units=GPa)
#
#
# Indices 1 2 3 4 5 6 
#
# 1 86.6223 45.9265 17.7528 0.0000 -9.0646 0.0000
# 2 45.9265 96.4962 30.2533 0.0000 -16.7650 0.0000
# 3 17.7528 30.2533 99.8639 0.0000 -0.4008 -0.0001
# 4 0.0000 0.0000 0.0000 10.2131 0.0000 -10.9933
# 5 -9.0646 -16.7650 -0.4008 0.0000 24.1831 -0.0001
# 6 0.0000 0.0000 -0.0001 -10.9933 -0.0001 3.4827
#
#
#
# Elastic Compliance Matrix: (Units=1/GPa)
#
#
# Indices 1 2 3 4 5 6 
#
# 1 0.015489 -0.007014 -0.000625 0.000000 0.000933 0.000000
# 2 -0.007014 0.016355 -0.003673 0.000000 0.008649 0.000000
# 3 -0.000625 -0.003673 0.011227 0.000000 -0.002595 0.000000
# 4 0.000000 0.000000 0.000000 -0.040836 0.000000 -0.128902
# 5 0.000933 0.008649 -0.002595 0.000000 0.047654 0.000000
# 6 0.000000 0.000000 0.000000 -0.128902 0.000000 -0.119753
#
#
# Mechanical properties :
#
#
# Convention : Reuss Voigt Hill
#
# Bulk Modulus (GPa) = 48.90576 52.31640 50.61108
# Shear Modulus (GPa) = -123.68788 20.17909 -51.75440
#
# Velocity S-wave (km/s) = -8.50333 3.43460 -5.50046
# Velocity P-wave (km/s) = 8.23523 6.80531 3.27924
#
# Compressibility (1/GPa) = 0.02044749
#
# Stress axis : x y z
#
# Youngs Moduli (GPa) = 64.56334 61.14182 89.07006
#
# Poissons Ratio (x) = 0.42883 0.05566
# Poissons Ratio (y) = 0.45283 0.32718
# Poissons Ratio (z) = 0.04035 0.22459
#
# Static dielectric constant tensor:
#      x y z
#    x -2.610970 0.000020 4.072650 
#    y 0.000020 1.562170 -0.000020 
#    z 4.072650 -0.000020 -2.265920 
# 
# From -- ./inp_files/58570.got.cif
#   From: 2010.05.17/outbox.cif.g08.bks.cpg/sg15_30_cif.got.tgz:58570.got - 2010.06.03 18:47:42.
