data_PCOD9254270
_publ_section_title
;
Structure prediction by ZEFSAII (Michael W. Deem and Ramdas Pophale) SiO2 
 PCOD9254270
Probable space group: C 2/C
;
_chemical_formula_sum "Si O2"
_cell_formula_units_Z 40
_cell_length_a 8.080069
_cell_length_b 26.577283
_cell_length_c 10.266192
_cell_angle_alpha 90.000000
_cell_angle_beta 136.616674
_cell_angle_gamma 90.000000
_cell_volume 1514.305145
_symmetry_space_group_name_H-M "C 2/C"
_symmetry_group_IT_number 15
_symmetry_cell_setting 'monoclinic'
loop_
_space_group_symop_operation_xyz
x,y,z
-x,y,1/2-z
-x,-y,-z
x,-y,1/2+z
1/2+x,1/2+y,z
1/2-x,1/2+y,1/2-z
1/2-x,1/2-y,-z
1/2+x,1/2-y,1/2+z
loop_
_atom_site_type_symbol
_atom_site_label
_atom_site_fract_x
_atom_site_fract_y
_atom_site_fract_z
Si Si1 0.331236 0.984751 0.782085
Si Si2 0.445863 0.218164 0.534864
Si Si3 0.462244 0.690756 0.879762
Si Si4 0.147067 0.390973 0.547494
Si Si5 0.842635 0.088857 0.866882
O O1 0.500000 0.982484 0.750000
O O2 0.135341 0.029541 0.651203
O O3 0.252117 0.929604 0.786930
O O4 0.500000 0.000000 0.000000
O O5 0.250000 0.250000 0.500000
O O6 0.563160 0.260682 0.509742
O O7 0.674415 0.196023 0.741780
O O8 0.319708 0.168300 0.403752
O O9 0.500000 0.694807 0.750000
O O10 0.532640 0.633933 0.957484
O O11 0.246986 0.404214 0.460152
O O12 0.862032 0.398955 0.360399
#
# Coordination Sequence:
#
# PCOD9254270 Si02
#       5
#     8   8   8   8   8
#     4  10  16  28  53  87 121 154 206 262 313 373
#     4  11  21  38  64  90 125 165 213 262 323 389
#     4  11  23  38  60  90 126 167 212 267 324 383
#     4   9  17  30  54  89 113 155 207 259 311 378
#     4   9  16  32  54  81 118 158 204 249 320 382
#
# _framework density 26.414757000000002
#
# number of rings (size 3 to 8) (size 9 to 14) (size 15 to 20)
#    0.000    2.000    6.000    1.200    0.000    0.800 
#    0.000    2.000    0.000    3.600    0.000    0.000 
#    0.000    0.000    0.000    0.000    0.000    0.000 
#
# Total GULP energy -111593.217994 kJ/mol
# GULP energy per Si atom -5579.660900 kJ/mol
# Density = 2.635464 g / cm^3
# Si number density = 26.414757 Si / 1000 Ang^3
#
#
#
# Elastic Constant Matrix: (Units=GPa)
#
#
# Indices 1 2 3 4 5 6 
#
# 1 67.3828 22.0267 20.9969 0.0000 -23.2475 0.0000
# 2 22.0267 303.8803 80.7389 0.0000 -23.3534 0.0000
# 3 20.9969 80.7389 57.2278 0.0000 -19.8900 0.0000
# 4 0.0000 0.0000 0.0000 51.6118 0.0000 -5.5936
# 5 -23.2475 -23.3534 -19.8900 0.0000 48.4363 0.0000
# 6 0.0000 0.0000 0.0000 -5.5936 0.0000 23.4613
#
#
#
# Elastic Compliance Matrix: (Units=1/GPa)
#
#
# Indices 1 2 3 4 5 6 
#
# 1 0.018735 0.000572 -0.005203 0.000000 0.007132 0.000000
# 2 0.000572 0.005296 -0.007814 0.000000 -0.000381 0.000000
# 3 -0.005203 -0.007814 0.032930 0.000000 0.007258 0.000000
# 4 0.000000 0.000000 0.000000 0.019889 0.000000 0.004742
# 5 0.007132 -0.000381 0.007258 0.000000 0.026865 0.000000
# 6 0.000000 0.000000 0.000000 0.004742 0.000000 0.043754
#
#
# Mechanical properties :
#
#
# Convention : Reuss Voigt Hill
#
# Bulk Modulus (GPa) = 31.17989 75.11286 53.14638
# Shear Modulus (GPa) = 27.31477 45.01709 36.16593
#
# Velocity S-wave (km/s) = 3.21919 4.13272 3.70423
# Velocity P-wave (km/s) = 5.06430 7.16032 6.20151
#
# Compressibility (1/GPa) = 0.03207196
#
# Stress axis : x y z
#
# Youngs Moduli (GPa) = 53.37551 188.81181 30.36707
#
# Poissons Ratio (x) = -0.10808 0.15800
# Poissons Ratio (y) = -0.03055 0.23730
# Poissons Ratio (z) = 0.27771 1.47547
#
# Static dielectric constant tensor:
#      x y z
#    x 2.159580 0.000000 0.148870 
#    y 0.000000 2.262480 0.000000 
#    z 0.148870 0.000000 2.251480 
# 
# From -- ./inp_files/79537.got.cif
#   From: 2010.05.17/outbox.cif.g08.bks.cpg/sg15_40_cif.got.tgz:79537.got - 2010.06.03 18:47:42.
