data_PCOD9254272
_publ_section_title
;
Structure prediction by ZEFSAII (Michael W. Deem and Ramdas Pophale) SiO2 
 PCOD9254272
Probable space group: C 2/C
;
_chemical_formula_sum "Si O2"
_cell_formula_units_Z 36
_cell_length_a 10.312903
_cell_length_b 12.537764
_cell_length_c 12.032499
_cell_angle_alpha 90.000000
_cell_angle_beta 108.861943
_cell_angle_gamma 90.000000
_cell_volume 1472.264489
_symmetry_space_group_name_H-M "C 2/C"
_symmetry_group_IT_number 15
_symmetry_cell_setting 'monoclinic'
loop_
_space_group_symop_operation_xyz
x,y,z
-x,y,1/2-z
-x,-y,-z
x,-y,1/2+z
1/2+x,1/2+y,z
1/2-x,1/2+y,1/2-z
1/2-x,1/2-y,-z
1/2+x,1/2-y,1/2+z
loop_
_atom_site_type_symbol
_atom_site_label
_atom_site_fract_x
_atom_site_fract_y
_atom_site_fract_z
Si Si1 0.003253 0.240194 0.873870
Si Si2 0.000000 0.127174 0.250000
Si Si3 0.870165 0.025060 0.543196
Si Si4 0.046077 0.317162 0.115078
Si Si5 0.277976 0.110581 0.656349
O O1 0.858407 0.181516 0.863107
O O2 0.000000 0.285617 0.750000
O O3 0.113977 0.144160 0.908897
O O4 0.044434 0.317867 0.983787
O O5 0.076228 0.200805 0.178752
O O6 0.107589 0.053863 0.346211
O O7 0.752007 0.993311 0.425262
O O8 0.000000 0.000000 0.500000
O O9 0.144975 0.399866 0.204395
O O10 0.890548 0.329772 0.113239
#
# Coordination Sequence:
#
# PCOD9254272 Si02
#       5
#     8   4   8   8   8
#     4  11  21  34  56  91 121 148 192 248 299 334
#     4  10  16  28  54  82 110 140 196 232 284 328
#     4  10  18  31  53  88 116 147 192 246 283 329
#     4  10  21  34  58  86 114 161 192 235 293 351
#     4   9  20  36  57  83 119 156 201 237 276 361
#
# _framework density 24.452128999999999
#
# number of rings (size 3 to 8) (size 9 to 14) (size 15 to 20)
#    0.000    2.222    5.556    0.667    3.111    0.889 
#    0.000    0.000    0.000    5.333    5.778    0.000 
#    0.000    0.000    0.000    0.000    0.000    0.000 
#
# Total GULP energy -100540.242004 kJ/mol
# GULP energy per Si atom -5585.569000 kJ/mol
# Density = 2.439647 g / cm^3
# Si number density = 24.452129 Si / 1000 Ang^3
#
#
#
# Elastic Constant Matrix: (Units=GPa)
#
#
# Indices 1 2 3 4 5 6 
#
# 1 73.8911 17.0706 44.2072 0.0000 7.8998 0.0000
# 2 17.0706 17.9715 43.7928 0.0000 4.1399 0.0000
# 3 44.2072 43.7928 251.6995 0.0000 -1.0621 0.0000
# 4 0.0000 0.0000 0.0000 -13.8319 0.0000 -12.4712
# 5 7.8998 4.1399 -1.0621 0.0000 28.3487 0.0000
# 6 0.0000 0.0000 0.0000 -12.4712 0.0000 4.6289
#
#
#
# Elastic Compliance Matrix: (Units=1/GPa)
#
#
# Indices 1 2 3 4 5 6 
#
# 1 0.017552 -0.014750 -0.000528 0.000000 -0.002757 0.000000
# 2 -0.014750 0.115572 -0.017574 0.000000 -0.013426 0.000000
# 3 -0.000528 -0.017574 0.007136 0.000000 0.002981 0.000000
# 4 0.000000 0.000000 0.000000 -0.021083 0.000000 -0.056801
# 5 -0.002757 -0.013426 0.002981 0.000000 0.038116 0.000000
# 6 0.000000 0.000000 0.000000 -0.056801 0.000000 0.062999
#
#
# Mechanical properties :
#
#
# Convention : Reuss Voigt Hill
#
# Bulk Modulus (GPa) = 13.41292 61.52259 37.46776
# Shear Modulus (GPa) = 16.08502 19.72858 17.90680
#
# Velocity S-wave (km/s) = 2.56758 2.84355 2.70908
# Velocity P-wave (km/s) = 3.77984 5.99967 5.01414
#
# Compressibility (1/GPa) = 0.07455497
#
# Stress axis : x y z
#
# Youngs Moduli (GPa) = 56.97461 8.65259 140.13444
#
# Poissons Ratio (x) = 0.12763 0.07398
# Poissons Ratio (y) = 0.84040 2.46275
# Poissons Ratio (z) = 0.03008 0.15206
#
# Static dielectric constant tensor:
#      x y z
#    x 1.996380 0.000000 0.035440 
#    y 0.000000 2.018170 0.000000 
#    z 0.035440 0.000000 2.040620 
# 
# From -- ./inp_files/85784.got.cif
#   From: 2010.05.17/outbox.cif.g08.bks.cpg/sg15_43_cif.got.tgz:85784.got - 2010.06.03 18:47:42.
