data_PCOD9254924
_publ_section_title
;
Structure prediction by ZEFSAII (Michael W. Deem and Ramdas Pophale) SiO2 
 PCOD9254924
Probable space group: C 2/C
;
_chemical_formula_sum "Si O2"
_cell_formula_units_Z 60
_cell_length_a 25.885010
_cell_length_b 13.776637
_cell_length_c 8.515634
_cell_angle_alpha 90.000000
_cell_angle_beta 44.134355
_cell_angle_gamma 90.000000
_cell_volume 2114.617975
_symmetry_space_group_name_H-M "C 2/C"
_symmetry_group_IT_number 15
_symmetry_cell_setting 'monoclinic'
loop_
_space_group_symop_operation_xyz
x,y,z
-x,y,1/2-z
-x,-y,-z
x,-y,1/2+z
1/2+x,1/2+y,z
1/2-x,1/2+y,1/2-z
1/2-x,1/2-y,-z
1/2+x,1/2-y,1/2+z
loop_
_atom_site_type_symbol
_atom_site_label
_atom_site_fract_x
_atom_site_fract_y
_atom_site_fract_z
Si Si1 0.231447 0.134933 0.051029
Si Si2 0.736151 0.112199 0.191019
Si Si3 0.573564 0.914107 0.041344
Si Si4 0.258169 0.336969 0.309786
Si Si5 0.607558 0.826271 0.287624
Si Si6 0.961548 0.142431 0.031448
Si Si7 0.500000 0.470960 0.750000
Si Si8 0.921323 0.685736 0.303476
O O1 0.214768 0.108035 0.906101
O O2 0.320635 0.108560 0.871663
O O3 0.250000 0.250000 0.000000
O O4 0.211614 0.102790 0.271492
O O5 0.659046 0.053523 0.364852
O O6 0.709303 0.227411 0.252337
O O7 0.772956 0.105525 0.938919
O O8 0.500000 0.972643 0.250000
O O9 0.571172 0.838341 0.195620
O O10 0.564993 0.879039 0.880583
O O11 0.169568 0.312838 0.495879
O O12 0.611284 0.709344 0.306229
O O13 0.566303 0.847473 0.541974
O O14 0.033521 0.211608 0.830748
O O15 0.949518 0.049402 0.949555
O O16 0.970103 0.098454 0.182940
#
# Coordination Sequence:
#
# PCOD9254924 Si02
#       8
#     8   8   8   8   8   8   4   8
#     4   8  14  23  35  50  64  79  97 127 168 202
#     4   8  14  23  31  46  66  81 101 122 166 193
#     4  10  17  22  34  51  67  86 104 137 161 199
#     4   8  14  23  35  46  60  81  99 132 161 196
#     4  10  17  26  38  49  65  82 109 138 169 210
#     4  11  18  30  36  50  62  88 112 145 182 207
#     4  10  22  28  38  44  68  86 112 150 184 208
#     4  10  17  26  38  49  61  78 112 140 169 203
#
# _framework density 28.373918
#
# number of rings (size 3 to 8) (size 9 to 14) (size 15 to 20)
#    0.000    2.667    2.667    0.800    0.000    0.000 
#    0.000    0.000    0.000    0.000    0.000    0.000 
#    0.000    0.000    0.000    0.000    0.000    0.000 
#
# Total GULP energy -167090.276684 kJ/mol
# GULP energy per Si atom -5569.675889 kJ/mol
# Density = 2.830934 g / cm^3
# Si number density = 28.373918 Si / 1000 Ang^3
#
#
#
# Elastic Constant Matrix: (Units=GPa)
#
#
# Indices 1 2 3 4 5 6 
#
# 1 113.4064 30.5537 67.4569 0.0000 73.3583 0.0000
# 2 30.5537 76.5682 -2.5467 0.0000 20.9373 0.0000
# 3 67.4569 -2.5467 122.1644 0.0000 57.2515 0.0000
# 4 0.0000 0.0000 0.0000 279.4985 0.0000 -33.9116
# 5 73.3583 20.9373 57.2515 0.0000 83.4658 0.0000
# 6 0.0000 0.0000 0.0000 -33.9116 0.0000 23.2899
#
#
#
# Elastic Compliance Matrix: (Units=1/GPa)
#
#
# Indices 1 2 3 4 5 6 
#
# 1 0.023935 -0.005518 -0.006074 0.000000 -0.015486 0.000000
# 2 -0.005518 0.016007 0.004406 0.000000 -0.002187 0.000000
# 3 -0.006074 0.004406 0.014218 0.000000 -0.005519 0.000000
# 4 0.000000 0.000000 0.000000 0.004346 0.000000 0.006327
# 5 -0.015486 -0.002187 -0.005519 0.000000 0.029926 0.000000
# 6 0.000000 0.000000 0.000000 0.006327 0.000000 0.052150
#
#
# Mechanical properties :
#
#
# Convention : Reuss Voigt Hill
#
# Bulk Modulus (GPa) = 25.13414 55.89632 40.51523
# Shear Modulus (GPa) = 29.72362 91.69585 60.70973
#
# Velocity S-wave (km/s) = 3.24013 5.69097 4.63063
# Velocity P-wave (km/s) = 4.78281 7.93256 6.54984
#
# Compressibility (1/GPa) = 0.03978652
#
# Stress axis : x y z
#
# Youngs Moduli (GPa) = 41.78049 62.47277 70.33271
#
# Poissons Ratio (x) = 0.34475 0.42721
# Poissons Ratio (y) = 0.23056 -0.30988
# Poissons Ratio (z) = 0.25378 -0.27525
#
# Static dielectric constant tensor:
#      x y z
#    x 2.350710 0.000000 -0.125510 
#    y 0.000000 2.257940 0.000000 
#    z -0.125510 0.000000 2.396290 
# 
# From -- ./inp_files/70879.got.cif
#   From: 2010.05.17/outbox.cif.g08.bks.cpg/sg15_36_cif.got.tgz:70879.got - 2010.06.03 18:47:42.
