data_PCOD9254212
_publ_section_title
;
Structure prediction by ZEFSAII (Michael W. Deem and Ramdas Pophale) SiO2 
 PCOD9254212
Probable space group: C 2/C
;
_chemical_formula_sum "Si O2"
_cell_formula_units_Z 56
_cell_length_a 31.663155
_cell_length_b 13.965536
_cell_length_c 12.790733
_cell_angle_alpha 90.000000
_cell_angle_beta 138.729222
_cell_angle_gamma 90.000000
_cell_volume 3730.783139
_symmetry_space_group_name_H-M "C 2/C"
_symmetry_group_IT_number 15
_symmetry_cell_setting 'monoclinic'
loop_
_space_group_symop_operation_xyz
x,y,z
-x,y,1/2-z
-x,-y,-z
x,-y,1/2+z
1/2+x,1/2+y,z
1/2-x,1/2+y,1/2-z
1/2-x,1/2-y,-z
1/2+x,1/2-y,1/2+z
loop_
_atom_site_type_symbol
_atom_site_label
_atom_site_fract_x
_atom_site_fract_y
_atom_site_fract_z
Si Si1 0.184362 0.812532 0.359407
Si Si2 0.830911 0.365168 0.351648
Si Si3 0.343787 0.141588 0.315418
Si Si4 0.229075 0.982132 0.295693
Si Si5 0.924497 0.482448 0.121335
Si Si6 0.302800 0.656587 0.384706
Si Si7 0.161001 0.461239 0.346512
O O1 0.250000 0.750000 0.500000
O O2 0.139396 0.738634 0.214151
O O3 0.197191 0.902754 0.309766
O O4 0.166591 0.844347 0.442726
O O5 0.770136 0.424391 0.284851
O O6 0.890320 0.419580 0.517862
O O7 0.823243 0.255335 0.368960
O O8 0.836279 0.381195 0.237656
O O9 0.394158 0.100344 0.491523
O O10 0.274769 0.156165 0.242461
O O11 0.335427 0.059853 0.212148
O O12 0.184930 0.060796 0.158416
O O13 0.279576 0.038037 0.463529
O O14 0.901265 0.462677 0.196134
O O15 0.000000 0.487333 0.250000
#
# Coordination Sequence:
#
# PCOD9254212 Si02
#       7
#     8   8   8   8   8   8   8
#     4  10  16  28  46  64  95 136 160 197 240 306
#     4  10  19  29  46  69 101 136 164 203 253 300
#     4  10  17  29  49  68  94 135 165 205 245 307
#     4  11  16  27  45  69  99 130 163 197 242 300
#     4  10  21  35  49  71 101 135 177 212 247 299
#     4  11  18  29  45  73 102 131 167 201 248 310
#     4  10  17  30  45  70  98 132 165 204 255 286
#
# _framework density 15.010253000000001
#
# number of rings (size 3 to 8) (size 9 to 14) (size 15 to 20)
#    0.000    1.714   10.000    0.857    0.000    2.857 
#    0.000    0.000    0.000    0.000    0.000    1.000 
#    0.000    4.571    0.000    0.000    0.000    0.000 
#
# Total GULP energy -155930.243949 kJ/mol
# GULP energy per Si atom -5568.937284 kJ/mol
# Density = 1.497609 g / cm^3
# Si number density = 15.010253 Si / 1000 Ang^3
#
#
#
# Elastic Constant Matrix: (Units=GPa)
#
#
# Indices 1 2 3 4 5 6 
#
# 1 78.3460 53.5153 37.9328 0.0000 -22.4324 0.0000
# 2 53.5153 116.4491 43.2542 0.0000 -13.2064 0.0000
# 3 37.9328 43.2542 40.0061 0.0000 -8.4660 0.0000
# 4 0.0000 0.0000 0.0000 19.1438 0.0000 -10.8946
# 5 -22.4324 -13.2064 -8.4660 0.0000 25.5089 0.0000
# 6 0.0000 0.0000 0.0000 -10.8946 0.0000 23.5476
#
#
#
# Elastic Compliance Matrix: (Units=1/GPa)
#
#
# Indices 1 2 3 4 5 6 
#
# 1 0.031086 -0.004524 -0.020752 0.000000 0.018108 0.000000
# 2 -0.004524 0.015153 -0.012127 0.000000 -0.000158 0.000000
# 3 -0.020752 -0.012127 0.056567 0.000000 -0.005754 0.000000
# 4 0.000000 0.000000 0.000000 0.070905 0.000000 0.032805
# 5 0.018108 -0.000158 -0.005754 0.000000 0.053134 0.000000
# 6 0.000000 0.000000 0.000000 0.032805 0.000000 0.057645
#
#
# Mechanical properties :
#
#
# Convention : Reuss Voigt Hill
#
# Bulk Modulus (GPa) = 35.71464 56.02286 45.86875
# Shear Modulus (GPa) = 13.56371 20.31332 16.93852
#
# Velocity S-wave (km/s) = 3.00930 3.68271 3.36290
# Velocity P-wave (km/s) = 5.99331 7.44897 6.76043
#
# Compressibility (1/GPa) = 0.02799972
#
# Stress axis : x y z
#
# Youngs Moduli (GPa) = 32.16842 65.99239 17.67826
#
# Poissons Ratio (x) = 0.29857 0.36685
# Poissons Ratio (y) = 0.14554 0.21439
# Poissons Ratio (z) = 0.66755 0.80030
#
# Static dielectric constant tensor:
#      x y z
#    x 1.514990 0.000000 -0.032290 
#    y 0.000000 1.515780 0.000000 
#    z -0.032290 0.000000 1.502030 
# 
# From -- ./inp_files/126752.got.cif
#   From: 2010.05.17/outbox.cif.g08.bks.cpg/sg15_64_cif.got.tgz:126752.got - 2010.06.03 18:47:42.
