data_PCOD9254961
_publ_section_title
;
Structure prediction by ZEFSAII (Michael W. Deem and Ramdas Pophale) SiO2 
 PCOD9254961
Probable space group: C 2/C
;
_chemical_formula_sum "Si O2"
_cell_formula_units_Z 64
_cell_length_a 24.292649
_cell_length_b 21.468742
_cell_length_c 7.799260
_cell_angle_alpha 90.000000
_cell_angle_beta 78.077209
_cell_angle_gamma 90.000000
_cell_volume 3979.818329
_symmetry_space_group_name_H-M "C 2/C"
_symmetry_group_IT_number 15
_symmetry_cell_setting 'monoclinic'
loop_
_space_group_symop_operation_xyz
x,y,z
-x,y,1/2-z
-x,-y,-z
x,-y,1/2+z
1/2+x,1/2+y,z
1/2-x,1/2+y,1/2-z
1/2-x,1/2-y,-z
1/2+x,1/2-y,1/2+z
loop_
_atom_site_type_symbol
_atom_site_label
_atom_site_fract_x
_atom_site_fract_y
_atom_site_fract_z
Si Si1 0.423464 0.899828 0.644890
Si Si2 0.470999 0.137019 0.593647
Si Si3 0.413505 0.975927 0.295868
Si Si4 0.780055 0.201304 0.106357
Si Si5 0.715047 0.967913 0.108680
Si Si6 0.151351 0.310805 0.319865
Si Si7 0.812477 0.647735 0.086088
Si Si8 0.256425 0.904403 0.086206
O O1 0.480230 0.862143 0.577962
O O2 0.417375 0.943090 0.477480
O O3 0.366471 0.860172 0.675397
O O4 0.427170 0.951340 0.789232
O O5 0.500000 0.161266 0.750000
O O6 0.452885 0.065851 0.650601
O O7 0.412994 0.172472 0.599965
O O8 0.348823 0.969610 0.277202
O O9 0.832423 0.240097 0.145058
O O10 0.736682 0.184648 0.287164
O O11 0.750000 0.250000 0.000000
O O12 0.787400 0.139240 0.986760
O O13 0.755764 0.936965 0.222985
O O14 0.711009 0.920417 0.951692
O O15 0.728473 0.037294 0.042641
O O16 0.191647 0.358213 0.400109
O O17 0.165857 0.323842 0.109115
#
# Coordination Sequence:
#
# PCOD9254961 Si02
#       8
#     8   8   8   8   8   8   8   8
#     4  10  19  28  43  64  90 125 157 201 231 274
#     4  10  17  31  43  61  92 122 165 200 234 263
#     4  10  17  26  40  60  90 121 156 191 231 261
#     4  10  21  32  48  63  87 119 166 204 236 285
#     4  10  17  28  49  67  99 119 152 197 240 287
#     4  10  19  33  47  62  89 124 168 200 234 281
#     4  10  18  31  48  66  87 121 161 197 247 281
#     4  10  18  30  43  68  88 119 152 191 238 281
#
# _framework density 16.081136999999998
#
# number of rings (size 3 to 8) (size 9 to 14) (size 15 to 20)
#    0.000    2.000    5.000    3.750    0.000    0.000 
#    0.000    0.000    0.000    0.000    0.000    0.000 
#    0.000    0.000    0.000    4.500    4.500    6.625 
#
# Total GULP energy -178460.305116 kJ/mol
# GULP energy per Si atom -5576.884535 kJ/mol
# Density = 1.604454 g / cm^3
# Si number density = 16.081137 Si / 1000 Ang^3
#
#
#
# Elastic Constant Matrix: (Units=GPa)
#
#
# Indices 1 2 3 4 5 6 
#
# 1 65.5518 44.5201 15.9592 0.0000 1.0460 0.0000
# 2 44.5201 84.5455 21.8647 0.0000 0.8051 0.0000
# 3 15.9592 21.8647 55.1581 0.0000 10.1111 0.0000
# 4 0.0000 0.0000 0.0000 28.6065 0.0000 1.8873
# 5 1.0460 0.8051 10.1111 0.0000 15.3898 0.0000
# 6 0.0000 0.0000 0.0000 1.8873 0.0000 23.2315
#
#
#
# Elastic Compliance Matrix: (Units=1/GPa)
#
#
# Indices 1 2 3 4 5 6 
#
# 1 0.023979 -0.012050 -0.002249 0.000000 0.000478 0.000000
# 2 -0.012050 0.019367 -0.004724 0.000000 0.002909 0.000000
# 3 -0.002249 -0.004724 0.023398 0.000000 -0.014972 0.000000
# 4 0.000000 0.000000 0.000000 0.035145 0.000000 -0.002855
# 5 0.000478 0.002909 -0.014972 0.000000 0.074630 0.000000
# 6 0.000000 0.000000 0.000000 -0.002855 0.000000 0.043277
#
#
# Mechanical properties :
#
#
# Convention : Reuss Voigt Hill
#
# Bulk Modulus (GPa) = 34.84581 41.10481 37.97531
# Shear Modulus (GPa) = 18.69808 21.63967 20.16888
#
# Velocity S-wave (km/s) = 3.41359 3.67230 3.54530
# Velocity P-wave (km/s) = 6.10349 6.60283 6.35806
#
# Compressibility (1/GPa) = 0.02869786
#
# Stress axis : x y z
#
# Youngs Moduli (GPa) = 41.70379 51.63409 42.73935
#
# Poissons Ratio (x) = 0.62217 0.09612
# Poissons Ratio (y) = 0.50251 0.20190
# Poissons Ratio (z) = 0.09379 0.24392
#
# Static dielectric constant tensor:
#      x y z
#    x 1.551010 0.000000 0.039940 
#    y 0.000000 1.553870 0.000000 
#    z 0.039940 0.000000 1.642780 
# 
# From -- ./inp_files/63077.got.cif
#   From: 2010.05.17/outbox.cif.g08.bks.cpg/sg15_32_cif.got.tgz:63077.got - 2010.06.03 18:47:42.
