data_PCOD9254989
_publ_section_title
;
Structure prediction by ZEFSAII (Michael W. Deem and Ramdas Pophale) SiO2 
 PCOD9254989
Probable space group: C 2/C
;
_chemical_formula_sum "Si O2"
_cell_formula_units_Z 56
_cell_length_a 17.720689
_cell_length_b 22.883158
_cell_length_c 13.826567
_cell_angle_alpha 90.000000
_cell_angle_beta 23.250313
_cell_angle_gamma 90.000000
_cell_volume 2213.256901
_symmetry_space_group_name_H-M "C 2/C"
_symmetry_group_IT_number 15
_symmetry_cell_setting 'monoclinic'
loop_
_space_group_symop_operation_xyz
x,y,z
-x,y,1/2-z
-x,-y,-z
x,-y,1/2+z
1/2+x,1/2+y,z
1/2-x,1/2+y,1/2-z
1/2-x,1/2-y,-z
1/2+x,1/2-y,1/2+z
loop_
_atom_site_type_symbol
_atom_site_label
_atom_site_fract_x
_atom_site_fract_y
_atom_site_fract_z
Si Si1 0.204019 0.105174 0.427982
Si Si2 0.867175 0.713302 0.725083
Si Si3 0.503815 0.008423 0.381507
Si Si4 0.515796 0.342344 0.865664
Si Si5 0.311715 0.400936 0.292458
Si Si6 0.627822 0.112588 0.489082
Si Si7 0.992934 0.695361 0.157967
O O1 0.280942 0.104622 0.225892
O O2 0.291816 0.165290 0.366566
O O3 0.977586 0.099154 0.677396
O O4 0.318755 0.052099 0.345038
O O5 0.883428 0.780267 0.733328
O O6 0.923382 0.717038 0.543558
O O7 0.013881 0.672696 0.610243
O O8 0.666085 0.680654 0.979893
O O9 0.303742 0.039141 0.587588
O O10 0.500000 0.000000 0.500000
O O11 0.507131 0.943055 0.339243
O O12 0.699305 0.383826 0.637990
O O13 0.407475 0.375751 0.081720
O O14 0.143743 0.355048 0.508648
O O15 0.000000 0.732147 0.250000
#
# Coordination Sequence:
#
# PCOD9254989 Si02
#       7
#     8   8   8   8   8   8   8
#     4   8  16  28  43  58  80 100 128 172 218 257
#     4  10  18  29  41  55  79 111 143 180 215 247
#     4   9  16  27  42  64  81  97 128 172 218 257
#     4  10  17  27  42  53  77 109 139 174 212 247
#     4   9  18  29  43  60  79 105 135 177 219 257
#     4   9  17  27  42  60  78 102 135 172 208 257
#     4   9  18  31  43  57  78 107 146 187 221 252
#
# _framework density 25.30208
#
# number of rings (size 3 to 8) (size 9 to 14) (size 15 to 20)
#    0.000    2.857    1.429    2.571    0.000    6.857 
#    0.000    2.857    0.000    0.000    0.000    0.000 
#    0.000    0.000    0.000    0.000    0.000   22.857 
#
# Total GULP energy -156173.289311 kJ/mol
# GULP energy per Si atom -5577.617475 kJ/mol
# Density = 2.524449 g / cm^3
# Si number density = 25.302080 Si / 1000 Ang^3
#
#
#
# Elastic Constant Matrix: (Units=GPa)
#
#
# Indices 1 2 3 4 5 6 
#
# 1 121.4024 6.2725 45.5840 0.0258 -7.9183 -0.0106
# 2 6.2725 87.7144 48.5793 0.1702 -10.7287 -0.0680
# 3 45.5840 48.5793 148.5771 0.0325 -47.8411 0.0402
# 4 0.0258 0.1702 0.0325 -11.9147 0.0330 27.1061
# 5 -7.9183 -10.7287 -47.8411 0.0330 51.9696 -0.0275
# 6 -0.0106 -0.0680 0.0402 27.1061 -0.0275 -24.2097
#
#
#
# Elastic Compliance Matrix: (Units=1/GPa)
#
#
# Indices 1 2 3 4 5 6 
#
# 1 0.009534 0.001278 -0.003966 0.000003 -0.001934 -0.000009
# 2 0.001278 0.014222 -0.005734 -0.000049 -0.002147 -0.000103
# 3 -0.003966 -0.005734 0.013142 -0.000024 0.010310 0.000001
# 4 0.000003 -0.000049 -0.000024 0.054247 -0.000034 0.060737
# 5 -0.001934 -0.002147 0.010310 -0.000034 0.027995 -0.000046
# 6 -0.000009 -0.000103 0.000001 0.060737 -0.000046 0.026698
#
#
# Mechanical properties :
#
#
# Convention : Reuss Voigt Hill
#
# Bulk Modulus (GPa) = 49.86308 62.06284 55.96296
# Shear Modulus (GPa) = 29.52201 20.31959 24.92080
#
# Velocity S-wave (km/s) = 3.41952 2.83694 3.14177
# Velocity P-wave (km/s) = 5.94481 5.94247 5.94364
#
# Compressibility (1/GPa) = 0.02005492
#
# Stress axis : x y z
#
# Youngs Moduli (GPa) = 104.88866 70.31320 76.09431
#
# Poissons Ratio (x) = -0.08986 0.30177
# Poissons Ratio (y) = -0.13405 0.43630
# Poissons Ratio (z) = 0.41596 0.40315
#
# Static dielectric constant tensor:
#      x y z
#    x 2.144690 -0.000020 0.058280 
#    y -0.000020 1.914940 0.000100 
#    z 0.058280 0.000100 2.032270 
# 
# From -- ./inp_files/216878.got.cif
#   From: 2010.05.17/outbox.cif.g08.bks.cpg/sg15_109_cif.got.tgz:216878.got - 2010.06.03 18:47:42.
