data_PCOD9254425
_publ_section_title
;
Structure prediction by ZEFSAII (Michael W. Deem and Ramdas Pophale) SiO2 
 PCOD9254425
Probable space group: C 2/C
;
_chemical_formula_sum "Si O2"
_cell_formula_units_Z 56
_cell_length_a 11.274616
_cell_length_b 14.934368
_cell_length_c 15.498820
_cell_angle_alpha 90.000000
_cell_angle_beta 113.073479
_cell_angle_gamma 90.000000
_cell_volume 2400.913356
_symmetry_space_group_name_H-M "C 2/C"
_symmetry_group_IT_number 15
_symmetry_cell_setting 'monoclinic'
loop_
_space_group_symop_operation_xyz
x,y,z
-x,y,1/2-z
-x,-y,-z
x,-y,1/2+z
1/2+x,1/2+y,z
1/2-x,1/2+y,1/2-z
1/2-x,1/2-y,-z
1/2+x,1/2-y,1/2+z
loop_
_atom_site_type_symbol
_atom_site_label
_atom_site_fract_x
_atom_site_fract_y
_atom_site_fract_z
Si Si1 0.018900 0.049473 0.094489
Si Si2 0.412592 0.235065 0.099066
Si Si3 0.215744 0.525362 0.753866
Si Si4 0.374311 0.421518 0.153375
Si Si5 0.697567 0.796587 0.352028
Si Si6 0.178967 0.325077 0.751301
Si Si7 0.962749 0.756097 0.532897
O O1 0.146074 0.010803 0.173729
O O2 0.899075 0.017864 0.118195
O O3 0.027884 0.153103 0.082642
O O4 0.000000 0.000000 0.000000
O O5 0.373428 0.339570 0.087181
O O6 0.319542 0.189421 0.144082
O O7 0.552784 0.227091 0.182735
O O8 0.443963 0.206906 0.009508
O O9 0.246425 0.573073 0.672572
O O10 0.177312 0.605382 0.805563
O O11 0.146519 0.430021 0.725532
O O12 0.500000 0.405219 0.250000
O O13 0.711733 0.720963 0.279446
O O14 0.833459 0.786746 0.442887
O O15 0.588401 0.787631 0.393958
#
# Coordination Sequence:
#
# PCOD9254425 Si02
#       7
#     8   8   8   8   8   8   8
#     4  11  18  30  53  84 111 135 172 230 280 319
#     4  10  17  34  57  73 101 149 184 214 259 334
#     4  11  21  33  55  85 108 139 187 233 263 318
#     4  10  16  30  54  79 102 137 185 220 263 312
#     4  10  19  34  54  82 106 141 180 228 261 324
#     4  10  19  34  56  79 105 141 187 222 264 313
#     4  10  19  32  54  80 110 139 177 218 278 324
#
# _framework density 23.324456000000001
#
# number of rings (size 3 to 8) (size 9 to 14) (size 15 to 20)
#    0.000    1.714    5.714    2.571    0.000    0.000 
#    0.000    1.429    6.286    0.000    0.000    0.000 
#    0.000    0.000    0.000    0.000    0.000    0.000 
#
# Total GULP energy -156130.172055 kJ/mol
# GULP energy per Si atom -5576.077573 kJ/mol
# Density = 2.327137 g / cm^3
# Si number density = 23.324456 Si / 1000 Ang^3
#
#
#
# Elastic Constant Matrix: (Units=GPa)
#
#
# Indices 1 2 3 4 5 6 
#
# 1 62.6732 26.8114 57.0884 0.0000 -33.7975 0.0000
# 2 26.8114 115.5170 54.2594 0.0000 -37.6174 0.0000
# 3 57.0884 54.2594 113.1905 0.0000 -55.6885 0.0000
# 4 0.0000 0.0000 0.0000 23.1586 0.0000 -18.1657
# 5 -33.7975 -37.6174 -55.6885 0.0000 56.6199 0.0000
# 6 0.0000 0.0000 0.0000 -18.1657 0.0000 24.7601
#
#
#
# Elastic Compliance Matrix: (Units=1/GPa)
#
#
# Indices 1 2 3 4 5 6 
#
# 1 0.030600 0.000963 -0.012776 0.000000 0.006340 0.000000
# 2 0.000963 0.011737 -0.003861 0.000000 0.004575 0.000000
# 3 -0.012776 -0.003861 0.023474 0.000000 0.012897 0.000000
# 4 0.000000 0.000000 0.000000 0.101718 0.000000 0.074627
# 5 0.006340 0.004575 0.012897 0.000000 0.037170 0.000000
# 6 0.000000 0.000000 0.000000 0.074627 0.000000 0.095139
#
#
# Mechanical properties :
#
#
# Convention : Reuss Voigt Hill
#
# Bulk Modulus (GPa) = 29.01619 63.07767 46.04693
# Shear Modulus (GPa) = 14.59117 31.12249 22.85683
#
# Velocity S-wave (km/s) = 2.50386 3.65681 3.13381
# Velocity P-wave (km/s) = 4.56359 6.70313 5.73403
#
# Compressibility (1/GPa) = 0.03446352
#
# Stress axis : x y z
#
# Youngs Moduli (GPa) = 32.67962 85.20380 42.60021
#
# Poissons Ratio (x) = -0.08208 0.54426
# Poissons Ratio (y) = -0.03148 0.16448
# Poissons Ratio (z) = 0.41751 0.32897
#
# Static dielectric constant tensor:
#      x y z
#    x 1.946850 0.000000 -0.032590 
#    y 0.000000 1.787260 0.000000 
#    z -0.032590 0.000000 1.925820 
# 
# From -- ./inp_files/204802.got.cif
#   From: 2010.05.17/outbox.cif.g08.bks.cpg/sg15_103_cif.got.tgz:204802.got - 2010.06.03 18:47:42.
