data_PCOD9254181
_publ_section_title
;
Structure prediction by ZEFSAII (Michael W. Deem and Ramdas Pophale) SiO2 
 PCOD9254181
Probable space group: C 2/C
;
_chemical_formula_sum "Si O2"
_cell_formula_units_Z 52
_cell_length_a 7.058714
_cell_length_b 18.341293
_cell_length_c 16.652704
_cell_angle_alpha 90.000000
_cell_angle_beta 62.514463
_cell_angle_gamma 90.000000
_cell_volume 1912.609339
_symmetry_space_group_name_H-M "C 2/C"
_symmetry_group_IT_number 15
_symmetry_cell_setting 'monoclinic'
loop_
_space_group_symop_operation_xyz
x,y,z
-x,y,1/2-z
-x,-y,-z
x,-y,1/2+z
1/2+x,1/2+y,z
1/2-x,1/2+y,1/2-z
1/2-x,1/2-y,-z
1/2+x,1/2-y,1/2+z
loop_
_atom_site_type_symbol
_atom_site_label
_atom_site_fract_x
_atom_site_fract_y
_atom_site_fract_z
Si Si1 0.328737 0.528304 0.663354
Si Si2 0.889881 0.879415 0.603893
Si Si3 0.309781 0.999321 0.132438
Si Si4 0.263743 0.223007 0.613537
Si Si5 0.702133 0.309692 0.317141
Si Si6 0.500000 0.316551 0.750000
Si Si7 0.377073 0.881729 0.502957
O O1 0.303503 0.460658 0.607480
O O2 0.218218 0.506743 0.768096
O O3 0.585018 0.526375 0.634309
O O4 0.241229 0.609350 0.665825
O O5 0.906419 0.864567 0.697001
O O6 0.131841 0.873416 0.525051
O O7 0.759534 0.809642 0.602779
O O8 0.491298 0.944214 0.068836
O O9 0.357062 0.081243 0.094555
O O10 0.242401 0.199710 0.712376
O O11 0.478291 0.188788 0.536701
O O12 0.047489 0.194817 0.617495
O O13 0.832178 0.240348 0.323485
#
# Coordination Sequence:
#
# PCOD9254181 Si02
#       7
#     8   8   8   8   8   4   8
#     4  10  16  33  53  77 102 140 181 223 250 307
#     4  10  21  31  53  81 113 134 179 220 264 306
#     4   9  16  25  51  82 106 135 185 221 249 307
#     4  10  18  33  52  80 105 141 173 219 265 317
#     4  10  19  35  57  72 103 141 183 211 264 317
#     4  10  22  38  50  78 108 140 172 222 268 318
#     4  10  16  27  48  84 110 136 177 219 261 304
#
# _framework density 27.187985999999999
#
# number of rings (size 3 to 8) (size 9 to 14) (size 15 to 20)
#    0.000    2.154    3.077    3.231    0.000    0.000 
#    0.000    3.846    0.000    0.000    0.000   15.077 
#    0.000    0.000    0.000    0.000    0.000    0.000 
#
# Total GULP energy -145743.033586 kJ/mol
# GULP energy per Si atom -5605.501292 kJ/mol
# Density = 2.712611 g / cm^3
# Si number density = 27.187986 Si / 1000 Ang^3
#
#
#
# Elastic Constant Matrix: (Units=GPa)
#
#
# Indices 1 2 3 4 5 6 
#
# 1 51.4592 20.8562 18.2894 0.0000 -6.0373 0.0000
# 2 20.8562 199.2603 28.5752 0.0000 -11.9463 0.0000
# 3 18.2894 28.5752 122.1038 0.0000 -10.4424 0.0000
# 4 0.0000 0.0000 0.0000 43.3710 0.0000 -20.8278
# 5 -6.0373 -11.9463 -10.4424 0.0000 36.3097 0.0000
# 6 0.0000 0.0000 0.0000 -20.8278 0.0000 37.6261
#
#
#
# Elastic Compliance Matrix: (Units=1/GPa)
#
#
# Indices 1 2 3 4 5 6 
#
# 1 0.021317 -0.001725 -0.002599 0.000000 0.002230 0.000000
# 2 -0.001725 0.005402 -0.000901 0.000000 0.001232 0.000000
# 3 -0.002599 -0.000901 0.008948 0.000000 0.001845 0.000000
# 4 0.000000 0.000000 0.000000 0.031405 0.000000 0.017384
# 5 0.002230 0.001232 0.001845 0.000000 0.028847 0.000000
# 6 0.000000 0.000000 0.000000 0.017384 0.000000 0.036200
#
#
# Mechanical properties :
#
#
# Convention : Reuss Voigt Hill
#
# Bulk Modulus (GPa) = 39.65330 56.47387 48.06359
# Shear Modulus (GPa) = 33.11830 43.80152 38.45991
#
# Velocity S-wave (km/s) = 3.49395 4.01816 3.76519
# Velocity P-wave (km/s) = 5.55818 6.50724 6.05135
#
# Compressibility (1/GPa) = 0.02521858
#
# Stress axis : x y z
#
# Youngs Moduli (GPa) = 46.91062 185.11390 111.76282
#
# Poissons Ratio (x) = 0.31930 0.29043
# Poissons Ratio (y) = 0.08092 0.10065
# Poissons Ratio (z) = 0.12190 0.16670
#
# Static dielectric constant tensor:
#      x y z
#    x 2.115180 0.000000 0.025790 
#    y 0.000000 2.071280 0.000000 
#    z 0.025790 0.000000 2.114630 
# 
# From -- ./inp_files/233008.got.cif
#   From: 2010.05.17/outbox.cif.g08.bks.cpg/sg15_117_cif.got.tgz:233008.got - 2010.06.03 18:47:42.
