data_PCOD9254040
_publ_section_title
;
Structure prediction by ZEFSAII (Michael W. Deem and Ramdas Pophale) SiO2 
 PCOD9254040
Probable space group: C 2/C
;
_chemical_formula_sum "Si O2"
_cell_formula_units_Z 56
_cell_length_a 14.328888
_cell_length_b 14.503349
_cell_length_c 9.762264
_cell_angle_alpha 90.000000
_cell_angle_beta 96.656900
_cell_angle_gamma 90.000000
_cell_volume 2015.085433
_symmetry_space_group_name_H-M "C 2/C"
_symmetry_group_IT_number 15
_symmetry_cell_setting 'monoclinic'
loop_
_space_group_symop_operation_xyz
x,y,z
-x,y,1/2-z
-x,-y,-z
x,-y,1/2+z
1/2+x,1/2+y,z
1/2-x,1/2+y,1/2-z
1/2-x,1/2-y,-z
1/2+x,1/2-y,1/2+z
loop_
_atom_site_type_symbol
_atom_site_label
_atom_site_fract_x
_atom_site_fract_y
_atom_site_fract_z
Si Si1 0.150870 0.862146 0.272766
Si Si2 0.636067 0.673890 0.353038
Si Si3 0.225682 0.344741 0.835973
Si Si4 0.017892 0.848889 0.478511
Si Si5 0.198839 0.621152 0.903502
Si Si6 0.583434 0.860149 0.018963
Si Si7 0.910280 0.460017 0.875111
O O1 0.191350 0.758633 0.295482
O O2 0.065432 0.851653 0.149824
O O3 0.235716 0.913892 0.210309
O O4 0.104309 0.894537 0.408319
O O5 0.670554 0.644274 0.207749
O O6 0.542297 0.627248 0.396181
O O7 0.721211 0.649553 0.470763
O O8 0.638921 0.786129 0.358436
O O9 0.191017 0.358381 0.984284
O O10 0.159173 0.410847 0.738031
O O11 0.050616 0.744537 0.516645
O O12 0.134548 0.553264 0.980161
O O13 0.507940 0.906244 0.902847
O O14 0.578145 0.931025 0.143622
#
# Coordination Sequence:
#
# PCOD9254040 Si02
#       7
#     8   8   8   8   8   8   8
#     4   8  13  18  33  46  67  92 111 142 169 211
#     4   8  12  19  33  44  63  90 112 146 170 209
#     4   9  15  24  32  45  69  98 122 136 171 205
#     4   9  12  20  30  50  69  86 114 140 177 209
#     4   8  12  20  28  45  63  90 119 133 172 208
#     4  10  17  21  31  49  70  99 121 141 169 211
#     4  10  16  22  32  45  70 102 119 141 165 214
#
# _framework density 27.790385000000001
#
# number of rings (size 3 to 8) (size 9 to 14) (size 15 to 20)
#    0.000    3.143    2.857    2.143    0.000    0.000 
#    0.000    0.000    0.000    0.000    0.000    1.000 
#    0.000   10.286    0.857    0.286    0.000    0.000 
#
# Total GULP energy -156519.325692 kJ/mol
# GULP energy per Si atom -5589.975918 kJ/mol
# Density = 2.772713 g / cm^3
# Si number density = 27.790385 Si / 1000 Ang^3
#
#
#
# Elastic Constant Matrix: (Units=GPa)
#
#
# Indices 1 2 3 4 5 6 
#
# 1 146.2854 24.0603 67.3602 0.0000 -39.1451 0.0000
# 2 24.0603 62.1884 11.7221 0.0000 9.7117 0.0000
# 3 67.3602 11.7221 151.1339 0.0000 -45.6309 0.0000
# 4 0.0000 0.0000 0.0000 18.6306 0.0000 9.0515
# 5 -39.1451 9.7117 -45.6309 0.0000 79.6175 0.0000
# 6 0.0000 0.0000 0.0000 9.0515 0.0000 20.7408
#
#
#
# Elastic Compliance Matrix: (Units=1/GPa)
#
#
# Indices 1 2 3 4 5 6 
#
# 1 0.009789 -0.003778 -0.002996 0.000000 0.003556 0.000000
# 2 -0.003778 0.018519 -0.001204 0.000000 -0.004806 0.000000
# 3 -0.002996 -0.001204 0.009245 0.000000 0.003972 0.000000
# 4 0.000000 0.000000 0.000000 0.068118 0.000000 -0.029728
# 5 0.003556 -0.004806 0.003972 0.000000 0.017171 0.000000
# 6 0.000000 0.000000 0.000000 -0.029728 0.000000 0.061188
#
#
# Mechanical properties :
#
#
# Convention : Reuss Voigt Hill
#
# Bulk Modulus (GPa) = 46.30191 62.87698 54.58945
# Shear Modulus (GPa) = 24.13320 40.89547 32.51434
#
# Velocity S-wave (km/s) = 2.95006 3.84027 3.42422
# Velocity P-wave (km/s) = 5.31988 6.50677 5.94303
#
# Compressibility (1/GPa) = 0.02159738
#
# Stress axis : x y z
#
# Youngs Moduli (GPa) = 102.16040 53.99788 108.17136
#
# Poissons Ratio (x) = 0.20399 0.32408
# Poissons Ratio (y) = 0.38594 0.13021
# Poissons Ratio (z) = 0.30607 0.06500
#
# Static dielectric constant tensor:
#      x y z
#    x 2.151300 0.000000 -0.006090 
#    y 0.000000 2.058460 0.000000 
#    z -0.006090 0.000000 2.324570 
# 
# From -- ./inp_files/161640.got.cif
#   From: 2010.05.17/outbox.cif.g08.bks.cpg/sg15_81_cif.got.tgz:161640.got - 2010.06.03 18:47:42.
