data_PCOD9254326
_publ_section_title
;
Structure prediction by ZEFSAII (Michael W. Deem and Ramdas Pophale) SiO2 
 PCOD9254326
Probable space group: C 2/C
;
_chemical_formula_sum "Si O2"
_cell_formula_units_Z 60
_cell_length_a 27.262725
_cell_length_b 12.005396
_cell_length_c 18.289365
_cell_angle_alpha 90.000000
_cell_angle_beta 144.549716
_cell_angle_gamma 90.000000
_cell_volume 3471.919284
_symmetry_space_group_name_H-M "C 2/C"
_symmetry_group_IT_number 15
_symmetry_cell_setting 'monoclinic'
loop_
_space_group_symop_operation_xyz
x,y,z
-x,y,1/2-z
-x,-y,-z
x,-y,1/2+z
1/2+x,1/2+y,z
1/2-x,1/2+y,1/2-z
1/2-x,1/2-y,-z
1/2+x,1/2-y,1/2+z
loop_
_atom_site_type_symbol
_atom_site_label
_atom_site_fract_x
_atom_site_fract_y
_atom_site_fract_z
Si Si1 0.113319 0.832261 0.181378
Si Si2 0.075600 0.157842 0.112100
Si Si3 0.602346 0.416169 0.927192
Si Si4 0.955786 0.390487 0.353486
Si Si5 0.919391 0.995787 0.245784
Si Si6 0.697235 0.500590 0.679930
Si Si7 0.623669 0.919086 0.652476
Si Si8 0.500000 0.794249 0.250000
O O1 0.101043 0.874871 0.248641
O O2 0.134367 0.704432 0.197036
O O3 0.181787 0.910334 0.225297
O O4 0.022144 0.856182 0.031649
O O5 0.082463 0.284291 0.148605
O O6 0.137277 0.106318 0.125650
O O7 0.094025 0.082155 0.204843
O O8 0.632659 0.468457 0.888076
O O9 0.517851 0.484573 0.846847
O O10 0.569782 0.291276 0.869491
O O11 0.666174 0.434595 0.069908
O O12 0.902800 0.497512 0.314434
O O13 0.048389 0.411028 0.501382
O O14 0.964778 0.361512 0.277934
O O15 0.791896 0.461058 0.783646
#
# Coordination Sequence:
#
# PCOD9254326 Si02
#       8
#     8   8   8   8   8   8   8   4
#     4  10  18  35  52  78 108 146 189 233 278 341
#     4  10  16  32  59  81 110 143 183 240 289 333
#     4  10  16  29  54  91 105 130 188 240 292 316
#     4  10  20  41  57  81 114 154 195 224 295 357
#     4   9  15  28  52  82 104 136 174 235 286 327
#     4  11  20  33  56  87 113 142 192 242 291 325
#     4  10  24  36  55  78 117 156 189 230 275 364
#     4  10  18  36  68  84 112 148 190 254 282 348
#
# _framework density 17.281507000000001
#
# number of rings (size 3 to 8) (size 9 to 14) (size 15 to 20)
#    0.000    2.133    5.333    1.600    1.867    0.000 
#    0.000    5.333    0.000    0.000    0.000    0.000 
#    0.000    0.000    0.000    0.000    0.000    0.000 
#
# Total GULP energy -167069.483657 kJ/mol
# GULP energy per Si atom -5568.982789 kJ/mol
# Density = 1.724217 g / cm^3
# Si number density = 17.281507 Si / 1000 Ang^3
#
#
#
# Elastic Constant Matrix: (Units=GPa)
#
#
# Indices 1 2 3 4 5 6 
#
# 1 104.0958 70.9800 33.2077 0.0000 -4.0886 0.0000
# 2 70.9800 124.6895 22.2521 0.0000 8.6372 0.0000
# 3 33.2077 22.2521 27.3815 0.0000 -2.6218 0.0000
# 4 0.0000 0.0000 0.0000 9.7832 0.0000 -0.2211
# 5 -4.0886 8.6372 -2.6218 0.0000 30.2117 0.0000
# 6 0.0000 0.0000 0.0000 -0.2211 0.0000 26.3424
#
#
#
# Elastic Compliance Matrix: (Units=1/GPa)
#
#
# Indices 1 2 3 4 5 6 
#
# 1 0.022384 -0.009656 -0.018902 0.000000 0.004149 0.000000
# 2 -0.009656 0.013899 -0.000091 0.000000 -0.005288 0.000000
# 3 -0.018902 -0.000091 0.059773 0.000000 0.002655 0.000000
# 4 0.000000 0.000000 0.000000 0.102236 0.000000 0.000858
# 5 0.004149 -0.005288 0.002655 0.000000 0.035404 0.000000
# 6 0.000000 0.000000 0.000000 0.000858 0.000000 0.037969
#
#
# Mechanical properties :
#
#
# Convention : Reuss Voigt Hill
#
# Bulk Modulus (GPa) = 25.80126 56.56072 41.18099
# Shear Modulus (GPa) = 14.62494 21.91593 18.27043
#
# Velocity S-wave (km/s) = 2.91224 3.56500 3.25503
# Velocity P-wave (km/s) = 5.12548 7.05307 6.16508
#
# Compressibility (1/GPa) = 0.03875779
#
# Stress axis : x y z
#
# Youngs Moduli (GPa) = 44.67522 71.94579 16.72994
#
# Poissons Ratio (x) = 0.69473 0.31623
# Poissons Ratio (y) = 0.43140 0.00152
# Poissons Ratio (z) = 0.84445 0.00655
#
# Static dielectric constant tensor:
#      x y z
#    x 1.622690 0.000000 -0.014410 
#    y 0.000000 1.607430 0.000000 
#    z -0.014410 0.000000 1.595520 
# 
# From -- ./inp_files/222322.got.cif
#   From: 2010.05.17/outbox.cif.g08.bks.cpg/sg15_112_cif.got.tgz:222322.got - 2010.06.03 18:47:42.
