data_PCOD9254523
_publ_section_title
;
Structure prediction by ZEFSAII (Michael W. Deem and Ramdas Pophale) SiO2 
 PCOD9254523
Probable space group: C 2/C
;
_chemical_formula_sum "Si O2"
_cell_formula_units_Z 44
_cell_length_a 17.099753
_cell_length_b 27.966188
_cell_length_c 5.256879
_cell_angle_alpha 90.000000
_cell_angle_beta 122.473840
_cell_angle_gamma 90.000000
_cell_volume 2120.833346
_symmetry_space_group_name_H-M "C 2/C"
_symmetry_group_IT_number 15
_symmetry_cell_setting 'monoclinic'
loop_
_space_group_symop_operation_xyz
x,y,z
-x,y,1/2-z
-x,-y,-z
x,-y,1/2+z
1/2+x,1/2+y,z
1/2-x,1/2+y,1/2-z
1/2-x,1/2-y,-z
1/2+x,1/2-y,1/2+z
loop_
_atom_site_type_symbol
_atom_site_label
_atom_site_fract_x
_atom_site_fract_y
_atom_site_fract_z
Si Si1 0.540223 0.054321 0.568498
Si Si2 0.000000 0.183874 0.250000
Si Si3 0.311505 0.634890 0.926074
Si Si4 0.090251 0.741204 0.284731
Si Si5 0.243685 0.030394 0.571335
Si Si6 0.247744 0.187743 0.197281
O O1 0.500000 0.077868 0.750000
O O2 0.649058 0.047150 0.742420
O O3 0.500000 0.000000 0.500000
O O4 0.500000 0.078918 0.250000
O O5 0.913779 0.152124 0.178367
O O6 0.038712 0.217435 0.537702
O O7 0.247835 0.658901 0.032624
O O8 0.309418 0.578219 0.947290
O O9 0.283981 0.654631 0.598377
O O10 0.170595 0.769328 0.587208
O O11 0.153433 0.709438 0.209636
O O12 0.000000 0.715864 0.250000
O O13 0.227257 0.008521 0.263883
#
# Coordination Sequence:
#
# PCOD9254523 Si02
#       6
#     8   4   8   8   8   8
#     4  10  16  31  55  78 100 140 199 233 291 374
#     4  10  22  40  68  86 126 174 204 246 322 384
#     4  11  24  42  60  95 126 161 213 268 305 368
#     4  10  20  37  68  90 123 172 208 238 316 396
#     4  12  22  38  63  86 118 165 209 256 313 362
#     4  10  23  39  62  94 128 159 209 261 303 368
#
# _framework density 20.746562999999998
#
# number of rings (size 3 to 8) (size 9 to 14) (size 15 to 20)
#    0.000    1.455    5.455    1.091    2.545    2.182 
#    0.000    3.636    0.000    0.000    0.000    0.000 
#    0.000    0.000    0.000    0.000    0.000    0.000 
#
# Total GULP energy -122781.717698 kJ/mol
# GULP energy per Si atom -5580.987168 kJ/mol
# Density = 2.069934 g / cm^3
# Si number density = 20.746563 Si / 1000 Ang^3
#
#
#
# Elastic Constant Matrix: (Units=GPa)
#
#
# Indices 1 2 3 4 5 6 
#
# 1 108.4787 26.0378 18.7748 0.0000 8.9920 0.0000
# 2 26.0378 50.4248 -0.8804 0.0000 7.5688 0.0000
# 3 18.7748 -0.8804 45.6328 0.0000 -13.9225 0.0000
# 4 0.0000 0.0000 0.0000 -42.2433 0.0000 30.9699
# 5 8.9920 7.5688 -13.9225 0.0000 47.2528 0.0000
# 6 0.0000 0.0000 0.0000 30.9699 0.0000 11.6507
#
#
#
# Elastic Compliance Matrix: (Units=1/GPa)
#
#
# Indices 1 2 3 4 5 6 
#
# 1 0.011891 -0.005780 -0.005946 0.000000 -0.003089 0.000000
# 2 -0.005780 0.023148 0.002230 0.000000 -0.001951 0.000000
# 3 -0.005946 0.002230 0.027074 0.000000 0.008751 0.000000
# 4 0.000000 0.000000 0.000000 -0.008028 0.000000 0.021339
# 5 -0.003089 -0.001951 0.008751 0.000000 0.024642 0.000000
# 6 0.000000 0.000000 0.000000 0.021339 0.000000 0.029107
#
#
# Mechanical properties :
#
#
# Convention : Reuss Voigt Hill
#
# Bulk Modulus (GPa) = 23.19181 32.48897 27.84039
# Shear Modulus (GPa) = 35.41056 14.03897 24.72477
#
# Velocity S-wave (km/s) = 4.13584 2.60415 3.45592
# Velocity P-wave (km/s) = 5.83180 4.97353 5.41968
#
# Compressibility (1/GPa) = 0.04311868
#
# Stress axis : x y z
#
# Youngs Moduli (GPa) = 84.09695 43.20012 36.93630
#
# Poissons Ratio (x) = 0.24971 0.21964
# Poissons Ratio (y) = 0.48611 -0.08235
# Poissons Ratio (z) = 0.50007 -0.09632
#
# Static dielectric constant tensor:
#      x y z
#    x 1.734050 0.000000 -0.025900 
#    y 0.000000 1.742650 0.000000 
#    z -0.025900 0.000000 1.758100 
# 
# From -- ./inp_files/8309.got.cif
#   From: 2010.05.17/outbox.cif.g08.bks.cpg/sg15_5_cif.got.tgz:8309.got - 2010.06.03 18:47:42.
