data_PCOD9254499
_publ_section_title
;
Structure prediction by ZEFSAII (Michael W. Deem and Ramdas Pophale) SiO2 
 PCOD9254499
Probable space group: C 2/C
;
_chemical_formula_sum "Si O2"
_cell_formula_units_Z 52
_cell_length_a 26.027420
_cell_length_b 6.846967
_cell_length_c 14.601666
_cell_angle_alpha 90.000000
_cell_angle_beta 129.652216
_cell_angle_gamma 90.000000
_cell_volume 2003.475990
_symmetry_space_group_name_H-M "C 2/C"
_symmetry_group_IT_number 15
_symmetry_cell_setting 'monoclinic'
loop_
_space_group_symop_operation_xyz
x,y,z
-x,y,1/2-z
-x,-y,-z
x,-y,1/2+z
1/2+x,1/2+y,z
1/2-x,1/2+y,1/2-z
1/2-x,1/2-y,-z
1/2+x,1/2-y,1/2+z
loop_
_atom_site_type_symbol
_atom_site_label
_atom_site_fract_x
_atom_site_fract_y
_atom_site_fract_z
Si Si1 0.743209 0.518125 0.373910
Si Si2 0.612105 0.947948 0.895709
Si Si3 0.516566 0.786368 0.935962
Si Si4 0.744513 0.925028 0.817380
Si Si5 0.854918 0.017119 0.080105
Si Si6 0.000000 0.991020 0.750000
Si Si7 0.596460 0.063774 0.675081
O O1 0.818237 0.544087 0.495661
O O2 0.735999 0.284141 0.355276
O O3 0.736344 0.602060 0.265549
O O4 0.686678 0.583924 0.379357
O O5 0.558679 0.932680 0.916739
O O6 0.629099 0.717332 0.895847
O O7 0.588890 0.044330 0.775404
O O8 0.497639 0.616805 0.842632
O O9 0.450092 0.877567 0.903808
O O10 0.566115 0.760215 0.079489
O O11 0.673071 0.026866 0.740257
O O12 0.804181 0.032595 0.937835
O O13 0.928164 0.108198 0.156053
#
# Coordination Sequence:
#
# PCOD9254499 Si02
#       7
#     8   8   8   8   8   4   8
#     4  11  20  35  56  81 113 147 192 230 280 328
#     4  10  16  31  51  76 108 145 184 223 274 337
#     4  10  18  25  47  82 114 133 177 237 282 320
#     4  11  21  34  56  84 113 152 187 231 278 337
#     4  10  19  35  57  77 106 147 197 233 268 336
#     4  10  18  36  56  82 104 146 200 238 268 328
#     4  11  17  28  48  81 114 141 176 233 288 318
#
# _framework density 25.954889999999999
#
# number of rings (size 3 to 8) (size 9 to 14) (size 15 to 20)
#    0.000    1.538    7.692    0.923    0.000    0.000 
#    0.000    1.538    0.000    0.000    0.000    0.000 
#    0.000    0.000    0.000    0.000    0.000    0.000 
#
# Total GULP energy -145514.735800 kJ/mol
# GULP energy per Si atom -5596.720608 kJ/mol
# Density = 2.589582 g / cm^3
# Si number density = 25.954890 Si / 1000 Ang^3
#
#
#
# Elastic Constant Matrix: (Units=GPa)
#
#
# Indices 1 2 3 4 5 6 
#
# 1 177.1431 0.2810 80.9308 0.0000 20.7367 0.0000
# 2 0.2810 63.7506 14.1761 0.0000 6.5626 0.0000
# 3 80.9308 14.1761 210.5666 0.0000 14.6552 0.0000
# 4 0.0000 0.0000 0.0000 17.2072 0.0000 -15.5906
# 5 20.7367 6.5626 14.6552 0.0000 65.3957 0.0000
# 6 0.0000 0.0000 0.0000 -15.5906 0.0000 34.8323
#
#
#
# Elastic Compliance Matrix: (Units=1/GPa)
#
#
# Indices 1 2 3 4 5 6 
#
# 1 0.007051 0.000733 -0.002640 0.000000 -0.001718 0.000000
# 2 0.000733 0.016124 -0.001258 0.000000 -0.001569 0.000000
# 3 -0.002640 -0.001258 0.005873 0.000000 -0.000353 0.000000
# 4 0.000000 0.000000 0.000000 0.097761 0.000000 0.043757
# 5 -0.001718 -0.001569 -0.000353 0.000000 0.016073 0.000000
# 6 0.000000 0.000000 0.000000 0.043757 0.000000 0.048294
#
#
# Mechanical properties :
#
#
# Convention : Reuss Voigt Hill
#
# Bulk Modulus (GPa) = 44.01792 71.35956 57.68874
# Shear Modulus (GPa) = 24.38089 47.22522 35.80305
#
# Velocity S-wave (km/s) = 3.06822 4.27020 3.71810
# Velocity P-wave (km/s) = 5.43582 7.20182 6.38022
#
# Compressibility (1/GPa) = 0.02271802
#
# Stress axis : x y z
#
# Youngs Moduli (GPa) = 141.82080 62.01899 170.27171
#
# Poissons Ratio (x) = -0.04545 0.44949
# Poissons Ratio (y) = -0.10392 0.21420
# Poissons Ratio (z) = 0.37439 0.07802
#
# Static dielectric constant tensor:
#      x y z
#    x 1.964140 0.000000 0.015310 
#    y 0.000000 2.124580 0.000000 
#    z 0.015310 0.000000 2.069350 
# 
# From -- ./inp_files/177228.got.cif
#   From: 2010.05.17/outbox.cif.g08.bks.cpg/sg15_89_cif.got.tgz:177228.got - 2010.06.03 18:47:42.
