data_PCOD9254290
_publ_section_title
;
Structure prediction by ZEFSAII (Michael W. Deem and Ramdas Pophale) SiO2 
 PCOD9254290
Probable space group: C 2/C
;
_chemical_formula_sum "Si O2"
_cell_formula_units_Z 56
_cell_length_a 28.250301
_cell_length_b 11.188706
_cell_length_c 9.206298
_cell_angle_alpha 90.000000
_cell_angle_beta 48.628915
_cell_angle_gamma 90.000000
_cell_volume 2183.768879
_symmetry_space_group_name_H-M "C 2/C"
_symmetry_group_IT_number 15
_symmetry_cell_setting 'monoclinic'
loop_
_space_group_symop_operation_xyz
x,y,z
-x,y,1/2-z
-x,-y,-z
x,-y,1/2+z
1/2+x,1/2+y,z
1/2-x,1/2+y,1/2-z
1/2-x,1/2-y,-z
1/2+x,1/2-y,1/2+z
loop_
_atom_site_type_symbol
_atom_site_label
_atom_site_fract_x
_atom_site_fract_y
_atom_site_fract_z
Si Si1 0.759993 0.632475 0.880121
Si Si2 0.561015 0.731489 0.948254
Si Si3 0.956055 0.903955 0.471931
Si Si4 0.879267 0.287044 0.959418
Si Si5 0.357132 0.900693 0.394280
Si Si6 0.379176 0.377172 0.890009
Si Si7 0.421753 0.015475 0.015949
O O1 0.811116 0.672024 0.655755
O O2 0.694130 0.584504 0.952632
O O3 0.750000 0.750000 0.000000
O O4 0.796123 0.556551 0.930110
O O5 0.615356 0.762958 0.721651
O O6 0.585226 0.644726 0.028535
O O7 0.539976 0.861743 0.050768
O O8 0.504823 0.675880 0.968166
O O9 0.902940 0.831018 0.492528
O O10 0.000000 0.047445 0.750000
O O11 0.915763 0.953366 0.692763
O O12 0.928138 0.391413 0.914119
O O13 0.372351 0.760890 0.349503
O O14 0.411799 0.968975 0.197539
O O15 0.360084 0.932206 0.555688
#
# Coordination Sequence:
#
# PCOD9254290 Si02
#       7
#     8   8   8   8   8   8   8
#     4   9  16  30  50  60  83 116 164 193 228 275
#     4  10  21  28  44  65  92 122 154 190 227 263
#     4  10  19  31  44  61  88 123 159 191 224 260
#     4  10  18  31  44  67  88 124 159 184 229 267
#     4   9  17  27  47  62  84 121 148 191 228 263
#     4  10  18  33  45  63  84 120 166 192 233 264
#     4  10  16  29  42  62  95 118 154 186 219 264
#
# _framework density 25.643740000000001
#
# number of rings (size 3 to 8) (size 9 to 14) (size 15 to 20)
#    0.000    2.286    5.714    0.429    0.000    1.143 
#    0.000    1.429    0.000    0.000    0.000    0.000 
#    0.000    0.000    0.000   36.000    9.714    0.000 
#
# Total GULP energy -155937.196613 kJ/mol
# GULP energy per Si atom -5569.185593 kJ/mol
# Density = 2.558537 g / cm^3
# Si number density = 25.643740 Si / 1000 Ang^3
#
#
#
# Elastic Constant Matrix: (Units=GPa)
#
#
# Indices 1 2 3 4 5 6 
#
# 1 132.2784 19.4265 77.8101 0.0000 13.0037 0.0000
# 2 19.4265 44.7269 28.5625 0.0000 2.4124 0.0000
# 3 77.8101 28.5625 183.5566 0.0000 8.3007 0.0000
# 4 0.0000 0.0000 0.0000 12.5798 0.0000 19.3621
# 5 13.0037 2.4124 8.3007 0.0000 47.5660 0.0000
# 6 0.0000 0.0000 0.0000 19.3621 0.0000 33.9364
#
#
#
# Elastic Compliance Matrix: (Units=1/GPa)
#
#
# Indices 1 2 3 4 5 6 
#
# 1 0.010402 -0.001833 -0.004032 0.000000 -0.002047 0.000000
# 2 -0.001833 0.025164 -0.003128 0.000000 -0.000229 0.000000
# 3 -0.004032 -0.003128 0.007647 0.000000 -0.000074 0.000000
# 4 0.000000 0.000000 0.000000 0.652347 0.000000 -0.372191
# 5 -0.002047 -0.000229 -0.000074 0.000000 0.021608 0.000000
# 6 0.000000 0.000000 0.000000 -0.372191 0.000000 0.241818
#
#
# Mechanical properties :
#
#
# Convention : Reuss Voigt Hill
#
# Bulk Modulus (GPa) = 39.63962 68.01779 53.82870
# Shear Modulus (GPa) = 5.07419 34.46729 19.77074
#
# Velocity S-wave (km/s) = 1.40820 3.67015 2.77966
# Velocity P-wave (km/s) = 4.25857 6.67396 5.59808
#
# Compressibility (1/GPa) = 0.02522729
#
# Stress axis : x y z
#
# Youngs Moduli (GPa) = 96.13814 39.73914 130.77015
#
# Poissons Ratio (x) = 0.07284 0.52720
# Poissons Ratio (y) = 0.17621 0.40910
# Poissons Ratio (z) = 0.38758 0.12432
#
# Static dielectric constant tensor:
#      x y z
#    x 2.147030 0.000000 -0.094930 
#    y 0.000000 2.125330 0.000000 
#    z -0.094930 0.000000 2.133680 
# 
# From -- ./inp_files/56076.got.cif
#   From: 2010.05.17/outbox.cif.g08.bks.cpg/sg15_29_cif.got.tgz:56076.got - 2010.06.03 18:47:42.
