data_PCOD9254991
_publ_section_title
;
Structure prediction by ZEFSAII (Michael W. Deem and Ramdas Pophale) SiO2 
 PCOD9254991
Probable space group: C 2/C
;
_chemical_formula_sum "Si O2"
_cell_formula_units_Z 64
_cell_length_a 21.370995
_cell_length_b 29.112777
_cell_length_c 7.812039
_cell_angle_alpha 90.000000
_cell_angle_beta 89.999892
_cell_angle_gamma 90.000000
_cell_volume 4860.408584
_symmetry_space_group_name_H-M "C 2/C"
_symmetry_group_IT_number 15
_symmetry_cell_setting 'monoclinic'
loop_
_space_group_symop_operation_xyz
x,y,z
-x,y,1/2-z
-x,-y,-z
x,-y,1/2+z
1/2+x,1/2+y,z
1/2-x,1/2+y,1/2-z
1/2-x,1/2-y,-z
1/2+x,1/2-y,1/2+z
loop_
_atom_site_type_symbol
_atom_site_label
_atom_site_fract_x
_atom_site_fract_y
_atom_site_fract_z
Si Si1 0.427947 0.725542 0.302234
Si Si2 0.264494 0.325819 0.500001
Si Si3 0.071591 0.947187 0.702424
Si Si4 0.147883 0.734719 0.999999
Si Si5 0.428409 0.447188 0.202423
Si Si6 0.157999 0.134839 0.201864
Si Si7 0.842001 0.865162 0.201867
Si Si8 0.572053 0.725542 0.802233
O O1 0.500000 0.719430 0.250000
O O2 0.394554 0.759627 0.168682
O O3 0.391503 0.676967 0.288806
O O4 0.423678 0.740499 0.500001
O O5 0.193094 0.309111 0.500000
O O6 0.306649 0.279386 0.500001
O O7 0.285672 0.352753 0.670632
O O8 0.285672 0.352753 0.329372
O O9 0.074846 0.943727 0.500000
O O10 0.121553 0.910365 0.767367
O O11 0.000000 0.935991 0.750000
O O12 0.083787 1.000000 0.750002
O O13 0.105445 0.740373 0.168679
O O14 0.500000 0.435992 0.250000
O O15 0.378447 0.410365 0.267368
O O16 0.175615 0.130283 0.999999
O O17 0.891502 0.823033 0.211196
O O18 0.500000 0.719429 0.750000
#
# Coordination Sequence:
#
# PCOD9254991 Si02
#       8
#     8   8   8   8   8   8   8   8
#     4  10  17  27  42  60  83 104 132 171 205 241
#     4   9  18  30  46  53  80 106 135 172 201 244
#     4  10  19  28  39  57  80 105 138 177 215 245
#     4   9  18  30  40  64  76 103 137 165 207 242
#     4  10  19  28  39  57  80 105 138 177 215 245
#     4   9  19  29  41  59  77 106 142 174 204 239
#     4   9  19  29  41  59  77 106 142 174 204 239
#     4  10  17  27  42  60  83 104 132 171 205 241
#
# _framework density 13.167617
#
# number of rings (size 3 to 8) (size 9 to 14) (size 15 to 20)
#    0.000    2.500    1.250    2.250    3.500    1.000 
#    0.000    5.000    0.000    0.000    0.000    0.000 
#    0.000    0.000    0.000    0.000    0.000    3.750 
#
# Total GULP energy -178214.995419 kJ/mol
# GULP energy per Si atom -5569.218607 kJ/mol
# Density = 1.313765 g / cm^3
# Si number density = 13.167617 Si / 1000 Ang^3
#
#
#
# Elastic Constant Matrix: (Units=GPa)
#
#
# Indices 1 2 3 4 5 6 
#
# 1 37.0079 20.5564 30.6115 0.0000 0.0007 0.0000
# 2 20.5564 46.3603 25.7131 0.0000 0.0006 0.0000
# 3 30.6115 25.7131 86.4242 0.0000 0.0006 0.0000
# 4 0.0000 0.0000 0.0000 14.1404 0.0000 0.0002
# 5 0.0007 0.0006 0.0006 0.0000 16.3899 0.0000
# 6 0.0000 0.0000 0.0000 0.0002 0.0000 26.6310
#
#
#
# Elastic Compliance Matrix: (Units=1/GPa)
#
#
# Indices 1 2 3 4 5 6 
#
# 1 0.043900 -0.012984 -0.011686 0.000000 -0.000001 0.000000
# 2 -0.012984 0.029673 -0.004230 0.000000 0.000000 0.000000
# 3 -0.011686 -0.004230 0.016969 0.000000 0.000000 0.000000
# 4 0.000000 0.000000 0.000000 0.070719 0.000000 -0.000001
# 5 -0.000001 0.000000 0.000000 0.000000 0.061013 0.000000
# 6 0.000000 0.000000 0.000000 -0.000001 0.000000 0.037550
#
#
# Mechanical properties :
#
#
# Convention : Reuss Voigt Hill
#
# Bulk Modulus (GPa) = 30.54173 35.95049 33.24611
# Shear Modulus (GPa) = 15.21898 17.62636 16.42267
#
# Velocity S-wave (km/s) = 3.40338 3.66268 3.53540
# Velocity P-wave (km/s) = 6.22004 6.72669 6.47832
#
# Compressibility (1/GPa) = 0.03274208
#
# Stress axis : x y z
#
# Youngs Moduli (GPa) = 22.77924 33.70059 58.93253
#
# Poissons Ratio (x) = 0.43756 0.68871
# Poissons Ratio (y) = 0.29576 0.24926
# Poissons Ratio (z) = 0.26621 0.14254
#
# Static dielectric constant tensor:
#      x y z
#    x 1.420720 0.000000 0.000000 
#    y 0.000000 1.494480 0.000000 
#    z 0.000000 0.000000 1.457170 
# 
# From -- ./inp_files/51894.got.cif
#   From: 2010.05.17/outbox.cif.g08.bks.cpg/sg15_26_cif.got.tgz:51894.got - 2010.06.03 18:47:42.
