data_PCOD9254392
_publ_section_title
;
Structure prediction by ZEFSAII (Michael W. Deem and Ramdas Pophale) SiO2 
 PCOD9254392
Probable space group: C 2/C
;
_chemical_formula_sum "Si O2"
_cell_formula_units_Z 56
_cell_length_a 20.789803
_cell_length_b 16.411188
_cell_length_c 9.775404
_cell_angle_alpha 90.000000
_cell_angle_beta 108.887305
_cell_angle_gamma 90.000000
_cell_volume 3155.646632
_symmetry_space_group_name_H-M "C 2/C"
_symmetry_group_IT_number 15
_symmetry_cell_setting 'monoclinic'
loop_
_space_group_symop_operation_xyz
x,y,z
-x,y,1/2-z
-x,-y,-z
x,-y,1/2+z
1/2+x,1/2+y,z
1/2-x,1/2+y,1/2-z
1/2-x,1/2-y,-z
1/2+x,1/2-y,1/2+z
loop_
_atom_site_type_symbol
_atom_site_label
_atom_site_fract_x
_atom_site_fract_y
_atom_site_fract_z
Si Si1 0.000000 0.184301 0.750000
Si Si2 0.977413 0.111894 0.441922
Si Si3 0.874431 0.909190 0.480099
Si Si4 0.000000 0.743047 0.750000
Si Si5 0.148497 0.264424 0.394741
Si Si6 0.854432 0.190354 0.689447
Si Si7 0.758817 0.698002 0.290343
Si Si8 0.169152 0.922003 0.588484
O O1 0.986890 0.129373 0.608482
O O2 0.929381 0.230250 0.725885
O O3 0.901684 0.078395 0.373339
O O4 0.046062 0.065992 0.443148
O O5 0.983766 0.197554 0.366804
O O6 0.860765 0.829784 0.561988
O O7 0.862691 0.875171 0.318354
O O8 0.827486 0.987167 0.468188
O O9 0.927485 0.700608 0.673827
O O10 0.192115 0.306581 0.543971
O O11 0.195106 0.254966 0.293010
O O12 0.800022 0.255950 0.700512
O O13 0.837178 0.142851 0.539130
O O14 0.729423 0.611919 0.222426
#
# Coordination Sequence:
#
# PCOD9254392 Si02
#       8
#     4   8   8   4   8   8   8   8
#     4   8  16  32  45  64  98 137 164 208 250 292
#     4   9  17  28  43  69 100 136 171 199 235 289
#     4   9  19  30  45  70 101 134 169 208 239 297
#     4  10  16  30  51  72  92 137 180 202 238 304
#     4   9  19  33  49  69 104 133 168 213 251 294
#     4   9  19  32  46  67 100 133 172 209 248 303
#     4  10  19  33  47  69 102 138 165 215 254 292
#     4  11  19  28  48  69  99 140 171 201 250 300
#
# _framework density 17.745965999999999
#
# number of rings (size 3 to 8) (size 9 to 14) (size 15 to 20)
#    0.000    2.571    1.429    1.714    2.000    0.000 
#    0.000    3.571    0.000    0.000    0.000    0.000 
#    0.000   21.714    0.000    0.000    0.000    0.000 
#
# Total GULP energy -155977.237674 kJ/mol
# GULP energy per Si atom -5570.615631 kJ/mol
# Density = 1.770558 g / cm^3
# Si number density = 17.745966 Si / 1000 Ang^3
#
#
#
# Elastic Constant Matrix: (Units=GPa)
#
#
# Indices 1 2 3 4 5 6 
#
# 1 111.2156 30.9562 22.1908 0.0000 16.2261 0.0000
# 2 30.9562 44.1561 14.2877 0.0000 11.5367 0.0000
# 3 22.1908 14.2877 57.3181 0.0000 9.8366 0.0000
# 4 0.0000 0.0000 0.0000 -0.6995 0.0000 4.6329
# 5 16.2261 11.5367 9.8366 0.0000 32.4941 0.0000
# 6 0.0000 0.0000 0.0000 4.6329 0.0000 18.8590
#
#
#
# Elastic Compliance Matrix: (Units=1/GPa)
#
#
# Indices 1 2 3 4 5 6 
#
# 1 0.011747 -0.006743 -0.002396 0.000000 -0.002747 0.000000
# 2 -0.006743 0.030245 -0.003864 0.000000 -0.006201 0.000000
# 3 -0.002396 -0.003864 0.019932 0.000000 -0.003465 0.000000
# 4 0.000000 0.000000 0.000000 -0.544169 0.000000 0.133681
# 5 -0.002747 -0.006201 -0.003465 0.000000 0.035397 0.000000
# 6 0.000000 0.000000 0.000000 0.133681 0.000000 0.020185
#
#
# Mechanical properties :
#
#
# Convention : Reuss Voigt Hill
#
# Bulk Modulus (GPa) = 27.84118 38.61769 33.22943
# Shear Modulus (GPa) = -12.86388 19.81439 3.47526
#
# Velocity S-wave (km/s) = -2.69530 3.34512 1.40092
# Velocity P-wave (km/s) = 2.45695 6.06040 4.62412
#
# Compressibility (1/GPa) = 0.03591802
#
# Stress axis : x y z
#
# Youngs Moduli (GPa) = 85.12755 33.06385 50.17045
#
# Poissons Ratio (x) = 0.22293 0.12020
# Poissons Ratio (y) = 0.57398 0.19388
# Poissons Ratio (z) = 0.20395 0.12777
#
# Static dielectric constant tensor:
#      x y z
#    x 1.680610 0.000000 0.005130 
#    y 0.000000 1.578250 0.000000 
#    z 0.005130 0.000000 1.669270 
# 
# From -- ./inp_files/112367.got.cif
#   From: 2010.05.17/outbox.cif.g08.bks.cpg/sg15_57_cif.got.tgz:112367.got - 2010.06.03 18:47:42.
