data_PCOD9254032
_publ_section_title
;
Structure prediction by ZEFSAII (Michael W. Deem and Ramdas Pophale) SiO2 
 PCOD9254032
Probable space group: C 2/C
;
_chemical_formula_sum "Si O2"
_cell_formula_units_Z 36
_cell_length_a 6.835846
_cell_length_b 12.532154
_cell_length_c 20.834790
_cell_angle_alpha 90.000000
_cell_angle_beta 122.645902
_cell_angle_gamma 90.000000
_cell_volume 1502.898958
_symmetry_space_group_name_H-M "C 2/C"
_symmetry_group_IT_number 15
_symmetry_cell_setting 'monoclinic'
loop_
_space_group_symop_operation_xyz
x,y,z
-x,y,1/2-z
-x,-y,-z
x,-y,1/2+z
1/2+x,1/2+y,z
1/2-x,1/2+y,1/2-z
1/2-x,1/2-y,-z
1/2+x,1/2-y,1/2+z
loop_
_atom_site_type_symbol
_atom_site_label
_atom_site_fract_x
_atom_site_fract_y
_atom_site_fract_z
Si Si1 0.724830 0.818279 0.431023
Si Si2 0.779269 0.122534 0.486572
Si Si3 0.763208 0.088160 0.625232
Si Si4 0.417684 0.791068 0.838963
Si Si5 0.500000 0.409230 0.750000
O O1 0.750000 0.750000 0.500000
O O2 0.477962 0.875117 0.386177
O O3 0.773040 0.748272 0.376300
O O4 0.948457 0.894498 0.475380
O O5 0.750000 0.250000 0.500000
O O6 0.715085 0.066891 0.541454
O O7 0.605681 0.120632 0.395973
O O8 0.882140 0.986691 0.677525
O O9 0.942492 0.188340 0.660955
O O10 0.214969 0.840667 0.760058
#
# Coordination Sequence:
#
# PCOD9254032 Si02
#       5
#     8   8   8   8   4
#     4  10  15  37  73  93 114 166 213 271 323 350
#     4   8  16  35  66  92 119 156 215 270 306 360
#     4  10  21  42  64  91 128 166 208 267 317 366
#     4  10  22  41  63  94 129 160 215 266 304 385
#     4  12  28  40  62  96 136 180 202 248 334 392
#
# _framework density 23.953707999999999
#
# number of rings (size 3 to 8) (size 9 to 14) (size 15 to 20)
#    0.000    2.667    6.667    0.000    3.111    0.889 
#    0.000   10.000    0.000    0.000    0.000    0.000 
#    0.000    0.000    0.000    0.000    0.000    0.000 
#
# Total GULP energy -100575.862191 kJ/mol
# GULP energy per Si atom -5587.547899 kJ/mol
# Density = 2.389919 g / cm^3
# Si number density = 23.953708 Si / 1000 Ang^3
#
#
#
# Elastic Constant Matrix: (Units=GPa)
#
#
# Indices 1 2 3 4 5 6 
#
# 1 153.2340 44.9822 42.8237 0.0000 43.4538 0.0000
# 2 44.9822 99.7300 39.4787 0.0000 26.6306 0.0000
# 3 42.8237 39.4787 68.6069 0.0000 47.2283 0.0000
# 4 0.0000 0.0000 0.0000 48.4245 0.0000 22.2068
# 5 43.4538 26.6306 47.2283 0.0000 57.3423 0.0000
# 6 0.0000 0.0000 0.0000 22.2068 0.0000 25.0821
#
#
#
# Elastic Compliance Matrix: (Units=1/GPa)
#
#
# Indices 1 2 3 4 5 6 
#
# 1 0.008842 -0.002371 -0.000693 0.000000 -0.005028 0.000000
# 2 -0.002371 0.013623 -0.007484 0.000000 0.001634 0.000000
# 3 -0.000693 -0.007484 0.038244 0.000000 -0.027497 0.000000
# 4 0.000000 0.000000 0.000000 0.034766 0.000000 -0.030781
# 5 -0.005028 0.001634 -0.027497 0.000000 0.043138 0.000000
# 6 0.000000 0.000000 0.000000 -0.030781 0.000000 0.067121
#
#
# Mechanical properties :
#
#
# Convention : Reuss Voigt Hill
#
# Bulk Modulus (GPa) = 25.24474 64.01558 44.63016
# Shear Modulus (GPa) = 20.83041 39.12221 29.97631
#
# Velocity S-wave (km/s) = 2.95212 4.04572 3.54139
# Velocity P-wave (km/s) = 4.70976 6.97184 5.94930
#
# Compressibility (1/GPa) = 0.03961222
#
# Stress axis : x y z
#
# Youngs Moduli (GPa) = 113.10281 73.40734 26.14794
#
# Poissons Ratio (x) = 0.17403 0.01813
# Poissons Ratio (y) = 0.26815 0.19569
# Poissons Ratio (z) = 0.07842 0.54937
#
# Static dielectric constant tensor:
#      x y z
#    x 1.944650 0.000000 0.005020 
#    y 0.000000 2.011360 0.000000 
#    z 0.005020 0.000000 2.002610 
# 
# From -- ./inp_files/288184.got.cif
#   From: 2010.05.17/outbox.cif.g08.bks.cpg/sg15_145_cif.got.tgz:288184.got - 2010.06.03 18:47:42.
