data_PCOD9254635
_publ_section_title
;
Structure prediction by ZEFSAII (Michael W. Deem and Ramdas Pophale) SiO2 
 PCOD9254635
Probable space group: C 2/C
;
_chemical_formula_sum "Si O2"
_cell_formula_units_Z 48
_cell_length_a 17.233398
_cell_length_b 12.267501
_cell_length_c 11.493505
_cell_angle_alpha 90.000000
_cell_angle_beta 56.676151
_cell_angle_gamma 90.000000
_cell_volume 2030.331263
_symmetry_space_group_name_H-M "C 2/C"
_symmetry_group_IT_number 15
_symmetry_cell_setting 'monoclinic'
loop_
_space_group_symop_operation_xyz
x,y,z
-x,y,1/2-z
-x,-y,-z
x,-y,1/2+z
1/2+x,1/2+y,z
1/2-x,1/2+y,1/2-z
1/2-x,1/2-y,-z
1/2+x,1/2-y,1/2+z
loop_
_atom_site_type_symbol
_atom_site_label
_atom_site_fract_x
_atom_site_fract_y
_atom_site_fract_z
Si Si1 0.814203 0.032309 0.136631
Si Si2 0.177063 0.766060 0.729821
Si Si3 0.172179 0.662813 0.100816
Si Si4 0.577959 0.644728 0.094769
Si Si5 0.147144 0.444655 0.386617
Si Si6 0.106072 0.309822 0.891784
O O1 0.757749 0.974959 0.288466
O O2 0.859224 0.140773 0.151474
O O3 0.731710 0.068869 0.117192
O O4 0.882184 0.953226 0.013849
O O5 0.153292 0.802065 0.619844
O O6 0.139921 0.646549 0.792449
O O7 0.287591 0.773850 0.663730
O O8 0.103033 0.709005 0.255954
O O9 0.250000 0.750000 0.000000
O O10 0.125701 0.613876 0.025237
O O11 0.500000 0.609013 0.250000
O O12 0.547709 0.738367 0.028919
O O13 0.096532 0.560642 0.419160
#
# Coordination Sequence:
#
# PCOD9254635 Si02
#       6
#     8   8   8   8   8   8
#     4  10  20  34  58  92 115 149 191 239 302 344
#     4  10  20  37  62  86 113 148 196 249 290 340
#     4  10  16  32  57  92 117 135 184 251 293 336
#     4  12  25  40  56  82 126 163 193 234 289 363
#     4  10  18  33  60  92 112 140 191 253 296 328
#     4  10  22  33  61  90 113 151 191 245 295 344
#
# _framework density 23.641463999999999
#
# number of rings (size 3 to 8) (size 9 to 14) (size 15 to 20)
#    0.000    2.000    5.000    2.500    4.667    0.667 
#    0.000    0.833    0.000    0.000    0.000    0.000 
#    0.000    0.000    0.000    0.000    0.000    0.000 
#
# Total GULP energy -134097.151481 kJ/mol
# GULP energy per Si atom -5587.381312 kJ/mol
# Density = 2.358765 g / cm^3
# Si number density = 23.641464 Si / 1000 Ang^3
#
#
#
# Elastic Constant Matrix: (Units=GPa)
#
#
# Indices 1 2 3 4 5 6 
#
# 1 34.4922 -0.0188 10.9000 0.0000 -7.2968 0.0000
# 2 -0.0188 135.0250 37.3246 0.0000 2.5399 0.0000
# 3 10.9000 37.3246 117.8227 0.0000 18.9297 0.0000
# 4 0.0000 0.0000 0.0000 46.8203 0.0000 7.7517
# 5 -7.2968 2.5399 18.9297 0.0000 27.1107 0.0000
# 6 0.0000 0.0000 0.0000 7.7517 0.0000 15.8757
#
#
#
# Elastic Compliance Matrix: (Units=1/GPa)
#
#
# Indices 1 2 3 4 5 6 
#
# 1 0.033448 0.001301 -0.005556 0.000000 0.012760 0.000000
# 2 0.001301 0.008200 -0.002986 0.000000 0.001667 0.000000
# 3 -0.005556 -0.002986 0.011424 0.000000 -0.009193 0.000000
# 4 0.000000 0.000000 0.000000 0.023237 0.000000 -0.011346
# 5 0.012760 0.001667 -0.009193 0.000000 0.046583 0.000000
# 6 0.000000 0.000000 0.000000 -0.011346 0.000000 0.068529
#
#
# Mechanical properties :
#
#
# Convention : Reuss Voigt Hill
#
# Bulk Modulus (GPa) = 25.91402 42.63906 34.27654
# Shear Modulus (GPa) = 22.85530 33.90361 28.37945
#
# Velocity S-wave (km/s) = 3.11263 3.79103 3.46845
# Velocity P-wave (km/s) = 4.88907 6.10224 5.52903
#
# Compressibility (1/GPa) = 0.03858915
#
# Stress axis : x y z
#
# Youngs Moduli (GPa) = 29.89703 121.94791 87.53416
#
# Poissons Ratio (x) = -0.15860 0.48638
# Poissons Ratio (y) = -0.03888 0.26136
# Poissons Ratio (z) = 0.16612 0.36411
#
# Static dielectric constant tensor:
#      x y z
#    x 1.963140 0.000000 -0.061310 
#    y 0.000000 1.911580 0.000000 
#    z -0.061310 0.000000 1.953890 
# 
# From -- ./inp_files/110867.got.cif
#   From: 2010.05.17/outbox.cif.g08.bks.cpg/sg15_56_cif.got.tgz:110867.got - 2010.06.03 18:47:42.
