data_PCOD9254474
_publ_section_title
;
Structure prediction by ZEFSAII (Michael W. Deem and Ramdas Pophale) SiO2 
 PCOD9254474
Probable space group: C 2/C
;
_chemical_formula_sum "Si O2"
_cell_formula_units_Z 56
_cell_length_a 10.051994
_cell_length_b 15.106503
_cell_length_c 24.119967
_cell_angle_alpha 90.000000
_cell_angle_beta 34.169823
_cell_angle_gamma 90.000000
_cell_volume 2057.106827
_symmetry_space_group_name_H-M "C 2/C"
_symmetry_group_IT_number 15
_symmetry_cell_setting 'monoclinic'
loop_
_space_group_symop_operation_xyz
x,y,z
-x,y,1/2-z
-x,-y,-z
x,-y,1/2+z
1/2+x,1/2+y,z
1/2-x,1/2+y,1/2-z
1/2-x,1/2-y,-z
1/2+x,1/2-y,1/2+z
loop_
_atom_site_type_symbol
_atom_site_label
_atom_site_fract_x
_atom_site_fract_y
_atom_site_fract_z
Si Si1 0.251570 0.246491 0.117224
Si Si2 0.127989 0.880961 0.564219
Si Si3 0.205454 0.805508 0.899254
Si Si4 0.982042 0.436085 0.196448
Si Si5 0.813827 0.355981 0.161534
Si Si6 0.750137 0.450561 0.073130
Si Si7 0.516494 0.116751 0.379589
O O1 0.118515 0.196231 0.113055
O O2 0.154044 0.348229 0.152145
O O3 0.280014 0.175103 0.158398
O O4 0.518031 0.256930 0.003454
O O5 0.397090 0.870525 0.447049
O O6 0.948943 0.883212 0.574821
O O7 0.083787 0.970007 0.612988
O O8 0.243743 0.743066 0.834085
O O9 0.425360 0.826838 0.860121
O O10 0.977025 0.518477 0.152448
O O11 0.000000 0.481764 0.250000
O O12 0.768594 0.381794 0.240475
O O13 0.699833 0.406371 0.148741
O O14 0.811781 0.395459 0.997043
O O15 0.000000 0.500000 0.000000
#
# Coordination Sequence:
#
# PCOD9254474 Si02
#       7
#     8   8   8   8   8   8   8
#     4  11  20  39  65  90 120 165 207 254 323 383
#     4  10  16  32  60  90 121 155 196 255 320 378
#     4  11  20  33  62  99 128 141 196 272 335 370
#     4  12  25  43  62  84 124 180 221 245 296 393
#     4  10  17  36  58  86 120 156 206 249 310 374
#     4  10  16  30  59  87 120 154 190 252 322 370
#     4  12  23  38  60 101 130 153 198 268 332 372
#
# _framework density 27.222698000000001
#
# number of rings (size 3 to 8) (size 9 to 14) (size 15 to 20)
#    0.000    1.143   10.000    1.286    0.000    2.286 
#    2.571    0.000    0.000    0.000    0.000    0.000 
#    0.000    0.000    0.000    0.000    0.000    0.000 
#
# Total GULP energy -155959.848779 kJ/mol
# GULP energy per Si atom -5569.994599 kJ/mol
# Density = 2.716074 g / cm^3
# Si number density = 27.222698 Si / 1000 Ang^3
#
#
#
# Elastic Constant Matrix: (Units=GPa)
#
#
# Indices 1 2 3 4 5 6 
#
# 1 208.0239 67.2431 34.8584 0.0048 45.0362 -0.0028
# 2 67.2431 119.9579 40.1818 -0.0081 21.6035 0.0018
# 3 34.8584 40.1818 100.0393 -0.0046 12.6516 -0.0016
# 4 0.0048 -0.0081 -0.0046 19.1998 -0.0069 26.9001
# 5 45.0362 21.6035 12.6516 -0.0069 38.4520 0.0008
# 6 -0.0028 0.0018 -0.0016 26.9001 0.0008 57.1541
#
#
#
# Elastic Compliance Matrix: (Units=1/GPa)
#
#
# Indices 1 2 3 4 5 6 
#
# 1 0.007227 -0.002626 -0.000605 -0.000018 -0.006791 0.000009
# 2 -0.002626 0.011326 -0.003358 0.000014 -0.002183 -0.000007
# 3 -0.000605 -0.003358 0.011715 0.000001 -0.001259 0.000000
# 4 -0.000018 0.000014 0.000001 0.152928 0.000042 -0.071977
# 5 -0.006791 -0.002183 -0.001259 0.000042 0.035601 -0.000021
# 6 0.000009 -0.000007 0.000000 -0.071977 -0.000021 0.051373
#
#
# Mechanical properties :
#
#
# Convention : Reuss Voigt Hill
#
# Bulk Modulus (GPa) = 58.51131 79.17641 68.84386
# Shear Modulus (GPa) = 17.29833 42.01036 29.65434
#
# Velocity S-wave (km/s) = 2.52352 3.93263 3.30407
# Velocity P-wave (km/s) = 5.48007 7.05469 6.31664
#
# Compressibility (1/GPa) = 0.01709071
#
# Stress axis : x y z
#
# Youngs Moduli (GPa) = 138.36143 88.29071 85.36077
#
# Poissons Ratio (x) = 0.23183 0.05164
# Poissons Ratio (y) = 0.36331 0.28666
# Poissons Ratio (z) = 0.08370 0.29650
#
# Static dielectric constant tensor:
#      x y z
#    x 2.203910 0.000000 -0.015980 
#    y 0.000000 2.277290 0.000040 
#    z -0.015980 0.000040 2.058850 
# 
# From -- ./inp_files/265180.got.cif
#   From: 2010.05.17/outbox.cif.g08.bks.cpg/sg15_133_cif.got.tgz:265180.got - 2010.06.03 18:47:42.
