data_PCOD9254896
_publ_section_title
;
Structure prediction by ZEFSAII (Michael W. Deem and Ramdas Pophale) SiO2 
 PCOD9254896
Probable space group: C 2/C
;
_chemical_formula_sum "Si O2"
_cell_formula_units_Z 36
_cell_length_a 16.423981
_cell_length_b 10.506391
_cell_length_c 16.376828
_cell_angle_alpha 90.000000
_cell_angle_beta 145.487403
_cell_angle_gamma 90.000000
_cell_volume 1601.137778
_symmetry_space_group_name_H-M "C 2/C"
_symmetry_group_IT_number 15
_symmetry_cell_setting 'monoclinic'
loop_
_space_group_symop_operation_xyz
x,y,z
-x,y,1/2-z
-x,-y,-z
x,-y,1/2+z
1/2+x,1/2+y,z
1/2-x,1/2+y,1/2-z
1/2-x,1/2-y,-z
1/2+x,1/2-y,1/2+z
loop_
_atom_site_type_symbol
_atom_site_label
_atom_site_fract_x
_atom_site_fract_y
_atom_site_fract_z
Si Si1 0.500000 0.299210 0.750000
Si Si2 0.031124 0.656722 0.946508
Si Si3 0.351343 0.765248 0.661081
Si Si4 0.203683 0.986462 0.835413
Si Si5 0.234761 0.797770 0.732107
O O1 0.474681 0.216566 0.648244
O O2 0.636253 0.390468 0.846316
O O3 0.121909 0.525300 0.014618
O O4 0.132184 0.727579 0.096744
O O5 0.872151 0.677859 0.850622
O O6 0.500000 0.817300 0.750000
O O7 0.250000 0.750000 0.500000
O O8 0.364946 0.622598 0.708625
O O9 0.283051 0.835177 0.681794
O O10 0.162173 0.919333 0.715924
#
# Coordination Sequence:
#
# PCOD9254896 Si02
#       5
#     4   8   8   8   8
#     4  10  16  38  60 100 126 166 206 272 302 384
#     4   9  19  36  64  91 130 158 217 255 316 370
#     4  12  25  47  65  92 134 167 216 263 320 380
#     4   9  21  39  65  91 129 165 215 254 325 372
#     4   9  21  41  61  95 126 169 208 267 306 385
#
# _framework density 22.484012
#
# number of rings (size 3 to 8) (size 9 to 14) (size 15 to 20)
#    1.333    0.889    1.111    2.000    0.000    0.889 
#    6.000    3.333    0.000    0.000    0.000    0.000 
#    0.000    0.000    0.000    0.000    0.000    0.000 
#
# Total GULP energy -100275.497663 kJ/mol
# GULP energy per Si atom -5570.860981 kJ/mol
# Density = 2.243284 g / cm^3
# Si number density = 22.484012 Si / 1000 Ang^3
#
#
#
# Elastic Constant Matrix: (Units=GPa)
#
#
# Indices 1 2 3 4 5 6 
#
# 1 163.9071 2.3368 27.8651 0.0000 -17.3484 0.0000
# 2 2.3368 36.3493 -25.1203 0.0000 -10.6233 0.0000
# 3 27.8651 -25.1203 91.7703 0.0000 -7.6979 0.0000
# 4 0.0000 0.0000 0.0000 16.7482 0.0000 -11.0068
# 5 -17.3484 -10.6233 -7.6979 0.0000 34.5405 0.0000
# 6 0.0000 0.0000 0.0000 -11.0068 0.0000 21.2220
#
#
#
# Elastic Compliance Matrix: (Units=1/GPa)
#
#
# Indices 1 2 3 4 5 6 
#
# 1 0.006755 -0.001184 -0.002161 0.000000 0.002547 0.000000
# 2 -0.001184 0.040707 0.012740 0.000000 0.014765 0.000000
# 3 -0.002161 0.012740 0.015569 0.000000 0.006303 0.000000
# 4 0.000000 0.000000 0.000000 0.090584 0.000000 0.046981
# 5 0.002547 0.014765 0.006303 0.000000 0.036176 0.000000
# 6 0.000000 0.000000 0.000000 0.046981 0.000000 0.071487
#
#
# Mechanical properties :
#
#
# Convention : Reuss Voigt Hill
#
# Bulk Modulus (GPa) = 12.22167 33.57665 22.89916
# Shear Modulus (GPa) = 18.53491 33.63182 26.08337
#
# Velocity S-wave (km/s) = 2.87428 3.87177 3.40970
# Velocity P-wave (km/s) = 4.05744 5.91214 5.07032
#
# Compressibility (1/GPa) = 0.08182186
#
# Stress axis : x y z
#
# Youngs Moduli (GPa) = 148.04013 24.56602 64.22937
#
# Poissons Ratio (x) = 0.02908 0.13882
# Poissons Ratio (y) = 0.17521 -0.81831
# Poissons Ratio (z) = 0.31997 -0.31298
#
# Static dielectric constant tensor:
#      x y z
#    x 1.885230 0.000000 0.035750 
#    y 0.000000 1.887820 0.000000 
#    z 0.035750 0.000000 1.832320 
# 
# From -- ./inp_files/211013.got.cif
#   From: 2010.05.17/outbox.cif.g08.bks.cpg/sg15_106_cif.got.tgz:211013.got - 2010.06.03 18:47:42.
