data_PCOD9254239
_publ_section_title
;
Structure prediction by ZEFSAII (Michael W. Deem and Ramdas Pophale) SiO2 
 PCOD9254239
Probable space group: C 2/C
;
_chemical_formula_sum "Si O2"
_cell_formula_units_Z 56
_cell_length_a 24.220668
_cell_length_b 6.695751
_cell_length_c 18.506579
_cell_angle_alpha 90.000000
_cell_angle_beta 133.373406
_cell_angle_gamma 90.000000
_cell_volume 2181.636275
_symmetry_space_group_name_H-M "C 2/C"
_symmetry_group_IT_number 15
_symmetry_cell_setting 'monoclinic'
loop_
_space_group_symop_operation_xyz
x,y,z
-x,y,1/2-z
-x,-y,-z
x,-y,1/2+z
1/2+x,1/2+y,z
1/2-x,1/2+y,1/2-z
1/2-x,1/2-y,-z
1/2+x,1/2-y,1/2+z
loop_
_atom_site_type_symbol
_atom_site_label
_atom_site_fract_x
_atom_site_fract_y
_atom_site_fract_z
Si Si1 0.617702 0.314743 0.811763
Si Si2 0.198196 0.890967 0.235616
Si Si3 0.153941 0.653820 0.708904
Si Si4 0.412578 0.818823 0.512117
Si Si5 0.740707 0.895838 0.058946
Si Si6 0.540629 0.279104 0.041656
Si Si7 0.457546 0.612087 0.109024
O O1 0.626014 0.123329 0.765774
O O2 0.699859 0.421172 0.897415
O O3 0.584591 0.286957 0.861971
O O4 0.544722 0.435814 0.711232
O O5 0.263266 0.925194 0.235791
O O6 0.230553 0.804463 0.338792
O O7 0.128646 0.775669 0.139922
O O8 0.166177 0.107042 0.225741
O O9 0.109984 0.645466 0.593167
O O10 0.348561 0.927431 0.502437
O O11 0.502284 0.832168 0.574610
O O12 0.412230 0.588404 0.543341
O O13 0.750000 0.750000 0.000000
O O14 0.500000 0.500000 0.000000
O O15 0.537725 0.235196 0.953911
#
# Coordination Sequence:
#
# PCOD9254239 Si02
#       7
#     8   8   8   8   8   8   8
#     4  10  19  30  46  78 104 131 173 223 263 315
#     4  10  20  31  54  74 104 137 176 218 258 318
#     4  10  18  33  49  76 105 134 174 214 264 316
#     4  10  16  28  49  68  99 136 162 212 262 305
#     4  10  18  28  42  72 106 134 159 208 276 314
#     4  10  16  31  51  74  94 130 180 214 253 302
#     4  10  17  28  51  71 104 128 174 225 264 291
#
# _framework density 25.668807999999999
#
# number of rings (size 3 to 8) (size 9 to 14) (size 15 to 20)
#    0.000    2.000    5.714    2.571    0.000    0.000 
#    0.000    0.714    0.000    7.714    0.000    0.000 
#    0.000    0.000    0.000    0.000    0.000    0.000 
#
# Total GULP energy -155908.549070 kJ/mol
# GULP energy per Si atom -5568.162467 kJ/mol
# Density = 2.561039 g / cm^3
# Si number density = 25.668808 Si / 1000 Ang^3
#
#
#
# Elastic Constant Matrix: (Units=GPa)
#
#
# Indices 1 2 3 4 5 6 
#
# 1 200.2814 9.3884 32.8317 -0.0002 -12.8726 -0.0007
# 2 9.3884 62.2273 35.5381 0.0018 1.3954 0.0063
# 3 32.8317 35.5381 92.6068 0.0003 -5.1660 0.0009
# 4 -0.0002 0.0018 0.0003 134.4494 0.0004 352.8619
# 5 -12.8726 1.3954 -5.1660 0.0004 50.4893 0.0012
# 6 -0.0007 0.0063 0.0009 352.8619 0.0012 1164.3945
#
#
#
# Elastic Compliance Matrix: (Units=1/GPa)
#
#
# Indices 1 2 3 4 5 6 
#
# 1 0.005374 0.000274 -0.001946 0.000000 0.001163 0.000000
# 2 0.000274 0.020691 -0.008112 0.000000 -0.001332 0.000000
# 3 -0.001946 -0.008112 0.014670 0.000000 0.001229 0.000000
# 4 0.000000 0.000000 0.000000 0.036341 0.000000 -0.011013
# 5 0.001163 -0.001332 0.001229 0.000000 0.020265 0.000000
# 6 0.000000 0.000000 0.000000 -0.011013 0.000000 0.004196
#
#
# Mechanical properties :
#
#
# Convention : Reuss Voigt Hill
#
# Bulk Modulus (GPa) = 47.24014 56.73688 51.98851
# Shear Modulus (GPa) = 39.01378 288.35714 163.68546
#
# Velocity S-wave (km/s) = 3.90281 10.61044 7.99416
# Velocity P-wave (km/s) = 6.22518 13.12479 10.27163
#
# Compressibility (1/GPa) = 0.02116844
#
# Stress axis : x y z
#
# Youngs Moduli (GPa) = 186.08730 48.32949 68.16822
#
# Poissons Ratio (x) = -0.01325 0.13262
# Poissons Ratio (y) = -0.05103 0.55297
# Poissons Ratio (z) = 0.36203 0.39204
#
# Static dielectric constant tensor:
#      x y z
#    x -8.568050 -0.000010 8.212100 
#    y -0.000010 2.233770 0.000010 
#    z 8.212100 0.000010 -4.137120 
# 
# From -- ./inp_files/218990.got.cif
#   From: 2010.05.17/outbox.cif.g08.bks.cpg/sg15_110_cif.got.tgz:218990.got - 2010.06.03 18:47:42.
