data_PCOD9254698
_publ_section_title
;
Structure prediction by ZEFSAII (Michael W. Deem and Ramdas Pophale) SiO2 
 PCOD9254698
Probable space group: C 2/C
;
_chemical_formula_sum "Si O2"
_cell_formula_units_Z 48
_cell_length_a 13.049012
_cell_length_b 8.577084
_cell_length_c 26.450440
_cell_angle_alpha 90.000000
_cell_angle_beta 137.388515
_cell_angle_gamma 90.000000
_cell_volume 2004.259465
_symmetry_space_group_name_H-M "C 2/C"
_symmetry_group_IT_number 15
_symmetry_cell_setting 'monoclinic'
loop_
_space_group_symop_operation_xyz
x,y,z
-x,y,1/2-z
-x,-y,-z
x,-y,1/2+z
1/2+x,1/2+y,z
1/2-x,1/2+y,1/2-z
1/2-x,1/2-y,-z
1/2+x,1/2-y,1/2+z
loop_
_atom_site_type_symbol
_atom_site_label
_atom_site_fract_x
_atom_site_fract_y
_atom_site_fract_z
Si Si1 0.216800 0.372228 0.032470
Si Si2 0.917151 0.226479 0.274775
Si Si3 0.038959 0.886132 0.204216
Si Si4 0.848762 0.438489 0.730498
Si Si5 0.848419 0.910057 0.933844
Si Si6 0.353141 0.123024 0.564642
O O1 0.381670 0.412726 0.116210
O O2 0.132493 0.267386 0.042266
O O3 0.250000 0.250000 0.000000
O O4 0.116398 0.506124 0.970882
O O5 0.817914 0.382280 0.234309
O O6 0.000000 0.213802 0.250000
O O7 0.024670 0.281961 0.359529
O O8 0.867502 0.048273 0.267341
O O9 0.108353 0.712653 0.219609
O O10 0.000000 0.876883 0.250000
O O11 0.709561 0.398914 0.643857
O O12 0.000000 0.452113 0.750000
O O13 0.726921 0.009990 0.922757
O O14 0.000000 0.000000 0.000000
O O15 0.250000 0.250000 0.500000
#
# Coordination Sequence:
#
# PCOD9254698 Si02
#       6
#     8   8   8   8   8   8
#     4  10  19  33  56  88 117 155 199 248 303 361
#     4  10  18  31  57  89 110 152 210 253 281 355
#     4  10  17  29  55  87 115 144 211 254 280 352
#     4  10  16  33  58  83 107 158 213 236 280 363
#     4  11  22  38  58  89 125 160 195 257 313 361
#     4  11  20  35  61  90 121 153 204 253 306 363
#
# _framework density 23.948995
#
# number of rings (size 3 to 8) (size 9 to 14) (size 15 to 20)
#    0.000    1.667    8.333    1.000    0.000    0.000 
#    0.000    0.833    0.000    6.000    0.000    0.000 
#    0.000    0.000    0.000    0.000    0.000    0.000 
#
# Total GULP energy -133800.199911 kJ/mol
# GULP energy per Si atom -5575.008330 kJ/mol
# Density = 2.389449 g / cm^3
# Si number density = 23.948995 Si / 1000 Ang^3
#
#
#
# Elastic Constant Matrix: (Units=GPa)
#
#
# Indices 1 2 3 4 5 6 
#
# 1 40.5780 34.9673 3.8314 0.0000 -2.2037 0.0000
# 2 34.9673 172.6391 -2.0960 0.0000 0.1115 0.0000
# 3 3.8314 -2.0960 116.6254 0.0000 -21.9397 0.0000
# 4 0.0000 0.0000 0.0000 35.4152 0.0000 -12.7613
# 5 -2.2037 0.1115 -21.9397 0.0000 17.9229 0.0000
# 6 0.0000 0.0000 0.0000 -12.7613 0.0000 37.4850
#
#
#
# Elastic Compliance Matrix: (Units=1/GPa)
#
#
# Indices 1 2 3 4 5 6 
#
# 1 0.030127 -0.006110 -0.000514 0.000000 0.003113 0.000000
# 2 -0.006110 0.007033 0.000231 0.000000 -0.000513 0.000000
# 3 -0.000514 0.000231 0.011151 0.000000 0.013586 0.000000
# 4 0.000000 0.000000 0.000000 0.032185 0.000000 0.010957
# 5 0.003113 -0.000513 0.013586 0.000000 0.072811 0.000000
# 6 0.000000 0.000000 0.000000 0.010957 0.000000 0.030407
#
#
# Mechanical properties :
#
#
# Convention : Reuss Voigt Hill
#
# Bulk Modulus (GPa) = 28.14973 44.80532 36.47752
# Shear Modulus (GPa) = 23.99888 37.70728 30.85308
#
# Velocity S-wave (km/s) = 3.16900 3.97228 3.59316
# Velocity P-wave (km/s) = 5.01694 6.30777 5.69902
#
# Compressibility (1/GPa) = 0.03552432
#
# Stress axis : x y z
#
# Youngs Moduli (GPa) = 33.19292 142.18317 89.67584
#
# Poissons Ratio (x) = 0.86878 0.04608
# Poissons Ratio (y) = 0.20282 -0.02069
# Poissons Ratio (z) = 0.01706 -0.03280
#
# Static dielectric constant tensor:
#      x y z
#    x 0.840030 0.000000 -1.099180 
#    y 0.000000 1.938410 0.000000 
#    z -1.099180 0.000000 0.873890 
# 
# From -- ./inp_files/251357.got.cif
#   From: 2010.05.17/outbox.cif.g08.bks.cpg/sg15_126_cif.got.tgz:251357.got - 2010.06.03 18:47:42.
