data_PCOD9254226
_publ_section_title
;
Structure prediction by ZEFSAII (Michael W. Deem and Ramdas Pophale) SiO2 
 PCOD9254226
Probable space group: C 2/C
;
_chemical_formula_sum "Si O2"
_cell_formula_units_Z 64
_cell_length_a 15.346371
_cell_length_b 11.323073
_cell_length_c 16.427161
_cell_angle_alpha 90.000000
_cell_angle_beta 113.777625
_cell_angle_gamma 90.000000
_cell_volume 2612.216854
_symmetry_space_group_name_H-M "C 2/C"
_symmetry_group_IT_number 15
_symmetry_cell_setting 'monoclinic'
loop_
_space_group_symop_operation_xyz
x,y,z
-x,y,1/2-z
-x,-y,-z
x,-y,1/2+z
1/2+x,1/2+y,z
1/2-x,1/2+y,1/2-z
1/2-x,1/2-y,-z
1/2+x,1/2-y,1/2+z
loop_
_atom_site_type_symbol
_atom_site_label
_atom_site_fract_x
_atom_site_fract_y
_atom_site_fract_z
Si Si1 0.883101 0.597422 0.529767
Si Si2 0.856864 0.546802 0.243454
Si Si3 0.831021 0.843607 0.055345
Si Si4 0.649066 0.472653 0.601382
Si Si5 0.681389 0.425020 0.873547
Si Si6 0.046676 0.839850 0.970125
Si Si7 0.888653 0.297848 0.210748
Si Si8 0.535360 0.135236 0.382629
O O1 0.786578 0.599626 0.443950
O O2 0.952426 0.699704 0.524801
O O3 0.858638 0.640080 0.613520
O O4 0.925585 0.467049 0.544170
O O5 0.743216 0.546616 0.189825
O O6 0.877401 0.407801 0.267291
O O7 0.907759 0.594727 0.179415
O O8 0.921981 0.619068 0.331029
O O9 0.927183 0.767028 0.089167
O O10 0.827792 0.931529 0.132509
O O11 0.750000 0.750000 0.000000
O O12 0.820704 0.933789 0.977559
O O13 0.557992 0.390906 0.583354
O O14 0.602494 0.601356 0.567700
O O15 0.605476 0.379644 0.912262
O O16 0.662094 0.327134 0.796753
O O17 0.000000 0.274005 0.250000
#
# Coordination Sequence:
#
# PCOD9254226 Si02
#       8
#     8   8   8   8   8   8   8   8
#     4  10  16  31  53  78  99 129 166 217 256 294
#     4  10  17  31  52  76  98 129 174 212 256 311
#     4  11  18  33  51  75 102 134 173 207 253 305
#     4  10  19  32  53  74 101 135 170 214 250 311
#     4  10  19  30  54  76 103 129 166 219 255 303
#     4   9  18  31  52  77  99 128 171 207 264 299
#     4  10  16  28  47  79 101 119 163 218 264 290
#     4  10  18  30  53  76  98 133 175 209 254 308
#
# _framework density 24.500264000000001
#
# number of rings (size 3 to 8) (size 9 to 14) (size 15 to 20)
#    0.000    2.000    5.000    4.500    0.000    0.000 
#    2.250    0.625    8.250    0.000    0.000    0.000 
#    0.000    0.000    0.000    0.000    0.000    0.000 
#
# Total GULP energy -178504.243913 kJ/mol
# GULP energy per Si atom -5578.257622 kJ/mol
# Density = 2.444450 g / cm^3
# Si number density = 24.500264 Si / 1000 Ang^3
#
#
#
# Elastic Constant Matrix: (Units=GPa)
#
#
# Indices 1 2 3 4 5 6 
#
# 1 47.0656 0.5530 28.7044 0.0000 14.7506 0.0000
# 2 0.5530 153.4556 38.9777 0.0000 10.5843 0.0000
# 3 28.7044 38.9777 106.9759 0.0000 52.4650 0.0000
# 4 0.0000 0.0000 0.0000 29.0505 0.0000 7.9596
# 5 14.7506 10.5843 52.4650 0.0000 38.8114 0.0000
# 6 0.0000 0.0000 0.0000 7.9596 0.0000 27.3370
#
#
#
# Elastic Compliance Matrix: (Units=1/GPa)
#
#
# Indices 1 2 3 4 5 6 
#
# 1 0.025868 0.001832 -0.007542 0.000000 -0.000136 0.000000
# 2 0.001832 0.007610 -0.005652 0.000000 0.004869 0.000000
# 3 -0.007542 -0.005652 0.033437 0.000000 -0.040792 0.000000
# 4 0.000000 0.000000 0.000000 0.037407 0.000000 -0.010892
# 5 -0.000136 0.004869 -0.040792 0.000000 0.079632 0.000000
# 6 0.000000 0.000000 0.000000 -0.010892 0.000000 0.039752
#
#
# Mechanical properties :
#
#
# Convention : Reuss Voigt Hill
#
# Bulk Modulus (GPa) = 22.62965 49.32972 35.97969
# Shear Modulus (GPa) = 19.14544 34.99059 27.06801
#
# Velocity S-wave (km/s) = 2.79845 3.78322 3.32747
# Velocity P-wave (km/s) = 4.43828 6.26592 5.42955
#
# Compressibility (1/GPa) = 0.04418981
#
# Stress axis : x y z
#
# Youngs Moduli (GPa) = 38.65852 131.41006 29.90709
#
# Poissons Ratio (x) = -0.24071 0.22555
# Poissons Ratio (y) = -0.07081 0.16904
# Poissons Ratio (z) = 0.29155 0.74276
#
# Static dielectric constant tensor:
#      x y z
#    x 2.046920 0.000000 -0.129300 
#    y 0.000000 2.005390 0.000000 
#    z -0.129300 0.000000 2.027200 
# 
# From -- ./inp_files/298694.got.cif
#   From: 2010.05.17/outbox.cif.g08.bks.cpg/sg15_150_cif.got.tgz:298694.got - 2010.06.03 18:47:42.
