data_PCOD9254664
_publ_section_title
;
Structure prediction by ZEFSAII (Michael W. Deem and Ramdas Pophale) SiO2 
 PCOD9254664
Probable space group: C 2/C
;
_chemical_formula_sum "Si O2"
_cell_formula_units_Z 44
_cell_length_a 16.830664
_cell_length_b 7.308571
_cell_length_c 32.357502
_cell_angle_alpha 90.000000
_cell_angle_beta 25.661363
_cell_angle_gamma 90.000000
_cell_volume 1723.646116
_symmetry_space_group_name_H-M "C 2/C"
_symmetry_group_IT_number 15
_symmetry_cell_setting 'monoclinic'
loop_
_space_group_symop_operation_xyz
x,y,z
-x,y,1/2-z
-x,-y,-z
x,-y,1/2+z
1/2+x,1/2+y,z
1/2-x,1/2+y,1/2-z
1/2-x,1/2-y,-z
1/2+x,1/2-y,1/2+z
loop_
_atom_site_type_symbol
_atom_site_label
_atom_site_fract_x
_atom_site_fract_y
_atom_site_fract_z
Si Si1 0.674573 0.120003 0.851316
Si Si2 0.374847 0.052049 0.860059
Si Si3 0.564072 0.712766 0.966447
Si Si4 0.603174 0.348251 0.040252
Si Si5 0.000000 0.795664 0.250000
Si Si6 0.270309 0.998148 0.759791
O O1 0.855317 0.083901 0.793399
O O2 0.651942 0.988530 0.822893
O O3 0.724216 0.312086 0.805314
O O4 0.520007 0.165390 0.957624
O O5 0.281632 0.190754 0.871671
O O6 0.570307 0.096399 0.788379
O O7 0.397864 0.851077 0.827946
O O8 0.221413 0.020337 0.967248
O O9 0.481475 0.756459 0.960258
O O10 0.500000 0.500000 0.000000
O O11 0.427813 0.408977 0.148442
O O12 0.750000 0.250000 0.000000
#
# Coordination Sequence:
#
# PCOD9254664 Si02
#       6
#     8   8   8   8   4   8
#     4  11  21  37  61  93 122 161 204 256 302 366
#     4  10  19  35  58  87 121 152 204 255 291 359
#     4  10  17  36  59  88 115 159 213 250 295 357
#     4  11  20  36  60  92 120 156 204 259 302 358
#     4  10  16  32  60  88 108 158 206 244 282 366
#     4  11  23  36  61  95 127 158 208 254 311 355
#
# _framework density 25.527280000000001
#
# number of rings (size 3 to 8) (size 9 to 14) (size 15 to 20)
#    0.000    1.455    7.273    3.273    0.000    0.727 
#    0.000    0.000    0.000   13.091    0.000    0.000 
#    0.000    0.000    0.000    0.000    0.000    0.000 
#
# Total GULP energy -122966.673388 kJ/mol
# GULP energy per Si atom -5589.394245 kJ/mol
# Density = 2.546918 g / cm^3
# Si number density = 25.527280 Si / 1000 Ang^3
#
#
#
# Elastic Constant Matrix: (Units=GPa)
#
#
# Indices 1 2 3 4 5 6 
#
# 1 178.4552 32.7750 48.1973 -0.1972 -16.9583 0.0194
# 2 32.7750 60.9238 21.8971 -0.3067 3.7205 0.0196
# 3 48.1973 21.8971 130.6718 -0.1363 1.5661 -0.1880
# 4 -0.1972 -0.3067 -0.1363 9.8379 -0.0043 22.4005
# 5 -16.9583 3.7205 1.5661 -0.0043 58.1593 0.0152
# 6 0.0194 0.0196 -0.1880 22.4005 0.0152 30.7867
#
#
#
# Elastic Compliance Matrix: (Units=1/GPa)
#
#
# Indices 1 2 3 4 5 6 
#
# 1 0.006955 -0.003139 -0.002067 -0.000077 0.002284 0.000040
# 2 -0.003139 0.018940 -0.001991 -0.000833 -0.002073 0.000585
# 3 -0.002067 -0.001991 0.008757 0.000169 -0.000711 -0.000066
# 4 -0.000077 -0.000833 0.000169 -0.154738 -0.000015 0.112589
# 5 0.002284 -0.002073 -0.000711 -0.000015 0.018012 -0.000003
# 6 0.000040 0.000585 -0.000066 0.112589 -0.000003 -0.049439
#
#
# Mechanical properties :
#
#
# Convention : Reuss Voigt Hill
#
# Bulk Modulus (GPa) = 49.36033 63.97664 56.66848
# Shear Modulus (GPa) = -38.35402 37.56888 -0.39257
#
# Velocity S-wave (km/s) = -3.88038 3.84046 -0.39258
# Velocity P-wave (km/s) = 0.83556 6.69193 4.69488
#
# Compressibility (1/GPa) = 0.02025919
#
# Stress axis : x y z
#
# Youngs Moduli (GPa) = 143.77465 52.79700 114.18910
#
# Poissons Ratio (x) = 0.16572 0.23601
# Poissons Ratio (y) = 0.45128 0.22739
# Poissons Ratio (z) = 0.29716 0.10514
#
# Static dielectric constant tensor:
#      x y z
#    x 2.036780 -0.000040 0.029950 
#    y -0.000040 2.110550 -0.000040 
#    z 0.029950 -0.000040 2.045590 
# 
# From -- ./inp_files/177518.got.cif
#   From: 2010.05.17/outbox.cif.g08.bks.cpg/sg15_89_cif.got.tgz:177518.got - 2010.06.03 18:47:42.
