data_PCOD9254230
_publ_section_title
;
Structure prediction by ZEFSAII (Michael W. Deem and Ramdas Pophale) SiO2 
 PCOD9254230
Probable space group: C 2/C
;
_chemical_formula_sum "Si O2"
_cell_formula_units_Z 48
_cell_length_a 21.098748
_cell_length_b 6.888759
_cell_length_c 19.625202
_cell_angle_alpha 90.000000
_cell_angle_beta 141.190591
_cell_angle_gamma 90.000000
_cell_volume 1787.695439
_symmetry_space_group_name_H-M "C 2/C"
_symmetry_group_IT_number 15
_symmetry_cell_setting 'monoclinic'
loop_
_space_group_symop_operation_xyz
x,y,z
-x,y,1/2-z
-x,-y,-z
x,-y,1/2+z
1/2+x,1/2+y,z
1/2-x,1/2+y,1/2-z
1/2-x,1/2-y,-z
1/2+x,1/2-y,1/2+z
loop_
_atom_site_type_symbol
_atom_site_label
_atom_site_fract_x
_atom_site_fract_y
_atom_site_fract_z
Si Si1 0.409435 0.420771 0.721489
Si Si2 0.818816 0.443231 0.965737
Si Si3 0.870220 0.252216 0.598295
Si Si4 0.021231 0.955240 0.431775
Si Si5 0.880234 0.650774 0.380669
Si Si6 0.833463 0.246150 0.361426
O O1 0.500000 0.339412 0.750000
O O2 0.292588 0.358060 0.611082
O O3 0.405671 0.653562 0.698074
O O4 0.441262 0.404593 0.826959
O O5 0.880320 0.313347 0.963060
O O6 0.799034 0.634141 0.900768
O O7 0.885392 0.528827 0.083325
O O8 0.750000 0.250000 0.500000
O O9 0.907733 0.099861 0.572933
O O10 0.955160 0.766318 0.396237
O O11 0.901576 0.061789 0.438987
O O12 0.897157 0.421813 0.382837
O O13 0.764965 0.689279 0.261844
#
# Coordination Sequence:
#
# PCOD9254230 Si02
#       6
#     8   8   8   8   8   8
#     4   9  15  26  45  71 102 120 162 206 251 279
#     4   8  16  28  44  68 104 122 157 200 249 290
#     4   8  15  25  42  70  99 124 152 207 252 279
#     4  10  16  28  48  71  98 129 163 200 250 296
#     4  10  18  32  47  69 104 133 159 204 243 299
#     4   9  19  29  47  69 101 129 159 198 246 293
#
# _framework density 26.850213
#
# number of rings (size 3 to 8) (size 9 to 14) (size 15 to 20)
#    1.000    2.000    1.667    0.500    0.000    0.000 
#    0.000    3.333    0.000    0.000    0.000    4.667 
#    0.000    0.000    0.000    0.000    0.000    0.000 
#
# Total GULP energy -133684.086616 kJ/mol
# GULP energy per Si atom -5570.170276 kJ/mol
# Density = 2.678910 g / cm^3
# Si number density = 26.850213 Si / 1000 Ang^3
#
#
#
# Elastic Constant Matrix: (Units=GPa)
#
#
# Indices 1 2 3 4 5 6 
#
# 1 92.7540 24.3906 11.9488 0.0000 4.2085 0.0000
# 2 24.3906 45.2595 -16.3476 0.0000 -6.2943 0.0000
# 3 11.9488 -16.3476 97.8715 0.0000 -11.5517 0.0000
# 4 0.0000 0.0000 0.0000 31.5854 0.0000 -13.1932
# 5 4.2085 -6.2943 -11.5517 0.0000 57.0871 0.0000
# 6 0.0000 0.0000 0.0000 -13.1932 0.0000 27.6685
#
#
#
# Elastic Compliance Matrix: (Units=1/GPa)
#
#
# Indices 1 2 3 4 5 6 
#
# 1 0.013736 -0.009048 -0.003509 0.000000 -0.002720 0.000000
# 2 -0.009048 0.030165 0.006776 0.000000 0.005364 0.000000
# 3 -0.003509 0.006776 0.012188 0.000000 0.003472 0.000000
# 4 0.000000 0.000000 0.000000 0.039534 0.000000 0.018851
# 5 -0.002720 0.005364 0.003472 0.000000 0.019012 0.000000
# 6 0.000000 0.000000 0.000000 0.018851 0.000000 0.045131
#
#
# Mechanical properties :
#
#
# Convention : Reuss Voigt Hill
#
# Bulk Modulus (GPa) = 22.45928 30.65207 26.55567
# Shear Modulus (GPa) = 26.85713 37.66107 32.25910
#
# Velocity S-wave (km/s) = 3.16612 3.74924 3.46995
# Velocity P-wave (km/s) = 4.66353 5.49392 5.09567
#
# Compressibility (1/GPa) = 0.04452503
#
# Stress axis : x y z
#
# Youngs Moduli (GPa) = 72.80089 33.15146 82.05080
#
# Poissons Ratio (x) = 0.29997 0.28795
# Poissons Ratio (y) = 0.65873 -0.55599
# Poissons Ratio (z) = 0.25549 -0.22464
#
# Static dielectric constant tensor:
#      x y z
#    x 2.206790 0.000000 -0.036710 
#    y 0.000000 2.166010 0.000000 
#    z -0.036710 0.000000 2.155560 
# 
# From -- ./inp_files/300275.got.cif
#   From: 2010.05.17/outbox.cif.g08.bks.cpg/sg15_151_cif.got.tgz:300275.got - 2010.06.03 18:47:42.
