data_PCOD9254227
_publ_section_title
;
Structure prediction by ZEFSAII (Michael W. Deem and Ramdas Pophale) SiO2 
 PCOD9254227
Probable space group: C 2/C
;
_chemical_formula_sum "Si O2"
_cell_formula_units_Z 52
_cell_length_a 10.384670
_cell_length_b 23.057507
_cell_length_c 12.043284
_cell_angle_alpha 90.000000
_cell_angle_beta 82.066833
_cell_angle_gamma 90.000000
_cell_volume 2856.101566
_symmetry_space_group_name_H-M "C 2/C"
_symmetry_group_IT_number 15
_symmetry_cell_setting 'monoclinic'
loop_
_space_group_symop_operation_xyz
x,y,z
-x,y,1/2-z
-x,-y,-z
x,-y,1/2+z
1/2+x,1/2+y,z
1/2-x,1/2+y,1/2-z
1/2-x,1/2-y,-z
1/2+x,1/2-y,1/2+z
loop_
_atom_site_type_symbol
_atom_site_label
_atom_site_fract_x
_atom_site_fract_y
_atom_site_fract_z
Si Si1 0.347920 0.942308 0.584343
Si Si2 0.698071 0.775297 0.740839
Si Si3 0.917113 0.694187 0.644239
Si Si4 0.551166 0.063062 0.866496
Si Si5 0.395095 0.733966 0.523833
Si Si6 0.000000 0.367485 0.750000
Si Si7 0.611184 0.361460 0.647582
O O1 0.425138 0.934247 0.460746
O O2 0.432792 0.907406 0.665954
O O3 0.205575 0.914201 0.603382
O O4 0.356423 0.010545 0.608610
O O5 0.786805 0.731891 0.661740
O O6 0.608877 0.822889 0.691452
O O7 0.799534 0.815032 0.797612
O O8 0.615544 0.738991 0.842225
O O9 0.000000 0.702292 0.750000
O O10 0.886973 0.626552 0.637923
O O11 0.010139 0.717416 0.536694
O O12 0.500000 0.050976 0.750000
O O13 0.250000 0.750000 0.500000
O O14 0.432943 0.673828 0.457692
O O15 0.500000 0.377223 0.750000
#
# Coordination Sequence:
#
# PCOD9254227 Si02
#       7
#     8   8   8   8   8   4   8
#     4  10  21  37  56  81 106 143 183 219 271 314
#     4  10  19  30  50  75 114 137 173 213 268 323
#     4  11  17  29  51  81 103 133 176 226 266 303
#     4  10  21  35  56  82 105 139 183 231 261 305
#     4  10  16  28  47  80 107 131 168 224 265 310
#     4  10  20  36  52  78 114 152 166 214 266 342
#     4  10  17  31  55  81 104 135 178 230 265 315
#
# _framework density 18.206636
#
# number of rings (size 3 to 8) (size 9 to 14) (size 15 to 20)
#    0.000    1.846    5.385    2.769    2.154    0.000 
#    0.000    3.077    1.692    0.923    0.000    0.000 
#    0.000    0.000    0.000    0.000    0.000    0.000 
#
# Total GULP energy -144944.880000 kJ/mol
# GULP energy per Si atom -5574.803077 kJ/mol
# Density = 1.816520 g / cm^3
# Si number density = 18.206636 Si / 1000 Ang^3
#
#
#
# Elastic Constant Matrix: (Units=GPa)
#
#
# Indices 1 2 3 4 5 6 
#
# 1 30.3038 28.7774 19.5705 0.0000 -7.0863 0.0000
# 2 28.7774 100.1623 24.4866 0.0000 -23.3074 0.0000
# 3 19.5705 24.4866 84.1228 0.0000 -13.7132 0.0000
# 4 0.0000 0.0000 0.0000 16.6985 0.0000 -22.8762
# 5 -7.0863 -23.3074 -13.7132 0.0000 19.1748 0.0000
# 6 0.0000 0.0000 0.0000 -22.8762 0.0000 97.5299
#
#
#
# Elastic Compliance Matrix: (Units=1/GPa)
#
#
# Indices 1 2 3 4 5 6 
#
# 1 0.050093 -0.013148 -0.008392 0.000000 -0.003472 0.000000
# 2 -0.013148 0.017534 0.000721 0.000000 0.016969 0.000000
# 3 -0.008392 0.000721 0.015018 0.000000 0.008516 0.000000
# 4 0.000000 0.000000 0.000000 0.088239 0.000000 0.020697
# 5 -0.003472 0.016969 0.008516 0.000000 0.077586 0.000000
# 6 0.000000 0.000000 0.000000 0.020697 0.000000 0.015108
#
#
# Mechanical properties :
#
#
# Convention : Reuss Voigt Hill
#
# Bulk Modulus (GPa) = 24.38653 40.02866 32.20759
# Shear Modulus (GPa) = 15.67961 36.13096 25.90529
#
# Velocity S-wave (km/s) = 2.93781 4.45960 3.77616
# Velocity P-wave (km/s) = 4.99310 6.96784 6.06143
#
# Compressibility (1/GPa) = 0.04100625
#
# Stress axis : x y z
#
# Youngs Moduli (GPa) = 19.96278 57.03273 66.58657
#
# Poissons Ratio (x) = 0.74988 0.55883
# Poissons Ratio (y) = 0.26248 -0.04803
# Poissons Ratio (z) = 0.16754 -0.04114
#
# Static dielectric constant tensor:
#      x y z
#    x 1.643130 0.000000 0.026240 
#    y 0.000000 1.636270 0.000000 
#    z 0.026240 0.000000 1.669460 
# 
# From -- ./inp_files/146639.got.cif
#   From: 2010.05.17/outbox.cif.g08.bks.cpg/sg15_74_cif.got.tgz:146639.got - 2010.06.03 18:47:42.
