data_PCOD9254953
_publ_section_title
;
Structure prediction by ZEFSAII (Michael W. Deem and Ramdas Pophale) SiO2 
 PCOD9254953
Probable space group: C 2/C
;
_chemical_formula_sum "Si O2"
_cell_formula_units_Z 48
_cell_length_a 23.535717
_cell_length_b 6.646358
_cell_length_c 13.819852
_cell_angle_alpha 90.000000
_cell_angle_beta 54.984071
_cell_angle_gamma 90.000000
_cell_volume 1770.494196
_symmetry_space_group_name_H-M "C 2/C"
_symmetry_group_IT_number 15
_symmetry_cell_setting 'monoclinic'
loop_
_space_group_symop_operation_xyz
x,y,z
-x,y,1/2-z
-x,-y,-z
x,-y,1/2+z
1/2+x,1/2+y,z
1/2-x,1/2+y,1/2-z
1/2-x,1/2-y,-z
1/2+x,1/2-y,1/2+z
loop_
_atom_site_type_symbol
_atom_site_label
_atom_site_fract_x
_atom_site_fract_y
_atom_site_fract_z
Si Si1 0.652749 0.100681 0.401560
Si Si2 0.522231 0.766285 0.952789
Si Si3 0.780490 0.049755 0.391712
Si Si4 0.930324 0.996778 0.275931
Si Si5 0.116501 0.833497 0.972516
Si Si6 0.765363 0.421616 0.855535
O O1 0.724927 0.161952 0.378589
O O2 0.626951 0.904801 0.481148
O O3 0.589920 0.255727 0.454229
O O4 0.672613 0.020376 0.275546
O O5 0.546870 0.679548 0.822953
O O6 0.448661 0.654050 0.036552
O O7 0.500000 0.000000 0.000000
O O8 0.861073 0.114735 0.309324
O O9 0.781142 0.814784 0.359391
O O10 0.745378 0.031395 0.532130
O O11 0.901069 0.906353 0.403634
O O12 0.000000 0.105182 0.250000
O O13 0.191205 0.920180 0.872992
#
# Coordination Sequence:
#
# PCOD9254953 Si02
#       6
#     8   8   8   8   8   8
#     4  10  17  25  46  72  96 120 153 198 236 276
#     4   9  16  26  42  72  96 116 150 198 239 274
#     4   9  17  28  45  70  95 124 156 191 238 272
#     4   9  15  28  48  68  97 121 154 200 235 269
#     4   8  17  28  44  69  95 122 152 194 241 267
#     4   9  16  29  46  68  97 121 155 199 227 279
#
# _framework density 27.111073000000001
#
# number of rings (size 3 to 8) (size 9 to 14) (size 15 to 20)
#    0.000    3.000    1.667    1.000    0.000    0.000 
#    0.000    0.000    0.000   13.000    0.000    0.000 
#    0.000    0.000    0.000    0.000    0.000    0.000 
#
# Total GULP energy -134038.223895 kJ/mol
# GULP energy per Si atom -5584.925996 kJ/mol
# Density = 2.704937 g / cm^3
# Si number density = 27.111073 Si / 1000 Ang^3
#
#
#
# Elastic Constant Matrix: (Units=GPa)
#
#
# Indices 1 2 3 4 5 6 
#
# 1 252.8182 38.9370 28.4988 0.0001 -14.6298 0.0002
# 2 38.9370 84.4276 32.6806 0.0000 2.8235 0.0003
# 3 28.4988 32.6806 124.1564 0.0000 -8.4350 0.0000
# 4 0.0001 0.0000 0.0000 24.7596 0.0000 -1.4195
# 5 -14.6298 2.8235 -8.4350 0.0000 33.3062 0.0000
# 6 0.0002 0.0003 0.0000 -1.4195 0.0000 55.8587
#
#
#
# Elastic Compliance Matrix: (Units=1/GPa)
#
#
# Indices 1 2 3 4 5 6 
#
# 1 0.004415 -0.001964 -0.000359 0.000000 0.002015 0.000000
# 2 -0.001964 0.014199 -0.003487 0.000000 -0.002950 0.000000
# 3 -0.000359 -0.003487 0.009223 0.000000 0.002473 0.000000
# 4 0.000000 0.000000 0.000000 0.040447 0.000000 0.001028
# 5 0.002015 -0.002950 0.002473 0.000000 0.031786 0.000000
# 6 0.000000 0.000000 0.000000 0.001028 0.000000 0.017928
#
#
# Mechanical properties :
#
#
# Convention : Reuss Voigt Hill
#
# Bulk Modulus (GPa) = 61.67121 73.51499 67.59310
# Shear Modulus (GPa) = 37.03019 46.87061 41.95040
#
# Velocity S-wave (km/s) = 3.69978 4.16244 3.93791
# Velocity P-wave (km/s) = 6.40688 7.09058 6.75738
#
# Compressibility (1/GPa) = 0.01621502
#
# Stress axis : x y z
#
# Youngs Moduli (GPa) = 226.49714 70.42843 108.42765
#
# Poissons Ratio (x) = 0.13835 0.03898
# Poissons Ratio (y) = 0.44493 0.37808
# Poissons Ratio (z) = 0.08142 0.24558
#
# Static dielectric constant tensor:
#      x y z
#    x 2.243470 0.000000 0.012790 
#    y 0.000000 2.167730 0.000000 
#    z 0.012790 0.000000 2.048770 
# 
# From -- ./inp_files/110523.got.cif
#   From: 2010.05.17/outbox.cif.g08.bks.cpg/sg15_56_cif.got.tgz:110523.got - 2010.06.03 18:47:42.
