data_PCOD9254544
_publ_section_title
;
Structure prediction by ZEFSAII (Michael W. Deem and Ramdas Pophale) SiO2 
 PCOD9254544
Probable space group: C 2/C
;
_chemical_formula_sum "Si O2"
_cell_formula_units_Z 56
_cell_length_a 11.763622
_cell_length_b 8.447728
_cell_length_c 26.457770
_cell_angle_alpha 90.000000
_cell_angle_beta 72.804404
_cell_angle_gamma 90.000000
_cell_volume 2511.738904
_symmetry_space_group_name_H-M "C 2/C"
_symmetry_group_IT_number 15
_symmetry_cell_setting 'monoclinic'
loop_
_space_group_symop_operation_xyz
x,y,z
-x,y,1/2-z
-x,-y,-z
x,-y,1/2+z
1/2+x,1/2+y,z
1/2-x,1/2+y,1/2-z
1/2-x,1/2-y,-z
1/2+x,1/2-y,1/2+z
loop_
_atom_site_type_symbol
_atom_site_label
_atom_site_fract_x
_atom_site_fract_y
_atom_site_fract_z
Si Si1 0.299983 0.447457 0.884811
Si Si2 0.000685 0.290723 0.404250
Si Si3 0.118483 0.963085 0.952905
Si Si4 0.296696 0.655122 0.647519
Si Si5 0.491064 0.344255 0.308574
Si Si6 0.809809 0.425679 0.498068
Si Si7 0.532821 0.968715 0.189766
O O1 0.402119 0.337233 0.897593
O O2 0.239176 0.338931 0.850146
O O3 0.373562 0.590469 0.851523
O O4 0.205466 0.476166 0.941909
O O5 0.935282 0.403306 0.453731
O O6 0.031644 0.383578 0.348946
O O7 0.098846 0.187808 0.419911
O O8 0.142106 0.111781 0.913461
O O9 0.229241 0.955612 0.975835
O O10 0.000000 0.000000 0.000000
O O11 0.389589 0.607455 0.677746
O O12 0.173486 0.560970 0.665183
O O13 0.500000 0.401983 0.250000
O O14 0.490046 0.154688 0.309108
O O15 0.750000 0.250000 0.500000
O O16 0.500000 0.907309 0.250000
#
# Coordination Sequence:
#
# PCOD9254544 Si02
#       7
#     8   8   8   8   8   8   8
#     4  10  19  36  64  97 127 168 218 268 316 399
#     4  10  19  35  60  93 127 170 214 265 321 392
#     4  12  17  31  66  98 126 173 214 257 328 395
#     4  11  22  42  65  95 126 173 217 262 336 387
#     4  11  25  44  63  93 129 168 224 278 330 391
#     4  10  16  31  58  96 130 166 213 259 322 389
#     4  10  24  47  62  89 134 170 221 284 319 389
#
# _framework density 22.295309
#
# number of rings (size 3 to 8) (size 9 to 14) (size 15 to 20)
#    0.000    1.429    8.571    0.000    0.000    4.571 
#    7.714    0.714    0.000    4.286    0.000    0.000 
#    0.000    0.000    0.000    0.000    0.000    0.000 
#
# Total GULP energy -156487.508986 kJ/mol
# GULP energy per Si atom -5588.839607 kJ/mol
# Density = 2.224456 g / cm^3
# Si number density = 22.295309 Si / 1000 Ang^3
#
#
#
# Elastic Constant Matrix: (Units=GPa)
#
#
# Indices 1 2 3 4 5 6 
#
# 1 59.0209 10.9424 -1.4100 0.0000 -6.6392 0.0000
# 2 10.9424 44.6258 19.5154 0.0000 -6.3746 0.0000
# 3 -1.4100 19.5154 97.2816 0.0000 -1.9159 0.0000
# 4 0.0000 0.0000 0.0000 37.4431 0.0000 7.4748
# 5 -6.6392 -6.3746 -1.9159 0.0000 10.6185 0.0000
# 6 0.0000 0.0000 0.0000 7.4748 0.0000 39.1590
#
#
#
# Elastic Compliance Matrix: (Units=1/GPa)
#
#
# Indices 1 2 3 4 5 6 
#
# 1 0.018757 -0.003745 0.001214 0.000000 0.009699 0.000000
# 2 -0.003745 0.027543 -0.005319 0.000000 0.013234 0.000000
# 3 0.001214 -0.005319 0.011356 0.000000 -0.000385 0.000000
# 4 0.000000 0.000000 0.000000 0.027765 0.000000 -0.005300
# 5 0.009699 0.013234 -0.000385 0.000000 0.108115 0.000000
# 6 0.000000 0.000000 0.000000 -0.005300 0.000000 0.026549
#
#
# Mechanical properties :
#
#
# Convention : Reuss Voigt Hill
#
# Bulk Modulus (GPa) = 23.83352 28.78042 26.30697
# Shear Modulus (GPa) = 20.01829 28.90280 24.46055
#
# Velocity S-wave (km/s) = 2.99970 3.60441 3.31587
# Velocity P-wave (km/s) = 4.76558 5.50083 5.14635
#
# Compressibility (1/GPa) = 0.04195771
#
# Stress axis : x y z
#
# Youngs Moduli (GPa) = 53.31207 36.30642 88.05534
#
# Poissons Ratio (x) = 0.13596 -0.10691
# Poissons Ratio (y) = 0.19965 0.46837
# Poissons Ratio (z) = -0.06473 0.19312
#
# Static dielectric constant tensor:
#      x y z
#    x 1.857100 0.000000 -0.023220 
#    y 0.000000 1.846290 0.000000 
#    z -0.023220 0.000000 1.878100 
# 
# From -- ./inp_files/291529.got.cif
#   From: 2010.05.17/outbox.cif.g08.bks.cpg/sg15_146_cif.got.tgz:291529.got - 2010.06.03 18:47:42.
