data_PCOD9254490
_publ_section_title
;
Structure prediction by ZEFSAII (Michael W. Deem and Ramdas Pophale) SiO2 
 PCOD9254490
Probable space group: C 2/C
;
_chemical_formula_sum "Si O2"
_cell_formula_units_Z 52
_cell_length_a 24.341514
_cell_length_b 11.393931
_cell_length_c 9.082932
_cell_angle_alpha 90.000000
_cell_angle_beta 84.813258
_cell_angle_gamma 90.000000
_cell_volume 2508.795707
_symmetry_space_group_name_H-M "C 2/C"
_symmetry_group_IT_number 15
_symmetry_cell_setting 'monoclinic'
loop_
_space_group_symop_operation_xyz
x,y,z
-x,y,1/2-z
-x,-y,-z
x,-y,1/2+z
1/2+x,1/2+y,z
1/2-x,1/2+y,1/2-z
1/2-x,1/2-y,-z
1/2+x,1/2-y,1/2+z
loop_
_atom_site_type_symbol
_atom_site_label
_atom_site_fract_x
_atom_site_fract_y
_atom_site_fract_z
Si Si1 0.827654 0.121370 0.862404
Si Si2 0.675375 0.062291 0.510590
Si Si3 0.703165 0.860351 0.331436
Si Si4 0.130235 0.789668 0.432798
Si Si5 0.208784 0.875197 0.662446
Si Si6 0.076371 0.961313 0.975537
Si Si7 0.500000 0.484385 0.750000
O O1 0.763052 0.141947 0.895868
O O2 0.853707 0.210812 0.741619
O O3 0.868075 0.101385 0.987426
O O4 0.823399 0.992883 0.785425
O O5 0.696112 0.072960 0.674230
O O6 0.626530 0.156496 0.493348
O O7 0.727434 0.101118 0.393279
O O8 0.664879 0.930144 0.455965
O O9 0.697457 0.727547 0.278865
O O10 0.182436 0.836116 0.513924
O O11 0.086816 0.896515 0.462690
O O12 0.033808 0.944074 0.120228
O O13 0.046884 0.919160 0.833896
#
# Coordination Sequence:
#
# PCOD9254490 Si02
#       7
#     8   8   8   8   8   8   4
#     4  10  17  28  48  72  97 137 166 194 236 290
#     4  10  18  30  48  64  99 136 176 206 234 268
#     4  10  18  31  46  68  98 140 177 204 223 268
#     4  10  16  31  48  68  95 138 161 194 247 292
#     4   9  17  28  45  66  98 138 171 204 231 274
#     4  10  20  31  51  69 102 127 160 195 251 309
#     4  10  20  34  48  76  96 130 146 206 260 310
#
# _framework density 20.727077000000001
#
# number of rings (size 3 to 8) (size 9 to 14) (size 15 to 20)
#    0.000    2.154    4.615    0.923    0.000    0.000 
#    0.000    6.154    0.000    0.000    0.000    0.000 
#    0.000   33.231    0.000    0.154    0.000    0.000 
#
# Total GULP energy -144759.685653 kJ/mol
# GULP energy per Si atom -5567.680217 kJ/mol
# Density = 2.067990 g / cm^3
# Si number density = 20.727077 Si / 1000 Ang^3
#
#
#
# Elastic Constant Matrix: (Units=GPa)
#
#
# Indices 1 2 3 4 5 6 
#
# 1 51.4838 20.8025 41.7768 0.0000 27.2344 0.0000
# 2 20.8025 37.0128 34.1219 0.0000 14.5260 0.0000
# 3 41.7768 34.1219 105.6180 0.0000 25.4196 0.0000
# 4 0.0000 0.0000 0.0000 35.3951 0.0000 -0.8074
# 5 27.2344 14.5260 25.4196 0.0000 39.9690 0.0000
# 6 0.0000 0.0000 0.0000 -0.8074 0.0000 8.0898
#
#
#
# Elastic Compliance Matrix: (Units=1/GPa)
#
#
# Indices 1 2 3 4 5 6 
#
# 1 0.039120 -0.006467 -0.008897 0.000000 -0.018648 0.000000
# 2 -0.006467 0.041373 -0.009741 0.000000 -0.004435 0.000000
# 3 -0.008897 -0.009741 0.016321 0.000000 -0.000778 0.000000
# 4 0.000000 0.000000 0.000000 0.028317 0.000000 0.002826
# 5 -0.018648 -0.004435 -0.000778 0.000000 0.039832 0.000000
# 6 0.000000 0.000000 0.000000 0.002826 0.000000 0.123894
#
#
# Mechanical properties :
#
#
# Convention : Reuss Voigt Hill
#
# Bulk Modulus (GPa) = 21.45669 43.05744 32.25707
# Shear Modulus (GPa) = 14.10033 23.18501 18.64267
#
# Velocity S-wave (km/s) = 2.61106 3.34815 3.00231
# Velocity P-wave (km/s) = 4.41188 5.98042 5.25500
#
# Compressibility (1/GPa) = 0.04660551
#
# Stress axis : x y z
#
# Youngs Moduli (GPa) = 25.56231 24.17046 61.26947
#
# Poissons Ratio (x) = 0.15630 0.54509
# Poissons Ratio (y) = 0.16530 0.59683
# Poissons Ratio (z) = 0.22742 0.23545
#
# Static dielectric constant tensor:
#      x y z
#    x 1.769680 0.000000 -0.009850 
#    y 0.000000 1.876280 0.000000 
#    z -0.009850 0.000000 1.779620 
# 
# From -- ./inp_files/65165.got.cif
#   From: 2010.05.17/outbox.cif.g08.bks.cpg/sg15_33_cif.got.tgz:65165.got - 2010.06.03 18:47:42.
