data_PCOD9254611
_publ_section_title
;
Structure prediction by ZEFSAII (Michael W. Deem and Ramdas Pophale) SiO2 
 PCOD9254611
Probable space group: C 2/C
;
_chemical_formula_sum "Si O2"
_cell_formula_units_Z 56
_cell_length_a 13.243259
_cell_length_b 14.343003
_cell_length_c 14.852795
_cell_angle_alpha 90.000000
_cell_angle_beta 97.268285
_cell_angle_gamma 90.000000
_cell_volume 2798.590358
_symmetry_space_group_name_H-M "C 2/C"
_symmetry_group_IT_number 15
_symmetry_cell_setting 'monoclinic'
loop_
_space_group_symop_operation_xyz
x,y,z
-x,y,1/2-z
-x,-y,-z
x,-y,1/2+z
1/2+x,1/2+y,z
1/2-x,1/2+y,1/2-z
1/2-x,1/2-y,-z
1/2+x,1/2-y,1/2+z
loop_
_atom_site_type_symbol
_atom_site_label
_atom_site_fract_x
_atom_site_fract_y
_atom_site_fract_z
Si Si1 0.740221 0.529880 0.449746
Si Si2 0.923019 0.777375 0.816980
Si Si3 0.119329 0.777084 0.261877
Si Si4 0.809543 0.925325 0.365382
Si Si5 0.009854 0.965906 0.860302
Si Si6 0.725819 0.825903 0.072226
Si Si7 0.729866 0.098249 0.239119
O O1 0.742671 0.583867 0.543899
O O2 0.622461 0.516055 0.406810
O O3 0.786360 0.427630 0.469935
O O4 0.789022 0.575690 0.367183
O O5 0.983595 0.857907 0.876886
O O6 0.869163 0.705024 0.876746
O O7 0.831520 0.837558 0.760962
O O8 0.000000 0.739332 0.750000
O O9 0.172291 0.828559 0.183372
O O10 0.176107 0.823629 0.352048
O O11 0.143519 0.667133 0.266057
O O12 0.000000 0.795026 0.250000
O O13 0.921807 0.970356 0.391466
O O14 0.751394 0.002631 0.296515
O O15 0.000000 0.977685 0.750000
O O16 0.750000 0.750000 0.000000
#
# Coordination Sequence:
#
# PCOD9254611 Si02
#       7
#     8   8   8   8   8   8   8
#     4  12  20  34  60  85 124 161 196 253 314 368
#     4   9  17  34  57  84 122 160 199 253 304 371
#     4  11  23  41  64  90 127 164 205 259 311 372
#     4  11  21  35  60  90 119 158 201 253 320 362
#     4  10  16  32  55  86 118 149 196 255 307 360
#     4  11  22  37  62  96 125 161 213 261 311 370
#     4  10  21  39  58  87 126 157 199 256 307 367
#
# _framework density 20.010075000000001
#
# number of rings (size 3 to 8) (size 9 to 14) (size 15 to 20)
#    0.000    1.429    5.714    4.286    0.000    1.714 
#    0.000    0.714    0.000    1.714    0.000    0.000 
#    0.000    0.000    0.000    0.000    0.000    0.000 
#
# Total GULP energy -156317.018631 kJ/mol
# GULP energy per Si atom -5582.750665 kJ/mol
# Density = 1.996453 g / cm^3
# Si number density = 20.010075 Si / 1000 Ang^3
#
#
#
# Elastic Constant Matrix: (Units=GPa)
#
#
# Indices 1 2 3 4 5 6 
#
# 1 49.3889 13.5130 4.9553 0.0000 -5.8236 0.0000
# 2 13.5130 59.3093 -0.7901 0.0000 3.0356 0.0000
# 3 4.9553 -0.7901 76.5610 0.0000 -9.4328 0.0000
# 4 0.0000 0.0000 0.0000 28.4173 0.0000 -18.1063
# 5 -5.8236 3.0356 -9.4328 0.0000 9.8513 0.0000
# 6 0.0000 0.0000 0.0000 -18.1063 0.0000 12.3825
#
#
#
# Elastic Compliance Matrix: (Units=1/GPa)
#
#
# Indices 1 2 3 4 5 6 
#
# 1 0.023860 -0.006272 0.000416 0.000000 0.016436 0.000000
# 2 -0.006272 0.018799 -0.000647 0.000000 -0.010120 0.000000
# 3 0.000416 -0.000647 0.014833 0.000000 0.014648 0.000000
# 4 0.000000 0.000000 0.000000 0.515064 0.000000 0.753149
# 5 0.016436 -0.010120 0.014648 0.000000 0.128369 0.000000
# 6 0.000000 0.000000 0.000000 0.753149 0.000000 1.182048
#
#
# Mechanical properties :
#
#
# Convention : Reuss Voigt Hill
#
# Bulk Modulus (GPa) = 22.47911 24.51285 23.49598
# Shear Modulus (GPa) = 2.61670 21.30230 11.95950
#
# Velocity S-wave (km/s) = 1.14478 3.26633 2.44739
# Velocity P-wave (km/s) = 3.60634 5.14801 4.44453
#
# Compressibility (1/GPa) = 0.04448575
#
# Stress axis : x y z
#
# Youngs Moduli (GPa) = 41.91165 53.19400 67.41922
#
# Poissons Ratio (x) = 0.33363 -0.02804
# Poissons Ratio (y) = 0.26287 0.04361
# Poissons Ratio (z) = -0.01743 0.03441
#
# Static dielectric constant tensor:
#      x y z
#    x 1.723290 0.000000 -0.019220 
#    y 0.000000 1.719580 0.000000 
#    z -0.019220 0.000000 1.747910 
# 
# From -- ./inp_files/153507.got.cif
#   From: 2010.05.17/outbox.cif.g08.bks.cpg/sg15_77_cif.got.tgz:153507.got - 2010.06.03 18:47:42.
