data_PCOD9254853
_publ_section_title
;
Structure prediction by ZEFSAII (Michael W. Deem and Ramdas Pophale) SiO2 
 PCOD9254853
Probable space group: C 2/C
;
_chemical_formula_sum "Si O2"
_cell_formula_units_Z 44
_cell_length_a 21.769176
_cell_length_b 8.498140
_cell_length_c 15.788255
_cell_angle_alpha 90.000000
_cell_angle_beta 128.628753
_cell_angle_gamma 90.000000
_cell_volume 2281.740712
_symmetry_space_group_name_H-M "C 2/C"
_symmetry_group_IT_number 15
_symmetry_cell_setting 'monoclinic'
loop_
_space_group_symop_operation_xyz
x,y,z
-x,y,1/2-z
-x,-y,-z
x,-y,1/2+z
1/2+x,1/2+y,z
1/2-x,1/2+y,1/2-z
1/2-x,1/2-y,-z
1/2+x,1/2-y,1/2+z
loop_
_atom_site_type_symbol
_atom_site_label
_atom_site_fract_x
_atom_site_fract_y
_atom_site_fract_z
Si Si1 0.826462 0.581539 0.561566
Si Si2 0.658522 0.559470 0.467517
Si Si3 0.972082 0.613219 0.129256
Si Si4 0.929907 0.113856 0.471032
Si Si5 0.578645 0.832296 0.190570
Si Si6 0.000000 0.897008 0.750000
O O1 0.740169 0.508099 0.495632
O O2 0.829916 0.751287 0.518739
O O3 0.887203 0.467787 0.567436
O O4 0.856497 0.623052 0.683079
O O5 0.637527 0.485299 0.539697
O O6 0.582391 0.522082 0.343092
O O7 0.967146 0.771567 0.073145
O O8 0.000000 0.635068 0.250000
O O9 0.030803 0.491822 0.133276
O O10 0.897845 0.229796 0.370011
O O11 0.000000 0.000000 0.500000
O O12 0.517767 0.718062 0.187147
#
# Coordination Sequence:
#
# PCOD9254853 Si02
#       6
#     8   8   8   8   8   4
#     4   9  19  40  60  79 113 159 195 227 282 349
#     4  10  20  35  61  86 113 149 193 234 291 333
#     4  10  20  37  61  82 110 155 197 228 282 348
#     4  12  23  33  56  90 119 144 192 247 287 332
#     4  10  18  38  59  81 113 152 192 233 284 340
#     4  10  16  36  62  80 112 154 190 226 284 348
#
# _framework density 19.283525000000001
#
# number of rings (size 3 to 8) (size 9 to 14) (size 15 to 20)
#    0.000    1.818    6.364    0.545    1.273    0.727 
#    0.000    9.091    0.000    0.000    0.000    0.000 
#    0.000    0.000    0.000    0.000    0.000    0.000 
#
# Total GULP energy -122643.409874 kJ/mol
# GULP energy per Si atom -5574.700449 kJ/mol
# Density = 1.923963 g / cm^3
# Si number density = 19.283525 Si / 1000 Ang^3
#
#
#
# Elastic Constant Matrix: (Units=GPa)
#
#
# Indices 1 2 3 4 5 6 
#
# 1 97.1338 57.0564 32.0890 0.0000 8.9757 0.0000
# 2 57.0564 96.2374 33.1433 0.0000 -12.7467 0.0000
# 3 32.0890 33.1433 45.3974 0.0000 5.2656 0.0000
# 4 0.0000 0.0000 0.0000 35.2150 0.0000 -19.0246
# 5 8.9757 -12.7467 5.2656 0.0000 35.0717 0.0000
# 6 0.0000 0.0000 0.0000 -19.0246 0.0000 34.8592
#
#
#
# Elastic Compliance Matrix: (Units=1/GPa)
#
#
# Indices 1 2 3 4 5 6 
#
# 1 0.018783 -0.010603 -0.004611 0.000000 -0.007968 0.000000
# 2 -0.010603 0.021598 -0.009667 0.000000 0.012015 0.000000
# 3 -0.004611 -0.009667 0.033193 0.000000 -0.007317 0.000000
# 4 0.000000 0.000000 0.000000 0.040270 0.000000 0.021978
# 5 -0.007968 0.012015 -0.007317 0.000000 0.036018 0.000000
# 6 0.000000 0.000000 0.000000 0.021978 0.000000 0.040681
#
#
# Mechanical properties :
#
#
# Convention : Reuss Voigt Hill
#
# Bulk Modulus (GPa) = 41.99638 53.70511 47.85075
# Shear Modulus (GPa) = 20.14154 28.79450 24.46802
#
# Velocity S-wave (km/s) = 3.23537 3.86841 3.56597
# Velocity P-wave (km/s) = 5.98185 6.91835 6.46707
#
# Compressibility (1/GPa) = 0.02381158
#
# Stress axis : x y z
#
# Youngs Moduli (GPa) = 53.23899 46.30106 30.12671
#
# Poissons Ratio (x) = 0.49095 0.13893
# Poissons Ratio (y) = 0.56451 0.29122
# Poissons Ratio (z) = 0.24551 0.44757
#
# Static dielectric constant tensor:
#      x y z
#    x 1.682540 0.000000 -0.000450 
#    y 0.000000 1.688270 0.000000 
#    z -0.000450 0.000000 1.721870 
# 
# From -- ./inp_files/159192.got.cif
#   From: 2010.05.17/outbox.cif.g08.bks.cpg/sg15_80_cif.got.tgz:159192.got - 2010.06.03 18:47:42.
