data_PCOD9254033
_publ_section_title
;
Structure prediction by ZEFSAII (Michael W. Deem and Ramdas Pophale) SiO2 
 PCOD9254033
Probable space group: C 2/C
;
_chemical_formula_sum "Si O2"
_cell_formula_units_Z 44
_cell_length_a 6.509644
_cell_length_b 24.519006
_cell_length_c 11.959971
_cell_angle_alpha 90.000000
_cell_angle_beta 100.932159
_cell_angle_gamma 90.000000
_cell_volume 1874.288502
_symmetry_space_group_name_H-M "C 2/C"
_symmetry_group_IT_number 15
_symmetry_cell_setting 'monoclinic'
loop_
_space_group_symop_operation_xyz
x,y,z
-x,y,1/2-z
-x,-y,-z
x,-y,1/2+z
1/2+x,1/2+y,z
1/2-x,1/2+y,1/2-z
1/2-x,1/2-y,-z
1/2+x,1/2-y,1/2+z
loop_
_atom_site_type_symbol
_atom_site_label
_atom_site_fract_x
_atom_site_fract_y
_atom_site_fract_z
Si Si1 0.000000 0.388043 0.750000
Si Si2 0.341843 0.089082 0.633416
Si Si3 0.800967 0.796732 0.414401
Si Si4 0.500000 0.735638 0.250000
Si Si5 0.382646 0.350495 0.922662
Si Si6 0.791407 0.052865 0.101175
Si Si7 0.500000 0.544500 0.750000
O O1 0.855698 0.358055 0.641676
O O2 0.838954 0.421322 0.810498
O O3 0.500000 0.079034 0.750000
O O4 0.346748 0.150021 0.584581
O O5 0.342414 0.049816 0.526614
O O6 0.128793 0.080729 0.678626
O O7 0.750000 0.750000 0.500000
O O8 0.708908 0.771180 0.291447
O O9 0.034232 0.821777 0.454355
O O10 0.532802 0.694335 0.153491
O O11 0.514508 0.406412 0.912180
O O12 0.870252 0.995789 0.155992
#
# Coordination Sequence:
#
# PCOD9254033 Si02
#       7
#     4   8   8   4   8   8   4
#     4  12  20  40  72 100 140 176 250 284 352 420
#     4  11  26  45  69 104 146 186 235 298 351 422
#     4   9  20  38  70  90 134 189 222 285 365 406
#     4  10  15  38  65  90 134 183 219 286 366 398
#     4  10  20  37  65 100 132 176 234 291 335 424
#     4  11  24  45  71 102 143 189 234 292 357 421
#     4  12  25  46  71 104 142 187 241 290 356 422
#
# _framework density 23.475573000000001
#
# number of rings (size 3 to 8) (size 9 to 14) (size 15 to 20)
#    0.000    1.455    4.545    0.545    1.273    3.636 
#    0.000    1.818    0.000    0.000    0.000    0.000 
#    0.000    0.000    0.000    0.000    0.000    0.000 
#
# Total GULP energy -122591.940114 kJ/mol
# GULP energy per Si atom -5572.360914 kJ/mol
# Density = 2.342214 g / cm^3
# Si number density = 23.475573 Si / 1000 Ang^3
#
#
#
# Elastic Constant Matrix: (Units=GPa)
#
#
# Indices 1 2 3 4 5 6 
#
# 1 47.0717 37.0591 24.5922 0.0000 16.5164 0.0000
# 2 37.0591 72.1310 45.0865 0.0000 5.9164 0.0000
# 3 24.5922 45.0865 158.6031 0.0000 26.3827 0.0000
# 4 0.0000 0.0000 0.0000 -778.6150 0.0000 115.5831
# 5 16.5164 5.9164 26.3827 0.0000 45.4057 0.0000
# 6 0.0000 0.0000 0.0000 115.5831 0.0000 -51.2483
#
#
#
# Elastic Compliance Matrix: (Units=1/GPa)
#
#
# Indices 1 2 3 4 5 6 
#
# 1 0.042113 -0.021712 0.001904 0.000000 -0.013596 0.000000
# 2 -0.021712 0.028070 -0.005887 0.000000 0.007661 0.000000
# 3 0.001904 -0.005887 0.008492 0.000000 -0.004860 0.000000
# 4 0.000000 0.000000 0.000000 -0.001931 0.000000 -0.004355
# 5 -0.013596 0.007661 -0.004860 0.000000 0.028795 0.000000
# 6 0.000000 0.000000 0.000000 -0.004355 0.000000 -0.029334
#
#
# Mechanical properties :
#
#
# Convention : Reuss Voigt Hill
#
# Bulk Modulus (GPa) = 36.65038 54.58683 45.61860
# Shear Modulus (GPa) = 36.57885 -145.48699 -54.45407
#
# Velocity S-wave (km/s) = 3.95164 -7.88088 -4.82145
# Velocity P-wave (km/s) = 6.03876 7.71414 3.39421
#
# Compressibility (1/GPa) = 0.02728485
#
# Stress axis : x y z
#
# Youngs Moduli (GPa) = 23.74542 35.62500 117.75988
#
# Poissons Ratio (x) = 0.77347 -0.22418
# Poissons Ratio (y) = 0.51555 0.69331
# Poissons Ratio (z) = -0.04520 0.20974
#
# Static dielectric constant tensor:
#      x y z
#    x 1.977540 0.000000 0.122680 
#    y 0.000000 1.910300 0.000000 
#    z 0.122680 0.000000 2.104340 
# 
# From -- ./inp_files/129903.got.cif
#   From: 2010.05.17/outbox.cif.g08.bks.cpg/sg15_65_cif.got.tgz:129903.got - 2010.06.03 18:47:42.
