data_PCOD9254395
_publ_section_title
;
Structure prediction by ZEFSAII (Michael W. Deem and Ramdas Pophale) SiO2 
 PCOD9254395
Probable space group: C 2/C
;
_chemical_formula_sum "Si O2"
_cell_formula_units_Z 44
_cell_length_a 27.441947
_cell_length_b 16.981655
_cell_length_c 5.333152
_cell_angle_alpha 90.000000
_cell_angle_beta 54.250385
_cell_angle_gamma 90.000000
_cell_volume 2017.014930
_symmetry_space_group_name_H-M "C 2/C"
_symmetry_group_IT_number 15
_symmetry_cell_setting 'monoclinic'
loop_
_space_group_symop_operation_xyz
x,y,z
-x,y,1/2-z
-x,-y,-z
x,-y,1/2+z
1/2+x,1/2+y,z
1/2-x,1/2+y,1/2-z
1/2-x,1/2-y,-z
1/2+x,1/2-y,1/2+z
loop_
_atom_site_type_symbol
_atom_site_label
_atom_site_fract_x
_atom_site_fract_y
_atom_site_fract_z
Si Si1 0.634158 0.553608 0.316535
Si Si2 0.685047 0.211182 0.167059
Si Si3 0.974127 0.410852 0.575605
Si Si4 0.180640 0.776915 0.683978
Si Si5 0.334066 0.953702 0.971433
Si Si6 0.000000 0.052626 0.750000
O O1 0.641965 0.501454 0.546200
O O2 0.676316 0.629520 0.169786
O O3 0.566218 0.589829 0.536875
O O4 0.654736 0.228973 0.524839
O O5 0.697364 0.122351 0.048807
O O6 0.750000 0.250000 0.000000
O O7 0.651680 0.251984 0.034974
O O8 0.903552 0.425625 0.766160
O O9 0.000000 0.373247 0.750000
O O10 0.000000 0.500000 0.500000
O O11 0.000000 0.370856 0.250000
O O12 0.250000 0.750000 0.500000
O O13 0.322410 0.019861 0.792502
O O14 0.000000 0.000000 0.500000
#
# Coordination Sequence:
#
# PCOD9254395 Si02
#       6
#     8   8   8   8   8   4
#     4  10  19  35  63  94 112 149 201 243 289 356
#     4  10  23  42  57  79 118 163 189 242 306 346
#     4  10  16  30  51  83 117 138 171 243 284 322
#     4  10  21  41  60  80 123 160 187 242 309 353
#     4  12  21  35  62  87 108 153 204 242 283 343
#     4   8  16  30  54  88 120 140 178 248 298 330
#
# _framework density 21.814415
#
# number of rings (size 3 to 8) (size 9 to 14) (size 15 to 20)
#    0.000    1.818    3.636    2.182    0.000    0.000 
#    0.000   21.818    6.000    0.000    0.000    0.000 
#    0.000    0.000    0.000    0.000    0.000    0.000 
#
# Total GULP energy -122598.017011 kJ/mol
# GULP energy per Si atom -5572.637137 kJ/mol
# Density = 2.176476 g / cm^3
# Si number density = 21.814415 Si / 1000 Ang^3
#
#
#
# Elastic Constant Matrix: (Units=GPa)
#
#
# Indices 1 2 3 4 5 6 
#
# 1 78.9262 46.6034 58.0969 0.0000 27.6960 0.0000
# 2 46.6034 89.9319 17.2221 0.0000 -3.2216 0.0000
# 3 58.0969 17.2221 92.7727 0.0000 50.5402 0.0000
# 4 0.0000 0.0000 0.0000 19.0008 0.0000 13.4034
# 5 27.6960 -3.2216 50.5402 0.0000 66.0870 0.0000
# 6 0.0000 0.0000 0.0000 13.4034 0.0000 -12.9137
#
#
#
# Elastic Compliance Matrix: (Units=1/GPa)
#
#
# Indices 1 2 3 4 5 6 
#
# 1 0.036088 -0.015082 -0.019130 0.000000 -0.001230 0.000000
# 2 -0.015082 0.018407 0.003592 0.000000 0.004471 0.000000
# 3 -0.019130 0.003592 0.030219 0.000000 -0.014918 0.000000
# 4 0.000000 0.000000 0.000000 0.030384 0.000000 0.031536
# 5 -0.001230 0.004471 -0.014918 0.000000 0.027273 0.000000
# 6 0.000000 0.000000 0.000000 0.031536 0.000000 -0.044706
#
#
# Mechanical properties :
#
#
# Convention : Reuss Voigt Hill
#
# Bulk Modulus (GPa) = 42.59903 56.16395 49.38149
# Shear Modulus (GPa) = 29.98858 23.74870 26.86864
#
# Velocity S-wave (km/s) = 3.71174 3.30308 3.51335
# Velocity P-wave (km/s) = 6.15952 6.35211 6.25655
#
# Compressibility (1/GPa) = 0.02347471
#
# Stress axis : x y z
#
# Youngs Moduli (GPa) = 27.70988 54.32613 33.09206
#
# Poissons Ratio (x) = 0.81934 0.63305
# Poissons Ratio (y) = 0.41792 -0.11886
# Poissons Ratio (z) = 0.53009 -0.19514
#
# Static dielectric constant tensor:
#      x y z
#    x 1.777350 0.000000 -0.006060 
#    y 0.000000 1.799870 0.000000 
#    z -0.006060 0.000000 1.873400 
# 
# From -- ./inp_files/16915.got.cif
#   From: 2010.05.17/outbox.cif.g08.bks.cpg/sg15_9_cif.got.tgz:16915.got - 2010.06.03 18:47:42.
