data_PCOD9254044
_publ_section_title
;
Structure prediction by ZEFSAII (Michael W. Deem and Ramdas Pophale) SiO2 
 PCOD9254044
Probable space group: C 2/C
;
_chemical_formula_sum "Si O2"
_cell_formula_units_Z 60
_cell_length_a 27.891569
_cell_length_b 32.456979
_cell_length_c 5.049524
_cell_angle_alpha 90.000000
_cell_angle_beta 101.674054
_cell_angle_gamma 90.000000
_cell_volume 4476.655595
_symmetry_space_group_name_H-M "C 2/C"
_symmetry_group_IT_number 15
_symmetry_cell_setting 'monoclinic'
loop_
_space_group_symop_operation_xyz
x,y,z
-x,y,1/2-z
-x,-y,-z
x,-y,1/2+z
1/2+x,1/2+y,z
1/2-x,1/2+y,1/2-z
1/2-x,1/2-y,-z
1/2+x,1/2-y,1/2+z
loop_
_atom_site_type_symbol
_atom_site_label
_atom_site_fract_x
_atom_site_fract_y
_atom_site_fract_z
Si Si1 0.875012 0.628757 0.188518
Si Si2 0.760181 0.159012 0.232905
Si Si3 0.667051 0.786881 0.819757
Si Si4 0.597388 0.079940 0.755733
Si Si5 0.693578 0.026943 0.811186
Si Si6 0.000000 0.529854 0.750000
Si Si7 0.306520 0.738132 0.128159
Si Si8 0.767366 0.610197 0.827294
O O1 0.874468 0.678060 0.219068
O O2 0.881803 0.607070 0.478224
O O3 0.910507 0.608806 0.009720
O O4 0.821679 0.617899 0.006383
O O5 0.716428 0.187916 0.296872
O O6 0.803733 0.190443 0.210142
O O7 0.767613 0.125362 0.473168
O O8 0.742118 0.137726 0.942730
O O9 0.662883 0.751453 0.594431
O O10 0.675675 0.766082 0.110573
O O11 0.638818 0.046024 0.730720
O O12 0.548243 0.057748 0.790498
O O13 0.730693 0.063077 0.766575
O O14 0.699293 0.989224 0.615080
O O15 0.000000 0.500000 0.500000
O O16 0.250000 0.750000 0.000000
#
# Coordination Sequence:
#
# PCOD9254044 Si02
#       8
#     8   8   8   8   8   4   8   8
#     4  10  18  30  43  56  72  89 108 129 160 206
#     4  10  16  25  35  50  72  93 112 130 154 186
#     4  10  16  24  36  53  71  90 111 130 148 178
#     4  11  21  33  46  58  70  87 105 135 181 225
#     4  11  19  29  41  54  66  82 109 142 176 213
#     4  12  24  38  50  62  74  86 108 144 186 236
#     4  10  16  22  34  52  72  93 112 130 148 172
#     4  10  18  27  38  51  68  90 111 135 165 199
#
# _framework density 13.402863
#
# number of rings (size 3 to 8) (size 9 to 14) (size 15 to 20)
#    0.000    1.600    0.000   13.600    0.000    0.000 
#    0.000    0.000    0.000    0.000    0.000    0.000 
#    0.000    0.000    0.000    0.000    0.000    0.000 
#
# Total GULP energy -167182.520636 kJ/mol
# GULP energy per Si atom -5572.750688 kJ/mol
# Density = 1.337236 g / cm^3
# Si number density = 13.402863 Si / 1000 Ang^3
#
#
#
# Elastic Constant Matrix: (Units=GPa)
#
#
# Indices 1 2 3 4 5 6 
#
# 1 20.6854 24.1806 9.6540 0.0000 -9.1810 0.0000
# 2 24.1806 57.9450 10.1701 0.0000 -2.0178 0.0000
# 3 9.6540 10.1701 63.2907 0.0000 -15.0729 0.0000
# 4 0.0000 0.0000 0.0000 32.8929 0.0000 -11.1525
# 5 -9.1810 -2.0178 -15.0729 0.0000 13.3877 0.0000
# 6 0.0000 0.0000 0.0000 -11.1525 0.0000 18.6145
#
#
#
# Elastic Compliance Matrix: (Units=1/GPa)
#
#
# Indices 1 2 3 4 5 6 
#
# 1 0.197907 -0.080554 0.016652 0.000000 0.142327 0.000000
# 2 -0.080554 0.050552 -0.009807 0.000000 -0.058664 0.000000
# 3 0.016652 -0.009807 0.023506 0.000000 0.036407 0.000000
# 4 0.000000 0.000000 0.000000 0.038152 0.000000 0.022858
# 5 0.142327 -0.058664 0.036407 0.000000 0.204448 0.000000
# 6 0.000000 0.000000 0.000000 0.022858 0.000000 0.067416
#
#
# Mechanical properties :
#
#
# Convention : Reuss Voigt Hill
#
# Bulk Modulus (GPa) = 8.02904 25.54784 16.78844
# Shear Modulus (GPa) = 6.48581 19.50679 12.99630
#
# Velocity S-wave (km/s) = 2.20219 3.81913 3.11732
# Velocity P-wave (km/s) = 3.53125 6.20891 5.05076
#
# Compressibility (1/GPa) = 0.12454793
#
# Stress axis : x y z
#
# Youngs Moduli (GPa) = 5.05289 19.78177 42.54159
#
# Poissons Ratio (x) = 1.59350 -0.70842
# Poissons Ratio (y) = 0.40703 0.41721
# Poissons Ratio (z) = -0.08414 0.19400
#
# Static dielectric constant tensor:
#      x y z
#    x 1.432450 0.000000 -0.032160 
#    y 0.000000 1.499750 0.000000 
#    z -0.032160 0.000000 1.461440 
# 
# From -- ./inp_files/17767.got.cif
#   From: 2010.05.17/outbox.cif.g08.bks.cpg/sg15_9_cif.got.tgz:17767.got - 2010.06.03 18:47:42.
