data_PCOD9254824
_publ_section_title
;
Structure prediction by ZEFSAII (Michael W. Deem and Ramdas Pophale) SiO2 
 PCOD9254824
Probable space group: C 2/C
;
_chemical_formula_sum "Si O2"
_cell_formula_units_Z 56
_cell_length_a 19.158501
_cell_length_b 10.406319
_cell_length_c 11.580586
_cell_angle_alpha 90.000000
_cell_angle_beta 92.940021
_cell_angle_gamma 90.000000
_cell_volume 2305.776406
_symmetry_space_group_name_H-M "C 2/C"
_symmetry_group_IT_number 15
_symmetry_cell_setting 'monoclinic'
loop_
_space_group_symop_operation_xyz
x,y,z
-x,y,1/2-z
-x,-y,-z
x,-y,1/2+z
1/2+x,1/2+y,z
1/2-x,1/2+y,1/2-z
1/2-x,1/2-y,-z
1/2+x,1/2-y,1/2+z
loop_
_atom_site_type_symbol
_atom_site_label
_atom_site_fract_x
_atom_site_fract_y
_atom_site_fract_z
Si Si1 0.403464 0.312476 0.866262
Si Si2 0.798410 0.519754 0.564857
Si Si3 0.572330 0.039816 0.562287
Si Si4 0.253462 0.323843 0.774418
Si Si5 0.568570 0.579040 0.699859
Si Si6 0.820526 0.110697 0.587248
Si Si7 0.143308 0.287370 0.577472
O O1 0.550374 0.564650 0.159144
O O2 0.370665 0.345575 0.988298
O O3 0.435605 0.171217 0.868957
O O4 0.335961 0.314931 0.778040
O O5 0.865544 0.437835 0.526257
O O6 0.771554 0.465623 0.684139
O O7 0.733323 0.493687 0.471748
O O8 0.831164 0.660329 0.543949
O O9 0.500000 0.000000 0.500000
O O10 0.600877 0.910644 0.625795
O O11 0.227915 0.226674 0.872194
O O12 0.211836 0.277890 0.660507
O O13 0.500000 0.640915 0.750000
O O14 0.629418 0.575023 0.801725
O O15 0.597793 0.661885 0.594763
#
# Coordination Sequence:
#
# PCOD9254824 Si02
#       7
#     8   8   8   8   8   8   8
#     4  11  21  39  67  90 124 163 208 263 313 371
#     4   9  17  35  60  94 115 154 211 257 299 370
#     4  10  21  38  63  90 124 164 207 258 308 363
#     4  10  16  35  67  95 117 162 208 255 320 376
#     4  11  26  40  57  89 126 170 209 247 323 380
#     4  10  18  37  65  91 121 161 206 255 317 386
#     4   9  21  37  60  87 129 161 208 261 301 375
#
# _framework density 24.286829999999998
#
# number of rings (size 3 to 8) (size 9 to 14) (size 15 to 20)
#    0.857    1.143    2.857    1.714    2.000    0.571 
#    0.000    6.429    0.000    0.000    0.000    0.000 
#    0.000    0.000    0.000    0.000    0.000    0.000 
#
# Total GULP energy -156325.664932 kJ/mol
# GULP energy per Si atom -5583.059462 kJ/mol
# Density = 2.423155 g / cm^3
# Si number density = 24.286830 Si / 1000 Ang^3
#
#
#
# Elastic Constant Matrix: (Units=GPa)
#
#
# Indices 1 2 3 4 5 6 
#
# 1 88.8218 46.5631 11.8852 0.0000 1.6190 0.0000
# 2 46.5631 128.1821 22.0029 0.0000 -7.4625 0.0000
# 3 11.8852 22.0029 20.3281 0.0000 -4.0734 0.0000
# 4 0.0000 0.0000 0.0000 24.7104 0.0000 -0.0398
# 5 1.6190 -7.4625 -4.0734 0.0000 28.1988 0.0000
# 6 0.0000 0.0000 0.0000 -0.0398 0.0000 21.5170
#
#
#
# Elastic Compliance Matrix: (Units=1/GPa)
#
#
# Indices 1 2 3 4 5 6 
#
# 1 0.014269 -0.004684 -0.003796 0.000000 -0.002607 0.000000
# 2 -0.004684 0.011150 -0.008944 0.000000 0.001928 0.000000
# 3 -0.003796 -0.008944 0.062471 0.000000 0.006875 0.000000
# 4 0.000000 0.000000 0.000000 0.040469 0.000000 0.000075
# 5 -0.002607 0.001928 0.006875 0.000000 0.037115 0.000000
# 6 0.000000 0.000000 0.000000 0.000075 0.000000 0.046475
#
#
# Mechanical properties :
#
#
# Convention : Reuss Voigt Hill
#
# Bulk Modulus (GPa) = 18.85253 44.24826 31.55040
# Shear Modulus (GPa) = 18.90518 25.34398 22.12458
#
# Velocity S-wave (km/s) = 2.79303 3.23387 3.02150
# Velocity P-wave (km/s) = 4.26388 5.67472 5.01912
#
# Compressibility (1/GPa) = 0.05304328
#
# Stress axis : x y z
#
# Youngs Moduli (GPa) = 70.08100 89.68364 16.00746
#
# Poissons Ratio (x) = 0.42005 0.06076
# Poissons Ratio (y) = 0.32823 0.14318
# Poissons Ratio (z) = 0.26600 0.80216
#
# Static dielectric constant tensor:
#      x y z
#    x 1.889440 0.000000 -0.007800 
#    y 0.000000 2.026710 0.000000 
#    z -0.007800 0.000000 1.945960 
# 
# From -- ./inp_files/161703.got.cif
#   From: 2010.05.17/outbox.cif.g08.bks.cpg/sg15_81_cif.got.tgz:161703.got - 2010.06.03 18:47:42.
