data_PCOD9254482
_publ_section_title
;
Structure prediction by ZEFSAII (Michael W. Deem and Ramdas Pophale) SiO2 
 PCOD9254482
Probable space group: C 2/C
;
_chemical_formula_sum "Si O2"
_cell_formula_units_Z 44
_cell_length_a 14.854238
_cell_length_b 9.743297
_cell_length_c 13.552315
_cell_angle_alpha 90.000000
_cell_angle_beta 99.569077
_cell_angle_gamma 90.000000
_cell_volume 1934.125076
_symmetry_space_group_name_H-M "C 2/C"
_symmetry_group_IT_number 15
_symmetry_cell_setting 'monoclinic'
loop_
_space_group_symop_operation_xyz
x,y,z
-x,y,1/2-z
-x,-y,-z
x,-y,1/2+z
1/2+x,1/2+y,z
1/2-x,1/2+y,1/2-z
1/2-x,1/2-y,-z
1/2+x,1/2-y,1/2+z
loop_
_atom_site_type_symbol
_atom_site_label
_atom_site_fract_x
_atom_site_fract_y
_atom_site_fract_z
Si Si1 0.501441 0.118372 0.581412
Si Si2 0.338514 0.217768 0.137929
Si Si3 0.023138 0.857779 0.452809
Si Si4 0.676699 0.748437 0.641103
Si Si5 0.298677 0.942406 0.031617
Si Si6 0.500000 0.961585 0.750000
O O1 0.543315 0.252777 0.545129
O O2 0.394162 0.128143 0.586291
O O3 0.500000 0.000000 0.500000
O O4 0.552186 0.058676 0.683834
O O5 0.386816 0.351599 0.099166
O O6 0.295305 0.242952 0.238317
O O7 0.428384 0.130035 0.181881
O O8 0.294710 0.106487 0.053452
O O9 0.931577 0.791925 0.385634
O O10 0.000000 0.000000 0.500000
O O11 0.701163 0.886387 0.581649
O O12 0.723528 0.629062 0.585693
#
# Coordination Sequence:
#
# PCOD9254482 Si02
#       6
#     8   8   8   8   8   4
#     4  10  17  35  61  86 109 148 211 250 285 367
#     4  11  19  37  65  88 115 167 213 248 312 381
#     4  11  22  38  59  87 124 161 200 262 316 367
#     4  10  20  40  60  86 128 158 198 263 319 354
#     4   9  20  36  62  89 114 160 206 254 304 367
#     4  10  16  30  62  88 100 152 212 254 280 350
#
# _framework density 22.749306000000001
#
# number of rings (size 3 to 8) (size 9 to 14) (size 15 to 20)
#    0.000    1.818    5.455    1.091    0.000    0.000 
#   13.091    2.727    0.000    0.000    0.000    0.000 
#    0.000    0.000    0.000    0.000    0.000    0.000 
#
# Total GULP energy -122528.259087 kJ/mol
# GULP energy per Si atom -5569.466322 kJ/mol
# Density = 2.269753 g / cm^3
# Si number density = 22.749306 Si / 1000 Ang^3
#
#
#
# Elastic Constant Matrix: (Units=GPa)
#
#
# Indices 1 2 3 4 5 6 
#
# 1 64.3090 -4.9278 19.1210 0.0000 -21.6503 0.0000
# 2 -4.9278 112.6060 56.6946 0.0000 -19.2493 0.0000
# 3 19.1210 56.6946 120.3045 0.0000 -35.3468 0.0000
# 4 0.0000 0.0000 0.0000 32.1992 0.0000 -5.4756
# 5 -21.6503 -19.2493 -35.3468 0.0000 31.5304 0.0000
# 6 0.0000 0.0000 0.0000 -5.4756 0.0000 21.1010
#
#
#
# Elastic Compliance Matrix: (Units=1/GPa)
#
#
# Indices 1 2 3 4 5 6 
#
# 1 0.021665 0.004027 -0.000370 0.000000 0.016920 0.000000
# 2 0.004027 0.012435 -0.005155 0.000000 0.004577 0.000000
# 3 -0.000370 -0.005155 0.014615 0.000000 0.012983 0.000000
# 4 0.000000 0.000000 0.000000 0.032490 0.000000 0.008431
# 5 0.016920 0.004577 0.012983 0.000000 0.060682 0.000000
# 6 0.000000 0.000000 0.000000 0.008431 0.000000 0.049579
#
#
# Mechanical properties :
#
#
# Convention : Reuss Voigt Hill
#
# Bulk Modulus (GPa) = 21.87340 48.77725 35.32532
# Shear Modulus (GPa) = 23.84347 32.05490 27.94918
#
# Velocity S-wave (km/s) = 3.24094 3.75780 3.50890
# Velocity P-wave (km/s) = 4.86218 6.34948 5.65494
#
# Compressibility (1/GPa) = 0.04571763
#
# Stress axis : x y z
#
# Youngs Moduli (GPa) = 46.15823 80.42055 68.42343
#
# Poissons Ratio (x) = -0.32381 0.02529
# Poissons Ratio (y) = -0.18586 0.35273
# Poissons Ratio (z) = 0.01706 0.41458
#
# Static dielectric constant tensor:
#      x y z
#    x 1.999920 0.000000 0.019010 
#    y 0.000000 1.883220 0.000000 
#    z 0.019010 0.000000 1.958190 
# 
# From -- ./inp_files/159310.got.cif
#   From: 2010.05.17/outbox.cif.g08.bks.cpg/sg15_80_cif.got.tgz:159310.got - 2010.06.03 18:47:42.
