data_PCOD9254346
_publ_section_title
;
Structure prediction by ZEFSAII (Michael W. Deem and Ramdas Pophale) SiO2 
 PCOD9254346
Probable space group: C 2/C
;
_chemical_formula_sum "Si O2"
_cell_formula_units_Z 64
_cell_length_a 22.620376
_cell_length_b 5.481539
_cell_length_c 26.449580
_cell_angle_alpha 90.000000
_cell_angle_beta 113.653822
_cell_angle_gamma 90.000000
_cell_volume 3004.070096
_symmetry_space_group_name_H-M "C 2/C"
_symmetry_group_IT_number 15
_symmetry_cell_setting 'monoclinic'
loop_
_space_group_symop_operation_xyz
x,y,z
-x,y,1/2-z
-x,-y,-z
x,-y,1/2+z
1/2+x,1/2+y,z
1/2-x,1/2+y,1/2-z
1/2-x,1/2-y,-z
1/2+x,1/2-y,1/2+z
loop_
_atom_site_type_symbol
_atom_site_label
_atom_site_fract_x
_atom_site_fract_y
_atom_site_fract_z
Si Si1 0.421514 0.229369 0.730472
Si Si2 0.263398 0.442392 0.049329
Si Si3 0.995279 0.207805 0.887177
Si Si4 0.063476 0.542837 0.491316
Si Si5 0.913181 0.285452 0.347761
Si Si6 0.434078 0.730398 0.694334
Si Si7 0.348224 0.658486 0.005419
Si Si8 0.827048 0.769318 0.909747
O O1 0.500000 0.233640 0.750000
O O2 0.405418 0.217365 0.784338
O O3 0.398332 0.483304 0.698414
O O4 0.398627 0.983391 0.694882
O O5 0.332450 0.535457 0.054272
O O6 0.243629 0.318087 0.095630
O O7 0.250000 0.250000 0.000000
O O8 0.211481 0.655667 0.023731
O O9 0.948915 0.452786 0.871751
O O10 0.045694 0.231926 0.950134
O O11 0.038249 0.222356 0.852034
O O12 0.956306 0.954760 0.875247
O O13 0.087136 0.314437 0.467419
O O14 0.120505 0.582500 0.549854
O O15 0.000000 0.500000 0.500000
O O16 0.847913 0.235474 0.358369
O O17 0.500000 0.735958 0.750000
O O18 0.344502 0.498415 0.952515
#
# Coordination Sequence:
#
# PCOD9254346 Si02
#       8
#     8   8   8   8   8   8   8   8
#     4  10  16  30  47  64  87 129 174 211 243 287
#     4   8  16  34  54  68  84 126 170 215 262 292
#     4  12  22  31  47  67  99 146 176 203 243 302
#     4  11  22  32  43  69 108 144 174 200 245 304
#     4  12  21  31  48  70 100 137 175 203 255 297
#     4  10  16  31  46  63  86 129 183 205 241 282
#     4   9  18  34  51  66  94 134 167 213 252 296
#     4  10  21  32  48  71 101 135 171 213 248 307
#
# _framework density 21.304428000000001
#
# number of rings (size 3 to 8) (size 9 to 14) (size 15 to 20)
#    0.000    1.750    6.250    0.750    3.500    1.000 
#    0.000    0.000    0.000    0.000    0.000    0.000 
#    0.000    0.000   25.500    0.500    0.000    0.000 
#
# Total GULP energy -178194.401424 kJ/mol
# GULP energy per Si atom -5568.575045 kJ/mol
# Density = 2.125594 g / cm^3
# Si number density = 21.304428 Si / 1000 Ang^3
#
#
#
# Elastic Constant Matrix: (Units=GPa)
#
#
# Indices 1 2 3 4 5 6 
#
# 1 93.7783 30.5787 17.8176 0.0017 -39.2042 0.0018
# 2 30.5787 132.2055 -10.1175 0.0024 -9.0678 0.0057
# 3 17.8176 -10.1175 44.6299 0.0008 -29.6150 0.0011
# 4 0.0017 0.0024 0.0008 15.2522 -0.0002 -1.4375
# 5 -39.2042 -9.0678 -29.6150 -0.0002 36.5463 0.0003
# 6 0.0018 0.0057 0.0011 -1.4375 0.0003 51.1725
#
#
#
# Elastic Compliance Matrix: (Units=1/GPa)
#
#
# Indices 1 2 3 4 5 6 
#
# 1 0.024050 -0.001888 0.014665 -0.000003 0.037214 -0.000001
# 2 -0.001888 0.008831 0.006199 -0.000002 0.005189 -0.000001
# 3 0.014665 0.006199 0.063633 -0.000005 0.068834 -0.000003
# 4 -0.000003 -0.000002 -0.000005 0.065738 -0.000007 0.001847
# 5 0.037214 0.005189 0.068834 -0.000007 0.124350 -0.000004
# 6 -0.000001 -0.000001 -0.000003 0.001847 -0.000004 0.019594
#
#
# Mechanical properties :
#
#
# Convention : Reuss Voigt Hill
#
# Bulk Modulus (GPa) = 7.43683 38.57459 23.00571
# Shear Modulus (GPa) = 15.97104 36.08320 26.02712
#
# Velocity S-wave (km/s) = 2.74096 4.11992 3.49904
# Velocity P-wave (km/s) = 3.67634 6.38571 5.21022
#
# Compressibility (1/GPa) = 0.13446586
#
# Stress axis : x y z
#
# Youngs Moduli (GPa) = 41.57941 113.23742 15.71506
#
# Poissons Ratio (x) = 0.21380 -0.23046
# Poissons Ratio (y) = 0.07850 -0.09742
# Poissons Ratio (z) = -0.60975 -0.70197
#
# Static dielectric constant tensor:
#      x y z
#    x 1.807150 0.000000 0.000440 
#    y 0.000000 1.866360 0.000000 
#    z 0.000440 0.000000 1.902780 
# 
# From -- ./inp_files/301614.got.cif
#   From: 2010.05.17/outbox.cif.g08.bks.cpg/sg15_151_cif.got.tgz:301614.got - 2010.06.03 18:47:42.
