data_PCOD9254263
_publ_section_title
;
Structure prediction by ZEFSAII (Michael W. Deem and Ramdas Pophale) SiO2 
 PCOD9254263
Probable space group: C 2/C
;
_chemical_formula_sum "Si O2"
_cell_formula_units_Z 52
_cell_length_a 22.609625
_cell_length_b 12.449540
_cell_length_c 10.459437
_cell_angle_alpha 90.000000
_cell_angle_beta 136.107835
_cell_angle_gamma 90.000000
_cell_volume 2041.165565
_symmetry_space_group_name_H-M "C 2/C"
_symmetry_group_IT_number 15
_symmetry_cell_setting 'monoclinic'
loop_
_space_group_symop_operation_xyz
x,y,z
-x,y,1/2-z
-x,-y,-z
x,-y,1/2+z
1/2+x,1/2+y,z
1/2-x,1/2+y,1/2-z
1/2-x,1/2-y,-z
1/2+x,1/2-y,1/2+z
loop_
_atom_site_type_symbol
_atom_site_label
_atom_site_fract_x
_atom_site_fract_y
_atom_site_fract_z
Si Si1 0.825527 0.775521 0.213960
Si Si2 0.500000 0.257138 0.750000
Si Si3 0.139742 0.404156 0.527642
Si Si4 0.996091 0.818689 0.030485
Si Si5 0.563574 0.922812 0.024452
Si Si6 0.319735 0.380617 0.715451
Si Si7 0.247545 0.363074 0.345398
O O1 0.855107 0.664374 0.330756
O O2 0.789847 0.848877 0.273325
O O3 0.907008 0.830658 0.272056
O O4 0.750000 0.750000 0.000000
O O5 0.416390 0.181815 0.639728
O O6 0.508014 0.318861 0.894744
O O7 0.085863 0.513019 0.430919
O O8 0.236132 0.433541 0.644183
O O9 0.968103 0.698370 0.029861
O O10 0.913007 0.892595 0.922006
O O11 0.660399 0.928247 0.230232
O O12 0.500000 0.000000 0.000000
O O13 0.315577 0.399095 0.557077
O O14 0.289264 0.256826 0.685706
#
# Coordination Sequence:
#
# PCOD9254263 Si02
#       7
#     8   4   8   8   8   8   8
#     4  10  20  37  52  80 118 155 180 224 285 359
#     4  10  16  28  52  84 106 144 172 246 274 326
#     4  10  20  33  53  80 122 142 182 233 294 334
#     4  10  19  34  59  83 112 142 198 235 284 335
#     4  11  19  35  51  89 122 140 177 238 304 349
#     4   9  17  34  57  79 103 147 196 240 264 325
#     4   9  19  34  54  81 112 145 189 227 283 335
#
# _framework density 25.475639999999999
#
# number of rings (size 3 to 8) (size 9 to 14) (size 15 to 20)
#    0.000    2.154    3.077    4.615    0.000    0.000 
#    8.308    6.154    0.000    0.923    4.000    0.000 
#    0.000    0.000    0.000    0.000    0.000    0.000 
#
# Total GULP energy -145013.887100 kJ/mol
# GULP energy per Si atom -5577.457196 kJ/mol
# Density = 2.541766 g / cm^3
# Si number density = 25.475640 Si / 1000 Ang^3
#
#
#
# Elastic Constant Matrix: (Units=GPa)
#
#
# Indices 1 2 3 4 5 6 
#
# 1 126.1135 19.1776 47.1164 0.0000 51.1071 0.0000
# 2 19.1776 51.8244 3.9034 0.0000 11.7363 0.0000
# 3 47.1164 3.9034 152.9650 0.0000 54.7196 0.0000
# 4 0.0000 0.0000 0.0000 12.3992 0.0000 17.6415
# 5 51.1071 11.7363 54.7196 0.0000 48.7523 0.0000
# 6 0.0000 0.0000 0.0000 17.6415 0.0000 19.8256
#
#
#
# Elastic Compliance Matrix: (Units=1/GPa)
#
#
# Indices 1 2 3 4 5 6 
#
# 1 0.014148 -0.001718 0.001409 0.000000 -0.016000 0.000000
# 2 -0.001718 0.021016 0.001936 0.000000 -0.005430 0.000000
# 3 0.001409 0.001936 0.011277 0.000000 -0.014601 0.000000
# 4 0.000000 0.000000 0.000000 -0.303137 0.000000 0.269742
# 5 -0.016000 -0.005430 -0.014601 0.000000 0.054980 0.000000
# 6 0.000000 0.000000 0.000000 0.269742 0.000000 -0.189586
#
#
# Mechanical properties :
#
#
# Convention : Reuss Voigt Hill
#
# Bulk Modulus (GPa) = 20.12302 52.36640 36.24471
# Shear Modulus (GPa) = -13.22780 33.57576 10.17398
#
# Velocity S-wave (km/s) = -2.28114 3.63430 2.00057
# Velocity P-wave (km/s) = 0.98890 6.18150 4.42656
#
# Compressibility (1/GPa) = 0.04969432
#
# Stress axis : x y z
#
# Youngs Moduli (GPa) = 70.68214 47.58330 88.67589
#
# Poissons Ratio (x) = 0.08176 -0.12499
# Poissons Ratio (y) = 0.12145 -0.17164
# Poissons Ratio (z) = -0.09963 -0.09210
#
# Static dielectric constant tensor:
#      x y z
#    x 2.125030 0.000000 -0.036490 
#    y 0.000000 2.129590 0.000000 
#    z -0.036490 0.000000 2.093820 
# 
# From -- ./inp_files/118814.got.cif
#   From: 2010.05.17/outbox.cif.g08.bks.cpg/sg15_60_cif.got.tgz:118814.got - 2010.06.03 18:47:42.
