data_PCOD9254444
_publ_section_title
;
Structure prediction by ZEFSAII (Michael W. Deem and Ramdas Pophale) SiO2 
 PCOD9254444
Probable space group: C 2/C
;
_chemical_formula_sum "Si O2"
_cell_formula_units_Z 48
_cell_length_a 25.249450
_cell_length_b 18.106144
_cell_length_c 11.327345
_cell_angle_alpha 90.000000
_cell_angle_beta 150.325811
_cell_angle_gamma 90.000000
_cell_volume 2563.718113
_symmetry_space_group_name_H-M "C 2/C"
_symmetry_group_IT_number 15
_symmetry_cell_setting 'monoclinic'
loop_
_space_group_symop_operation_xyz
x,y,z
-x,y,1/2-z
-x,-y,-z
x,-y,1/2+z
1/2+x,1/2+y,z
1/2-x,1/2+y,1/2-z
1/2-x,1/2-y,-z
1/2+x,1/2-y,1/2+z
loop_
_atom_site_type_symbol
_atom_site_label
_atom_site_fract_x
_atom_site_fract_y
_atom_site_fract_z
Si Si1 0.716522 0.583342 0.427639
Si Si2 0.599672 0.045916 0.887521
Si Si3 0.882207 0.840048 0.970664
Si Si4 0.154141 0.326514 0.143985
Si Si5 0.925116 0.387366 0.756201
Si Si6 0.761107 0.566288 0.130314
O O1 0.822933 0.586646 0.551731
O O2 0.747936 0.634618 0.598791
O O3 0.705761 0.498125 0.446717
O O4 0.624275 0.610671 0.160958
O O5 0.500000 0.088903 0.750000
O O6 0.555041 0.973540 0.736376
O O7 0.672655 0.023784 0.139709
O O8 0.000000 0.828038 0.250000
O O9 0.833960 0.761270 0.840306
O O10 0.816144 0.880004 0.946952
O O11 0.136963 0.354538 0.976847
O O12 0.039754 0.347392 0.984437
O O13 0.846354 0.389569 0.715179
#
# Coordination Sequence:
#
# PCOD9254444 Si02
#       6
#     8   8   8   8   8   8
#     4  10  21  35  60  81 110 145 182 227 268 325
#     4  10  16  30  54  91 116 133 170 220 280 335
#     4  11  24  40  56  77 109 150 191 227 266 317
#     4  11  19  37  56  86 113 142 173 216 289 337
#     4  10  18  31  58  83 113 141 168 222 277 339
#     4  10  21  35  56  85 107 144 187 225 269 319
#
# _framework density 18.722805999999999
#
# number of rings (size 3 to 8) (size 9 to 14) (size 15 to 20)
#    0.000    1.667    5.000    1.500    0.000    4.000 
#    0.000    0.000    0.000    0.000    0.000    0.000 
#    0.000    0.000    0.000    0.000    0.000    0.000 
#
# Total GULP energy -133785.400361 kJ/mol
# GULP energy per Si atom -5574.391682 kJ/mol
# Density = 1.868019 g / cm^3
# Si number density = 18.722806 Si / 1000 Ang^3
#
#
#
# Elastic Constant Matrix: (Units=GPa)
#
#
# Indices 1 2 3 4 5 6 
#
# 1 63.0125 18.7241 8.3519 0.0000 -10.0682 0.0000
# 2 18.7241 63.9636 10.6685 0.0000 -2.9480 0.0000
# 3 8.3519 10.6685 31.0141 0.0000 -16.8920 0.0000
# 4 0.0000 0.0000 0.0000 21.9448 0.0000 -0.6600
# 5 -10.0682 -2.9480 -16.8920 0.0000 26.9060 0.0000
# 6 0.0000 0.0000 0.0000 -0.6600 0.0000 19.1840
#
#
#
# Elastic Compliance Matrix: (Units=1/GPa)
#
#
# Indices 1 2 3 4 5 6 
#
# 1 0.018397 -0.005148 0.000394 0.000000 0.006567 0.000000
# 2 -0.005148 0.018154 -0.007331 0.000000 -0.004540 0.000000
# 3 0.000394 -0.007331 0.052126 0.000000 0.032070 0.000000
# 4 0.000000 0.000000 0.000000 0.045616 0.000000 0.001569
# 5 0.006567 -0.004540 0.032070 0.000000 0.059260 0.000000
# 6 0.000000 0.000000 0.000000 0.001569 0.000000 0.052181
#
#
# Mechanical properties :
#
#
# Convention : Reuss Voigt Hill
#
# Bulk Modulus (GPa) = 15.50253 25.94213 20.72233
# Shear Modulus (GPa) = 17.15804 21.62334 19.39069
#
# Velocity S-wave (km/s) = 3.03053 3.40210 3.22168
# Velocity P-wave (km/s) = 4.53250 5.41464 4.99309
#
# Compressibility (1/GPa) = 0.06450559
#
# Stress axis : x y z
#
# Youngs Moduli (GPa) = 54.35723 55.08280 19.18420
#
# Poissons Ratio (x) = 0.28358 -0.00755
# Poissons Ratio (y) = 0.27985 0.14065
# Poissons Ratio (z) = -0.02140 0.40383
#
# Static dielectric constant tensor:
#      x y z
#    x 1.672340 0.000000 -0.021820 
#    y 0.000000 1.657490 0.000000 
#    z -0.021820 0.000000 1.683260 
# 
# From -- ./inp_files/87393.got.cif
#   From: 2010.05.17/outbox.cif.g08.bks.cpg/sg15_44_cif.got.tgz:87393.got - 2010.06.03 18:47:42.
