data_PCOD9254108
_publ_section_title
;
Structure prediction by ZEFSAII (Michael W. Deem and Ramdas Pophale) SiO2 
 PCOD9254108
Probable space group: C 2/C
;
_chemical_formula_sum "Si O2"
_cell_formula_units_Z 48
_cell_length_a 27.221675
_cell_length_b 7.250009
_cell_length_c 11.570812
_cell_angle_alpha 90.000000
_cell_angle_beta 51.601897
_cell_angle_gamma 90.000000
_cell_volume 1789.677776
_symmetry_space_group_name_H-M "C 2/C"
_symmetry_group_IT_number 15
_symmetry_cell_setting 'monoclinic'
loop_
_space_group_symop_operation_xyz
x,y,z
-x,y,1/2-z
-x,-y,-z
x,-y,1/2+z
1/2+x,1/2+y,z
1/2-x,1/2+y,1/2-z
1/2-x,1/2-y,-z
1/2+x,1/2-y,1/2+z
loop_
_atom_site_type_symbol
_atom_site_label
_atom_site_fract_x
_atom_site_fract_y
_atom_site_fract_z
Si Si1 0.374563 0.819421 0.638771
Si Si2 0.689767 0.576570 0.214202
Si Si3 0.489248 0.276962 0.519013
Si Si4 0.402153 0.689969 0.351421
Si Si5 0.699018 0.085397 0.062392
Si Si6 0.388254 0.290062 0.474219
O O1 0.344132 0.620978 0.715022
O O2 0.444557 0.821713 0.586935
O O3 0.384669 0.812008 0.487019
O O4 0.327040 0.959310 0.771224
O O5 0.653556 0.664502 0.159150
O O6 0.673924 0.673561 0.357451
O O7 0.761148 0.555818 0.072239
O O8 0.500000 0.500000 0.500000
O O9 0.458953 0.242814 0.688871
O O10 0.441422 0.226593 0.486210
O O11 0.412591 0.483106 0.385643
O O12 0.750000 0.250000 0.000000
O O13 0.637747 0.161852 0.087770
#
# Coordination Sequence:
#
# PCOD9254108 Si02
#       6
#     8   8   8   8   8   8
#     4  10  18  25  42  66  95 132 154 188 238 292
#     4   9  18  30  46  63  94 137 168 196 231 287
#     4  11  17  24  40  67  99 129 152 187 245 309
#     4  10  16  26  41  65  93 128 158 177 236 291
#     4  10  18  32  45  65  95 136 168 197 234 288
#     4  10  18  28  45  69  96 131 161 194 243 287
#
# _framework density 26.820468999999999
#
# number of rings (size 3 to 8) (size 9 to 14) (size 15 to 20)
#    0.000    2.000    8.333    0.500    0.000    2.000 
#    0.000    0.000    0.000   40.000    0.000    0.000 
#    0.000   12.000    1.333    1.667    0.000    0.000 
#
# Total GULP energy -134473.392095 kJ/mol
# GULP energy per Si atom -5603.058004 kJ/mol
# Density = 2.675942 g / cm^3
# Si number density = 26.820469 Si / 1000 Ang^3
#
#
#
# Elastic Constant Matrix: (Units=GPa)
#
#
# Indices 1 2 3 4 5 6 
#
# 1 113.5951 12.2710 59.8109 0.0000 -0.0836 0.0000
# 2 12.2710 67.2252 26.5084 0.0000 -2.0862 0.0000
# 3 59.8109 26.5084 251.6761 0.0000 -5.1413 0.0000
# 4 0.0000 0.0000 0.0000 22.2382 0.0000 -0.9337
# 5 -0.0836 -2.0862 -5.1413 0.0000 47.1763 0.0000
# 6 0.0000 0.0000 0.0000 -0.9337 0.0000 21.2460
#
#
#
# Elastic Compliance Matrix: (Units=1/GPa)
#
#
# Indices 1 2 3 4 5 6 
#
# 1 0.010122 -0.000945 -0.002312 0.000000 -0.000276 0.000000
# 2 -0.000945 0.015620 -0.001410 0.000000 0.000535 0.000000
# 3 -0.002312 -0.001410 0.004680 0.000000 0.000444 0.000000
# 4 0.000000 0.000000 0.000000 0.045051 0.000000 0.001980
# 5 -0.000276 0.000535 0.000444 0.000000 0.021269 0.000000
# 6 0.000000 0.000000 0.000000 0.001980 0.000000 0.047155
#
#
# Mechanical properties :
#
#
# Convention : Reuss Voigt Hill
#
# Bulk Modulus (GPa) = 47.41469 69.96409 58.68939
# Shear Modulus (GPa) = 31.19940 40.39250 35.79595
#
# Velocity S-wave (km/s) = 3.41437 3.88497 3.65725
# Velocity P-wave (km/s) = 5.76722 6.80197 6.30585
#
# Compressibility (1/GPa) = 0.02109051
#
# Stress axis : x y z
#
# Youngs Moduli (GPa) = 98.79272 64.01906 213.66219
#
# Poissons Ratio (x) = 0.06048 0.49392
# Poissons Ratio (y) = 0.09333 0.30122
# Poissons Ratio (z) = 0.22838 0.09025
#
# Static dielectric constant tensor:
#      x y z
#    x 2.051800 0.000000 0.050920 
#    y 0.000000 2.181970 0.000000 
#    z 0.050920 0.000000 2.094610 
# 
# From -- ./inp_files/126112.got.cif
#   From: 2010.05.17/outbox.cif.g08.bks.cpg/sg15_64_cif.got.tgz:126112.got - 2010.06.03 18:47:42.
