data_PCOD9254179
_publ_section_title
;
Structure prediction by ZEFSAII (Michael W. Deem and Ramdas Pophale) SiO2 
 PCOD9254179
Probable space group: C 2/C
;
_chemical_formula_sum "Si O2"
_cell_formula_units_Z 52
_cell_length_a 14.760965
_cell_length_b 8.726980
_cell_length_c 15.429941
_cell_angle_alpha 90.000000
_cell_angle_beta 83.964343
_cell_angle_gamma 90.000000
_cell_volume 1976.645798
_symmetry_space_group_name_H-M "C 2/C"
_symmetry_group_IT_number 15
_symmetry_cell_setting 'monoclinic'
loop_
_space_group_symop_operation_xyz
x,y,z
-x,y,1/2-z
-x,-y,-z
x,-y,1/2+z
1/2+x,1/2+y,z
1/2-x,1/2+y,1/2-z
1/2-x,1/2-y,-z
1/2+x,1/2-y,1/2+z
loop_
_atom_site_type_symbol
_atom_site_label
_atom_site_fract_x
_atom_site_fract_y
_atom_site_fract_z
Si Si1 0.054411 0.702594 0.456145
Si Si2 0.289870 0.722169 0.819403
Si Si3 0.871687 0.868106 0.488519
Si Si4 0.673943 0.042732 0.328185
Si Si5 0.144769 0.810164 0.603132
Si Si6 0.877026 0.985134 0.159721
Si Si7 0.000000 0.790010 0.750000
O O1 0.078191 0.567131 0.387247
O O2 0.129115 0.695716 0.524905
O O3 0.955464 0.752695 0.499329
O O4 0.076687 0.844652 0.391999
O O5 0.320071 0.715737 0.915597
O O6 0.315951 0.877407 0.766911
O O7 0.192716 0.637401 0.828286
O O8 0.335777 0.591974 0.750392
O O9 0.827739 0.928979 0.583496
O O10 0.892994 0.030261 0.436168
O O11 0.755542 0.139361 0.371225
O O12 0.084266 0.731214 0.684187
O O13 0.948934 0.103020 0.187189
#
# Coordination Sequence:
#
# PCOD9254179 Si02
#       7
#     8   8   8   8   8   8   4
#     4  10  17  28  49  82 109 139 176 242 278 316
#     4  10  21  37  54  82 112 151 184 229 274 335
#     4  10  17  29  51  80 106 141 189 227 269 319
#     4  10  21  33  53  78 117 146 181 226 287 327
#     4  10  18  29  49  81 111 138 183 232 280 320
#     4  10  16  27  48  76 108 139 180 227 267 317
#     4  12  14  26  52  74 110 142 182 230 270 324
#
# _framework density 26.307191
#
# number of rings (size 3 to 8) (size 9 to 14) (size 15 to 20)
#    0.000    1.846    6.154    1.385    0.000    3.077 
#    0.000    0.769    0.000    1.846    0.000    3.231 
#    0.000    0.000    0.000    0.000    0.000    0.000 
#
# Total GULP energy -144769.014351 kJ/mol
# GULP energy per Si atom -5568.039013 kJ/mol
# Density = 2.624732 g / cm^3
# Si number density = 26.307191 Si / 1000 Ang^3
#
#
#
# Elastic Constant Matrix: (Units=GPa)
#
#
# Indices 1 2 3 4 5 6 
#
# 1 43.9111 14.4371 25.0546 0.0000 1.4206 0.0000
# 2 14.4371 54.2312 6.5960 0.0000 6.5632 0.0000
# 3 25.0546 6.5960 163.8888 0.0000 12.2512 0.0000
# 4 0.0000 0.0000 0.0000 22.4460 0.0000 -0.1180
# 5 1.4206 6.5632 12.2512 0.0000 42.4299 0.0000
# 6 0.0000 0.0000 0.0000 -0.1180 0.0000 20.5868
#
#
#
# Elastic Compliance Matrix: (Units=1/GPa)
#
#
# Indices 1 2 3 4 5 6 
#
# 1 0.027289 -0.006938 -0.003991 0.000000 0.001312 0.000000
# 2 -0.006938 0.020604 0.000462 0.000000 -0.003088 0.000000
# 3 -0.003991 0.000462 0.006836 0.000000 -0.001912 0.000000
# 4 0.000000 0.000000 0.000000 0.044553 0.000000 0.000255
# 5 0.001312 -0.003088 -0.001912 0.000000 0.024554 0.000000
# 6 0.000000 0.000000 0.000000 0.000255 0.000000 0.048576
#
#
# Mechanical properties :
#
#
# Convention : Reuss Voigt Hill
#
# Bulk Modulus (GPa) = 29.58912 39.35627 34.47270
# Shear Modulus (GPa) = 24.43668 31.48877 27.96272
#
# Velocity S-wave (km/s) = 3.05109 3.46347 3.26380
# Velocity P-wave (km/s) = 4.86664 5.56659 5.22834
#
# Compressibility (1/GPa) = 0.03379620
#
# Stress axis : x y z
#
# Youngs Moduli (GPa) = 36.64495 48.53396 146.28290
#
# Poissons Ratio (x) = 0.33673 0.58376
# Poissons Ratio (y) = 0.25425 -0.06762
# Poissons Ratio (z) = 0.14624 -0.02244
#
# Static dielectric constant tensor:
#      x y z
#    x 2.230250 0.000000 -0.079270 
#    y 0.000000 2.053390 0.000000 
#    z -0.079270 0.000000 2.132380 
# 
# From -- ./inp_files/203576.got.cif
#   From: 2010.05.17/outbox.cif.g08.bks.cpg/sg15_102_cif.got.tgz:203576.got - 2010.06.03 18:47:42.
