data_PCOD9254794
_publ_section_title
;
Structure prediction by ZEFSAII (Michael W. Deem and Ramdas Pophale) SiO2 
 PCOD9254794
Probable space group: C 2/C
;
_chemical_formula_sum "Si O2"
_cell_formula_units_Z 36
_cell_length_a 20.746928
_cell_length_b 6.852564
_cell_length_c 11.667217
_cell_angle_alpha 90.000000
_cell_angle_beta 60.886498
_cell_angle_gamma 90.000000
_cell_volume 1449.156972
_symmetry_space_group_name_H-M "C 2/C"
_symmetry_group_IT_number 15
_symmetry_cell_setting 'monoclinic'
loop_
_space_group_symop_operation_xyz
x,y,z
-x,y,1/2-z
-x,-y,-z
x,-y,1/2+z
1/2+x,1/2+y,z
1/2-x,1/2+y,1/2-z
1/2-x,1/2-y,-z
1/2+x,1/2-y,1/2+z
loop_
_atom_site_type_symbol
_atom_site_label
_atom_site_fract_x
_atom_site_fract_y
_atom_site_fract_z
Si Si1 0.855390 0.619954 0.215929
Si Si2 0.374629 0.350661 0.431088
Si Si3 0.000000 0.157577 0.250000
Si Si4 0.489589 0.737928 0.010346
Si Si5 0.741429 0.349164 0.384534
O O1 0.850193 0.725847 0.343750
O O2 0.820797 0.408289 0.267038
O O3 0.803204 0.718747 0.165964
O O4 0.937827 0.659282 0.101116
O O5 0.429856 0.518271 0.334865
O O6 0.422270 0.229541 0.481922
O O7 0.307617 0.457720 0.551493
O O8 0.984457 0.279631 0.149591
O O9 0.500000 0.500000 0.000000
O O10 0.750000 0.250000 0.500000
#
# Coordination Sequence:
#
# PCOD9254794 Si02
#       5
#     8   8   4   8   8
#     4  12  23  44  72 108 146 199 252 303 368 449
#     4  11  19  40  74 106 146 191 243 301 372 439
#     4  10  16  34  68 108 138 188 242 276 372 424
#     4  10  18  36  74 108 140 194 244 295 364 444
#     4  12  27  44  70 106 154 199 245 307 377 448
#
# _framework density 24.842030000000001
#
# number of rings (size 3 to 8) (size 9 to 14) (size 15 to 20)
#    0.000    0.889    8.889    2.000    0.000    0.000 
#    0.000    0.000    4.889    8.000    0.000    0.000 
#    0.000    0.000    0.000    0.000    0.000    0.000 
#
# Total GULP energy -100943.710403 kJ/mol
# GULP energy per Si atom -5607.983911 kJ/mol
# Density = 2.478549 g / cm^3
# Si number density = 24.842030 Si / 1000 Ang^3
#
#
#
# Elastic Constant Matrix: (Units=GPa)
#
#
# Indices 1 2 3 4 5 6 
#
# 1 184.1871 62.8084 84.7726 0.0000 29.1278 0.0000
# 2 62.8084 71.9581 45.3518 0.0000 6.5235 0.0000
# 3 84.7726 45.3518 162.9439 0.0000 14.1949 0.0000
# 4 0.0000 0.0000 0.0000 45.9806 0.0000 7.4849
# 5 29.1278 6.5235 14.1949 0.0000 76.0521 0.0000
# 6 0.0000 0.0000 0.0000 7.4849 0.0000 36.4504
#
#
#
# Elastic Compliance Matrix: (Units=1/GPa)
#
#
# Indices 1 2 3 4 5 6 
#
# 1 0.009192 -0.005968 -0.002906 0.000000 -0.002466 0.000000
# 2 -0.005968 0.020753 -0.002760 0.000000 0.001021 0.000000
# 3 -0.002906 -0.002760 0.008437 0.000000 -0.000225 0.000000
# 4 0.000000 0.000000 0.000000 0.022500 0.000000 -0.004620
# 5 -0.002466 0.001021 -0.000225 0.000000 0.014048 0.000000
# 6 0.000000 0.000000 0.000000 -0.004620 0.000000 0.028383
#
#
# Mechanical properties :
#
#
# Convention : Reuss Voigt Hill
#
# Bulk Modulus (GPa) = 66.16757 89.43941 77.80349
# Shear Modulus (GPa) = 37.98803 46.77370 42.38086
#
# Velocity S-wave (km/s) = 3.91472 4.34388 4.13487
# Velocity P-wave (km/s) = 6.86488 7.82563 7.36095
#
# Compressibility (1/GPa) = 0.01511314
#
# Stress axis : x y z
#
# Youngs Moduli (GPa) = 108.79053 48.18535 118.52616
#
# Poissons Ratio (x) = 0.28757 0.34447
# Poissons Ratio (y) = 0.64925 0.32716
# Poissons Ratio (z) = 0.31618 0.13300
#
# Static dielectric constant tensor:
#      x y z
#    x 1.968600 0.000000 -0.047430 
#    y 0.000000 2.100370 0.000000 
#    z -0.047430 0.000000 1.957410 
# 
# From -- ./inp_files/109526.got.cif
#   From: 2010.05.17/outbox.cif.g08.bks.cpg/sg15_55_cif.got.tgz:109526.got - 2010.06.03 18:47:42.
