data_PCOD9254694
_publ_section_title
;
Structure prediction by ZEFSAII (Michael W. Deem and Ramdas Pophale) SiO2 
 PCOD9254694
Probable space group: C 2/C
;
_chemical_formula_sum "Si O2"
_cell_formula_units_Z 48
_cell_length_a 14.096137
_cell_length_b 7.617223
_cell_length_c 21.053363
_cell_angle_alpha 90.000000
_cell_angle_beta 53.220550
_cell_angle_gamma 90.000000
_cell_volume 1810.596134
_symmetry_space_group_name_H-M "C 2/C"
_symmetry_group_IT_number 15
_symmetry_cell_setting 'monoclinic'
loop_
_space_group_symop_operation_xyz
x,y,z
-x,y,1/2-z
-x,-y,-z
x,-y,1/2+z
1/2+x,1/2+y,z
1/2-x,1/2+y,1/2-z
1/2-x,1/2-y,-z
1/2+x,1/2-y,1/2+z
loop_
_atom_site_type_symbol
_atom_site_label
_atom_site_fract_x
_atom_site_fract_y
_atom_site_fract_z
Si Si1 0.133274 0.971876 0.198940
Si Si2 0.355929 0.405707 0.168169
Si Si3 0.561291 0.810931 0.532832
Si Si4 0.781679 0.000204 0.477317
Si Si5 0.490142 0.752792 0.417933
Si Si6 0.396167 0.117977 0.752641
O O1 0.184117 0.888141 0.242400
O O2 0.190643 0.955481 0.107718
O O3 0.000000 0.902593 0.250000
O O4 0.122820 0.180506 0.216096
O O5 0.435227 0.240746 0.115314
O O6 0.441786 0.567267 0.122139
O O7 0.233798 0.453309 0.183181
O O8 0.638806 0.968905 0.533217
O O9 0.652398 0.648095 0.507087
O O10 0.528971 0.820595 0.471477
O O11 0.855330 0.176696 0.465733
O O12 0.550639 0.865810 0.338424
O O13 0.500000 0.028722 0.750000
#
# Coordination Sequence:
#
# PCOD9254694 Si02
#       6
#     8   8   8   8   8   8
#     4  10  16  33  56  75  98 141 182 215 260 326
#     4  10  19  32  56  80 109 137 180 230 270 323
#     4  10  20  31  55  84 110 139 179 228 280 332
#     4  10  17  32  56  81 105 142 183 219 273 336
#     4  10  19  36  58  78 108 147 180 229 279 330
#     4  10  19  35  58  73 101 147 184 216 269 333
#
# _framework density 26.510604000000001
#
# number of rings (size 3 to 8) (size 9 to 14) (size 15 to 20)
#    0.000    2.000    6.667    3.000    0.000    0.000 
#    0.000    1.667   29.333    0.000    0.000    0.000 
#    0.000    0.000    0.000    0.000    0.000    0.000 
#
# Total GULP energy -134165.297628 kJ/mol
# GULP energy per Si atom -5590.220735 kJ/mol
# Density = 2.645027 g / cm^3
# Si number density = 26.510604 Si / 1000 Ang^3
#
#
#
# Elastic Constant Matrix: (Units=GPa)
#
#
# Indices 1 2 3 4 5 6 
#
# 1 182.6982 6.9772 51.2297 0.0000 -33.4332 0.0001
# 2 6.9772 79.8084 29.7909 0.0000 2.8888 0.0002
# 3 51.2297 29.7909 77.8998 0.0000 -3.1301 0.0000
# 4 0.0000 0.0000 0.0000 -1.2564 0.0000 -13.3000
# 5 -33.4332 2.8888 -3.1301 0.0000 63.9983 0.0000
# 6 0.0001 0.0002 0.0000 -13.3000 0.0000 18.5465
#
#
#
# Elastic Compliance Matrix: (Units=1/GPa)
#
#
# Indices 1 2 3 4 5 6 
#
# 1 0.007579 0.001180 -0.005289 0.000000 0.003647 0.000000
# 2 0.001180 0.014856 -0.006472 0.000000 -0.000371 0.000000
# 3 -0.005289 -0.006472 0.018728 0.000000 -0.001555 0.000000
# 4 0.000000 0.000000 0.000000 -0.092644 0.000000 -0.066437
# 5 0.003647 -0.000371 -0.001555 0.000000 0.017472 0.000000
# 6 0.000000 0.000000 0.000000 -0.066437 0.000000 0.006276
#
#
# Mechanical properties :
#
#
# Convention : Reuss Voigt Hill
#
# Bulk Modulus (GPa) = 49.99894 57.37799 53.68846
# Shear Modulus (GPa) = 52537.02992 33.08492 26285.05742
#
# Velocity S-wave (km/s) = 140.92688 3.53652 99.68173
# Velocity P-wave (km/s) = 162.78641 6.19406 115.19067
#
# Compressibility (1/GPa) = 0.02000043
#
# Stress axis : x y z
#
# Youngs Moduli (GPa) = 131.94539 67.31198 53.39708
#
# Poissons Ratio (x) = -0.07940 0.28240
# Poissons Ratio (y) = -0.15564 0.34559
# Poissons Ratio (z) = 0.69782 0.43564
#
# Static dielectric constant tensor:
#      x y z
#    x 2.252450 0.000000 -0.018430 
#    y 0.000000 2.172690 0.000000 
#    z -0.018430 0.000000 2.013820 
# 
# From -- ./inp_files/196128.got.cif
#   From: 2010.05.17/outbox.cif.g08.bks.cpg/sg15_99_cif.got.tgz:196128.got - 2010.06.03 18:47:42.
