data_PCOD9254066
_publ_section_title
;
Structure prediction by ZEFSAII (Michael W. Deem and Ramdas Pophale) SiO2 
 PCOD9254066
Probable space group: C 2/C
;
_chemical_formula_sum "Si O2"
_cell_formula_units_Z 64
_cell_length_a 19.247148
_cell_length_b 13.212413
_cell_length_c 14.133173
_cell_angle_alpha 90.000000
_cell_angle_beta 89.999917
_cell_angle_gamma 90.000000
_cell_volume 3594.083821
_symmetry_space_group_name_H-M "C 2/C"
_symmetry_group_IT_number 15
_symmetry_cell_setting 'monoclinic'
loop_
_space_group_symop_operation_xyz
x,y,z
-x,y,1/2-z
-x,-y,-z
x,-y,1/2+z
1/2+x,1/2+y,z
1/2-x,1/2+y,1/2-z
1/2-x,1/2-y,-z
1/2+x,1/2-y,1/2+z
loop_
_atom_site_type_symbol
_atom_site_label
_atom_site_fract_x
_atom_site_fract_y
_atom_site_fract_z
Si Si1 0.000000 0.742929 0.359079
Si Si2 0.500001 0.996349 0.887825
Si Si3 0.850370 0.515898 0.354689
Si Si4 0.284068 0.192442 0.640461
Si Si5 0.215931 0.692443 0.640461
Si Si6 0.350368 0.015898 0.145309
Si Si7 0.855038 0.272078 0.547775
Si Si8 0.355039 0.772080 0.952224
O O1 0.070489 0.767034 0.416156
O O2 0.000000 0.779468 0.250000
O O3 0.000001 0.620070 0.354592
O O4 0.929511 0.767033 0.416157
O O5 0.573990 0.038524 0.856339
O O6 0.426013 0.038523 0.856336
O O7 0.500000 0.000000 0.000000
O O8 0.794353 0.428737 0.367545
O O9 0.841952 0.562068 0.250000
O O10 0.851934 0.607138 0.428661
O O11 0.296770 0.219995 0.750000
O O12 0.294350 0.071263 0.632454
O O13 0.336126 0.240409 0.562551
O O14 0.207234 0.223227 0.607818
O O15 0.163873 0.740410 0.562552
O O16 0.292765 0.723225 0.607818
O O17 0.351933 0.107140 0.071339
#
# Coordination Sequence:
#
# PCOD9254066 Si02
#       8
#     8   8   8   8   8   8   8   8
#     4  10  18  30  49  68  89 122 158 192 233 274
#     4  10  16  24  40  64  94 122 148 180 226 276
#     4  10  18  29  46  68  95 124 153 187 230 279
#     4  10  20  31  46  70  97 127 158 188 233 287
#     4  10  20  31  46  70  97 127 158 188 233 287
#     4  10  18  29  46  68  95 124 153 187 230 279
#     4  10  19  33  49  69  98 124 155 197 236 274
#     4  10  19  33  49  69  98 124 155 197 236 274
#
# _framework density 17.807041999999999
#
# number of rings (size 3 to 8) (size 9 to 14) (size 15 to 20)
#    0.000    2.000    0.000    8.625    0.000    0.000 
#    0.000    1.875    0.000    0.000    0.000   15.750 
#    0.000   16.000    0.000    0.000    0.000    0.000 
#
# Total GULP energy -178305.588578 kJ/mol
# GULP energy per Si atom -5572.049643 kJ/mol
# Density = 1.776651 g / cm^3
# Si number density = 17.807042 Si / 1000 Ang^3
#
#
#
# Elastic Constant Matrix: (Units=GPa)
#
#
# Indices 1 2 3 4 5 6 
#
# 1 146.3493 34.4847 62.4658 0.0000 -3.9311 0.0000
# 2 34.4847 27.8488 6.3361 0.0000 -2.6423 0.0000
# 3 62.4658 6.3361 175.9215 0.0000 6.7093 0.0000
# 4 0.0000 0.0000 0.0000 18.6628 0.0000 -0.6167
# 5 -3.9311 -2.6423 6.7093 0.0000 21.9990 0.0000
# 6 0.0000 0.0000 0.0000 -0.6167 0.0000 25.2351
#
#
#
# Elastic Compliance Matrix: (Units=1/GPa)
#
#
# Indices 1 2 3 4 5 6 
#
# 1 0.011608 -0.013381 -0.003701 0.000000 0.001596 0.000000
# 2 -0.013381 0.052138 0.002758 0.000000 0.003030 0.000000
# 3 -0.003701 0.002758 0.006993 0.000000 -0.002463 0.000000
# 4 0.000000 0.000000 0.000000 0.053626 0.000000 0.001310
# 5 0.001596 0.003030 -0.002463 0.000000 0.046857 0.000000
# 6 0.000000 0.000000 0.000000 0.001310 0.000000 0.039659
#
#
# Mechanical properties :
#
#
# Convention : Reuss Voigt Hill
#
# Bulk Modulus (GPa) = 23.75790 61.85479 42.80634
# Shear Modulus (GPa) = 19.71921 29.63491 24.67706
#
# Velocity S-wave (km/s) = 3.33135 4.08392 3.72668
# Velocity P-wave (km/s) = 5.30735 7.55310 6.52753
#
# Compressibility (1/GPa) = 0.04209126
#
# Stress axis : x y z
#
# Youngs Moduli (GPa) = 86.14378 19.17993 142.99950
#
# Poissons Ratio (x) = 0.25665 0.52922
# Poissons Ratio (y) = 1.15271 -0.39439
# Poissons Ratio (z) = 0.31880 -0.05290
#
# Static dielectric constant tensor:
#      x y z
#    x 1.636030 0.000000 0.006240 
#    y 0.000000 1.590090 0.000000 
#    z 0.006240 0.000000 1.702530 
# 
# From -- ./inp_files/161924.got.cif
#   From: 2010.05.17/outbox.cif.g08.bks.cpg/sg15_81_cif.got.tgz:161924.got - 2010.06.03 18:47:42.
