data_PCOD9254776
_publ_section_title
;
Structure prediction by ZEFSAII (Michael W. Deem and Ramdas Pophale) SiO2 
 PCOD9254776
Probable space group: C 2/C
;
_chemical_formula_sum "Si O2"
_cell_formula_units_Z 36
_cell_length_a 13.600119
_cell_length_b 13.548687
_cell_length_c 11.009186
_cell_angle_alpha 90.000000
_cell_angle_beta 140.744414
_cell_angle_gamma 90.000000
_cell_volume 1283.655356
_symmetry_space_group_name_H-M "C 2/C"
_symmetry_group_IT_number 15
_symmetry_cell_setting 'monoclinic'
loop_
_space_group_symop_operation_xyz
x,y,z
-x,y,1/2-z
-x,-y,-z
x,-y,1/2+z
1/2+x,1/2+y,z
1/2-x,1/2+y,1/2-z
1/2-x,1/2-y,-z
1/2+x,1/2-y,1/2+z
loop_
_atom_site_type_symbol
_atom_site_label
_atom_site_fract_x
_atom_site_fract_y
_atom_site_fract_z
Si Si1 0.185701 0.054395 0.223248
Si Si2 0.500000 0.812762 0.250000
Si Si3 0.881222 0.738407 0.375775
Si Si4 0.340538 0.884424 0.460619
Si Si5 0.228936 0.970871 0.027568
O O1 0.235010 0.164498 0.241353
O O2 0.138456 0.054180 0.317964
O O3 0.343916 0.988335 0.392257
O O4 0.127721 0.999640 0.047360
O O5 0.563327 0.754143 0.429278
O O6 0.359235 0.884479 0.161915
O O7 0.816472 0.832481 0.241616
O O8 0.019237 0.686442 0.434506
O O9 0.314399 0.925772 0.570842
#
# Coordination Sequence:
#
# PCOD9254776 Si02
#       5
#     8   4   8   8   8
#     4   9  19  37  61  88 119 171 208 250 296 388
#     4  10  16  34  62  84 112 166 206 250 278 380
#     4  11  21  37  60  96 124 160 210 258 311 365
#     4  10  22  36  62  96 121 159 210 262 305 369
#     4   9  17  34  61  90 116 155 217 248 295 358
#
# _framework density 28.044910999999999
#
# number of rings (size 3 to 8) (size 9 to 14) (size 15 to 20)
#    1.333    0.889    2.222    2.000    0.000    1.778 
#    0.000    1.111    0.000    0.000    0.000    0.000 
#    0.000    0.000    0.000    0.000    0.000    0.000 
#
# Total GULP energy -100461.111392 kJ/mol
# GULP energy per Si atom -5581.172855 kJ/mol
# Density = 2.798108 g / cm^3
# Si number density = 28.044911 Si / 1000 Ang^3
#
#
#
# Elastic Constant Matrix: (Units=GPa)
#
#
# Indices 1 2 3 4 5 6 
#
# 1 117.7491 19.5285 -4.2928 0.0000 -7.8854 0.0000
# 2 19.5285 98.3457 25.3907 0.0000 9.3626 0.0000
# 3 -4.2928 25.3907 106.3988 0.0000 -13.2507 0.0000
# 4 0.0000 0.0000 0.0000 0.2233 0.0000 -17.1979
# 5 -7.8854 9.3626 -13.2507 0.0000 33.3439 0.0000
# 6 0.0000 0.0000 0.0000 -17.1979 0.0000 14.4647
#
#
#
# Elastic Compliance Matrix: (Units=1/GPa)
#
#
# Indices 1 2 3 4 5 6 
#
# 1 0.009190 -0.002513 0.001398 0.000000 0.003435 0.000000
# 2 -0.002513 0.012137 -0.003678 0.000000 -0.005464 0.000000
# 3 0.001398 -0.003678 0.011049 0.000000 0.005754 0.000000
# 4 0.000000 0.000000 0.000000 -0.049445 0.000000 -0.058789
# 5 0.003435 -0.005464 0.005754 0.000000 0.034624 0.000000
# 6 0.000000 0.000000 0.000000 -0.058789 0.000000 -0.000763
#
#
# Mechanical properties :
#
#
# Convention : Reuss Voigt Hill
#
# Bulk Modulus (GPa) = 43.87691 44.86072 44.36881
# Shear Modulus (GPa) = 147.16875 28.39753 87.78314
#
# Velocity S-wave (km/s) = 7.25190 3.18555 5.60079
# Velocity P-wave (km/s) = 9.26279 5.43701 7.59474
#
# Compressibility (1/GPa) = 0.02279103
#
# Stress axis : x y z
#
# Youngs Moduli (GPa) = 108.80947 82.39273 90.50254
#
# Poissons Ratio (x) = 0.20704 -0.12654
# Poissons Ratio (y) = 0.27343 0.33289
# Poissons Ratio (z) = -0.15214 0.30306
#
# Static dielectric constant tensor:
#      x y z
#    x 2.222900 0.000000 -0.037810 
#    y 0.000000 2.152730 0.000000 
#    z -0.037810 0.000000 2.228250 
# 
# From -- ./inp_files/38496.got.cif
#   From: 2010.05.17/outbox.cif.g08.bks.cpg/sg15_20_cif.got.tgz:38496.got - 2010.06.03 18:47:42.
