data_PCOD9254321
_publ_section_title
;
Structure prediction by ZEFSAII (Michael W. Deem and Ramdas Pophale) SiO2 
 PCOD9254321
Probable space group: C 2/C
;
_chemical_formula_sum "Si O2"
_cell_formula_units_Z 48
_cell_length_a 14.553174
_cell_length_b 12.633372
_cell_length_c 10.048881
_cell_angle_alpha 90.000000
_cell_angle_beta 104.002158
_cell_angle_gamma 90.000000
_cell_volume 1792.646880
_symmetry_space_group_name_H-M "C 2/C"
_symmetry_group_IT_number 15
_symmetry_cell_setting 'monoclinic'
loop_
_space_group_symop_operation_xyz
x,y,z
-x,y,1/2-z
-x,-y,-z
x,-y,1/2+z
1/2+x,1/2+y,z
1/2-x,1/2+y,1/2-z
1/2-x,1/2-y,-z
1/2+x,1/2-y,1/2+z
loop_
_atom_site_type_symbol
_atom_site_label
_atom_site_fract_x
_atom_site_fract_y
_atom_site_fract_z
Si Si1 0.678006 0.157831 0.283574
Si Si2 0.306718 0.609319 0.093814
Si Si3 0.523926 0.405766 0.104582
Si Si4 0.137292 0.430989 0.344344
Si Si5 0.713190 0.389290 0.310950
Si Si6 0.444834 0.780821 0.015062
O O1 0.772954 0.130092 0.233629
O O2 0.643290 0.057856 0.355742
O O3 0.696723 0.271027 0.354577
O O4 0.602333 0.176180 0.138163
O O5 0.316833 0.481910 0.099046
O O6 0.389260 0.690698 0.085601
O O7 0.215708 0.625020 0.967845
O O8 0.500000 0.418343 0.250000
O O9 0.638801 0.399424 0.161322
O O10 0.500000 0.500000 0.000000
O O11 0.480380 0.299250 0.025268
O O12 0.181671 0.405819 0.214156
O O13 0.045391 0.379900 0.383167
#
# Coordination Sequence:
#
# PCOD9254321 Si02
#       6
#     8   8   8   8   8   8
#     4   9  17  28  49  78 113 146 187 230 304 362
#     4  10  16  29  52  78 113 156 182 236 309 356
#     4  11  23  37  58  85 116 160 200 242 296 347
#     4  10  17  30  54  83 109 154 186 234 305 356
#     4  10  19  32  53  82 120 146 194 248 293 361
#     4  10  18  36  55  77 120 154 196 241 306 361
#
# _framework density 26.776050000000001
#
# number of rings (size 3 to 8) (size 9 to 14) (size 15 to 20)
#    0.000    2.000    5.000    2.000    0.000    0.667 
#    0.000    0.000    0.000    6.000    0.000    5.833 
#    0.000    0.000    0.000    0.000    0.000    0.000 
#
# Total GULP energy -133788.777975 kJ/mol
# GULP energy per Si atom -5574.532416 kJ/mol
# Density = 2.671511 g / cm^3
# Si number density = 26.776050 Si / 1000 Ang^3
#
#
#
# Elastic Constant Matrix: (Units=GPa)
#
#
# Indices 1 2 3 4 5 6 
#
# 1 45.4300 13.8448 25.0982 0.0000 -19.0571 0.0000
# 2 13.8448 225.0036 62.8154 0.0000 -28.6808 0.0000
# 3 25.0982 62.8154 71.4759 0.0000 -13.8814 0.0000
# 4 0.0000 0.0000 0.0000 65.3415 0.0000 -12.7212
# 5 -19.0571 -28.6808 -13.8814 0.0000 37.0941 0.0000
# 6 0.0000 0.0000 0.0000 -12.7212 0.0000 22.4816
#
#
#
# Elastic Compliance Matrix: (Units=1/GPa)
#
#
# Indices 1 2 3 4 5 6 
#
# 1 0.034039 0.003155 -0.011706 0.000000 0.015546 0.000000
# 2 0.003155 0.006469 -0.005939 0.000000 0.004401 0.000000
# 3 -0.011706 -0.005939 0.022927 0.000000 -0.002026 0.000000
# 4 0.000000 0.000000 0.000000 0.017199 0.000000 0.009732
# 5 0.015546 0.004401 -0.002026 0.000000 0.037590 0.000000
# 6 0.000000 0.000000 0.000000 0.009732 0.000000 0.049988
#
#
# Mechanical properties :
#
#
# Convention : Reuss Voigt Hill
#
# Bulk Modulus (GPa) = 29.02261 60.60293 44.81277
# Shear Modulus (GPa) = 23.96065 40.99348 32.47707
#
# Velocity S-wave (km/s) = 2.99466 3.91701 3.48647
# Velocity P-wave (km/s) = 4.77701 6.56808 5.74280
#
# Compressibility (1/GPa) = 0.03445589
#
# Stress axis : x y z
#
# Youngs Moduli (GPa) = 29.37810 154.58240 43.61712
#
# Poissons Ratio (x) = -0.48775 0.51059
# Poissons Ratio (y) = -0.09270 0.25902
# Poissons Ratio (z) = 0.34391 0.91799
#
# Static dielectric constant tensor:
#      x y z
#    x 2.474260 0.000000 -0.039190 
#    y 0.000000 2.177500 0.000000 
#    z -0.039190 0.000000 2.085670 
# 
# From -- ./inp_files/110613.got.cif
#   From: 2010.05.17/outbox.cif.g08.bks.cpg/sg15_56_cif.got.tgz:110613.got - 2010.06.03 18:47:42.
