data_PCOD9254914
_publ_section_title
;
Structure prediction by ZEFSAII (Michael W. Deem and Ramdas Pophale) SiO2 
 PCOD9254914
Probable space group: C 2/C
;
_chemical_formula_sum "Si O2"
_cell_formula_units_Z 56
_cell_length_a 24.123266
_cell_length_b 8.262275
_cell_length_c 14.980295
_cell_angle_alpha 90.000000
_cell_angle_beta 73.026030
_cell_angle_gamma 90.000000
_cell_volume 2855.700818
_symmetry_space_group_name_H-M "C 2/C"
_symmetry_group_IT_number 15
_symmetry_cell_setting 'monoclinic'
loop_
_space_group_symop_operation_xyz
x,y,z
-x,y,1/2-z
-x,-y,-z
x,-y,1/2+z
1/2+x,1/2+y,z
1/2-x,1/2+y,1/2-z
1/2-x,1/2-y,-z
1/2+x,1/2-y,1/2+z
loop_
_atom_site_type_symbol
_atom_site_label
_atom_site_fract_x
_atom_site_fract_y
_atom_site_fract_z
Si Si1 0.821940 0.840168 0.195081
Si Si2 0.759744 0.854045 0.639700
Si Si3 0.984251 0.636701 0.609985
Si Si4 0.831988 0.360820 0.973908
Si Si5 0.596507 0.363014 0.182451
Si Si6 0.904861 0.599338 0.047836
Si Si7 0.500000 0.611882 0.250000
Si Si8 0.500000 0.114278 0.250000
O O1 0.772451 0.724412 0.260167
O O2 0.856328 0.907318 0.265612
O O3 0.865988 0.728431 0.118076
O O4 0.795554 0.988305 0.151822
O O5 0.797956 0.715979 0.573430
O O6 0.711760 0.898026 0.586989
O O7 0.927666 0.555868 0.593932
O O8 0.034527 0.675499 0.515468
O O9 0.973489 0.781618 0.682924
O O10 0.011203 0.496618 0.659882
O O11 0.873423 0.218845 0.916415
O O12 0.866652 0.518951 0.987785
O O13 0.551728 0.505753 0.184802
O O14 0.555370 0.223663 0.242846
#
# Coordination Sequence:
#
# PCOD9254914 Si02
#       8
#     8   8   8   8   8   8   4   4
#     4  11  23  42  64  89 120 162 204 255 309 355
#     4  10  24  42  62  90 118 156 212 256 300 361
#     4  10  22  37  57  97 119 158 202 244 291 383
#     4  10  22  42  63  85 125 159 200 260 308 350
#     4  10  21  39  61  89 122 165 190 254 308 355
#     4  11  22  38  64  90 122 161 199 249 312 364
#     4  10  24  36  60  92 126 158 210 244 294 386
#     4  10  16  40  58  82 126 158 192 238 294 378
#
# _framework density 19.609898999999999
#
# number of rings (size 3 to 8) (size 9 to 14) (size 15 to 20)
#    0.000    1.714    2.857    0.857    4.000    0.571 
#    2.571    1.429    0.000    0.000    0.000    0.000 
#    0.000    0.000    0.000    0.000    0.000    0.000 
#
# Total GULP energy -156239.478839 kJ/mol
# GULP energy per Si atom -5579.981387 kJ/mol
# Density = 1.956527 g / cm^3
# Si number density = 19.609899 Si / 1000 Ang^3
#
#
#
# Elastic Constant Matrix: (Units=GPa)
#
#
# Indices 1 2 3 4 5 6 
#
# 1 57.7276 13.7724 -0.3498 0.0000 -2.2831 0.0000
# 2 13.7724 40.3206 5.0057 0.0000 -1.1734 0.0000
# 3 -0.3498 5.0057 59.7712 0.0000 -16.0131 0.0000
# 4 0.0000 0.0000 0.0000 16.5964 0.0000 -0.0372
# 5 -2.2831 -1.1734 -16.0131 0.0000 30.3978 0.0000
# 6 0.0000 0.0000 0.0000 -0.0372 0.0000 24.6675
#
#
#
# Elastic Compliance Matrix: (Units=1/GPa)
#
#
# Indices 1 2 3 4 5 6 
#
# 1 0.018966 -0.006568 0.001135 0.000000 0.001769 0.000000
# 2 -0.006568 0.027337 -0.002535 0.000000 -0.000773 0.000000
# 3 0.001135 -0.002535 0.019731 0.000000 0.010381 0.000000
# 4 0.000000 0.000000 0.000000 0.060254 0.000000 0.000091
# 5 0.001769 -0.000773 0.010381 0.000000 0.038469 0.000000
# 6 0.000000 0.000000 0.000000 0.000091 0.000000 0.040539
#
#
# Mechanical properties :
#
#
# Convention : Reuss Voigt Hill
#
# Bulk Modulus (GPa) = 19.96089 21.63066 20.79578
# Shear Modulus (GPa) = 21.01446 23.62508 22.31977
#
# Velocity S-wave (km/s) = 3.27712 3.47472 3.37737
# Velocity P-wave (km/s) = 4.95181 5.21082 5.08297
#
# Compressibility (1/GPa) = 0.05009798
#
# Stress axis : x y z
#
# Youngs Moduli (GPa) = 52.72457 36.58065 50.68274
#
# Poissons Ratio (x) = 0.24026 -0.05752
# Poissons Ratio (y) = 0.34629 0.12848
# Poissons Ratio (z) = -0.05984 0.09273
#
# Static dielectric constant tensor:
#      x y z
#    x 1.705690 0.000000 -0.004850 
#    y 0.000000 1.665550 0.000000 
#    z -0.004850 0.000000 1.714870 
# 
# From -- ./inp_files/171834.got.cif
#   From: 2010.05.17/outbox.cif.g08.bks.cpg/sg15_86_cif.got.tgz:171834.got - 2010.06.03 18:47:42.
