data_PCOD9254733
_publ_section_title
;
Structure prediction by ZEFSAII (Michael W. Deem and Ramdas Pophale) SiO2 
 PCOD9254733
Probable space group: C 2/C
;
_chemical_formula_sum "Si O2"
_cell_formula_units_Z 60
_cell_length_a 9.249850
_cell_length_b 17.200780
_cell_length_c 23.965200
_cell_angle_alpha 90.000000
_cell_angle_beta 131.869267
_cell_angle_gamma 90.000000
_cell_volume 2839.406344
_symmetry_space_group_name_H-M "C 2/C"
_symmetry_group_IT_number 15
_symmetry_cell_setting 'monoclinic'
loop_
_space_group_symop_operation_xyz
x,y,z
-x,y,1/2-z
-x,-y,-z
x,-y,1/2+z
1/2+x,1/2+y,z
1/2-x,1/2+y,1/2-z
1/2-x,1/2-y,-z
1/2+x,1/2-y,1/2+z
loop_
_atom_site_type_symbol
_atom_site_label
_atom_site_fract_x
_atom_site_fract_y
_atom_site_fract_z
Si Si1 0.500000 0.552882 0.250000
Si Si2 0.678346 0.484951 0.588539
Si Si3 0.106744 0.141173 0.612192
Si Si4 0.347303 0.793908 0.932369
Si Si5 0.104319 0.100118 0.830031
Si Si6 0.684083 0.853182 0.943026
Si Si7 0.853948 0.738285 0.902637
Si Si8 0.060131 0.867593 0.657212
O O1 0.377702 0.490843 0.180982
O O2 0.386972 0.604304 0.266659
O O3 0.500000 0.500000 0.500000
O O4 0.735585 0.570479 0.622356
O O5 0.832867 0.432554 0.595825
O O6 0.608836 0.433347 0.623589
O O7 0.204782 0.222799 0.622723
O O8 0.039878 0.116114 0.656205
O O9 0.896081 0.144961 0.526725
O O10 0.519497 0.838954 0.945270
O O11 0.168289 0.848976 0.898403
O O12 0.440506 0.757337 0.012420
O O13 0.299839 0.148281 0.886317
O O14 0.000000 0.137184 0.750000
O O15 0.700614 0.781620 0.904022
O O16 0.853759 0.787537 0.845811
#
# Coordination Sequence:
#
# PCOD9254733 Si02
#       8
#     4   8   8   8   8   8   8   8
#     4  10  24  42  54  80 118 164 200 230 292 358
#     4   9  18  33  56  80 115 158 191 227 295 346
#     4  10  16  34  56  82 113 151 195 230 283 346
#     4  11  20  34  61  93 122 142 185 250 310 341
#     4  10  19  34  62  79 104 156 211 229 265 350
#     4   9  17  31  58  87 119 142 189 239 287 351
#     4  10  19  37  58  91 114 149 195 243 290 355
#     4  11  23  38  57  88 126 153 186 248 303 352
#
# _framework density 21.131177000000001
#
# number of rings (size 3 to 8) (size 9 to 14) (size 15 to 20)
#    0.400    1.600    4.000    2.000    0.000    1.067 
#    0.000    7.333    0.000    0.000    6.933    0.000 
#    0.000    0.000    0.000    0.000    0.000    0.000 
#
# Total GULP energy -167153.247456 kJ/mol
# GULP energy per Si atom -5571.774915 kJ/mol
# Density = 2.108308 g / cm^3
# Si number density = 21.131177 Si / 1000 Ang^3
#
#
#
# Elastic Constant Matrix: (Units=GPa)
#
#
# Indices 1 2 3 4 5 6 
#
# 1 51.7470 25.3223 7.9882 0.0000 -17.3638 0.0000
# 2 25.3223 103.9455 17.6799 0.0000 -17.0928 0.0000
# 3 7.9882 17.6799 48.0633 0.0000 -34.1631 0.0000
# 4 0.0000 0.0000 0.0000 30.4460 0.0000 -6.9311
# 5 -17.3638 -17.0928 -34.1631 0.0000 29.2826 0.0000
# 6 0.0000 0.0000 0.0000 -6.9311 0.0000 16.2842
#
#
#
# Elastic Compliance Matrix: (Units=1/GPa)
#
#
# Indices 1 2 3 4 5 6 
#
# 1 0.046270 -0.005852 0.067568 0.000000 0.102851 0.000000
# 2 -0.005852 0.011453 -0.005593 0.000000 -0.003309 0.000000
# 3 0.067568 -0.005593 0.221343 0.000000 0.295036 0.000000
# 4 0.000000 0.000000 0.000000 0.036369 0.000000 0.015480
# 5 0.102851 -0.003309 0.295036 0.000000 0.437416 0.000000
# 6 0.000000 0.000000 0.000000 0.015480 0.000000 0.067998
#
#
# Mechanical properties :
#
#
# Convention : Reuss Voigt Hill
#
# Bulk Modulus (GPa) = 2.55550 33.97074 18.26312
# Shear Modulus (GPa) = 5.95920 25.38690 15.67305
#
# Velocity S-wave (km/s) = 1.68114 3.46988 2.72638
# Velocity P-wave (km/s) = 2.23165 5.67137 4.30956
#
# Compressibility (1/GPa) = 0.39131319
#
# Stress axis : x y z
#
# Youngs Moduli (GPa) = 21.61248 87.31329 4.51788
#
# Poissons Ratio (x) = 0.51092 -0.30526
# Poissons Ratio (y) = 0.12647 0.02527
# Poissons Ratio (z) = -1.46031 0.48830
#
# Static dielectric constant tensor:
#      x y z
#    x 1.753840 0.000000 -0.023900 
#    y 0.000000 1.901970 0.000000 
#    z -0.023900 0.000000 1.848070 
# 
# From -- ./inp_files/265226.got.cif
#   From: 2010.05.17/outbox.cif.g08.bks.cpg/sg15_133_cif.got.tgz:265226.got - 2010.06.03 18:47:42.
