data_PCOD9254503
_publ_section_title
;
Structure prediction by ZEFSAII (Michael W. Deem and Ramdas Pophale) SiO2 
 PCOD9254503
Probable space group: C 2/C
;
_chemical_formula_sum "Si O2"
_cell_formula_units_Z 60
_cell_length_a 17.890228
_cell_length_b 12.270432
_cell_length_c 24.552972
_cell_angle_alpha 90.000000
_cell_angle_beta 38.875584
_cell_angle_gamma 90.000000
_cell_volume 3382.863176
_symmetry_space_group_name_H-M "C 2/C"
_symmetry_group_IT_number 15
_symmetry_cell_setting 'monoclinic'
loop_
_space_group_symop_operation_xyz
x,y,z
-x,y,1/2-z
-x,-y,-z
x,-y,1/2+z
1/2+x,1/2+y,z
1/2-x,1/2+y,1/2-z
1/2-x,1/2-y,-z
1/2+x,1/2-y,1/2+z
loop_
_atom_site_type_symbol
_atom_site_label
_atom_site_fract_x
_atom_site_fract_y
_atom_site_fract_z
Si Si1 0.149714 0.231660 0.725776
Si Si2 0.034729 0.840220 0.021468
Si Si3 0.344775 0.538171 0.703250
Si Si4 0.098221 0.190607 0.367361
Si Si5 0.957897 0.641245 0.408217
Si Si6 0.301169 0.138851 0.402666
Si Si7 0.071265 0.585382 0.827512
Si Si8 0.500000 0.030768 0.750000
O O1 0.138582 0.106926 0.750750
O O2 0.272776 0.275439 0.681849
O O3 0.159608 0.257442 0.656434
O O4 0.047918 0.302792 0.813218
O O5 0.034972 0.714840 0.042364
O O6 0.929947 0.902537 0.111313
O O7 0.025467 0.845641 0.961941
O O8 0.163678 0.883945 0.967815
O O9 0.380604 0.412009 0.683795
O O10 0.208996 0.553066 0.760165
O O11 0.047577 0.298763 0.368615
O O12 0.832020 0.648949 0.448679
O O13 0.995929 0.516503 0.393535
O O14 0.387965 0.044086 0.331100
O O15 0.041283 0.592841 0.780570
#
# Coordination Sequence:
#
# PCOD9254503 Si02
#       8
#     8   8   8   8   8   8   8   4
#     4   9  16  29  51  76  97 128 174 213 250 288
#     4  10  21  30  51  79 107 131 166 218 265 294
#     4  10  19  33  53  76 102 134 172 215 251 305
#     4  10  19  32  48  75 106 135 167 207 254 307
#     4  10  17  31  51  78 103 132 170 212 254 307
#     4  10  16  31  52  81 101 133 168 217 260 297
#     4  10  19  33  57  74  98 138 177 208 253 302
#     4  10  18  32  58  74 100 134 186 208 232 322
#
# _framework density 17.736453999999998
#
# number of rings (size 3 to 8) (size 9 to 14) (size 15 to 20)
#    0.000    2.133    4.000    1.600    0.000    0.533 
#    0.000    0.000    5.867    7.200    0.000    0.000 
#    0.000    0.000    0.000    0.000    0.000    0.000 
#
# Total GULP energy -167250.123928 kJ/mol
# GULP energy per Si atom -5575.004131 kJ/mol
# Density = 1.769609 g / cm^3
# Si number density = 17.736454 Si / 1000 Ang^3
#
#
#
# Elastic Constant Matrix: (Units=GPa)
#
#
# Indices 1 2 3 4 5 6 
#
# 1 58.5164 32.7030 6.6633 0.0000 0.2367 0.0000
# 2 32.7030 109.7767 8.1627 0.0000 1.8399 0.0000
# 3 6.6633 8.1627 42.1473 0.0000 -9.0807 0.0000
# 4 0.0000 0.0000 0.0000 18.2455 0.0000 -3.6979
# 5 0.2367 1.8399 -9.0807 0.0000 17.1528 0.0000
# 6 0.0000 0.0000 0.0000 -3.6979 0.0000 20.1324
#
#
#
# Elastic Compliance Matrix: (Units=1/GPa)
#
#
# Indices 1 2 3 4 5 6 
#
# 1 0.020697 -0.005980 -0.002299 0.000000 -0.000861 0.000000
# 2 -0.005980 0.011044 -0.001615 0.000000 -0.001957 0.000000
# 3 -0.002299 -0.001615 0.027594 0.000000 0.014813 0.000000
# 4 0.000000 0.000000 0.000000 0.056927 0.000000 0.010456
# 5 -0.000861 -0.001957 0.014813 0.000000 0.066363 0.000000
# 6 0.000000 0.000000 0.000000 0.010456 0.000000 0.051592
#
#
# Mechanical properties :
#
#
# Convention : Reuss Voigt Hill
#
# Bulk Modulus (GPa) = 25.28753 33.94426 29.61590
# Shear Modulus (GPa) = 18.71340 21.96693 20.34016
#
# Velocity S-wave (km/s) = 3.25173 3.52308 3.39012
# Velocity P-wave (km/s) = 5.32791 5.97738 5.66197
#
# Compressibility (1/GPa) = 0.03954518
#
# Stress axis : x y z
#
# Youngs Moduli (GPa) = 48.31686 90.54820 36.23954
#
# Poissons Ratio (x) = 0.54150 0.08333
# Poissons Ratio (y) = 0.28895 0.05853
# Poissons Ratio (z) = 0.11110 0.14624
#
# Static dielectric constant tensor:
#      x y z
#    x 1.612420 0.000000 0.001660 
#    y 0.000000 1.610170 0.000000 
#    z 0.001660 0.000000 1.618590 
# 
# From -- ./inp_files/160926.got.cif
#   From: 2010.05.17/outbox.cif.g08.bks.cpg/sg15_81_cif.got.tgz:160926.got - 2010.06.03 18:47:42.
