data_PCOD9254578
_publ_section_title
;
Structure prediction by ZEFSAII (Michael W. Deem and Ramdas Pophale) SiO2 
 PCOD9254578
Probable space group: C 2/C
;
_chemical_formula_sum "Si O2"
_cell_formula_units_Z 48
_cell_length_a 12.169009
_cell_length_b 20.304587
_cell_length_c 17.266729
_cell_angle_alpha 90.000000
_cell_angle_beta 146.460490
_cell_angle_gamma 90.000000
_cell_volume 2357.225169
_symmetry_space_group_name_H-M "C 2/C"
_symmetry_group_IT_number 15
_symmetry_cell_setting 'monoclinic'
loop_
_space_group_symop_operation_xyz
x,y,z
-x,y,1/2-z
-x,-y,-z
x,-y,1/2+z
1/2+x,1/2+y,z
1/2-x,1/2+y,1/2-z
1/2-x,1/2-y,-z
1/2+x,1/2-y,1/2+z
loop_
_atom_site_type_symbol
_atom_site_label
_atom_site_fract_x
_atom_site_fract_y
_atom_site_fract_z
Si Si1 0.731181 0.302959 0.382790
Si Si2 0.255748 0.126691 0.747799
Si Si3 0.500000 0.910737 0.250000
Si Si4 0.304141 0.336246 0.965987
Si Si5 0.669386 0.980134 0.660939
Si Si6 0.818891 0.531914 0.059730
Si Si7 0.000000 0.016446 0.250000
O O1 0.500000 0.322898 0.250000
O O2 0.834579 0.342290 0.374501
O O3 0.793729 0.319019 0.507293
O O4 0.744892 0.224651 0.377896
O O5 0.394384 0.131325 0.754404
O O6 0.043334 0.160546 0.609638
O O7 0.238902 0.048295 0.752527
O O8 0.348149 0.961260 0.117761
O O9 0.240973 0.411109 0.916469
O O10 0.531596 0.950321 0.646335
O O11 0.849201 0.946263 0.719817
O O12 0.500000 0.000000 0.500000
O O13 0.650567 0.525234 0.893574
#
# Coordination Sequence:
#
# PCOD9254578 Si02
#       7
#     8   8   4   8   8   8   4
#     4   9  19  33  56  84 107 143 199 249 296 342
#     4  10  19  37  55  75 118 156 193 236 302 350
#     4  10  24  38  52  87 123 162 190 240 290 364
#     4  10  19  33  57  83 110 148 194 253 297 344
#     4   9  17  28  52  80 109 154 191 228 281 355
#     4  10  20  33  53  84 119 151 196 235 298 346
#     4  10  16  32  52  77 111 160 190 224 284 366
#
# _framework density 20.362925000000001
#
# number of rings (size 3 to 8) (size 9 to 14) (size 15 to 20)
#    0.000    2.333    1.667    2.000    3.500    0.667 
#    0.000    0.833    0.000    2.000    0.000   14.000 
#    2.500    0.000    0.000    0.000    0.000    0.000 
#
# Total GULP energy -133648.891917 kJ/mol
# GULP energy per Si atom -5568.703830 kJ/mol
# Density = 2.031658 g / cm^3
# Si number density = 20.362925 Si / 1000 Ang^3
#
#
#
# Elastic Constant Matrix: (Units=GPa)
#
#
# Indices 1 2 3 4 5 6 
#
# 1 140.5282 28.4339 26.3012 0.0005 5.5052 -0.0001
# 2 28.4339 56.0329 12.2935 0.0012 -1.6083 0.0000
# 3 26.3012 12.2935 66.3520 -0.0001 -3.5540 -0.0008
# 4 0.0005 0.0012 -0.0001 28.4383 0.0004 -0.9670
# 5 5.5052 -1.6083 -3.5540 0.0004 25.6093 -0.0001
# 6 -0.0001 0.0000 -0.0008 -0.9670 -0.0001 22.6927
#
#
#
# Elastic Compliance Matrix: (Units=1/GPa)
#
#
# Indices 1 2 3 4 5 6 
#
# 1 0.008499 -0.003768 -0.002802 0.000000 -0.002453 0.000000
# 2 -0.003768 0.020286 -0.002169 -0.000001 0.001783 0.000000
# 3 -0.002802 -0.002169 0.016733 0.000000 0.002788 0.000001
# 4 0.000000 -0.000001 0.000000 0.035215 -0.000001 0.001501
# 5 -0.002453 0.001783 0.002788 -0.000001 0.040074 0.000000
# 6 0.000000 0.000000 0.000001 0.001501 0.000000 0.044131
#
#
# Mechanical properties :
#
#
# Convention : Reuss Voigt Hill
#
# Bulk Modulus (GPa) = 35.66511 44.10782 39.88646
# Shear Modulus (GPa) = 26.07369 28.40704 27.24036
#
# Velocity S-wave (km/s) = 3.58222 3.73907 3.66149
# Velocity P-wave (km/s) = 5.88748 6.35207 6.12418
#
# Compressibility (1/GPa) = 0.02803861
#
# Stress axis : x y z
#
# Youngs Moduli (GPa) = 117.66069 49.29488 59.76177
#
# Poissons Ratio (x) = 0.18577 0.16746
# Poissons Ratio (y) = 0.44340 0.12964
# Poissons Ratio (z) = 0.32969 0.10693
#
# Static dielectric constant tensor:
#      x y z
#    x 1.861040 0.000000 -0.081920 
#    y 0.000000 1.744380 0.000000 
#    z -0.081920 0.000000 1.832560 
# 
# From -- ./inp_files/200257.got.cif
#   From: 2010.05.17/outbox.cif.g08.bks.cpg/sg15_101_cif.got.tgz:200257.got - 2010.06.03 18:47:42.
