data_PCOD9254205
_publ_section_title
;
Structure prediction by ZEFSAII (Michael W. Deem and Ramdas Pophale) SiO2 
 PCOD9254205
Probable space group: C 2/C
;
_chemical_formula_sum "Si O2"
_cell_formula_units_Z 52
_cell_length_a 33.942371
_cell_length_b 7.849975
_cell_length_c 24.445421
_cell_angle_alpha 90.000000
_cell_angle_beta 16.341292
_cell_angle_gamma 90.000000
_cell_volume 1832.600408
_symmetry_space_group_name_H-M "C 2/C"
_symmetry_group_IT_number 15
_symmetry_cell_setting 'monoclinic'
loop_
_space_group_symop_operation_xyz
x,y,z
-x,y,1/2-z
-x,-y,-z
x,-y,1/2+z
1/2+x,1/2+y,z
1/2-x,1/2+y,1/2-z
1/2-x,1/2-y,-z
1/2+x,1/2-y,1/2+z
loop_
_atom_site_type_symbol
_atom_site_label
_atom_site_fract_x
_atom_site_fract_y
_atom_site_fract_z
Si Si1 0.821061 0.480090 0.908170
Si Si2 0.780221 0.327313 0.109857
Si Si3 0.000000 0.245792 0.750000
Si Si4 0.191930 0.393548 0.191284
Si Si5 0.924822 0.019042 0.182122
Si Si6 0.079082 0.677258 0.581430
Si Si7 0.227072 0.886790 0.302290
O O1 0.899486 0.325318 0.834350
O O2 0.835944 0.484885 0.822754
O O3 0.916171 0.646760 0.795005
O O4 0.669260 0.497617 0.137732
O O5 0.627379 0.374125 0.290968
O O6 0.793196 0.340591 0.156856
O O7 0.873032 0.182613 0.958071
O O8 0.860820 0.496822 0.979315
O O9 0.108736 0.211778 0.295147
O O10 0.177892 0.452400 0.273692
O O11 0.353279 0.326948 0.974313
O O12 0.088413 0.003463 0.975315
O O13 0.154737 0.715044 0.423149
#
# Coordination Sequence:
#
# PCOD9254205 Si02
#       7
#     8   8   4   8   8   8   8
#     4  10  16  28  43  64  98 123 144 177 221 283
#     4   9  17  33  45  66  94 114 160 187 220 272
#     4   8  18  30  48  62  86 124 150 198 218 260
#     4   9  17  26  40  66  94 119 151 171 221 275
#     4  10  18  26  45  68  97 125 144 182 224 275
#     4   8  18  28  42  65  94 120 149 179 224 266
#     4  10  19  28  45  67  95 123 149 184 230 271
#
# _framework density 28.374980999999998
#
# number of rings (size 3 to 8) (size 9 to 14) (size 15 to 20)
#    0.923    1.846    1.538    1.846    0.000    1.846 
#    0.000    3.077    0.000    0.000    0.000    3.231 
#    0.000    0.000    0.000    0.000    0.000    0.000 
#
# Total GULP energy -145054.639731 kJ/mol
# GULP energy per Si atom -5579.024605 kJ/mol
# Density = 2.831040 g / cm^3
# Si number density = 28.374981 Si / 1000 Ang^3
#
#
#
# Elastic Constant Matrix: (Units=GPa)
#
#
# Indices 1 2 3 4 5 6 
#
# 1 216.4678 59.4349 58.2037 0.0018 27.6454 0.0003
# 2 59.4349 91.0558 24.3578 0.0025 2.1777 0.0005
# 3 58.2037 24.3578 90.6618 0.0026 10.1455 0.0010
# 4 0.0018 0.0025 0.0026 13.1639 0.0005 -3.7169
# 5 27.6454 2.1777 10.1455 0.0005 49.8448 0.0003
# 6 0.0003 0.0005 0.0010 -3.7169 0.0003 40.3939
#
#
#
# Elastic Compliance Matrix: (Units=1/GPa)
#
#
# Indices 1 2 3 4 5 6 
#
# 1 0.006803 -0.003545 -0.003080 0.000000 -0.002991 0.000000
# 2 -0.003545 0.013681 -0.001589 -0.000002 0.001692 0.000000
# 3 -0.003080 -0.001589 0.013544 -0.000002 -0.000979 0.000000
# 4 0.000000 -0.000002 -0.000002 0.077991 -0.000001 0.007176
# 5 -0.002991 0.001692 -0.000979 -0.000001 0.021847 0.000000
# 6 0.000000 0.000000 0.000000 0.007176 0.000000 0.025417
#
#
# Mechanical properties :
#
#
# Convention : Reuss Voigt Hill
#
# Bulk Modulus (GPa) = 56.82104 75.79759 66.30931
# Shear Modulus (GPa) = 27.53630 37.75979 32.64804
#
# Velocity S-wave (km/s) = 3.11857 3.65189 3.39572
# Velocity P-wave (km/s) = 5.74768 6.67477 6.22850
#
# Compressibility (1/GPa) = 0.01759911
#
# Stress axis : x y z
#
# Youngs Moduli (GPa) = 146.98723 73.09458 73.83318
#
# Poissons Ratio (x) = 0.25913 0.22744
# Poissons Ratio (y) = 0.52109 0.11732
# Poissons Ratio (z) = 0.45278 0.11615
#
# Static dielectric constant tensor:
#      x y z
#    x 2.306610 0.000000 -0.040950 
#    y 0.000000 2.445280 0.000000 
#    z -0.040950 0.000000 2.222980 
# 
# From -- ./inp_files/259330.got.cif
#   From: 2010.05.17/outbox.cif.g08.bks.cpg/sg15_130_cif.got.tgz:259330.got - 2010.06.03 18:47:42.
