data_PCOD9254964
_publ_section_title
;
Structure prediction by ZEFSAII (Michael W. Deem and Ramdas Pophale) SiO2 
 PCOD9254964
Probable space group: C 2/C
;
_chemical_formula_sum "Si O2"
_cell_formula_units_Z 40
_cell_length_a 9.158595
_cell_length_b 26.097321
_cell_length_c 7.794850
_cell_angle_alpha 90.000000
_cell_angle_beta 51.179579
_cell_angle_gamma 90.000000
_cell_volume 1451.556280
_symmetry_space_group_name_H-M "C 2/C"
_symmetry_group_IT_number 15
_symmetry_cell_setting 'monoclinic'
loop_
_space_group_symop_operation_xyz
x,y,z
-x,y,1/2-z
-x,-y,-z
x,-y,1/2+z
1/2+x,1/2+y,z
1/2-x,1/2+y,1/2-z
1/2-x,1/2-y,-z
1/2+x,1/2-y,1/2+z
loop_
_atom_site_type_symbol
_atom_site_label
_atom_site_fract_x
_atom_site_fract_y
_atom_site_fract_z
Si Si1 0.387386 0.909456 0.657071
Si Si2 0.209305 0.916837 0.244226
Si Si3 0.741800 0.694927 0.782063
Si Si4 0.316807 0.195613 0.116207
Si Si5 0.780585 0.510626 0.978242
O O1 0.500000 0.902787 0.750000
O O2 0.565695 0.909817 0.396941
O O3 0.263619 0.858791 0.735638
O O4 0.287147 0.959829 0.657409
O O5 0.147692 0.857650 0.284678
O O6 0.163387 0.951735 0.442326
O O7 0.197462 0.954351 0.086592
O O8 0.698540 0.753269 0.759687
O O9 0.962787 0.691943 0.584707
O O10 0.711866 0.697498 0.010477
O O11 0.000000 0.503754 0.750000
#
# Coordination Sequence:
#
# PCOD9254964 Si02
#       5
#     8   8   8   8   8
#     4  10  17  27  42  67  99 127 152 191 243 292
#     4  10  17  27  42  67  95 126 154 197 239 289
#     4   9  17  31  50  70  97 122 166 197 236 280
#     4   9  17  31  48  69  97 128 158 201 233 285
#     4  10  17  26  40  65  96 128 154 188 246 292
#
# _framework density 27.556632
#
# number of rings (size 3 to 8) (size 9 to 14) (size 15 to 20)
#    0.000    2.400    2.000    4.200    0.000    0.000 
#    0.000    4.000    0.000    0.000    0.000    1.400 
#    0.000    0.000    0.000    3.000    0.000    0.000 
#
# Total GULP energy -111452.152370 kJ/mol
# GULP energy per Si atom -5572.607619 kJ/mol
# Density = 2.749391 g / cm^3
# Si number density = 27.556632 Si / 1000 Ang^3
#
#
#
# Elastic Constant Matrix: (Units=GPa)
#
#
# Indices 1 2 3 4 5 6 
#
# 1 45.2292 -6.1981 21.7106 0.0000 -13.5779 0.0000
# 2 -6.1981 241.6011 17.1077 0.0000 5.3859 0.0000
# 3 21.7106 17.1077 67.1581 0.0000 10.0348 0.0000
# 4 0.0000 0.0000 0.0000 25.1280 0.0000 -3.4689
# 5 -13.5779 5.3859 10.0348 0.0000 41.8900 0.0000
# 6 0.0000 0.0000 0.0000 -3.4689 0.0000 1.1298
#
#
#
# Elastic Compliance Matrix: (Units=1/GPa)
#
#
# Indices 1 2 3 4 5 6 
#
# 1 0.032536 0.001448 -0.012897 0.000000 0.013449 0.000000
# 2 0.001448 0.004283 -0.001604 0.000000 0.000303 0.000000
# 3 -0.012897 -0.001604 0.020807 0.000000 -0.008958 0.000000
# 4 0.000000 0.000000 0.000000 0.069073 0.000000 0.212073
# 5 0.013449 0.000303 -0.008958 0.000000 0.030338 0.000000
# 6 0.000000 0.000000 0.000000 0.212073 0.000000 1.536194
#
#
# Mechanical properties :
#
#
# Convention : Reuss Voigt Hill
#
# Bulk Modulus (GPa) = 31.72604 46.58095 39.15349
# Shear Modulus (GPa) = 2.89043 35.05411 18.97227
#
# Velocity S-wave (km/s) = 1.02527 3.57049 2.62674
# Velocity P-wave (km/s) = 3.59717 5.82565 4.84138
#
# Compressibility (1/GPa) = 0.03151985
#
# Stress axis : x y z
#
# Youngs Moduli (GPa) = 30.73513 233.47795 48.06166
#
# Poissons Ratio (x) = -0.33809 0.61983
# Poissons Ratio (y) = -0.04451 0.07711
# Poissons Ratio (z) = 0.39638 0.37461
#
# Static dielectric constant tensor:
#      x y z
#    x 2.196340 0.000000 0.006490 
#    y 0.000000 2.326530 0.000000 
#    z 0.006490 0.000000 2.412220 
# 
# From -- ./inp_files/31363.got.cif
#   From: 2010.05.17/outbox.cif.g08.bks.cpg/sg15_16_cif.got.tgz:31363.got - 2010.06.03 18:47:42.
