data_PCOD9254870
_publ_section_title
;
Structure prediction by ZEFSAII (Michael W. Deem and Ramdas Pophale) SiO2 
 PCOD9254870
Probable space group: C 2/C
;
_chemical_formula_sum "Si O2"
_cell_formula_units_Z 44
_cell_length_a 9.246895
_cell_length_b 20.848094
_cell_length_c 12.210272
_cell_angle_alpha 90.000000
_cell_angle_beta 73.031971
_cell_angle_gamma 90.000000
_cell_volume 2251.427428
_symmetry_space_group_name_H-M "C 2/C"
_symmetry_group_IT_number 15
_symmetry_cell_setting 'monoclinic'
loop_
_space_group_symop_operation_xyz
x,y,z
-x,y,1/2-z
-x,-y,-z
x,-y,1/2+z
1/2+x,1/2+y,z
1/2-x,1/2+y,1/2-z
1/2-x,1/2-y,-z
1/2+x,1/2-y,1/2+z
loop_
_atom_site_type_symbol
_atom_site_label
_atom_site_fract_x
_atom_site_fract_y
_atom_site_fract_z
Si Si1 0.944280 0.070557 0.385876
Si Si2 0.326919 0.561595 0.970505
Si Si3 0.761195 0.194938 0.406518
Si Si4 0.249869 0.254313 0.314890
Si Si5 0.000000 0.856728 0.250000
Si Si6 0.086273 0.668727 0.039015
O O1 0.866344 0.138168 0.424808
O O2 0.000000 0.067054 0.250000
O O3 0.088534 0.063338 0.432284
O O4 0.828587 0.012182 0.433951
O O5 0.434905 0.600025 0.861681
O O6 0.170686 0.600535 0.009684
O O7 0.750000 0.250000 0.500000
O O8 0.817476 0.221147 0.276745
O O9 0.593425 0.167732 0.418296
O O10 0.364600 0.309142 0.246462
O O11 0.134195 0.288495 0.423055
O O12 0.343459 0.204870 0.370724
#
# Coordination Sequence:
#
# PCOD9254870 Si02
#       6
#     8   8   8   8   4   8
#     4  11  24  40  63  90 120 161 207 261 301 361
#     4  10  22  41  63  86 119 164 213 239 309 371
#     4  12  25  37  60  96 129 155 200 262 308 356
#     4  10  20  36  63  88 122 158 202 241 305 373
#     4  10  16  36  64  88 116 156 200 242 286 374
#     4  10  22  39  62  89 121 167 198 249 306 366
#
# _framework density 19.543157999999998
#
# number of rings (size 3 to 8) (size 9 to 14) (size 15 to 20)
#    0.000    1.455    2.727    2.182    7.636    0.727 
#    0.000    0.000    0.000    0.000    0.000    0.000 
#    0.000    0.000    0.000    0.000    0.000    0.000 
#
# Total GULP energy -122975.785163 kJ/mol
# GULP energy per Si atom -5589.808416 kJ/mol
# Density = 1.949868 g / cm^3
# Si number density = 19.543158 Si / 1000 Ang^3
#
#
#
# Elastic Constant Matrix: (Units=GPa)
#
#
# Indices 1 2 3 4 5 6 
#
# 1 45.6372 17.5864 17.8258 0.0000 -3.2628 0.0000
# 2 17.5864 126.8675 41.3314 0.0000 4.7657 0.0000
# 3 17.8258 41.3314 96.3546 0.0000 8.9945 0.0000
# 4 0.0000 0.0000 0.0000 20.3774 0.0000 10.1360
# 5 -3.2628 4.7657 8.9945 0.0000 13.5631 0.0000
# 6 0.0000 0.0000 0.0000 10.1360 0.0000 15.6400
#
#
#
# Elastic Compliance Matrix: (Units=1/GPa)
#
#
# Indices 1 2 3 4 5 6 
#
# 1 0.025342 -0.002391 -0.004595 0.000000 0.009983 0.000000
# 2 -0.002391 0.009394 -0.003438 0.000000 -0.001596 0.000000
# 3 -0.004595 -0.003438 0.013531 0.000000 -0.008871 0.000000
# 4 0.000000 0.000000 0.000000 0.072420 0.000000 -0.046934
# 5 0.009983 -0.001596 -0.008871 0.000000 0.082574 0.000000
# 6 0.000000 0.000000 0.000000 -0.046934 0.000000 0.094356
#
#
# Mechanical properties :
#
#
# Convention : Reuss Voigt Hill
#
# Bulk Modulus (GPa) = 36.47088 46.92738 41.69913
# Shear Modulus (GPa) = 15.26232 22.72380 18.99306
#
# Velocity S-wave (km/s) = 2.79759 3.41361 3.12084
# Velocity P-wave (km/s) = 5.39792 6.29296 5.86254
#
# Compressibility (1/GPa) = 0.02741913
#
# Stress axis : x y z
#
# Youngs Moduli (GPa) = 39.46060 106.45406 73.90342
#
# Poissons Ratio (x) = 0.25454 0.33955
# Poissons Ratio (y) = 0.09435 0.25409
# Poissons Ratio (z) = 0.18130 0.36600
#
# Static dielectric constant tensor:
#      x y z
#    x 1.670220 0.000000 -0.009250 
#    y 0.000000 1.691810 0.000000 
#    z -0.009250 0.000000 1.676530 
# 
# From -- ./inp_files/78225.got.cif
#   From: 2010.05.17/outbox.cif.g08.bks.cpg/sg15_40_cif.got.tgz:78225.got - 2010.06.03 18:47:42.
