data_PCOD9254801
_publ_section_title
;
Structure prediction by ZEFSAII (Michael W. Deem and Ramdas Pophale) SiO2 
 PCOD9254801
Probable space group: C 2/C
;
_chemical_formula_sum "Si O2"
_cell_formula_units_Z 40
_cell_length_a 10.077251
_cell_length_b 21.809983
_cell_length_c 9.330500
_cell_angle_alpha 90.000000
_cell_angle_beta 84.994041
_cell_angle_gamma 90.000000
_cell_volume 2042.878756
_symmetry_space_group_name_H-M "C 2/C"
_symmetry_group_IT_number 15
_symmetry_cell_setting 'monoclinic'
loop_
_space_group_symop_operation_xyz
x,y,z
-x,y,1/2-z
-x,-y,-z
x,-y,1/2+z
1/2+x,1/2+y,z
1/2-x,1/2+y,1/2-z
1/2-x,1/2-y,-z
1/2+x,1/2-y,1/2+z
loop_
_atom_site_type_symbol
_atom_site_label
_atom_site_fract_x
_atom_site_fract_y
_atom_site_fract_z
Si Si1 0.898196 0.044751 0.385465
Si Si2 0.351986 0.414557 0.456319
Si Si3 0.761291 0.846957 0.734496
Si Si4 0.500000 0.249663 0.750000
Si Si5 0.500000 0.667256 0.750000
Si Si6 0.394103 0.231340 0.050035
O O1 0.809503 0.098264 0.331462
O O2 0.000000 0.023729 0.250000
O O3 0.998678 0.074499 0.491200
O O4 0.814029 0.985465 0.438348
O O5 0.263070 0.376613 0.576549
O O6 0.377640 0.375189 0.312170
O O7 0.634096 0.817075 0.821618
O O8 0.875993 0.794794 0.727572
O O9 0.526431 0.213121 0.600790
O O10 0.538350 0.710452 0.879836
O O11 0.250000 0.250000 0.000000
#
# Coordination Sequence:
#
# PCOD9254801 Si02
#       6
#     8   8   8   4   4   8
#     4   9  16  28  49  73 110 144 164 215 286 323
#     4  10  17  27  48  80 108 136 173 219 275 333
#     4  10  17  33  49  74 110 143 174 217 264 325
#     4  10  16  35  50  74 107 144 174 218 266 318
#     4  12  20  33  54  82 113 144 182 218 270 328
#     4  10  22  35  54  75 112 150 180 217 272 323
#
# _framework density 19.580212
#
# number of rings (size 3 to 8) (size 9 to 14) (size 15 to 20)
#    0.000    2.000    6.000    1.200    0.000    0.800 
#    0.000    0.000    0.000    0.000    0.000    4.200 
#    0.000    0.000    0.000    0.000    0.000    0.000 
#
# Total GULP energy -111428.736320 kJ/mol
# GULP energy per Si atom -5571.436816 kJ/mol
# Density = 1.953565 g / cm^3
# Si number density = 19.580212 Si / 1000 Ang^3
#
#
#
# Elastic Constant Matrix: (Units=GPa)
#
#
# Indices 1 2 3 4 5 6 
#
# 1 24.0529 11.2158 18.6660 0.0000 -6.6317 0.0000
# 2 11.2158 63.1100 29.3139 0.0000 -30.9135 0.0000
# 3 18.6660 29.3139 103.2379 0.0000 -37.3040 0.0000
# 4 0.0000 0.0000 0.0000 33.9356 0.0000 -12.6258
# 5 -6.6317 -30.9135 -37.3040 0.0000 29.7913 0.0000
# 6 0.0000 0.0000 0.0000 -12.6258 0.0000 4.7980
#
#
#
# Elastic Compliance Matrix: (Units=1/GPa)
#
#
# Indices 1 2 3 4 5 6 
#
# 1 0.051460 -0.010576 -0.011191 0.000000 -0.013532 0.000000
# 2 -0.010576 0.036106 0.007940 0.000000 0.045053 0.000000
# 3 -0.011191 0.007940 0.021062 0.000000 0.032121 0.000000
# 4 0.000000 0.000000 0.000000 1.406098 0.000000 3.700100
# 5 -0.013532 0.045053 0.032121 0.000000 0.117526 0.000000
# 6 0.000000 0.000000 0.000000 3.700100 0.000000 9.945115
#
#
# Mechanical properties :
#
#
# Convention : Reuss Voigt Hill
#
# Bulk Modulus (GPa) = 12.34966 34.31026 23.32996
# Shear Modulus (GPa) = 0.42985 22.45198 11.44092
#
# Velocity S-wave (km/s) = 0.46905 3.38992 2.41987
# Velocity P-wave (km/s) = 2.57182 5.73437 4.44395
#
# Compressibility (1/GPa) = 0.08097389
#
# Stress axis : x y z
#
# Youngs Moduli (GPa) = 19.43254 27.69654 47.47928
#
# Poissons Ratio (x) = 0.29291 0.53134
# Poissons Ratio (y) = 0.20551 -0.37697
# Poissons Ratio (z) = 0.21747 -0.21990
#
# Static dielectric constant tensor:
#      x y z
#    x 1.672950 0.000000 -0.002400 
#    y 0.000000 1.712450 0.000000 
#    z -0.002400 0.000000 1.781630 
# 
# From -- ./inp_files/30337.got.cif
#   From: 2010.05.17/outbox.cif.g08.bks.cpg/sg15_16_cif.got.tgz:30337.got - 2010.06.03 18:47:42.
