data_PCOD9254920
_publ_section_title
;
Structure prediction by ZEFSAII (Michael W. Deem and Ramdas Pophale) SiO2 
 PCOD9254920
Probable space group: C 2/C
;
_chemical_formula_sum "Si O2"
_cell_formula_units_Z 52
_cell_length_a 9.023732
_cell_length_b 20.594904
_cell_length_c 16.060103
_cell_angle_alpha 90.000000
_cell_angle_beta 51.252816
_cell_angle_gamma 90.000000
_cell_volume 2327.778735
_symmetry_space_group_name_H-M "C 2/C"
_symmetry_group_IT_number 15
_symmetry_cell_setting 'monoclinic'
loop_
_space_group_symop_operation_xyz
x,y,z
-x,y,1/2-z
-x,-y,-z
x,-y,1/2+z
1/2+x,1/2+y,z
1/2-x,1/2+y,1/2-z
1/2-x,1/2-y,-z
1/2+x,1/2-y,1/2+z
loop_
_atom_site_type_symbol
_atom_site_label
_atom_site_fract_x
_atom_site_fract_y
_atom_site_fract_z
Si Si1 0.500000 0.322677 0.250000
Si Si2 0.097308 0.931466 0.964822
Si Si3 0.422465 0.693070 0.597376
Si Si4 0.437692 0.106386 0.443216
Si Si5 0.345977 0.078705 0.659444
Si Si6 0.323452 0.436056 0.750016
Si Si7 0.000000 0.338695 0.250000
Si Si8 0.250000 0.750000 0.000000
O O1 0.477501 0.285244 0.346708
O O2 0.325580 0.369562 0.292608
O O3 0.305605 0.938299 0.931551
O O4 0.115105 0.913260 0.862536
O O5 0.967401 0.881946 0.063610
O O6 0.000000 0.000000 0.000000
O O7 0.197827 0.701568 0.675168
O O8 0.574300 0.731865 0.490327
O O9 0.433674 0.076845 0.536970
O O10 0.652709 0.109466 0.339219
O O11 0.331854 0.174497 0.469522
O O12 0.482019 0.113659 0.677319
O O13 0.263432 0.009659 0.717910
O O14 0.500000 0.435885 0.750000
#
# Coordination Sequence:
#
# PCOD9254920 Si02
#       8
#     4   8   8   8   8   8   4   4
#     4  10  16  40  66  94 122 176 228 254 340 412
#     4  11  22  41  67  98 140 171 221 278 343 413
#     4  10  22  41  69  99 129 178 227 285 330 403
#     4  11  25  45  70  97 133 188 231 282 340 406
#     4  11  21  41  65  99 137 177 224 275 342 421
#     4  12  26  40  64 103 143 178 218 281 357 412
#     4  10  24  36  68 106 136 174 234 276 342 410
#     4  10  22  50  70  94 132 180 240 282 336 404
#
# _framework density 22.338892000000001
#
# number of rings (size 3 to 8) (size 9 to 14) (size 15 to 20)
#    0.000    1.231    3.846    3.692    6.462    0.000 
#    6.923    0.769    0.000    0.000    0.000    0.000 
#    0.000    0.000    0.000    0.000    0.000    0.000 
#
# Total GULP energy -144779.238296 kJ/mol
# GULP energy per Si atom -5568.432242 kJ/mol
# Density = 2.228805 g / cm^3
# Si number density = 22.338892 Si / 1000 Ang^3
#
#
#
# Elastic Constant Matrix: (Units=GPa)
#
#
# Indices 1 2 3 4 5 6 
#
# 1 157.6811 22.8456 52.4893 0.0000 -15.0332 0.0000
# 2 22.8456 65.4339 9.0867 0.0000 -16.9802 0.0000
# 3 52.4893 9.0867 94.0526 0.0000 -3.7390 0.0000
# 4 0.0000 0.0000 0.0000 4.2167 0.0000 -6.9771
# 5 -15.0332 -16.9802 -3.7390 0.0000 61.1485 0.0000
# 6 0.0000 0.0000 0.0000 -6.9771 0.0000 28.5227
#
#
#
# Elastic Compliance Matrix: (Units=1/GPa)
#
#
# Indices 1 2 3 4 5 6 
#
# 1 0.008179 -0.001941 -0.004329 0.000000 0.001207 0.000000
# 2 -0.001941 0.017120 -0.000402 0.000000 0.004252 0.000000
# 3 -0.004329 -0.000402 0.013072 0.000000 -0.000377 0.000000
# 4 0.000000 0.000000 0.000000 0.398406 0.000000 0.097456
# 5 0.001207 0.004252 -0.000377 0.000000 0.017808 0.000000
# 6 0.000000 0.000000 0.000000 0.097456 0.000000 0.058899
#
#
# Mechanical properties :
#
#
# Convention : Reuss Voigt Hill
#
# Bulk Modulus (GPa) = 39.95677 54.00121 46.97899
# Shear Modulus (GPa) = 9.34281 34.29397 21.81839
#
# Velocity S-wave (km/s) = 2.04729 3.92237 3.12861
# Velocity P-wave (km/s) = 4.84912 6.68876 5.84181
#
# Compressibility (1/GPa) = 0.02502705
#
# Stress axis : x y z
#
# Youngs Moduli (GPa) = 122.25842 58.41272 76.49781
#
# Poissons Ratio (x) = 0.11340 0.33118
# Poissons Ratio (y) = 0.23734 0.03072
# Poissons Ratio (z) = 0.52929 0.02345
#
# Static dielectric constant tensor:
#      x y z
#    x 1.822590 0.000000 0.121390 
#    y 0.000000 1.446540 0.000000 
#    z 0.121390 0.000000 1.253540 
# 
# From -- ./inp_files/136900.got.cif
#   From: 2010.05.17/outbox.cif.g08.bks.cpg/sg15_69_cif.got.tgz:136900.got - 2010.06.03 18:47:42.
