data_PCOD9254906
_publ_section_title
;
Structure prediction by ZEFSAII (Michael W. Deem and Ramdas Pophale) SiO2 
 PCOD9254906
Probable space group: C 2/C
;
_chemical_formula_sum "Si O2"
_cell_formula_units_Z 56
_cell_length_a 16.367875
_cell_length_b 11.855068
_cell_length_c 22.099011
_cell_angle_alpha 90.000000
_cell_angle_beta 40.905113
_cell_angle_gamma 90.000000
_cell_volume 2807.910999
_symmetry_space_group_name_H-M "C 2/C"
_symmetry_group_IT_number 15
_symmetry_cell_setting 'monoclinic'
loop_
_space_group_symop_operation_xyz
x,y,z
-x,y,1/2-z
-x,-y,-z
x,-y,1/2+z
1/2+x,1/2+y,z
1/2-x,1/2+y,1/2-z
1/2-x,1/2-y,-z
1/2+x,1/2-y,1/2+z
loop_
_atom_site_type_symbol
_atom_site_label
_atom_site_fract_x
_atom_site_fract_y
_atom_site_fract_z
Si Si1 0.262936 0.789688 0.576954
Si Si2 0.936465 0.717779 0.191645
Si Si3 0.684017 0.352691 0.071043
Si Si4 0.500000 0.406394 0.750000
Si Si5 0.500000 0.048167 0.250000
Si Si6 0.207856 0.433701 0.054506
Si Si7 0.589054 0.076862 0.408601
Si Si8 0.312527 0.425540 0.293300
O O1 0.117068 0.830517 0.661936
O O2 0.272453 0.656693 0.562077
O O3 0.321096 0.857445 0.487866
O O4 0.339755 0.831124 0.590926
O O5 0.913084 0.629606 0.258337
O O6 0.970073 0.643976 0.114267
O O7 0.830363 0.811406 0.245190
O O8 0.046749 0.800547 0.151054
O O9 0.722106 0.386868 0.118144
O O10 0.750000 0.250000 0.000000
O O11 0.709305 0.462684 0.015934
O O12 0.569906 0.489016 0.759492
O O13 0.585901 0.979098 0.156354
O O14 0.500000 0.000000 0.500000
O O15 0.701430 0.995491 0.325585
#
# Coordination Sequence:
#
# PCOD9254906 Si02
#       8
#     8   8   8   4   4   8   8   8
#     4  10  22  39  62  94 125 169 213 258 334 390
#     4  12  22  38  63  95 122 167 221 269 317 388
#     4  12  19  37  65  90 121 164 221 270 313 375
#     4  10  16  38  66  88 118 159 221 270 302 394
#     4  12  22  36  60  96 124 157 227 266 314 374
#     4  11  21  37  62  93 125 161 214 273 307 390
#     4  11  24  41  61  88 136 173 208 266 341 393
#     4  11  20  39  63  91 122 165 223 261 320 385
#
# _framework density 19.943652
#
# number of rings (size 3 to 8) (size 9 to 14) (size 15 to 20)
#    0.000    0.857    7.143    2.143    0.000    1.143 
#    0.000    7.857    0.000    0.000    0.000    0.000 
#    0.000    0.000    0.000    0.000    0.000    0.000 
#
# Total GULP energy -156071.233804 kJ/mol
# GULP energy per Si atom -5573.972636 kJ/mol
# Density = 1.989826 g / cm^3
# Si number density = 19.943652 Si / 1000 Ang^3
#
#
#
# Elastic Constant Matrix: (Units=GPa)
#
#
# Indices 1 2 3 4 5 6 
#
# 1 28.5902 11.6894 6.2378 0.0000 1.7433 0.0000
# 2 11.6894 135.2221 33.6223 0.0000 7.0454 0.0000
# 3 6.2378 33.6223 76.5182 0.0000 8.5942 0.0000
# 4 0.0000 0.0000 0.0000 37.9609 0.0000 13.8126
# 5 1.7433 7.0454 8.5942 0.0000 19.0867 0.0000
# 6 0.0000 0.0000 0.0000 13.8126 0.0000 18.9127
#
#
#
# Elastic Compliance Matrix: (Units=1/GPa)
#
#
# Indices 1 2 3 4 5 6 
#
# 1 0.036521 -0.002669 -0.001622 0.000000 -0.001620 0.000000
# 2 -0.002669 0.008538 -0.003378 0.000000 -0.001387 0.000000
# 3 -0.001622 -0.003378 0.015303 0.000000 -0.005495 0.000000
# 4 0.000000 0.000000 0.000000 0.035877 0.000000 -0.026202
# 5 -0.001620 -0.001387 -0.005495 0.000000 0.055527 0.000000
# 6 0.000000 0.000000 0.000000 -0.026202 0.000000 0.072011
#
#
# Mechanical properties :
#
#
# Convention : Reuss Voigt Hill
#
# Bulk Modulus (GPa) = 22.21136 38.15882 30.18509
# Shear Modulus (GPa) = 19.67541 27.77745 23.72643
#
# Velocity S-wave (km/s) = 3.14435 3.73607 3.45291
# Velocity P-wave (km/s) = 4.93394 6.14701 5.57358
#
# Compressibility (1/GPa) = 0.04502200
#
# Stress axis : x y z
#
# Youngs Moduli (GPa) = 27.38139 117.11990 65.34797
#
# Poissons Ratio (x) = 0.31263 0.10602
# Poissons Ratio (y) = 0.07309 0.22077
# Poissons Ratio (z) = 0.04442 0.39568
#
# Static dielectric constant tensor:
#      x y z
#    x 1.741000 0.000000 -0.064080 
#    y 0.000000 1.744070 0.000000 
#    z -0.064080 0.000000 1.821850 
# 
# From -- ./inp_files/277059.got.cif
#   From: 2010.05.17/outbox.cif.g08.bks.cpg/sg15_139_cif.got.tgz:277059.got - 2010.06.03 18:47:42.
