data_PCOD9254667
_publ_section_title
;
Structure prediction by ZEFSAII (Michael W. Deem and Ramdas Pophale) SiO2 
 PCOD9254667
Probable space group: C 2/C
;
_chemical_formula_sum "Si O2"
_cell_formula_units_Z 44
_cell_length_a 20.828222
_cell_length_b 8.201207
_cell_length_c 12.309935
_cell_angle_alpha 90.000000
_cell_angle_beta 82.823296
_cell_angle_gamma 90.000000
_cell_volume 2086.266995
_symmetry_space_group_name_H-M "C 2/C"
_symmetry_group_IT_number 15
_symmetry_cell_setting 'monoclinic'
loop_
_space_group_symop_operation_xyz
x,y,z
-x,y,1/2-z
-x,-y,-z
x,-y,1/2+z
1/2+x,1/2+y,z
1/2-x,1/2+y,1/2-z
1/2-x,1/2-y,-z
1/2+x,1/2-y,1/2+z
loop_
_atom_site_type_symbol
_atom_site_label
_atom_site_fract_x
_atom_site_fract_y
_atom_site_fract_z
Si Si1 0.897899 0.131438 0.755647
Si Si2 0.500000 0.114173 0.250000
Si Si3 0.889714 0.610611 0.872169
Si Si4 0.110029 0.195319 0.342993
Si Si5 0.469174 0.394905 0.911297
Si Si6 0.678851 0.192530 0.045300
O O1 0.948787 0.265305 0.700725
O O2 0.844159 0.221862 0.838264
O O3 0.871955 0.994921 0.679147
O O4 0.937887 0.021490 0.833835
O O5 0.548218 0.007082 0.165977
O O6 0.868251 0.692516 0.762381
O O7 0.915047 0.758174 0.941373
O O8 0.834144 0.498741 0.933774
O O9 0.133927 0.254650 0.453850
O O10 0.032221 0.198460 0.353852
O O11 0.500000 0.500000 0.000000
O O12 0.750000 0.250000 0.000000
#
# Coordination Sequence:
#
# PCOD9254667 Si02
#       6
#     8   4   8   8   8   8
#     4  10  20  36  63  91 122 163 205 260 325 391
#     4  10  16  32  60  94 128 148 198 266 328 388
#     4  10  22  39  62  98 132 163 212 272 330 396
#     4  11  21  41  64  90 132 162 209 272 330 388
#     4  11  19  36  64  98 128 161 202 262 349 391
#     4  11  26  43  60  90 129 173 227 259 311 393
#
# _framework density 21.090301
#
# number of rings (size 3 to 8) (size 9 to 14) (size 15 to 20)
#    0.000    1.455    5.455    1.091    0.000    3.636 
#    0.000    3.636    0.000    0.000    0.000    0.000 
#    0.000    0.000    0.000    0.000    0.000    0.000 
#
# Total GULP energy -122766.588830 kJ/mol
# GULP energy per Si atom -5580.299492 kJ/mol
# Density = 2.104230 g / cm^3
# Si number density = 21.090301 Si / 1000 Ang^3
#
#
#
# Elastic Constant Matrix: (Units=GPa)
#
#
# Indices 1 2 3 4 5 6 
#
# 1 49.8075 12.1876 -3.9794 0.0000 -25.0187 0.0000
# 2 12.1876 114.0800 20.8862 0.0000 -5.4331 0.0000
# 3 -3.9794 20.8862 44.3117 0.0000 0.9760 0.0000
# 4 0.0000 0.0000 0.0000 48.5988 0.0000 -8.6651
# 5 -25.0187 -5.4331 0.9760 0.0000 27.7178 0.0000
# 6 0.0000 0.0000 0.0000 -8.6651 0.0000 20.6715
#
#
#
# Elastic Compliance Matrix: (Units=1/GPa)
#
#
# Indices 1 2 3 4 5 6 
#
# 1 0.038076 -0.003238 0.004206 0.000000 0.033585 0.000000
# 2 -0.003238 0.009986 -0.004980 0.000000 -0.000790 0.000000
# 3 0.004206 -0.004980 0.025250 0.000000 0.001931 0.000000
# 4 0.000000 0.000000 0.000000 0.022239 0.000000 0.009322
# 5 0.033585 -0.000790 0.001931 0.000000 0.066170 0.000000
# 6 0.000000 0.000000 0.000000 0.009322 0.000000 0.052283
#
#
# Mechanical properties :
#
#
# Convention : Reuss Voigt Hill
#
# Bulk Modulus (GPa) = 15.31705 29.59866 22.45786
# Shear Modulus (GPa) = 20.50935 31.33795 25.92365
#
# Velocity S-wave (km/s) = 3.12180 3.85891 3.50976
# Velocity P-wave (km/s) = 4.50251 5.82406 5.20539
#
# Compressibility (1/GPa) = 0.06528674
#
# Stress axis : x y z
#
# Youngs Moduli (GPa) = 26.26330 100.14124 39.60399
#
# Poissons Ratio (x) = 0.32429 -0.16657
# Poissons Ratio (y) = 0.08505 0.19724
# Poissons Ratio (z) = -0.11046 0.49873
#
# Static dielectric constant tensor:
#      x y z
#    x 1.732810 0.000000 -0.034690 
#    y 0.000000 1.836050 0.000000 
#    z -0.034690 0.000000 1.833390 
# 
# From -- ./inp_files/110037.got.cif
#   From: 2010.05.17/outbox.cif.g08.bks.cpg/sg15_56_cif.got.tgz:110037.got - 2010.06.03 18:47:42.
