data_PCOD9254413
_publ_section_title
;
Structure prediction by ZEFSAII (Michael W. Deem and Ramdas Pophale) SiO2 
 PCOD9254413
Probable space group: C 2/C
;
_chemical_formula_sum "Si O2"
_cell_formula_units_Z 56
_cell_length_a 22.175440
_cell_length_b 25.503320
_cell_length_c 5.414973
_cell_angle_alpha 90.000000
_cell_angle_beta 61.215378
_cell_angle_gamma 90.000000
_cell_volume 2684.018127
_symmetry_space_group_name_H-M "C 2/C"
_symmetry_group_IT_number 15
_symmetry_cell_setting 'monoclinic'
loop_
_space_group_symop_operation_xyz
x,y,z
-x,y,1/2-z
-x,-y,-z
x,-y,1/2+z
1/2+x,1/2+y,z
1/2-x,1/2+y,1/2-z
1/2-x,1/2-y,-z
1/2+x,1/2-y,1/2+z
loop_
_atom_site_type_symbol
_atom_site_label
_atom_site_fract_x
_atom_site_fract_y
_atom_site_fract_z
Si Si1 0.586240 0.810648 0.329862
Si Si2 0.456468 0.421186 0.586175
Si Si3 0.088867 0.533490 0.309585
Si Si4 0.044258 0.799221 0.912480
Si Si5 0.747326 0.938802 0.457525
Si Si6 0.932124 0.646908 0.133866
Si Si7 0.304030 0.442827 0.845207
O O1 0.598003 0.748496 0.306244
O O2 0.608405 0.838052 0.538733
O O3 0.502784 0.819653 0.494318
O O4 0.608279 0.838738 0.035123
O O5 0.500000 0.431178 0.750000
O O6 0.433690 0.359807 0.632696
O O7 0.384932 0.451478 0.721132
O O8 0.500000 0.430431 0.250000
O O9 0.079864 0.498755 0.573526
O O10 0.044895 0.586426 0.407597
O O11 0.166073 0.557199 0.154892
O O12 0.000000 0.792669 0.750000
O O13 0.000000 0.793030 0.250000
O O14 0.785510 0.916020 0.621742
O O15 0.770164 0.999798 0.393227
O O16 0.771517 0.915421 0.149420
#
# Coordination Sequence:
#
# PCOD9254413 Si02
#       7
#     8   8   8   8   8   8   8
#     4  10  17  35  47  76 106 137 168 193 263 324
#     4  10  21  32  50  84 112 129 168 207 252 307
#     4  12  21  37  52  79 100 130 185 224 249 284
#     4  10  16  30  53  71 106 136 165 204 237 308
#     4  10  19  35  55  68  97 140 181 213 248 296
#     4  10  20  30  54  74 103 136 172 208 250 308
#     4  10  18  35  53  74 101 138 174 203 258 300
#
# _framework density 20.864242000000001
#
# number of rings (size 3 to 8) (size 9 to 14) (size 15 to 20)
#    0.000    1.714    5.714    1.714    0.000    0.000 
#    0.000   17.143    0.000    0.000    0.000    6.000 
#    0.000    0.000    0.000    0.000    0.000    0.000 
#
# Total GULP energy -156196.456284 kJ/mol
# GULP energy per Si atom -5578.444867 kJ/mol
# Density = 2.081675 g / cm^3
# Si number density = 20.864242 Si / 1000 Ang^3
#
#
#
# Elastic Constant Matrix: (Units=GPa)
#
#
# Indices 1 2 3 4 5 6 
#
# 1 27.6631 1.6809 28.9604 0.0000 4.4076 0.0000
# 2 1.6809 35.6989 -1.5624 0.0000 4.6392 0.0000
# 3 28.9604 -1.5624 111.7280 0.0000 53.0377 0.0000
# 4 0.0000 0.0000 0.0000 5.6005 0.0000 9.1890
# 5 4.4076 4.6392 53.0377 0.0000 49.8093 0.0000
# 6 0.0000 0.0000 0.0000 9.1890 0.0000 -1.4238
#
#
#
# Elastic Compliance Matrix: (Units=1/GPa)
#
#
# Indices 1 2 3 4 5 6 
#
# 1 0.062029 -0.007418 -0.028116 0.000000 0.025141 0.000000
# 2 -0.007418 0.029871 0.006774 0.000000 -0.009338 0.000000
# 3 -0.028116 0.006774 0.031245 0.000000 -0.031413 0.000000
# 4 0.000000 0.000000 0.000000 0.015407 0.000000 0.099435
# 5 0.025141 -0.009338 -0.031413 0.000000 0.052170 0.000000
# 6 0.000000 0.000000 0.000000 0.099435 0.000000 -0.060604
#
#
# Mechanical properties :
#
#
# Convention : Reuss Voigt Hill
#
# Bulk Modulus (GPa) = 15.23865 25.91641 20.57753
# Shear Modulus (GPa) = 23.86457 20.53129 22.19793
#
# Velocity S-wave (km/s) = 3.38568 3.14035 3.26532
# Velocity P-wave (km/s) = 4.75430 5.05939 4.90922
#
# Compressibility (1/GPa) = 0.06562263
#
# Stress axis : x y z
#
# Youngs Moduli (GPa) = 16.12140 33.47690 32.00551
#
# Poissons Ratio (x) = 0.24834 0.89988
# Poissons Ratio (y) = 0.11959 -0.21679
# Poissons Ratio (z) = 0.45328 -0.22676
#
# Static dielectric constant tensor:
#      x y z
#    x 1.763320 0.000000 0.073890 
#    y 0.000000 1.646050 0.000000 
#    z 0.073890 0.000000 1.871720 
# 
# From -- ./inp_files/16337.got.cif
#   From: 2010.05.17/outbox.cif.g08.bks.cpg/sg15_9_cif.got.tgz:16337.got - 2010.06.03 18:47:42.
