data_PCOD9254636
_publ_section_title
;
Structure prediction by ZEFSAII (Michael W. Deem and Ramdas Pophale) SiO2 
 PCOD9254636
Probable space group: C 2/C
;
_chemical_formula_sum "Si O2"
_cell_formula_units_Z 28
_cell_length_a 7.410349
_cell_length_b 31.131812
_cell_length_c 5.479716
_cell_angle_alpha 90.000000
_cell_angle_beta 101.083172
_cell_angle_gamma 90.000000
_cell_volume 1240.579698
_symmetry_space_group_name_H-M "C 2/C"
_symmetry_group_IT_number 15
_symmetry_cell_setting 'monoclinic'
loop_
_space_group_symop_operation_xyz
x,y,z
-x,y,1/2-z
-x,-y,-z
x,-y,1/2+z
1/2+x,1/2+y,z
1/2-x,1/2+y,1/2-z
1/2-x,1/2-y,-z
1/2+x,1/2-y,1/2+z
loop_
_atom_site_type_symbol
_atom_site_label
_atom_site_fract_x
_atom_site_fract_y
_atom_site_fract_z
Si Si1 0.000000 0.237915 0.250000
Si Si2 0.382351 0.384024 0.465608
Si Si3 0.843801 0.311707 0.877240
Si Si4 0.287294 0.482395 0.439120
O O1 0.836427 0.207516 0.301564
O O2 0.067707 0.269913 0.475910
O O3 0.500000 0.377946 0.250000
O O4 0.234453 0.346095 0.453475
O O5 0.294112 0.431165 0.427720
O O6 0.500000 0.383875 0.750000
O O7 0.000000 0.331749 0.750000
O O8 0.500000 0.500000 0.500000
O O9 0.204562 0.498376 0.671349
#
# Coordination Sequence:
#
# PCOD9254636 Si02
#       4
#     4   8   8   8
#     4  10  24  46  68  94 132 178 228 270 342 406
#     4  12  23  38  65 102 135 172 225 277 331 393
#     4  11  25  43  69  98 134 175 225 279 338 403
#     4  10  16  32  57  93 126 171 224 262 317 397
#
# _framework density 22.570093
#
# number of rings (size 3 to 8) (size 9 to 14) (size 15 to 20)
#    0.000    1.143    7.143    0.857    4.000    4.571 
#    0.000    0.000    0.000    1.714    0.000    0.000 
#    0.000    0.000    0.000    0.000    0.000    0.000 
#
# Total GULP energy -78258.136626 kJ/mol
# GULP energy per Si atom -5589.866902 kJ/mol
# Density = 2.251872 g / cm^3
# Si number density = 22.570093 Si / 1000 Ang^3
#
#
#
# Elastic Constant Matrix: (Units=GPa)
#
#
# Indices 1 2 3 4 5 6 
#
# 1 105.6992 59.6920 61.1366 0.0000 -23.2471 0.0000
# 2 59.6920 170.4822 40.2376 0.0000 -26.8443 0.0000
# 3 61.1366 40.2376 159.2380 0.0000 -39.9596 0.0000
# 4 0.0000 0.0000 0.0000 -91.3718 0.0000 -197.3619
# 5 -23.2471 -26.8443 -39.9596 0.0000 36.9175 0.0000
# 6 0.0000 0.0000 0.0000 -197.3619 0.0000 -290.1399
#
#
#
# Elastic Compliance Matrix: (Units=1/GPa)
#
#
# Indices 1 2 3 4 5 6 
#
# 1 0.014370 -0.003770 -0.004094 0.000000 0.001877 0.000000
# 2 -0.003770 0.007661 0.000431 0.000000 0.003663 0.000000
# 3 -0.004094 0.000431 0.009850 0.000000 0.008397 0.000000
# 4 0.000000 0.000000 0.000000 0.023321 0.000000 -0.015864
# 5 0.001877 0.003663 0.008397 0.000000 0.040022 0.000000
# 6 0.000000 0.000000 0.000000 -0.015864 0.000000 0.007344
#
#
# Mechanical properties :
#
#
# Convention : Reuss Voigt Hill
#
# Bulk Modulus (GPa) = 58.76999 84.17243 71.47121
# Shear Modulus (GPa) = 40.61560 -50.62862 -5.00651
#
# Velocity S-wave (km/s) = 4.24669 -4.74135 -1.49098
# Velocity P-wave (km/s) = 7.08105 2.72045 5.36387
#
# Compressibility (1/GPa) = 0.01701549
#
# Stress axis : x y z
#
# Youngs Moduli (GPa) = 69.58779 130.53539 101.52378
#
# Poissons Ratio (x) = 0.49210 0.41560
# Poissons Ratio (y) = 0.26233 -0.04373
# Poissons Ratio (z) = 0.28487 -0.05623
#
# Static dielectric constant tensor:
#      x y z
#    x 3.426700 0.000000 4.081870 
#    y 0.000000 1.773200 0.000000 
#    z 4.081870 0.000000 12.395410 
# 
# From -- ./inp_files/2201.got.cif
#   From: 2010.05.17/outbox.cif.g08.bks.cpg/sg15_2_cif.got.tgz:2201.got - 2010.06.03 18:47:42.
