data_PCOD9254494
_publ_section_title
;
Structure prediction by ZEFSAII (Michael W. Deem and Ramdas Pophale) SiO2 
 PCOD9254494
Probable space group: C 2/C
;
_chemical_formula_sum "Si O2"
_cell_formula_units_Z 44
_cell_length_a 22.980773
_cell_length_b 22.004355
_cell_length_c 5.745614
_cell_angle_alpha 90.000000
_cell_angle_beta 112.731883
_cell_angle_gamma 90.000000
_cell_volume 2679.741220
_symmetry_space_group_name_H-M "C 2/C"
_symmetry_group_IT_number 15
_symmetry_cell_setting 'monoclinic'
loop_
_space_group_symop_operation_xyz
x,y,z
-x,y,1/2-z
-x,-y,-z
x,-y,1/2+z
1/2+x,1/2+y,z
1/2-x,1/2+y,1/2-z
1/2-x,1/2-y,-z
1/2+x,1/2-y,1/2+z
loop_
_atom_site_type_symbol
_atom_site_label
_atom_site_fract_x
_atom_site_fract_y
_atom_site_fract_z
Si Si1 0.223980 0.344767 0.531370
Si Si2 0.697953 0.026710 0.776248
Si Si3 0.695685 0.741773 0.110320
Si Si4 0.563342 0.934882 0.966412
Si Si5 0.888366 0.674586 0.283926
Si Si6 0.500000 0.850852 0.250000
O O1 0.220653 0.405903 0.378787
O O2 0.289507 0.323896 0.754309
O O3 0.206003 0.290770 0.329052
O O4 0.169845 0.346284 0.644298
O O5 0.621087 0.023925 0.640639
O O6 0.717941 0.010035 0.542025
O O7 0.750000 0.750000 0.000000
O O8 0.632567 0.765849 0.890635
O O9 0.500000 0.962486 0.750000
O O10 0.593000 0.883859 0.841207
O O11 0.538903 0.894950 0.142557
O O12 0.949728 0.687735 0.530753
#
# Coordination Sequence:
#
# PCOD9254494 Si02
#       6
#     8   8   8   8   8   4
#     4  10  19  34  47  72  89 119 171 203 259 299
#     4  12  25  36  51  67  99 136 172 219 249 293
#     4   9  18  29  55  67  89 115 157 216 248 310
#     4  10  21  33  47  63  95 132 176 215 246 285
#     4  10  16  31  49  70  92 125 160 209 260 294
#     4  10  18  28  50  64  96 126 166 218 246 298
#
# _framework density 16.419497
#
# number of rings (size 3 to 8) (size 9 to 14) (size 15 to 20)
#    0.000    1.818    3.636    1.091    5.091    0.727 
#    0.000    0.000    0.000    0.000    0.000    0.000 
#    0.000    0.000    0.000    1.636    0.000    7.455 
#
# Total GULP energy -122589.173000 kJ/mol
# GULP energy per Si atom -5572.235136 kJ/mol
# Density = 1.638213 g / cm^3
# Si number density = 16.419497 Si / 1000 Ang^3
#
#
#
# Elastic Constant Matrix: (Units=GPa)
#
#
# Indices 1 2 3 4 5 6 
#
# 1 29.0708 16.2698 22.5004 0.0000 -9.4018 0.0000
# 2 16.2698 53.4573 36.0416 0.0000 7.4304 0.0000
# 3 22.5004 36.0416 111.3050 0.0000 7.5551 0.0000
# 4 0.0000 0.0000 0.0000 32.3706 0.0000 10.2669
# 5 -9.4018 7.4304 7.5551 0.0000 38.9187 0.0000
# 6 0.0000 0.0000 0.0000 10.2669 0.0000 21.8321
#
#
#
# Elastic Compliance Matrix: (Units=1/GPa)
#
#
# Indices 1 2 3 4 5 6 
#
# 1 0.053243 -0.013462 -0.007551 0.000000 0.016898 0.000000
# 2 -0.013462 0.027711 -0.005748 0.000000 -0.007427 0.000000
# 3 -0.007551 -0.005748 0.012587 0.000000 -0.003170 0.000000
# 4 0.000000 0.000000 0.000000 0.036308 0.000000 -0.017074
# 5 0.016898 -0.007427 -0.003170 0.000000 0.031810 0.000000
# 6 0.000000 0.000000 0.000000 -0.017074 0.000000 0.053834
#
#
# Mechanical properties :
#
#
# Convention : Reuss Voigt Hill
#
# Bulk Modulus (GPa) = 24.98799 38.16187 31.57493
# Shear Modulus (GPa) = 17.70829 26.55902 22.13365
#
# Velocity S-wave (km/s) = 3.28760 4.02622 3.67551
# Velocity P-wave (km/s) = 5.44634 6.70120 6.10609
#
# Compressibility (1/GPa) = 0.04001923
#
# Stress axis : x y z
#
# Youngs Moduli (GPa) = 18.78198 36.08642 79.44687
#
# Poissons Ratio (x) = 0.48581 0.59989
# Poissons Ratio (y) = 0.25285 0.45663
# Poissons Ratio (z) = 0.14182 0.20741
#
# Static dielectric constant tensor:
#      x y z
#    x 1.605990 0.000000 -0.011830 
#    y 0.000000 1.562160 0.000000 
#    z -0.011830 0.000000 1.654950 
# 
# From -- ./inp_files/13066.got.cif
#   From: 2010.05.17/outbox.cif.g08.bks.cpg/sg15_7_cif.got.tgz:13066.got - 2010.06.03 18:47:42.
