data_PCOD9254152
_publ_section_title
;
Structure prediction by ZEFSAII (Michael W. Deem and Ramdas Pophale) SiO2 
 PCOD9254152
Probable space group: C 2/C
;
_chemical_formula_sum "Si O2"
_cell_formula_units_Z 56
_cell_length_a 10.417962
_cell_length_b 9.672104
_cell_length_c 22.163239
_cell_angle_alpha 90.000000
_cell_angle_beta 83.060041
_cell_angle_gamma 90.000000
_cell_volume 2216.885709
_symmetry_space_group_name_H-M "C 2/C"
_symmetry_group_IT_number 15
_symmetry_cell_setting 'monoclinic'
loop_
_space_group_symop_operation_xyz
x,y,z
-x,y,1/2-z
-x,-y,-z
x,-y,1/2+z
1/2+x,1/2+y,z
1/2-x,1/2+y,1/2-z
1/2-x,1/2-y,-z
1/2+x,1/2-y,1/2+z
loop_
_atom_site_type_symbol
_atom_site_label
_atom_site_fract_x
_atom_site_fract_y
_atom_site_fract_z
Si Si1 0.500000 0.919265 0.750000
Si Si2 0.266729 0.941129 0.986446
Si Si3 0.500000 0.463729 0.750000
Si Si4 0.142200 0.635170 0.423311
Si Si5 0.472678 0.252020 0.641535
Si Si6 0.899768 0.527920 0.368506
Si Si7 0.266083 0.961102 0.185200
Si Si8 0.474274 0.303429 0.502905
O O1 0.566300 0.863640 0.685824
O O2 0.624477 0.995853 0.772178
O O3 0.273983 0.945607 0.913767
O O4 0.118792 0.925321 0.012401
O O5 0.365560 0.822186 0.003649
O O6 0.314128 0.078595 0.015121
O O7 0.470624 0.366526 0.693770
O O8 0.371961 0.549387 0.775175
O O9 0.236972 0.586496 0.364501
O O10 0.014884 0.550411 0.409863
O O11 0.084602 0.781675 0.446256
O O12 0.506993 0.300107 0.571841
O O13 0.577801 0.130495 0.652331
O O14 0.332470 0.173080 0.651364
#
# Coordination Sequence:
#
# PCOD9254152 Si02
#       8
#     4   8   4   8   8   8   8   8
#     4   8  17  32  57  88 110 160 211 242 297 362
#     4  10  16  26  54  92 114 157 200 248 306 369
#     4  12  27  42  65  94 126 170 213 256 325 370
#     4   9  16  35  54  82 124 157 194 257 309 354
#     4  10  19  40  62  87 122 164 207 259 306 375
#     4   9  15  29  55  82 115 153 197 252 298 352
#     4  10  22  42  66  89 129 166 208 267 310 372
#     4  10  17  28  57  92 115 155 214 239 306 384
#
# _framework density 25.260660999999999
#
# number of rings (size 3 to 8) (size 9 to 14) (size 15 to 20)
#    0.000    2.571    4.286    2.571    2.000    0.000 
#    0.000    2.857    0.000    0.857    0.000    0.000 
#    0.000    0.000    0.000    0.000    0.000    0.000 
#
# Total GULP energy -156010.016874 kJ/mol
# GULP energy per Si atom -5571.786317 kJ/mol
# Density = 2.520317 g / cm^3
# Si number density = 25.260661 Si / 1000 Ang^3
#
#
#
# Elastic Constant Matrix: (Units=GPa)
#
#
# Indices 1 2 3 4 5 6 
#
# 1 65.7228 17.6388 46.5355 0.0000 -16.7618 0.0000
# 2 17.6388 51.0733 23.2302 0.0000 -0.8421 0.0000
# 3 46.5355 23.2302 140.5278 0.0000 -11.3629 0.0000
# 4 0.0000 0.0000 0.0000 17.9710 0.0000 -8.1701
# 5 -16.7618 -0.8421 -11.3629 0.0000 27.5753 0.0000
# 6 0.0000 0.0000 0.0000 -8.1701 0.0000 30.2767
#
#
#
# Elastic Compliance Matrix: (Units=1/GPa)
#
#
# Indices 1 2 3 4 5 6 
#
# 1 0.024004 -0.005316 -0.006107 0.000000 0.011912 0.000000
# 2 -0.005316 0.022367 -0.002217 0.000000 -0.003462 0.000000
# 3 -0.006107 -0.002217 0.009516 0.000000 0.000141 0.000000
# 4 0.000000 0.000000 0.000000 0.063426 0.000000 0.017115
# 5 0.011912 -0.003462 0.000141 0.000000 0.043458 0.000000
# 6 0.000000 0.000000 0.000000 0.017115 0.000000 0.037647
#
#
# Mechanical properties :
#
#
# Convention : Reuss Voigt Hill
#
# Bulk Modulus (GPa) = 34.95578 48.01477 41.48528
# Shear Modulus (GPa) = 21.07616 26.49256 23.78436
#
# Velocity S-wave (km/s) = 2.89164 3.24198 3.07181
# Velocity P-wave (km/s) = 5.00168 5.75004 5.38887
#
# Compressibility (1/GPa) = 0.02860757
#
# Stress axis : x y z
#
# Youngs Moduli (GPa) = 41.65909 44.70881 105.08330
#
# Poissons Ratio (x) = 0.23768 0.64174
# Poissons Ratio (y) = 0.22146 0.23296
# Poissons Ratio (z) = 0.25441 0.09912
#
# Static dielectric constant tensor:
#      x y z
#    x 2.037780 0.000000 -0.060000 
#    y 0.000000 2.091740 0.000000 
#    z -0.060000 0.000000 2.014030 
# 
# From -- ./inp_files/237000.got.cif
#   From: 2010.05.17/outbox.cif.g08.bks.cpg/sg15_119_cif.got.tgz:237000.got - 2010.06.03 18:47:42.
