data_PCOD9254649
_publ_section_title
;
Structure prediction by ZEFSAII (Michael W. Deem and Ramdas Pophale) SiO2 
 PCOD9254649
Probable space group: C 2/C
;
_chemical_formula_sum "Si O2"
_cell_formula_units_Z 36
_cell_length_a 24.043900
_cell_length_b 11.533059
_cell_length_c 9.713878
_cell_angle_alpha 90.000000
_cell_angle_beta 46.992711
_cell_angle_gamma 90.000000
_cell_volume 1969.781289
_symmetry_space_group_name_H-M "C 2/C"
_symmetry_group_IT_number 15
_symmetry_cell_setting 'monoclinic'
loop_
_space_group_symop_operation_xyz
x,y,z
-x,y,1/2-z
-x,-y,-z
x,-y,1/2+z
1/2+x,1/2+y,z
1/2-x,1/2+y,1/2-z
1/2-x,1/2-y,-z
1/2+x,1/2-y,1/2+z
loop_
_atom_site_type_symbol
_atom_site_label
_atom_site_fract_x
_atom_site_fract_y
_atom_site_fract_z
Si Si1 0.500000 0.165079 0.750000
Si Si2 0.735000 0.599611 0.170569
Si Si3 0.229395 0.618846 0.070058
Si Si4 0.084487 0.485736 0.913166
Si Si5 0.871290 0.719990 0.774271
O O1 0.566724 0.080242 0.583238
O O2 0.452764 0.234332 0.713896
O O3 0.742572 0.591252 0.321941
O O4 0.659793 0.667243 0.249192
O O5 0.739244 0.474216 0.091629
O O6 0.805042 0.677140 0.991469
O O7 0.138822 0.595520 0.231225
O O8 0.250000 0.750000 0.000000
O O9 0.120507 0.613082 0.847411
O O10 0.000000 0.500000 0.000000
#
# Coordination Sequence:
#
# PCOD9254649 Si02
#       5
#     4   8   8   8   8
#     4  10  16  32  58  90 122 156 198 252 312 354
#     4  10  22  37  57  87 118 160 205 251 302 366
#     4  11  24  38  62  88 125 160 206 254 311 367
#     4   9  19  33  55  89 117 157 198 255 305 360
#     4   9  19  33  57  82 122 154 202 250 306 358
#
# _framework density 18.276140000000002
#
# number of rings (size 3 to 8) (size 9 to 14) (size 15 to 20)
#    0.000    2.222    2.222    0.000    9.333    0.000 
#    0.000    0.000    0.000   12.000    0.000    1.556 
#    0.000    0.000    0.000    0.000    0.000    0.000 
#
# Total GULP energy -100238.487914 kJ/mol
# GULP energy per Si atom -5568.804884 kJ/mol
# Density = 1.823454 g / cm^3
# Si number density = 18.276140 Si / 1000 Ang^3
#
#
#
# Elastic Constant Matrix: (Units=GPa)
#
#
# Indices 1 2 3 4 5 6 
#
# 1 120.8872 53.1072 35.6597 0.0000 5.4429 0.0000
# 2 53.1072 122.7537 60.2808 0.0000 0.1475 0.0000
# 3 35.6597 60.2808 77.8050 0.0000 4.8636 0.0000
# 4 0.0000 0.0000 0.0000 19.2884 0.0000 -3.1972
# 5 5.4429 0.1475 4.8636 0.0000 33.8610 0.0000
# 6 0.0000 0.0000 0.0000 -3.1972 0.0000 31.5608
#
#
#
# Elastic Compliance Matrix: (Units=1/GPa)
#
#
# Indices 1 2 3 4 5 6 
#
# 1 0.010480 -0.003577 -0.001945 0.000000 -0.001390 0.000000
# 2 -0.003577 0.014438 -0.009666 0.000000 0.001900 0.000000
# 3 -0.001945 -0.009666 0.021402 0.000000 -0.002719 0.000000
# 4 0.000000 0.000000 0.000000 0.052730 0.000000 0.005342
# 5 -0.001390 0.001900 -0.002719 0.000000 0.030138 0.000000
# 6 0.000000 0.000000 0.000000 0.005342 0.000000 0.032226
#
#
# Mechanical properties :
#
#
# Convention : Reuss Voigt Hill
#
# Bulk Modulus (GPa) = 62.71340 68.83790 65.77565
# Shear Modulus (GPa) = 25.36717 28.43526 26.90122
#
# Velocity S-wave (km/s) = 3.72962 3.94873 3.84074
# Velocity P-wave (km/s) = 7.27569 7.65096 7.46568
#
# Compressibility (1/GPa) = 0.01594556
#
# Stress axis : x y z
#
# Youngs Moduli (GPa) = 95.42021 69.26072 46.72352
#
# Poissons Ratio (x) = 0.24776 0.09087
# Poissons Ratio (y) = 0.34134 0.45161
# Poissons Ratio (z) = 0.18557 0.66944
#
# Static dielectric constant tensor:
#      x y z
#    x 1.705230 0.000000 0.048940 
#    y 0.000000 1.627470 0.000000 
#    z 0.048940 0.000000 1.687270 
# 
# From -- ./inp_files/45860.got.cif
#   From: 2010.05.17/outbox.cif.g08.bks.cpg/sg15_23_cif.got.tgz:45860.got - 2010.06.03 18:47:42.
