data_PCOD9254766
_publ_section_title
;
Structure prediction by ZEFSAII (Michael W. Deem and Ramdas Pophale) SiO2 
 PCOD9254766
Probable space group: C 2/C
;
_chemical_formula_sum "Si O2"
_cell_formula_units_Z 32
_cell_length_a 8.945267
_cell_length_b 21.783796
_cell_length_c 11.458578
_cell_angle_alpha 90.000000
_cell_angle_beta 42.524282
_cell_angle_gamma 90.000000
_cell_volume 1509.182343
_symmetry_space_group_name_H-M "C 2/C"
_symmetry_group_IT_number 15
_symmetry_cell_setting 'monoclinic'
loop_
_space_group_symop_operation_xyz
x,y,z
-x,y,1/2-z
-x,-y,-z
x,-y,1/2+z
1/2+x,1/2+y,z
1/2-x,1/2+y,1/2-z
1/2-x,1/2-y,-z
1/2+x,1/2-y,1/2+z
loop_
_atom_site_type_symbol
_atom_site_label
_atom_site_fract_x
_atom_site_fract_y
_atom_site_fract_z
Si Si1 0.691141 0.924279 0.342140
Si Si2 0.500000 0.471449 0.750000
Si Si3 0.000000 0.487714 0.250000
Si Si4 0.220446 0.178570 0.541933
Si Si5 0.389059 0.414579 0.571424
O O1 0.499885 0.055606 0.636062
O O2 0.632140 0.867871 0.461750
O O3 0.895436 0.914309 0.135375
O O4 0.794569 0.980085 0.357725
O O5 0.469993 0.428442 0.654657
O O6 0.211500 0.531718 0.147928
O O7 0.250000 0.250000 0.500000
O O8 0.000000 0.174945 0.750000
O O9 0.218025 0.147758 0.414808
#
# Coordination Sequence:
#
# PCOD9254766 Si02
#       5
#     8   4   4   8   8
#     4  10  20  38  56  85 123 152 179 248 287 340
#     4  10  16  34  60  84 116 148 174 230 310 334
#     4  10  20  32  60  92 116 142 192 224 304 354
#     4  10  22  41  59  79 116 158 198 237 282 339
#     4  10  21  37  55  88 121 150 185 242 291 340
#
# _framework density 21.203536
#
# number of rings (size 3 to 8) (size 9 to 14) (size 15 to 20)
#    0.000    2.000    3.750    3.000    1.750    1.000 
#    4.500    1.250    0.000    6.000    0.000    0.000 
#    0.000    0.000    0.000    0.000    0.000    0.000 
#
# Total GULP energy -89087.895880 kJ/mol
# GULP energy per Si atom -5567.993493 kJ/mol
# Density = 2.115528 g / cm^3
# Si number density = 21.203536 Si / 1000 Ang^3
#
#
#
# Elastic Constant Matrix: (Units=GPa)
#
#
# Indices 1 2 3 4 5 6 
#
# 1 204.3931 98.9409 46.1681 0.0000 46.1896 0.0000
# 2 98.9409 183.1640 21.8050 0.0000 40.7960 0.0000
# 3 46.1681 21.8050 48.9991 0.0000 27.0799 0.0000
# 4 0.0000 0.0000 0.0000 37.3931 0.0000 16.7302
# 5 46.1896 40.7960 27.0799 0.0000 42.9576 0.0000
# 6 0.0000 0.0000 0.0000 16.7302 0.0000 24.0839
#
#
#
# Elastic Compliance Matrix: (Units=1/GPa)
#
#
# Indices 1 2 3 4 5 6 
#
# 1 0.008135 -0.003231 -0.004740 0.000000 -0.002691 0.000000
# 2 -0.003231 0.008230 0.002734 0.000000 -0.006066 0.000000
# 3 -0.004740 0.002734 0.034187 0.000000 -0.019050 0.000000
# 4 0.000000 0.000000 0.000000 0.038803 0.000000 -0.026955
# 5 -0.002691 -0.006066 -0.019050 0.000000 0.043941 0.000000
# 6 0.000000 0.000000 0.000000 -0.026955 0.000000 0.060246
#
#
# Mechanical properties :
#
#
# Convention : Reuss Voigt Hill
#
# Bulk Modulus (GPa) = 24.95163 85.59826 55.27495
# Shear Modulus (GPa) = 23.00150 38.86306 30.93228
#
# Velocity S-wave (km/s) = 3.29720 4.28583 3.82360
# Velocity P-wave (km/s) = 5.12724 8.05907 6.75415
#
# Compressibility (1/GPa) = 0.04007754
#
# Stress axis : x y z
#
# Youngs Moduli (GPa) = 122.92026 121.50119 29.25115
#
# Poissons Ratio (x) = 0.39255 0.13866
# Poissons Ratio (y) = 0.39714 -0.07997
# Poissons Ratio (z) = 0.58270 -0.33217
#
# Static dielectric constant tensor:
#      x y z
#    x 1.867820 0.000000 -0.068100 
#    y 0.000000 1.820750 0.000000 
#    z -0.068100 0.000000 1.966630 
# 
# From -- ./inp_files/78911.got.cif
#   From: 2010.05.17/outbox.cif.g08.bks.cpg/sg15_40_cif.got.tgz:78911.got - 2010.06.03 18:47:42.
