data_PCOD9254493
_publ_section_title
;
Structure prediction by ZEFSAII (Michael W. Deem and Ramdas Pophale) SiO2 
 PCOD9254493
Probable space group: C 2/C
;
_chemical_formula_sum "Si O2"
_cell_formula_units_Z 56
_cell_length_a 21.886601
_cell_length_b 24.548806
_cell_length_c 7.283836
_cell_angle_alpha 90.000000
_cell_angle_beta 125.533925
_cell_angle_gamma 90.000000
_cell_volume 3184.720698
_symmetry_space_group_name_H-M "C 2/C"
_symmetry_group_IT_number 15
_symmetry_cell_setting 'monoclinic'
loop_
_space_group_symop_operation_xyz
x,y,z
-x,y,1/2-z
-x,-y,-z
x,-y,1/2+z
1/2+x,1/2+y,z
1/2-x,1/2+y,1/2-z
1/2-x,1/2-y,-z
1/2+x,1/2-y,1/2+z
loop_
_atom_site_type_symbol
_atom_site_label
_atom_site_fract_x
_atom_site_fract_y
_atom_site_fract_z
Si Si1 0.329243 0.179905 0.107990
Si Si2 0.822793 0.554760 0.534500
Si Si3 0.862792 0.440771 0.678645
Si Si4 0.742644 0.833510 0.628811
Si Si5 0.493908 0.797470 0.023027
Si Si6 0.519201 0.925314 0.067734
Si Si7 0.350737 0.758706 0.293402
O O1 0.346173 0.118446 0.068913
O O2 0.272989 0.172196 0.180213
O O3 0.407368 0.206143 0.315274
O O4 0.309031 0.216576 0.899466
O O5 0.809953 0.489902 0.520225
O O6 0.849244 0.565933 0.372937
O O7 0.764565 0.604273 0.456010
O O8 0.893517 0.560012 0.797047
O O9 0.952756 0.452043 0.831465
O O10 0.676358 0.798557 0.416926
O O11 0.818476 0.801641 0.710753
O O12 0.500000 0.786573 0.250000
O O13 0.513214 0.860900 0.022549
O O14 0.559464 0.763617 0.038369
O O15 0.500000 0.933230 0.250000
#
# Coordination Sequence:
#
# PCOD9254493 Si02
#       7
#     8   8   8   8   8   8   8
#     4  10  20  34  48  72  95 125 163 207 240 292
#     4  10  17  30  41  60  92 123 158 202 232 273
#     4   9  19  26  44  63  88 123 157 198 242 267
#     4  10  21  34  47  67  98 129 166 211 236 287
#     4  10  16  31  49  68  98 121 162 208 241 283
#     4   8  14  26  39  59  88 121 153 196 234 262
#     4  11  20  32  52  68  89 137 168 193 257 287
#
# _framework density 17.583960000000001
#
# number of rings (size 3 to 8) (size 9 to 14) (size 15 to 20)
#    0.000    2.286    2.857    3.000    2.000    0.000 
#    0.000    1.429    0.000    0.000    0.000    0.000 
#    0.000    0.000    0.000   52.714    0.000    0.000 
#
# Total GULP energy -156018.413180 kJ/mol
# GULP energy per Si atom -5572.086185 kJ/mol
# Density = 1.754394 g / cm^3
# Si number density = 17.583960 Si / 1000 Ang^3
#
#
#
# Elastic Constant Matrix: (Units=GPa)
#
#
# Indices 1 2 3 4 5 6 
#
# 1 32.3278 15.4379 2.8441 0.0000 -1.2035 0.0000
# 2 15.4379 100.7197 24.7550 0.0000 10.7078 0.0000
# 3 2.8441 24.7550 24.0051 0.0000 -4.0248 0.0000
# 4 0.0000 0.0000 0.0000 25.4731 0.0000 6.0887
# 5 -1.2035 10.7078 -4.0248 0.0000 21.1356 0.0000
# 6 0.0000 0.0000 0.0000 6.0887 0.0000 22.4509
#
#
#
# Elastic Compliance Matrix: (Units=1/GPa)
#
#
# Indices 1 2 3 4 5 6 
#
# 1 0.034097 -0.006900 0.004119 0.000000 0.006222 0.000000
# 2 -0.006900 0.016924 -0.018737 0.000000 -0.012535 0.000000
# 3 0.004119 -0.018737 0.064172 0.000000 0.021947 0.000000
# 4 0.000000 0.000000 0.000000 0.041978 0.000000 -0.011385
# 5 0.006222 -0.012535 0.021947 0.000000 0.058198 0.000000
# 6 0.000000 0.000000 0.000000 -0.011385 0.000000 0.047629
#
#
# Mechanical properties :
#
#
# Convention : Reuss Voigt Hill
#
# Bulk Modulus (GPa) = 13.85864 27.01407 20.43635
# Shear Modulus (GPa) = 15.14755 21.41297 18.28026
#
# Velocity S-wave (km/s) = 2.93822 3.49342 3.22778
# Velocity P-wave (km/s) = 4.40560 5.62746 5.05359
#
# Compressibility (1/GPa) = 0.07215718
#
# Stress axis : x y z
#
# Youngs Moduli (GPa) = 29.32771 59.08785 15.58319
#
# Poissons Ratio (x) = 0.40771 -0.06419
# Poissons Ratio (y) = 0.20236 0.29198
# Poissons Ratio (z) = -0.12080 1.10712
#
# Static dielectric constant tensor:
#      x y z
#    x 1.639080 0.000000 -0.034560 
#    y 0.000000 1.648050 0.000000 
#    z -0.034560 0.000000 1.641560 
# 
# From -- ./inp_files/63725.got.cif
#   From: 2010.05.17/outbox.cif.g08.bks.cpg/sg15_32_cif.got.tgz:63725.got - 2010.06.03 18:47:42.
