data_PCOD9254679
_publ_section_title
;
Structure prediction by ZEFSAII (Michael W. Deem and Ramdas Pophale) SiO2 
 PCOD9254679
Probable space group: C 2/C
;
_chemical_formula_sum "Si O2"
_cell_formula_units_Z 52
_cell_length_a 6.999112
_cell_length_b 23.123139
_cell_length_c 18.172435
_cell_angle_alpha 90.000000
_cell_angle_beta 44.824903
_cell_angle_gamma 90.000000
_cell_volume 2073.273434
_symmetry_space_group_name_H-M "C 2/C"
_symmetry_group_IT_number 15
_symmetry_cell_setting 'monoclinic'
loop_
_space_group_symop_operation_xyz
x,y,z
-x,y,1/2-z
-x,-y,-z
x,-y,1/2+z
1/2+x,1/2+y,z
1/2-x,1/2+y,1/2-z
1/2-x,1/2-y,-z
1/2+x,1/2-y,1/2+z
loop_
_atom_site_type_symbol
_atom_site_label
_atom_site_fract_x
_atom_site_fract_y
_atom_site_fract_z
Si Si1 0.229736 0.978639 0.772673
Si Si2 0.952962 0.892151 0.569649
Si Si3 0.500000 0.197522 0.250000
Si Si4 0.011145 0.413045 0.570439
Si Si5 0.042596 0.276555 0.898741
Si Si6 0.569653 0.598990 0.651273
Si Si7 0.238503 0.333731 0.130879
O O1 0.500000 0.976186 0.750000
O O2 0.016620 0.937877 0.874045
O O3 0.303833 0.953064 0.672418
O O4 0.122604 0.043120 0.799980
O O5 0.753535 0.842771 0.656596
O O6 0.775685 0.920142 0.552223
O O7 0.215129 0.865634 0.458724
O O8 0.424048 0.231506 0.197862
O O9 0.923744 0.345148 0.597472
O O10 0.133161 0.422554 0.455843
O O11 0.252421 0.234964 0.882630
O O12 0.750000 0.250000 0.000000
O O13 0.500000 0.623911 0.750000
O O14 0.491121 0.646850 0.612722
O O15 0.000000 0.351150 0.250000
#
# Coordination Sequence:
#
# PCOD9254679 Si02
#       7
#     8   8   4   8   8   8   8
#     4  10  19  37  64  86 113 154 208 254 288 350
#     4   9  16  35  61  87 113 155 206 239 285 353
#     4  10  16  32  64  90 108 154 214 232 278 368
#     4   9  19  36  59  89 113 157 208 238 290 368
#     4  11  18  35  65  88 116 160 202 244 288 366
#     4  11  24  38  57  87 120 162 199 243 311 361
#     4  11  24  39  58  94 127 150 199 258 303 348
#
# _framework density 25.081112000000001
#
# number of rings (size 3 to 8) (size 9 to 14) (size 15 to 20)
#    0.000    1.846    8.462    0.462    1.077    7.385 
#    0.000    1.538    0.000    0.000    0.000    0.000 
#    0.000    0.000    0.000    0.000    0.000    0.000 
#
# Total GULP energy -145229.096550 kJ/mol
# GULP energy per Si atom -5585.734483 kJ/mol
# Density = 2.502403 g / cm^3
# Si number density = 25.081112 Si / 1000 Ang^3
#
#
#
# Elastic Constant Matrix: (Units=GPa)
#
#
# Indices 1 2 3 4 5 6 
#
# 1 47.3069 9.6738 20.3429 0.0000 14.5856 0.0000
# 2 9.6738 113.5626 28.9145 0.0000 1.1175 0.0000
# 3 20.3429 28.9145 184.9459 0.0000 9.3270 0.0000
# 4 0.0000 0.0000 0.0000 35.0513 0.0000 4.3101
# 5 14.5856 1.1175 9.3270 0.0000 35.6445 0.0000
# 6 0.0000 0.0000 0.0000 4.3101 0.0000 10.7251
#
#
#
# Elastic Compliance Matrix: (Units=1/GPa)
#
#
# Indices 1 2 3 4 5 6 
#
# 1 0.025355 -0.001540 -0.002054 0.000000 -0.009789 0.000000
# 2 -0.001540 0.009265 -0.001313 0.000000 0.000684 0.000000
# 3 -0.002054 -0.001313 0.005871 0.000000 -0.000655 0.000000
# 4 0.000000 0.000000 0.000000 0.030013 0.000000 -0.012061
# 5 -0.009789 0.000684 -0.000655 0.000000 0.032210 0.000000
# 6 0.000000 0.000000 0.000000 -0.012061 0.000000 0.098086
#
#
# Mechanical properties :
#
#
# Convention : Reuss Voigt Hill
#
# Bulk Modulus (GPa) = 32.60033 51.51976 42.06005
# Shear Modulus (GPa) = 22.64060 35.40978 29.02519
#
# Velocity S-wave (km/s) = 3.00775 3.76148 3.40553
# Velocity P-wave (km/s) = 5.00882 6.28099 5.68063
#
# Compressibility (1/GPa) = 0.03067453
#
# Stress axis : x y z
#
# Youngs Moduli (GPa) = 39.43953 107.93728 170.31963
#
# Poissons Ratio (x) = 0.16628 0.34990
# Poissons Ratio (y) = 0.06076 0.22371
# Poissons Ratio (z) = 0.08102 0.14177
#
# Static dielectric constant tensor:
#      x y z
#    x 2.161320 0.000000 -0.130020 
#    y 0.000000 1.948000 0.000000 
#    z -0.130020 0.000000 2.112840 
# 
# From -- ./inp_files/234384.got.cif
#   From: 2010.05.17/outbox.cif.g08.bks.cpg/sg15_118_cif.got.tgz:234384.got - 2010.06.03 18:47:42.
