data_PCOD9254273
_publ_section_title
;
Structure prediction by ZEFSAII (Michael W. Deem and Ramdas Pophale) SiO2 
 PCOD9254273
Probable space group: C 2/C
;
_chemical_formula_sum "Si O2"
_cell_formula_units_Z 44
_cell_length_a 15.907711
_cell_length_b 14.585570
_cell_length_c 10.303029
_cell_angle_alpha 90.000000
_cell_angle_beta 137.122520
_cell_angle_gamma 90.000000
_cell_volume 1626.602066
_symmetry_space_group_name_H-M "C 2/C"
_symmetry_group_IT_number 15
_symmetry_cell_setting 'monoclinic'
loop_
_space_group_symop_operation_xyz
x,y,z
-x,y,1/2-z
-x,-y,-z
x,-y,1/2+z
1/2+x,1/2+y,z
1/2-x,1/2+y,1/2-z
1/2-x,1/2-y,-z
1/2+x,1/2-y,1/2+z
loop_
_atom_site_type_symbol
_atom_site_label
_atom_site_fract_x
_atom_site_fract_y
_atom_site_fract_z
Si Si1 0.358328 0.973511 0.870944
Si Si2 0.947724 0.182860 0.405677
Si Si3 0.000000 0.731262 0.250000
Si Si4 0.765504 0.626455 0.943874
Si Si5 0.391967 0.534440 0.540254
Si Si6 0.811094 0.260313 0.875926
O O1 0.246224 0.003741 0.645032
O O2 0.349087 0.865108 0.886057
O O3 0.313648 0.030464 0.944526
O O4 0.500000 0.000000 0.000000
O O5 0.931820 0.079919 0.447396
O O6 0.820355 0.221415 0.202648
O O7 0.971862 0.232043 0.572205
O O8 0.064242 0.205972 0.448662
O O9 0.119714 0.669769 0.355144
O O10 0.647755 0.614744 0.902777
O O11 0.730480 0.694390 0.789344
O O12 0.500000 0.487809 0.750000
#
# Coordination Sequence:
#
# PCOD9254273 Si02
#       6
#     8   8   4   8   8   8
#     4  11  24  38  59  94 129 165 208 255 315 382
#     4  10  17  31  55  88 122 152 197 246 322 377
#     4  10  16  28  54  84 116 152 184 238 306 364
#     4  11  21  36  60  90 130 162 201 253 310 377
#     4  11  21  36  58  90 123 164 203 255 318 371
#     4  10  20  35  57  87 126 162 198 256 313 371
#
# _framework density 27.050255
#
# number of rings (size 3 to 8) (size 9 to 14) (size 15 to 20)
#    0.000    1.455    2.727    5.455    0.000    5.818 
#    0.000    0.000    0.000    1.091    2.364    0.000 
#    0.000    0.000    0.000    0.000    0.000    0.000 
#
# Total GULP energy -122740.618664 kJ/mol
# GULP energy per Si atom -5579.119030 kJ/mol
# Density = 2.698869 g / cm^3
# Si number density = 27.050255 Si / 1000 Ang^3
#
#
#
# Elastic Constant Matrix: (Units=GPa)
#
#
# Indices 1 2 3 4 5 6 
#
# 1 107.0073 33.4755 53.8335 0.0000 28.9076 0.0000
# 2 33.4755 108.5924 23.8517 0.0000 7.2431 0.0000
# 3 53.8335 23.8517 215.6348 0.0000 47.1773 0.0000
# 4 0.0000 0.0000 0.0000 31.8905 0.0000 9.5015
# 5 28.9076 7.2431 47.1773 0.0000 58.6630 0.0000
# 6 0.0000 0.0000 0.0000 9.5015 0.0000 37.1615
#
#
#
# Elastic Compliance Matrix: (Units=1/GPa)
#
#
# Indices 1 2 3 4 5 6 
#
# 1 0.012390 -0.003137 -0.001814 0.000000 -0.004259 0.000000
# 2 -0.003137 0.010240 -0.000499 0.000000 0.000683 0.000000
# 3 -0.001814 -0.000499 0.005991 0.000000 -0.003862 0.000000
# 4 0.000000 0.000000 0.000000 0.033943 0.000000 -0.008679
# 5 -0.004259 0.000683 -0.003862 0.000000 0.022167 0.000000
# 6 0.000000 0.000000 0.000000 -0.008679 0.000000 0.029129
#
#
# Mechanical properties :
#
#
# Convention : Reuss Voigt Hill
#
# Bulk Modulus (GPa) = 56.43341 72.61731 64.52536
# Shear Modulus (GPa) = 38.26574 46.88123 42.57349
#
# Velocity S-wave (km/s) = 3.76522 4.16759 3.97150
# Velocity P-wave (km/s) = 6.30953 7.07545 6.70344
#
# Compressibility (1/GPa) = 0.01772000
#
# Stress axis : x y z
#
# Youngs Moduli (GPa) = 80.71183 97.65851 166.92950
#
# Poissons Ratio (x) = 0.30633 0.30287
# Poissons Ratio (y) = 0.25317 0.08328
# Poissons Ratio (z) = 0.14644 0.04872
#
# Static dielectric constant tensor:
#      x y z
#    x 2.130000 0.000000 0.001400 
#    y 0.000000 2.248610 0.000000 
#    z 0.001400 0.000000 2.227890 
# 
# From -- ./inp_files/112627.got.cif
#   From: 2010.05.17/outbox.cif.g08.bks.cpg/sg15_57_cif.got.tgz:112627.got - 2010.06.03 18:47:42.
