data_PCOD9254592
_publ_section_title
;
Structure prediction by ZEFSAII (Michael W. Deem and Ramdas Pophale) SiO2 
 PCOD9254592
Probable space group: C 2/C
;
_chemical_formula_sum "Si O2"
_cell_formula_units_Z 60
_cell_length_a 12.023459
_cell_length_b 8.307323
_cell_length_c 22.721207
_cell_angle_alpha 90.000000
_cell_angle_beta 103.241171
_cell_angle_gamma 90.000000
_cell_volume 2209.122313
_symmetry_space_group_name_H-M "C 2/C"
_symmetry_group_IT_number 15
_symmetry_cell_setting 'monoclinic'
loop_
_space_group_symop_operation_xyz
x,y,z
-x,y,1/2-z
-x,-y,-z
x,-y,1/2+z
1/2+x,1/2+y,z
1/2-x,1/2+y,1/2-z
1/2-x,1/2-y,-z
1/2+x,1/2-y,1/2+z
loop_
_atom_site_type_symbol
_atom_site_label
_atom_site_fract_x
_atom_site_fract_y
_atom_site_fract_z
Si Si1 0.053720 0.389681 0.870781
Si Si2 0.278881 0.836128 0.402323
Si Si3 0.500000 0.283545 0.250000
Si Si4 0.715990 0.472849 0.783105
Si Si5 0.872714 0.917810 0.841853
Si Si6 0.663651 0.465183 0.972250
Si Si7 0.097373 0.244985 0.350729
Si Si8 0.943929 0.818872 0.436283
O O1 0.159198 0.263786 0.887262
O O2 0.989114 0.333837 0.804281
O O3 0.093724 0.570765 0.867837
O O4 0.977382 0.358378 0.919369
O O5 0.363634 0.691487 0.399398
O O6 0.289549 0.940515 0.343136
O O7 0.273742 0.935745 0.462318
O O8 0.391609 0.402811 0.232759
O O9 0.733567 0.434235 0.716012
O O10 0.681728 0.304445 0.809000
O O11 0.973326 0.827012 0.819443
O O12 0.906850 0.088106 0.872490
O O13 0.632161 0.362641 0.910921
O O14 0.561685 0.594101 0.969404
O O15 0.653488 0.349562 0.027241
#
# Coordination Sequence:
#
# PCOD9254592 Si02
#       8
#     8   8   4   8   8   8   8   8
#     4  10  20  33  52  83 103 141 176 231 267 326
#     4   9  21  35  52  77 112 139 181 219 282 321
#     4  10  16  32  54  70 102 136 182 216 258 326
#     4  10  18  36  51  71 106 151 174 220 270 338
#     4  11  19  34  54  80 104 143 182 225 270 332
#     4   8  17  36  56  77 105 148 180 225 267 325
#     4  10  20  33  57  79 107 138 187 224 270 324
#     4   9  17  34  59  77 104 144 191 217 265 326
#
# _framework density 27.160107
#
# number of rings (size 3 to 8) (size 9 to 14) (size 15 to 20)
#    0.000    2.400    2.667    1.600    1.867    2.133 
#    2.400    2.667    0.000    1.600    0.000    0.000 
#    0.000    0.000    0.000    0.000    0.000    0.000 
#
# Total GULP energy -167749.402693 kJ/mol
# GULP energy per Si atom -5591.646756 kJ/mol
# Density = 2.709829 g / cm^3
# Si number density = 27.160107 Si / 1000 Ang^3
#
#
#
# Elastic Constant Matrix: (Units=GPa)
#
#
# Indices 1 2 3 4 5 6 
#
# 1 44.8280 8.0076 15.7644 0.0000 -6.5324 0.0000
# 2 8.0076 111.2133 37.0942 0.0000 -8.0046 0.0000
# 3 15.7644 37.0942 111.4754 0.0000 -23.3354 0.0000
# 4 0.0000 0.0000 0.0000 31.3351 0.0000 -4.8764
# 5 -6.5324 -8.0046 -23.3354 0.0000 33.3946 0.0000
# 6 0.0000 0.0000 0.0000 -4.8764 0.0000 38.1326
#
#
#
# Elastic Compliance Matrix: (Units=1/GPa)
#
#
# Indices 1 2 3 4 5 6 
#
# 1 0.023721 -0.000656 -0.002574 0.000000 0.002684 0.000000
# 2 -0.000656 0.010133 -0.003277 0.000000 0.000011 0.000000
# 3 -0.002574 -0.003277 0.011895 0.000000 0.007023 0.000000
# 4 0.000000 0.000000 0.000000 0.032561 0.000000 0.004164
# 5 0.002684 0.000011 0.007023 0.000000 0.035380 0.000000
# 6 0.000000 0.000000 0.000000 0.004164 0.000000 0.026757
#
#
# Mechanical properties :
#
#
# Convention : Reuss Voigt Hill
#
# Bulk Modulus (GPa) = 30.54881 43.24992 36.89936
# Shear Modulus (GPa) = 30.41867 34.34915 32.38391
#
# Velocity S-wave (km/s) = 3.35023 3.56011 3.45676
# Velocity P-wave (km/s) = 5.12226 5.73217 5.43578
#
# Compressibility (1/GPa) = 0.03273450
#
# Stress axis : x y z
#
# Youngs Moduli (GPa) = 42.15657 98.69088 84.06805
#
# Poissons Ratio (x) = 0.06476 0.21642
# Poissons Ratio (y) = 0.02766 0.27546
# Poissons Ratio (z) = 0.10853 0.32338
#
# Static dielectric constant tensor:
#      x y z
#    x 2.206750 0.000000 -0.042030 
#    y 0.000000 2.081920 0.000000 
#    z -0.042030 0.000000 2.127740 
# 
# From -- ./inp_files/272802.got.cif
#   From: 2010.05.17/outbox.cif.g08.bks.cpg/sg15_137_cif.got.tgz:272802.got - 2010.06.03 18:47:42.
