data_PCOD9254022
_publ_section_title
;
Structure prediction by ZEFSAII (Michael W. Deem and Ramdas Pophale) SiO2 
 PCOD9254022
Probable space group: C 2/C
;
_chemical_formula_sum "Si O2"
_cell_formula_units_Z 60
_cell_length_a 22.860204
_cell_length_b 9.410386
_cell_length_c 15.167980
_cell_angle_alpha 90.000000
_cell_angle_beta 92.320009
_cell_angle_gamma 90.000000
_cell_volume 3260.311967
_symmetry_space_group_name_H-M "C 2/C"
_symmetry_group_IT_number 15
_symmetry_cell_setting 'monoclinic'
loop_
_space_group_symop_operation_xyz
x,y,z
-x,y,1/2-z
-x,-y,-z
x,-y,1/2+z
1/2+x,1/2+y,z
1/2-x,1/2+y,1/2-z
1/2-x,1/2-y,-z
1/2+x,1/2-y,1/2+z
loop_
_atom_site_type_symbol
_atom_site_label
_atom_site_fract_x
_atom_site_fract_y
_atom_site_fract_z
Si Si1 0.375596 0.618034 0.190328
Si Si2 0.646564 0.149589 0.497315
Si Si3 0.109368 0.446365 0.728224
Si Si4 0.500000 0.333356 0.750000
Si Si5 0.598196 0.893241 0.411870
Si Si6 0.031772 0.617848 0.594383
Si Si7 0.331120 0.305394 0.184633
Si Si8 0.802802 0.314994 0.315355
O O1 0.442586 0.583360 0.218844
O O2 0.380502 0.736411 0.113181
O O3 0.344698 0.470272 0.172042
O O4 0.342658 0.699813 0.267582
O O5 0.580663 0.175162 0.530119
O O6 0.661464 0.230486 0.409404
O O7 0.688890 0.191637 0.579110
O O8 0.643931 0.982104 0.472381
O O9 0.089943 0.520080 0.819146
O O10 0.062307 0.487318 0.650146
O O11 0.125995 0.283692 0.747969
O O12 0.168714 0.533249 0.708548
O O13 0.520094 0.233296 0.670727
O O14 0.533219 0.898958 0.449177
O O15 0.264353 0.294927 0.212981
#
# Coordination Sequence:
#
# PCOD9254022 Si02
#       8
#     8   8   8   4   8   8   8   8
#     4  10  20  37  58  80 110 151 178 220 284 324
#     4  10  20  33  53  82 106 139 188 220 273 315
#     4   9  17  32  54  78  98 137 193 222 255 317
#     4  10  16  36  60  76 108 146 178 214 280 336
#     4   9  17  32  55  77 104 141 180 221 265 325
#     4  10  15  33  59  75 103 140 186 221 262 320
#     4  11  22  34  51  87 113 136 182 236 271 319
#     4  10  19  38  59  72 108 152 188 219 268 327
#
# _framework density 18.403146
#
# number of rings (size 3 to 8) (size 9 to 14) (size 15 to 20)
#    0.000    2.133    5.333    1.600    0.000    0.000 
#    4.800    6.000    0.000    0.000    0.000    0.000 
#    0.000    0.000    0.000    0.000    0.000    0.000 
#
# Total GULP energy -167113.763897 kJ/mol
# GULP energy per Si atom -5570.458797 kJ/mol
# Density = 1.836126 g / cm^3
# Si number density = 18.403146 Si / 1000 Ang^3
#
#
#
# Elastic Constant Matrix: (Units=GPa)
#
#
# Indices 1 2 3 4 5 6 
#
# 1 84.9255 23.4308 4.4281 0.0000 -7.4608 0.0000
# 2 23.4308 78.4791 0.0417 0.0000 -2.0949 0.0000
# 3 4.4281 0.0417 23.4844 0.0000 -12.8414 0.0000
# 4 0.0000 0.0000 0.0000 10.0952 0.0000 1.4668
# 5 -7.4608 -2.0949 -12.8414 0.0000 22.7433 0.0000
# 6 0.0000 0.0000 0.0000 1.4668 0.0000 9.8112
#
#
#
# Elastic Compliance Matrix: (Units=1/GPa)
#
#
# Indices 1 2 3 4 5 6 
#
# 1 0.013184 -0.003837 -0.000445 0.000000 0.003720 0.000000
# 2 -0.003837 0.013903 0.001028 0.000000 0.000603 0.000000
# 3 -0.000445 0.001028 0.061678 0.000000 0.034774 0.000000
# 4 0.000000 0.000000 0.000000 0.101257 0.000000 -0.015138
# 5 0.003720 0.000603 0.034774 0.000000 0.064879 0.000000
# 6 0.000000 0.000000 0.000000 -0.015138 0.000000 0.104188
#
#
# Mechanical properties :
#
#
# Convention : Reuss Voigt Hill
#
# Bulk Modulus (GPa) = 12.15681 26.96557 19.56119
# Shear Modulus (GPa) = 12.72221 19.12916 15.92569
#
# Velocity S-wave (km/s) = 2.63212 3.22755 2.94492
# Velocity P-wave (km/s) = 3.98216 5.34546 4.71336
#
# Compressibility (1/GPa) = 0.08225845
#
# Stress axis : x y z
#
# Youngs Moduli (GPa) = 75.85215 71.92576 16.21330
#
# Poissons Ratio (x) = 0.27595 0.00721
# Poissons Ratio (y) = 0.29101 -0.01667
# Poissons Ratio (z) = 0.03373 -0.07395
#
# Static dielectric constant tensor:
#      x y z
#    x 1.656870 0.000000 0.008230 
#    y 0.000000 1.620260 0.000000 
#    z 0.008230 0.000000 1.668570 
# 
# From -- ./inp_files/171909.got.cif
#   From: 2010.05.17/outbox.cif.g08.bks.cpg/sg15_86_cif.got.tgz:171909.got - 2010.06.03 18:47:42.
