data_PCOD9254196
_publ_section_title
;
Structure prediction by ZEFSAII (Michael W. Deem and Ramdas Pophale) SiO2 
 PCOD9254196
Probable space group: C 2/C
;
_chemical_formula_sum "Si O2"
_cell_formula_units_Z 36
_cell_length_a 7.030119
_cell_length_b 24.889628
_cell_length_c 9.604231
_cell_angle_alpha 90.000000
_cell_angle_beta 118.419970
_cell_angle_gamma 90.000000
_cell_volume 1477.988321
_symmetry_space_group_name_H-M "C 2/C"
_symmetry_group_IT_number 15
_symmetry_cell_setting 'monoclinic'
loop_
_space_group_symop_operation_xyz
x,y,z
-x,y,1/2-z
-x,-y,-z
x,-y,1/2+z
1/2+x,1/2+y,z
1/2-x,1/2+y,1/2-z
1/2-x,1/2-y,-z
1/2+x,1/2-y,1/2+z
loop_
_atom_site_type_symbol
_atom_site_label
_atom_site_fract_x
_atom_site_fract_y
_atom_site_fract_z
Si Si1 0.357023 0.519607 0.579730
Si Si2 0.704373 0.320505 0.714422
Si Si3 0.500000 0.133944 0.750000
Si Si4 0.574435 0.920910 0.573615
Si Si5 0.138040 0.219787 0.593786
O O1 0.500000 0.547367 0.750000
O O2 0.500000 0.500000 0.500000
O O3 0.246437 0.468911 0.618951
O O4 0.156086 0.555518 0.460351
O O5 0.500000 0.322732 0.750000
O O6 0.833785 0.373616 0.799363
O O7 0.850545 0.269419 0.799597
O O8 0.586486 0.307821 0.527715
O O9 0.458683 0.100328 0.596269
O O10 0.296512 0.173128 0.699372
O O11 0.250000 0.250000 0.500000
#
# Coordination Sequence:
#
# PCOD9254196 Si02
#       5
#     8   8   4   8   8
#     4  11  26  49  70  99 137 179 238 307 364 425
#     4  10  16  31  52 101 141 187 228 280 340 423
#     4  12  18  32  60 108 144 190 240 280 350 436
#     4  11  23  38  69  99 133 182 240 286 354 423
#     4  10  16  27  54  97 156 180 235 277 340 426
#
# _framework density 24.357430999999998
#
# number of rings (size 3 to 8) (size 9 to 14) (size 15 to 20)
#    0.000    1.333    7.778    2.000    0.000    2.667 
#    0.000    0.000    0.000    0.000    0.000   37.333 
#    0.000    0.000    0.000    0.000    0.000    0.000 
#
# Total GULP energy -100756.574920 kJ/mol
# GULP energy per Si atom -5597.587496 kJ/mol
# Density = 2.430199 g / cm^3
# Si number density = 24.357431 Si / 1000 Ang^3
#
#
#
# Elastic Constant Matrix: (Units=GPa)
#
#
# Indices 1 2 3 4 5 6 
#
# 1 151.9227 53.8334 58.8967 0.0000 7.5115 0.0000
# 2 53.8334 111.8057 48.7636 0.0000 36.9834 0.0000
# 3 58.8967 48.7636 109.5502 0.0000 42.0860 0.0000
# 4 0.0000 0.0000 0.0000 -80.6745 0.0000 85.9402
# 5 7.5115 36.9834 42.0860 0.0000 47.9039 0.0000
# 6 0.0000 0.0000 0.0000 85.9402 0.0000 9.4094
#
#
#
# Elastic Compliance Matrix: (Units=1/GPa)
#
#
# Indices 1 2 3 4 5 6 
#
# 1 0.010363 -0.004727 -0.006408 0.000000 0.007654 0.000000
# 2 -0.004727 0.014718 0.000106 0.000000 -0.010715 0.000000
# 3 -0.006408 0.000106 0.018372 0.000000 -0.015218 0.000000
# 4 0.000000 0.000000 0.000000 -0.001155 0.000000 0.010552
# 5 0.007654 -0.010715 -0.015218 0.000000 0.041317 0.000000
# 6 0.000000 0.000000 0.000000 0.010552 0.000000 0.009905
#
#
# Mechanical properties :
#
#
# Convention : Reuss Voigt Hill
#
# Bulk Modulus (GPa) = 46.73622 77.36291 62.04957
# Shear Modulus (GPa) = 40.74707 9.44674 25.09690
#
# Velocity S-wave (km/s) = 4.09452 1.97150 3.21340
# Velocity P-wave (km/s) = 6.44847 6.08382 6.26880
#
# Compressibility (1/GPa) = 0.02139668
#
# Stress axis : x y z
#
# Youngs Moduli (GPa) = 96.49875 67.94459 54.42992
#
# Poissons Ratio (x) = 0.32115 0.34877
# Poissons Ratio (y) = 0.45611 -0.00578
# Poissons Ratio (z) = 0.61833 -0.00721
#
# Static dielectric constant tensor:
#      x y z
#    x 1.982120 0.000000 -0.019770 
#    y 0.000000 1.888160 0.000000 
#    z -0.019770 0.000000 1.955650 
# 
# From -- ./inp_files/31696.got.cif
#   From: 2010.05.17/outbox.cif.g08.bks.cpg/sg15_16_cif.got.tgz:31696.got - 2010.06.03 18:47:42.
