data_PCOD9254069
_publ_section_title
;
Structure prediction by ZEFSAII (Michael W. Deem and Ramdas Pophale) SiO2 
 PCOD9254069
Probable space group: C 2/C
;
_chemical_formula_sum "Si O2"
_cell_formula_units_Z 40
_cell_length_a 18.016181
_cell_length_b 6.951043
_cell_length_c 14.320102
_cell_angle_alpha 90.000000
_cell_angle_beta 53.581416
_cell_angle_gamma 90.000000
_cell_volume 1443.090322
_symmetry_space_group_name_H-M "C 2/C"
_symmetry_group_IT_number 15
_symmetry_cell_setting 'monoclinic'
loop_
_space_group_symop_operation_xyz
x,y,z
-x,y,1/2-z
-x,-y,-z
x,-y,1/2+z
1/2+x,1/2+y,z
1/2-x,1/2+y,1/2-z
1/2-x,1/2-y,-z
1/2+x,1/2-y,1/2+z
loop_
_atom_site_type_symbol
_atom_site_label
_atom_site_fract_x
_atom_site_fract_y
_atom_site_fract_z
Si Si1 0.481955 0.223427 0.662833
Si Si2 0.317494 0.570948 0.928795
Si Si3 0.902352 0.182685 0.040134
Si Si4 0.827764 0.602330 0.079077
Si Si5 0.590905 0.196266 0.298336
O O1 0.500000 0.311533 0.750000
O O2 0.431629 0.357685 0.624288
O O3 0.579543 0.155886 0.546692
O O4 0.422984 0.027107 0.721128
O O5 0.263624 0.401577 0.915787
O O6 0.387504 0.671852 0.805316
O O7 0.250000 0.750000 0.000000
O O8 0.356188 0.531766 0.004072
O O9 0.842278 0.375652 0.091089
O O10 0.995708 0.248153 0.919018
O O11 0.832348 0.703247 0.176577
#
# Coordination Sequence:
#
# PCOD9254069 Si02
#       5
#     8   8   8   8   8
#     4   9  14  24  40  62  89 116 142 180 226 262
#     4  10  16  24  40  66  91 114 146 183 220 265
#     4   8  15  24  38  63  87 109 144 183 219 261
#     4   8  16  25  37  63  92 117 143 178 224 264
#     4   9  15  25  39  60  91 116 142 182 222 262
#
# _framework density 27.718292999999999
#
# number of rings (size 3 to 8) (size 9 to 14) (size 15 to 20)
#    0.000    3.200    0.000    6.600    0.000    0.000 
#    0.000    0.000    0.000    0.000    0.000  141.400 
#    0.000    9.600    0.000    0.000    0.000    0.000 
#
# Total GULP energy -112048.302441 kJ/mol
# GULP energy per Si atom -5602.415122 kJ/mol
# Density = 2.765521 g / cm^3
# Si number density = 27.718293 Si / 1000 Ang^3
#
#
#
# Elastic Constant Matrix: (Units=GPa)
#
#
# Indices 1 2 3 4 5 6 
#
# 1 210.2134 44.9275 58.5029 -0.0002 69.9416 0.0001
# 2 44.9275 89.3225 20.7391 -0.0006 11.7972 0.0005
# 3 58.5029 20.7391 133.6920 -0.0002 36.7265 0.0003
# 4 -0.0002 -0.0006 -0.0002 14.2131 0.0001 13.9784
# 5 69.9416 11.7972 36.7265 0.0001 62.7457 -0.0001
# 6 0.0001 0.0005 0.0003 13.9784 -0.0001 48.4995
#
#
#
# Elastic Compliance Matrix: (Units=1/GPa)
#
#
# Indices 1 2 3 4 5 6 
#
# 1 0.008387 -0.002908 -0.000954 0.000000 -0.008243 0.000000
# 2 -0.002908 0.012718 -0.001113 0.000001 0.001502 0.000000
# 3 -0.000954 -0.001113 0.009200 0.000000 -0.004112 0.000000
# 4 0.000000 0.000001 0.000000 0.098190 -0.000001 -0.028300
# 5 -0.008243 0.001502 -0.004112 -0.000001 0.027250 0.000000
# 6 0.000000 0.000000 0.000000 -0.028300 0.000000 0.028775
#
#
# Mechanical properties :
#
#
# Convention : Reuss Voigt Hill
#
# Bulk Modulus (GPa) = 49.13074 75.72967 62.43021
# Shear Modulus (GPa) = 24.84392 45.69556 35.26974
#
# Velocity S-wave (km/s) = 2.99708 4.06466 3.57099
# Velocity P-wave (km/s) = 5.45345 7.02916 6.29084
#
# Compressibility (1/GPa) = 0.02035385
#
# Stress axis : x y z
#
# Youngs Moduli (GPa) = 119.23325 78.62772 108.69944
#
# Poissons Ratio (x) = 0.22866 0.10375
# Poissons Ratio (y) = 0.34675 0.12097
# Poissons Ratio (z) = 0.11380 0.08751
#
# Static dielectric constant tensor:
#      x y z
#    x 2.319360 0.000000 0.001730 
#    y 0.000000 2.108690 0.000000 
#    z 0.001730 0.000000 2.102060 
# 
# From -- ./inp_files/159938.got.cif
#   From: 2010.05.17/outbox.cif.g08.bks.cpg/sg15_80_cif.got.tgz:159938.got - 2010.06.03 18:47:42.
