data_PCOD9254183
_publ_section_title
;
Structure prediction by ZEFSAII (Michael W. Deem and Ramdas Pophale) SiO2 
 PCOD9254183
Probable space group: C 2/C
;
_chemical_formula_sum "Si O2"
_cell_formula_units_Z 60
_cell_length_a 9.301664
_cell_length_b 17.565801
_cell_length_c 16.122381
_cell_angle_alpha 90.000000
_cell_angle_beta 78.794972
_cell_angle_gamma 90.000000
_cell_volume 2584.040951
_symmetry_space_group_name_H-M "C 2/C"
_symmetry_group_IT_number 15
_symmetry_cell_setting 'monoclinic'
loop_
_space_group_symop_operation_xyz
x,y,z
-x,y,1/2-z
-x,-y,-z
x,-y,1/2+z
1/2+x,1/2+y,z
1/2-x,1/2+y,1/2-z
1/2-x,1/2-y,-z
1/2+x,1/2-y,1/2+z
loop_
_atom_site_type_symbol
_atom_site_label
_atom_site_fract_x
_atom_site_fract_y
_atom_site_fract_z
Si Si1 0.750813 0.901890 0.573236
Si Si2 0.820527 0.921561 0.847221
Si Si3 0.601747 0.136296 0.834620
Si Si4 0.338385 0.994614 0.284259
Si Si5 0.538305 0.911014 0.991432
Si Si6 0.199100 0.793541 0.776514
Si Si7 0.000000 0.198003 0.750000
Si Si8 0.099753 0.920253 0.109287
O O1 0.595180 0.876519 0.549327
O O2 0.791454 0.848491 0.644950
O O3 0.877156 0.906273 0.490570
O O4 0.718973 0.983350 0.619882
O O5 0.850511 0.840954 0.799090
O O6 0.758151 0.967381 0.775232
O O7 0.925296 0.989114 0.871495
O O8 0.693376 0.905869 0.928382
O O9 0.638672 0.091883 0.745250
O O10 0.472195 0.118003 0.913361
O O11 0.599660 0.223627 0.814283
O O12 0.740500 0.105778 0.873190
O O13 0.500000 0.029984 0.250000
O O14 0.500000 0.000000 0.000000
O O15 0.359648 0.752741 0.753326
O O16 0.998882 0.138879 0.828390
#
# Coordination Sequence:
#
# PCOD9254183 Si02
#       8
#     8   8   8   8   8   8   4   8
#     4  10  18  28  50  79 102 127 174 214 258 303
#     4  10  18  30  50  75 104 135 165 213 260 309
#     4   9  19  30  45  72 108 134 161 210 273 304
#     4  10  16  27  49  74 100 127 162 207 254 313
#     4  11  15  27  48  78 102 126 163 212 265 301
#     4  10  21  32  48  75 109 136 167 214 266 310
#     4  10  20  34  50  74 104 146 172 208 264 316
#     4   9  19  33  51  73 103 138 176 210 253 310
#
# _framework density 23.219446000000001
#
# number of rings (size 3 to 8) (size 9 to 14) (size 15 to 20)
#    0.000    2.133    5.333    0.800    1.867    5.867 
#    0.000    0.000    1.467   15.200    0.000    0.000 
#    0.000    0.000    0.000    0.000    0.000    0.000 
#
# Total GULP energy -167253.375198 kJ/mol
# GULP energy per Si atom -5575.112507 kJ/mol
# Density = 2.316660 g / cm^3
# Si number density = 23.219446 Si / 1000 Ang^3
#
#
#
# Elastic Constant Matrix: (Units=GPa)
#
#
# Indices 1 2 3 4 5 6 
#
# 1 34.9854 16.3651 27.5148 0.0000 -11.2686 0.0000
# 2 16.3651 173.2713 87.7462 0.0000 -17.8083 0.0000
# 3 27.5148 87.7462 191.1752 0.0000 -19.5494 0.0000
# 4 0.0000 0.0000 0.0000 17.0882 0.0000 -15.7222
# 5 -11.2686 -17.8083 -19.5494 0.0000 27.9457 0.0000
# 6 0.0000 0.0000 0.0000 -15.7222 0.0000 18.3848
#
#
#
# Elastic Compliance Matrix: (Units=1/GPa)
#
#
# Indices 1 2 3 4 5 6 
#
# 1 0.035380 -0.000233 -0.003814 0.000000 0.011449 0.000000
# 2 -0.000233 0.007695 -0.003238 0.000000 0.002544 0.000000
# 3 -0.003814 -0.003238 0.007429 0.000000 0.001596 0.000000
# 4 0.000000 0.000000 0.000000 0.274499 0.000000 0.234744
# 5 0.011449 0.002544 0.001596 0.000000 0.043138 0.000000
# 6 0.000000 0.000000 0.000000 0.234744 0.000000 0.255140
#
#
# Mechanical properties :
#
#
# Convention : Reuss Voigt Hill
#
# Bulk Modulus (GPa) = 27.82966 73.63156 50.73061
# Shear Modulus (GPa) = 7.69433 30.53748 19.11590
#
# Velocity S-wave (km/s) = 1.82234 3.63046 2.87238
# Velocity P-wave (km/s) = 4.05456 7.02522 5.73555
#
# Compressibility (1/GPa) = 0.03593288
#
# Stress axis : x y z
#
# Youngs Moduli (GPa) = 28.26452 129.96262 134.60626
#
# Poissons Ratio (x) = 0.03032 0.51341
# Poissons Ratio (y) = 0.00659 0.43584
# Poissons Ratio (z) = 0.10781 0.42081
#
# Static dielectric constant tensor:
#      x y z
#    x 2.009750 0.000000 0.016410 
#    y 0.000000 1.884070 0.000000 
#    z 0.016410 0.000000 1.867550 
# 
# From -- ./inp_files/145721.got.cif
#   From: 2010.05.17/outbox.cif.g08.bks.cpg/sg15_73_cif.got.tgz:145721.got - 2010.06.03 18:47:42.
