data_PCOD9254485
_publ_section_title
;
Structure prediction by ZEFSAII (Michael W. Deem and Ramdas Pophale) SiO2 
 PCOD9254485
Probable space group: C 2/C
;
_chemical_formula_sum "Si O2"
_cell_formula_units_Z 60
_cell_length_a 17.983694
_cell_length_b 6.988716
_cell_length_c 22.802424
_cell_angle_alpha 90.000000
_cell_angle_beta 111.100077
_cell_angle_gamma 90.000000
_cell_volume 2673.727254
_symmetry_space_group_name_H-M "C 2/C"
_symmetry_group_IT_number 15
_symmetry_cell_setting 'monoclinic'
loop_
_space_group_symop_operation_xyz
x,y,z
-x,y,1/2-z
-x,-y,-z
x,-y,1/2+z
1/2+x,1/2+y,z
1/2-x,1/2+y,1/2-z
1/2-x,1/2-y,-z
1/2+x,1/2-y,1/2+z
loop_
_atom_site_type_symbol
_atom_site_label
_atom_site_fract_x
_atom_site_fract_y
_atom_site_fract_z
Si Si1 0.356302 0.990079 0.340799
Si Si2 0.565884 0.552407 0.310346
Si Si3 0.690309 0.151457 0.551014
Si Si4 0.204355 0.241046 0.275834
Si Si5 0.350381 0.529588 0.547703
Si Si6 0.750000 0.750000 0.500000
Si Si7 0.195064 0.513635 0.376873
Si Si8 0.016502 0.517495 0.821502
O O1 0.355202 0.948229 0.409700
O O2 0.325929 0.801255 0.296685
O O3 0.443343 0.037510 0.341417
O O4 0.291105 0.150478 0.306452
O O5 0.500000 0.456231 0.250000
O O6 0.641733 0.602008 0.290905
O O7 0.598779 0.463258 0.379530
O O8 0.525676 0.751662 0.319949
O O9 0.748858 0.492957 0.466221
O O10 0.644147 0.285348 0.491766
O O11 0.752957 0.299769 0.597228
O O12 0.200801 0.435529 0.312771
O O13 0.348890 0.325092 0.516788
O O14 0.776171 0.654882 0.572831
O O15 0.103062 0.553000 0.363887
O O16 0.000000 0.459988 0.750000
#
# Coordination Sequence:
#
# PCOD9254485 Si02
#       8
#     8   8   8   8   8   4   8   8
#     4  12  21  36  59  87 118 157 198 258 306 355
#     4  10  17  37  61  85 113 162 199 241 302 371
#     4  10  22  35  61  91 122 154 203 257 296 355
#     4  11  21  35  59  85 120 153 204 245 304 366
#     4  10  19  37  59  92 118 159 206 246 300 362
#     4  10  16  30  66  80 108 154 208 234 278 368
#     4  10  19  37  58  85 111 157 201 236 300 362
#     4  10  19  35  58  82 116 157 195 241 301 365
#
# _framework density 22.440583
#
# number of rings (size 3 to 8) (size 9 to 14) (size 15 to 20)
#    0.000    1.600    8.000    0.800    0.000    0.000 
#    0.000    2.667    0.000   11.200    0.000    0.000 
#    0.000    0.000    0.000    0.000    0.000    0.000 
#
# Total GULP energy -167250.655999 kJ/mol
# GULP energy per Si atom -5575.021867 kJ/mol
# Density = 2.238951 g / cm^3
# Si number density = 22.440583 Si / 1000 Ang^3
#
#
#
# Elastic Constant Matrix: (Units=GPa)
#
#
# Indices 1 2 3 4 5 6 
#
# 1 114.6654 13.6027 27.1721 0.0000 -8.8232 0.0000
# 2 13.6027 74.8925 19.2085 0.0000 2.2450 0.0000
# 3 27.1721 19.2085 146.3440 0.0000 3.9859 0.0000
# 4 0.0000 0.0000 0.0000 6.1754 0.0000 16.8736
# 5 -8.8232 2.2450 3.9859 0.0000 39.6476 0.0000
# 6 0.0000 0.0000 0.0000 16.8736 0.0000 11.4692
#
#
#
# Elastic Compliance Matrix: (Units=1/GPa)
#
#
# Indices 1 2 3 4 5 6 
#
# 1 0.009452 -0.001367 -0.001640 0.000000 0.002346 0.000000
# 2 -0.001367 0.014030 -0.001562 0.000000 -0.000941 0.000000
# 3 -0.001640 -0.001562 0.007370 0.000000 -0.001017 0.000000
# 4 0.000000 0.000000 0.000000 -0.053622 0.000000 0.078889
# 5 0.002346 -0.000941 -0.001017 0.000000 0.025900 0.000000
# 6 0.000000 0.000000 0.000000 0.078889 0.000000 -0.028872
#
#
# Mechanical properties :
#
#
# Convention : Reuss Voigt Hill
#
# Bulk Modulus (GPa) = 46.04967 50.65205 48.35086
# Shear Modulus (GPa) = -533.82799 29.85298 -251.98750
#
# Velocity S-wave (km/s) = -15.44026 3.65130 -10.60824
# Velocity P-wave (km/s) = 17.24249 6.35583 11.33373
#
# Compressibility (1/GPa) = 0.02171568
#
# Stress axis : x y z
#
# Youngs Moduli (GPa) = 105.79591 71.27810 135.67835
#
# Poissons Ratio (x) = 0.09741 0.22245
# Poissons Ratio (y) = 0.14458 0.21194
# Poissons Ratio (z) = 0.17346 0.11134
#
# Static dielectric constant tensor:
#      x y z
#    x 1.845090 0.000000 -0.002570 
#    y 0.000000 2.079240 0.000000 
#    z -0.002570 0.000000 1.932040 
# 
# From -- ./inp_files/276333.got.cif
#   From: 2010.05.17/outbox.cif.g08.bks.cpg/sg15_139_cif.got.tgz:276333.got - 2010.06.03 18:47:42.
