data_PCOD9254666
_publ_section_title
;
Structure prediction by ZEFSAII (Michael W. Deem and Ramdas Pophale) SiO2 
 PCOD9254666
Probable space group: C 2/C
;
_chemical_formula_sum "Si O2"
_cell_formula_units_Z 60
_cell_length_a 14.877383
_cell_length_b 11.355917
_cell_length_c 15.334020
_cell_angle_alpha 90.000000
_cell_angle_beta 86.953161
_cell_angle_gamma 90.000000
_cell_volume 2586.964284
_symmetry_space_group_name_H-M "C 2/C"
_symmetry_group_IT_number 15
_symmetry_cell_setting 'monoclinic'
loop_
_space_group_symop_operation_xyz
x,y,z
-x,y,1/2-z
-x,-y,-z
x,-y,1/2+z
1/2+x,1/2+y,z
1/2-x,1/2+y,1/2-z
1/2-x,1/2-y,-z
1/2+x,1/2-y,1/2+z
loop_
_atom_site_type_symbol
_atom_site_label
_atom_site_fract_x
_atom_site_fract_y
_atom_site_fract_z
Si Si1 0.831482 0.930876 0.289799
Si Si2 0.355628 0.492997 0.966282
Si Si3 0.245094 0.442764 0.631408
Si Si4 0.605185 0.980458 0.252337
Si Si5 0.494148 0.308709 0.998706
Si Si6 0.000000 0.921446 0.750000
Si Si7 0.582339 0.777160 0.813282
Si Si8 0.877491 0.255268 0.142481
O O1 0.783438 0.012460 0.222001
O O2 0.931187 0.988722 0.298407
O O3 0.799621 0.950914 0.389659
O O4 0.847605 0.808604 0.239177
O O5 0.431830 0.588887 0.988300
O O6 0.288850 0.483034 0.051857
O O7 0.409611 0.369753 0.953249
O O8 0.141742 0.471868 0.656900
O O9 0.286340 0.312266 0.618117
O O10 0.500000 0.953247 0.250000
O O11 0.617973 0.090542 0.316343
O O12 0.645190 0.861676 0.291752
O O13 0.453944 0.267481 0.092654
O O14 0.554352 0.215629 0.940855
O O15 0.060121 0.839472 0.808756
O O16 0.500000 0.782730 0.750000
#
# Coordination Sequence:
#
# PCOD9254666 Si02
#       8
#     8   8   8   8   8   4   8   8
#     4  11  18  34  65  97 128 159 217 267 325 370
#     4  10  18  33  60 103 133 159 214 282 324 376
#     4  10  24  39  65  95 125 173 221 277 321 383
#     4  11  26  46  65  88 133 183 214 264 337 399
#     4  10  18  33  60  98 134 166 211 267 327 388
#     4  10  16  32  60  94 122 162 196 256 312 380
#     4  11  21  36  61  90 129 172 206 259 326 392
#     4  10  21  38  64  94 130 166 217 262 323 387
#
# _framework density 23.193207000000001
#
# number of rings (size 3 to 8) (size 9 to 14) (size 15 to 20)
#    0.000    1.600    5.333    0.000    1.867    0.533 
#    0.000    4.667    0.000    3.200    0.000    0.000 
#    0.000    0.000    0.000    0.000    0.000    0.000 
#
# Total GULP energy -167348.451464 kJ/mol
# GULP energy per Si atom -5578.281715 kJ/mol
# Density = 2.314042 g / cm^3
# Si number density = 23.193207 Si / 1000 Ang^3
#
#
#
# Elastic Constant Matrix: (Units=GPa)
#
#
# Indices 1 2 3 4 5 6 
#
# 1 50.9703 3.2710 18.1869 0.0000 -20.4070 0.0000
# 2 3.2710 77.5071 13.1686 0.0000 -16.7658 0.0000
# 3 18.1869 13.1686 120.8650 0.0000 -31.8288 0.0000
# 4 0.0000 0.0000 0.0000 17.8605 0.0000 -9.4342
# 5 -20.4070 -16.7658 -31.8288 0.0000 42.9851 0.0000
# 6 0.0000 0.0000 0.0000 -9.4342 0.0000 21.7645
#
#
#
# Elastic Compliance Matrix: (Units=1/GPa)
#
#
# Indices 1 2 3 4 5 6 
#
# 1 0.024467 0.001625 -0.000786 0.000000 0.011667 0.000000
# 2 0.001625 0.014200 -0.000161 0.000000 0.006190 0.000000
# 3 -0.000786 -0.000161 0.010304 0.000000 0.007193 0.000000
# 4 0.000000 0.000000 0.000000 0.072616 0.000000 0.031477
# 5 0.011667 0.006190 0.007193 0.000000 0.036544 0.000000
# 6 0.000000 0.000000 0.000000 0.031477 0.000000 0.059591
#
#
# Mechanical properties :
#
#
# Convention : Reuss Voigt Hill
#
# Bulk Modulus (GPa) = 19.87095 35.39950 27.63523
# Shear Modulus (GPa) = 21.44620 30.83640 26.14130
#
# Velocity S-wave (km/s) = 3.04415 3.65025 3.36089
# Velocity P-wave (km/s) = 4.57624 5.74994 5.19633
#
# Compressibility (1/GPa) = 0.05032471
#
# Stress axis : x y z
#
# Youngs Moduli (GPa) = 40.87194 70.42287 97.05048
#
# Poissons Ratio (x) = -0.11442 0.07630
# Poissons Ratio (y) = -0.06641 0.01567
# Poissons Ratio (z) = 0.03213 0.01137
#
# Static dielectric constant tensor:
#      x y z
#    x 2.019420 0.000000 -0.081780 
#    y 0.000000 1.885170 0.000000 
#    z -0.081780 0.000000 1.991980 
# 
# From -- ./inp_files/210262.got.cif
#   From: 2010.05.17/outbox.cif.g08.bks.cpg/sg15_106_cif.got.tgz:210262.got - 2010.06.03 18:47:42.
