data_PCOD9254006
_publ_section_title
;
Structure prediction by ZEFSAII (Michael W. Deem and Ramdas Pophale) SiO2 
 PCOD9254006
Probable space group: C 2/C
;
_chemical_formula_sum "Si O2"
_cell_formula_units_Z 44
_cell_length_a 12.047171
_cell_length_b 7.632089
_cell_length_c 19.164106
_cell_angle_alpha 90.000000
_cell_angle_beta 61.646843
_cell_angle_gamma 90.000000
_cell_volume 1550.665278
_symmetry_space_group_name_H-M "C 2/C"
_symmetry_group_IT_number 15
_symmetry_cell_setting 'monoclinic'
loop_
_space_group_symop_operation_xyz
x,y,z
-x,y,1/2-z
-x,-y,-z
x,-y,1/2+z
1/2+x,1/2+y,z
1/2-x,1/2+y,1/2-z
1/2-x,1/2-y,-z
1/2+x,1/2-y,1/2+z
loop_
_atom_site_type_symbol
_atom_site_label
_atom_site_fract_x
_atom_site_fract_y
_atom_site_fract_z
Si Si1 0.014162 0.295733 0.328947
Si Si2 0.719266 0.818055 0.781460
Si Si3 0.853942 0.528135 0.972129
Si Si4 0.835201 0.966635 0.370437
Si Si5 0.380909 0.626486 0.554761
Si Si6 0.500000 0.191291 0.250000
O O1 0.156413 0.241196 0.297612
O O2 0.000000 0.318515 0.250000
O O3 0.973161 0.463422 0.386512
O O4 0.914999 0.135808 0.375339
O O5 0.777785 0.961095 0.816159
O O6 0.657636 0.673697 0.853488
O O7 0.622212 0.882942 0.752395
O O8 0.743532 0.559011 0.947930
O O9 0.779395 0.402572 0.046798
O O10 0.894896 0.682342 0.014305
O O11 0.933925 0.817450 0.326444
O O12 0.500000 0.500000 0.500000
#
# Coordination Sequence:
#
# PCOD9254006 Si02
#       6
#     8   8   8   8   8   4
#     4  10  15  32  54  80 113 139 182 237 277 323
#     4  10  21  31  54  86 112 147 193 238 272 343
#     4  10  17  31  53  85 107 146 188 231 286 333
#     4  10  18  36  60  82 113 149 191 234 284 339
#     4  10  17  27  49  83 111 139 190 230 272 341
#     4  12  22  36  60  80 114 160 186 224 300 332
#
# _framework density 28.374917
#
# number of rings (size 3 to 8) (size 9 to 14) (size 15 to 20)
#    0.000    1.818   10.000    1.091    0.000    0.000 
#    0.000    0.909    6.000    4.364    0.000    0.000 
#    0.000    0.000    0.000    0.000    0.000    0.000 
#
# Total GULP energy -122999.649789 kJ/mol
# GULP energy per Si atom -5590.893172 kJ/mol
# Density = 2.831033 g / cm^3
# Si number density = 28.374917 Si / 1000 Ang^3
#
#
#
# Elastic Constant Matrix: (Units=GPa)
#
#
# Indices 1 2 3 4 5 6 
#
# 1 204.5765 45.6184 41.4801 0.0000 -18.6674 0.0000
# 2 45.6184 87.1423 11.5797 0.0000 -7.9522 0.0000
# 3 41.4801 11.5797 148.1194 0.0000 -25.8751 0.0000
# 4 0.0000 0.0000 0.0000 10.2964 0.0000 -4.9059
# 5 -18.6674 -7.9522 -25.8751 0.0000 38.6241 0.0000
# 6 0.0000 0.0000 0.0000 -4.9059 0.0000 44.2559
#
#
#
# Elastic Compliance Matrix: (Units=1/GPa)
#
#
# Indices 1 2 3 4 5 6 
#
# 1 0.005883 -0.002789 -0.001170 0.000000 0.001485 0.000000
# 2 -0.002789 0.013058 -0.000006 0.000000 0.001336 0.000000
# 3 -0.001170 -0.000006 0.007906 0.000000 0.004729 0.000000
# 4 0.000000 0.000000 0.000000 0.102537 0.000000 0.011367
# 5 0.001485 0.001336 0.004729 0.000000 0.030052 0.000000
# 6 0.000000 0.000000 0.000000 0.011367 0.000000 0.023856
#
#
# Mechanical properties :
#
#
# Convention : Reuss Voigt Hill
#
# Bulk Modulus (GPa) = 52.86401 70.79941 61.83171
# Shear Modulus (GPa) = 25.31298 41.37928 33.34613
#
# Velocity S-wave (km/s) = 2.99003 3.82292 3.43183
# Velocity P-wave (km/s) = 5.53094 6.67022 6.12712
#
# Compressibility (1/GPa) = 0.01891646
#
# Stress axis : x y z
#
# Youngs Moduli (GPa) = 169.98950 76.58089 126.49206
#
# Poissons Ratio (x) = 0.21355 0.14799
# Poissons Ratio (y) = 0.47403 0.00082
# Poissons Ratio (z) = 0.19888 0.00050
#
# Static dielectric constant tensor:
#      x y z
#    x 2.117970 0.000000 -0.004840 
#    y 0.000000 2.391100 0.000000 
#    z -0.004840 0.000000 2.254350 
# 
# From -- ./inp_files/236491.got.cif
#   From: 2010.05.17/outbox.cif.g08.bks.cpg/sg15_119_cif.got.tgz:236491.got - 2010.06.03 18:47:42.
