data_PCOD9254460
_publ_section_title
;
Structure prediction by ZEFSAII (Michael W. Deem and Ramdas Pophale) SiO2 
 PCOD9254460
Probable space group: C 2/C
;
_chemical_formula_sum "Si O2"
_cell_formula_units_Z 44
_cell_length_a 12.126954
_cell_length_b 17.144808
_cell_length_c 14.431724
_cell_angle_alpha 90.000000
_cell_angle_beta 43.573497
_cell_angle_gamma 90.000000
_cell_volume 2068.240696
_symmetry_space_group_name_H-M "C 2/C"
_symmetry_group_IT_number 15
_symmetry_cell_setting 'monoclinic'
loop_
_space_group_symop_operation_xyz
x,y,z
-x,y,1/2-z
-x,-y,-z
x,-y,1/2+z
1/2+x,1/2+y,z
1/2-x,1/2+y,1/2-z
1/2-x,1/2-y,-z
1/2+x,1/2-y,1/2+z
loop_
_atom_site_type_symbol
_atom_site_label
_atom_site_fract_x
_atom_site_fract_y
_atom_site_fract_z
Si Si1 0.709844 0.835965 0.485473
Si Si2 0.990623 0.738045 0.976003
Si Si3 0.000000 0.440118 0.750000
Si Si4 0.493822 0.391184 0.411579
Si Si5 0.840646 0.166928 0.290036
Si Si6 0.722313 0.523945 0.299371
O O1 0.750000 0.750000 0.500000
O O2 0.610098 0.823070 0.453036
O O3 0.598532 0.882442 0.624165
O O4 0.878902 0.879138 0.393677
O O5 0.813176 0.704420 0.065065
O O6 0.965843 0.808156 0.066148
O O7 0.086092 0.774251 0.831574
O O8 0.887640 0.489922 0.751557
O O9 0.645118 0.446121 0.306666
O O10 0.389246 0.436856 0.553217
O O11 0.770466 0.090688 0.282201
O O12 0.000000 0.144866 0.250000
#
# Coordination Sequence:
#
# PCOD9254460 Si02
#       6
#     8   8   4   8   8   8
#     4   9  17  29  54  86 118 147 188 250 289 349
#     4  10  20  37  59  88 115 156 200 247 298 353
#     4  10  16  30  56  84 114 156 194 236 294 354
#     4   8  17  33  55  86 114 151 191 238 295 359
#     4  11  22  38  60  82 119 161 204 247 301 354
#     4   9  17  33  56  82 116 155 198 234 293 354
#
# _framework density 21.27412
#
# number of rings (size 3 to 8) (size 9 to 14) (size 15 to 20)
#    0.000    2.545    1.818    1.636    0.000    0.000 
#    1.636    1.818    4.000    2.182    0.000    0.000 
#    0.000    0.000    0.000    0.000    0.000    0.000 
#
# Total GULP energy -122688.734646 kJ/mol
# GULP energy per Si atom -5576.760666 kJ/mol
# Density = 2.122570 g / cm^3
# Si number density = 21.274120 Si / 1000 Ang^3
#
#
#
# Elastic Constant Matrix: (Units=GPa)
#
#
# Indices 1 2 3 4 5 6 
#
# 1 153.8136 37.5331 7.2188 0.0001 -23.9295 -0.0001
# 2 37.5331 59.9937 12.9164 0.0000 -15.1806 0.0000
# 3 7.2188 12.9164 47.4614 0.0001 -7.1877 -0.0001
# 4 0.0001 0.0000 0.0001 10.8748 -0.0001 -13.2260
# 5 -23.9295 -15.1806 -7.1877 -0.0001 26.5114 0.0000
# 6 -0.0001 0.0000 -0.0001 -13.2260 0.0000 38.6728
#
#
#
# Elastic Compliance Matrix: (Units=1/GPa)
#
#
# Indices 1 2 3 4 5 6 
#
# 1 0.008272 -0.003951 0.000631 0.000000 0.005375 0.000000
# 2 -0.003951 0.022049 -0.004200 0.000000 0.007920 0.000000
# 3 0.000631 -0.004200 0.022774 0.000000 0.004339 0.000000
# 4 0.000000 0.000000 0.000000 0.157442 0.000000 0.053845
# 5 0.005375 0.007920 0.004339 0.000000 0.048283 0.000000
# 6 0.000000 0.000000 0.000000 0.053845 0.000000 0.044273
#
#
# Mechanical properties :
#
#
# Convention : Reuss Voigt Hill
#
# Bulk Modulus (GPa) = 26.27783 41.84504 34.06143
# Shear Modulus (GPa) = 15.11411 28.78517 21.94964
#
# Velocity S-wave (km/s) = 2.66831 3.68239 3.21558
# Velocity P-wave (km/s) = 4.67675 6.14753 5.46187
#
# Compressibility (1/GPa) = 0.03805490
#
# Stress axis : x y z
#
# Youngs Moduli (GPa) = 120.88833 45.35455 43.90987
#
# Poissons Ratio (x) = 0.17919 -0.02771
# Poissons Ratio (y) = 0.47762 0.18442
# Poissons Ratio (z) = -0.07629 0.19049
#
# Static dielectric constant tensor:
#      x y z
#    x 1.782740 0.000000 -0.032950 
#    y 0.000000 1.736550 0.000000 
#    z -0.032950 0.000000 1.758820 
# 
# From -- ./inp_files/145451.got.cif
#   From: 2010.05.17/outbox.cif.g08.bks.cpg/sg15_73_cif.got.tgz:145451.got - 2010.06.03 18:47:42.
