data_PCOD9254432
_publ_section_title
;
Structure prediction by ZEFSAII (Michael W. Deem and Ramdas Pophale) SiO2 
 PCOD9254432
Probable space group: C 2/C
;
_chemical_formula_sum "Si O2"
_cell_formula_units_Z 40
_cell_length_a 11.040573
_cell_length_b 20.901044
_cell_length_c 22.403986
_cell_angle_alpha 90.000000
_cell_angle_beta 157.204707
_cell_angle_gamma 90.000000
_cell_volume 2003.037940
_symmetry_space_group_name_H-M "C 2/C"
_symmetry_group_IT_number 15
_symmetry_cell_setting 'monoclinic'
loop_
_space_group_symop_operation_xyz
x,y,z
-x,y,1/2-z
-x,-y,-z
x,-y,1/2+z
1/2+x,1/2+y,z
1/2-x,1/2+y,1/2-z
1/2-x,1/2-y,-z
1/2+x,1/2-y,1/2+z
loop_
_atom_site_type_symbol
_atom_site_label
_atom_site_fract_x
_atom_site_fract_y
_atom_site_fract_z
Si Si1 0.601280 0.693201 0.620934
Si Si2 0.900204 0.331943 0.844091
Si Si3 0.697338 0.832958 0.156292
Si Si4 0.641305 0.682988 0.108365
Si Si5 0.136661 0.569600 0.072857
O O1 0.702172 0.767919 0.666909
O O2 0.742585 0.662647 0.745293
O O3 0.607390 0.665386 0.556252
O O4 0.228227 0.689855 0.464185
O O5 0.650566 0.346298 0.678714
O O6 0.976918 0.391307 0.920676
O O7 0.606699 0.759300 0.102786
O O8 0.000000 0.843147 0.250000
O O9 0.451827 0.884321 0.021868
O O10 0.000000 0.671022 0.250000
O O11 0.500000 0.563565 0.250000
O O12 0.000000 0.500000 0.000000
#
# Coordination Sequence:
#
# PCOD9254432 Si02
#       5
#     8   8   8   8   8
#     4   9  14  27  58  86 110 135 170 229 283 333
#     4   9  16  30  52  83 113 139 182 225 270 331
#     4  10  16  30  54  80 112 138 179 223 271 325
#     4   8  14  25  52  89 109 135 169 220 278 332
#     4  12  25  38  53  77 111 153 191 228 265 323
#
# _framework density 19.969666
#
# number of rings (size 3 to 8) (size 9 to 14) (size 15 to 20)
#    0.000    2.400    4.000    3.000    0.000    0.000 
#    0.000    4.000    0.000    1.200    0.000    0.000 
#    0.000    0.000    0.000    0.000    0.000    0.000 
#
# Total GULP energy -111349.835987 kJ/mol
# GULP energy per Si atom -5567.491799 kJ/mol
# Density = 1.992421 g / cm^3
# Si number density = 19.969666 Si / 1000 Ang^3
#
#
#
# Elastic Constant Matrix: (Units=GPa)
#
#
# Indices 1 2 3 4 5 6 
#
# 1 88.2913 30.4090 51.4144 -0.0044 -49.0606 -0.0015
# 2 30.4090 57.4507 27.1700 0.0075 -10.7044 -0.0058
# 3 51.4144 27.1700 102.5017 0.0643 -51.0647 -0.0057
# 4 -0.0044 0.0075 0.0643 41.9165 0.0081 -3.5502
# 5 -49.0606 -10.7044 -51.0647 0.0081 59.6513 -0.0009
# 6 -0.0015 -0.0058 -0.0057 -3.5502 -0.0009 14.7304
#
#
#
# Elastic Compliance Matrix: (Units=1/GPa)
#
#
# Indices 1 2 3 4 5 6 
#
# 1 0.025364 -0.009494 -0.001155 0.000003 0.018169 0.000000
# 2 -0.009494 0.023548 -0.005692 0.000006 -0.008456 0.000007
# 3 -0.001155 -0.005692 0.018939 -0.000031 0.014242 -0.000002
# 4 0.000003 0.000006 -0.000031 0.024354 -0.000027 0.005870
# 5 0.018169 -0.008456 0.014242 -0.000027 0.042382 0.000000
# 6 0.000000 0.000007 -0.000002 0.005870 0.000000 0.069301
#
#
# Mechanical properties :
#
#
# Convention : Reuss Voigt Hill
#
# Bulk Modulus (GPa) = 28.43359 51.80339 40.11849
# Shear Modulus (GPa) = 20.13752 32.54301 26.34027
#
# Velocity S-wave (km/s) = 3.17899 4.04124 3.63576
# Velocity P-wave (km/s) = 5.26725 6.91179 6.14478
#
# Compressibility (1/GPa) = 0.03516968
#
# Stress axis : x y z
#
# Youngs Moduli (GPa) = 39.42545 42.46650 52.80169
#
# Poissons Ratio (x) = 0.40318 0.06096
# Poissons Ratio (y) = 0.37431 0.30055
# Poissons Ratio (z) = 0.04552 0.24172
#
# Static dielectric constant tensor:
#      x y z
#    x 1.888970 -0.000030 0.006730 
#    y -0.000030 1.618650 -0.000020 
#    z 0.006730 -0.000020 1.787060 
# 
# From -- ./inp_files/168339.got.cif
#   From: 2010.05.17/outbox.cif.g08.bks.cpg/sg15_85_cif.got.tgz:168339.got - 2010.06.03 18:47:42.
