data_PCOD9254637
_publ_section_title
;
Structure prediction by ZEFSAII (Michael W. Deem and Ramdas Pophale) SiO2 
 PCOD9254637
Probable space group: C 2/C
;
_chemical_formula_sum "Si O2"
_cell_formula_units_Z 48
_cell_length_a 16.707274
_cell_length_b 7.963726
_cell_length_c 18.357736
_cell_angle_alpha 90.000000
_cell_angle_beta 127.054739
_cell_angle_gamma 90.000000
_cell_volume 1949.290964
_symmetry_space_group_name_H-M "C 2/C"
_symmetry_group_IT_number 15
_symmetry_cell_setting 'monoclinic'
loop_
_space_group_symop_operation_xyz
x,y,z
-x,y,1/2-z
-x,-y,-z
x,-y,1/2+z
1/2+x,1/2+y,z
1/2-x,1/2+y,1/2-z
1/2-x,1/2-y,-z
1/2+x,1/2-y,1/2+z
loop_
_atom_site_type_symbol
_atom_site_label
_atom_site_fract_x
_atom_site_fract_y
_atom_site_fract_z
Si Si1 0.030442 0.130249 0.690113
Si Si2 0.457036 0.998184 0.146202
Si Si3 0.767650 0.021285 0.975313
Si Si4 0.225505 0.835784 0.383167
Si Si5 0.850062 0.516546 0.832603
Si Si6 0.658062 0.625233 0.633747
O O1 0.137627 0.197889 0.777894
O O2 0.064978 0.051259 0.631833
O O3 0.000000 0.039240 0.750000
O O4 0.960498 0.295078 0.639482
O O5 0.500000 0.968268 0.250000
O O6 0.347450 0.917036 0.080135
O O7 0.541205 0.935846 0.137188
O O8 0.751255 0.835297 0.935488
O O9 0.834349 0.103285 0.949227
O O10 0.804225 0.984461 0.077036
O O11 0.321623 0.885936 0.389602
O O12 0.762429 0.553010 0.724995
O O13 0.846783 0.322906 0.853654
#
# Coordination Sequence:
#
# PCOD9254637 Si02
#       6
#     8   8   8   8   8   8
#     4   9  16  33  56  76  99 144 185 205 263 330
#     4  10  16  32  58  78 101 144 186 211 266 330
#     4  11  20  35  58  81 109 141 185 223 269 317
#     4  10  21  34  56  82 110 143 180 225 268 322
#     4  10  20  34  58  79 109 144 184 218 270 320
#     4  10  19  33  58  82 103 142 185 223 262 321
#
# _framework density 24.624338000000002
#
# number of rings (size 3 to 8) (size 9 to 14) (size 15 to 20)
#    0.000    2.000    5.000    2.000    0.000    1.333 
#    0.000    0.833   22.000    0.000    0.000    0.000 
#    0.000    0.000    0.000    0.000    0.000    0.000 
#
# Total GULP energy -133861.996609 kJ/mol
# GULP energy per Si atom -5577.583192 kJ/mol
# Density = 2.456829 g / cm^3
# Si number density = 24.624338 Si / 1000 Ang^3
#
#
#
# Elastic Constant Matrix: (Units=GPa)
#
#
# Indices 1 2 3 4 5 6 
#
# 1 193.1711 18.5716 17.9605 0.0000 -39.9925 0.0000
# 2 18.5716 19.2073 -10.2607 0.0000 -2.8787 0.0000
# 3 17.9605 -10.2607 40.1610 0.0000 -1.0092 0.0000
# 4 0.0000 0.0000 0.0000 9.4224 0.0000 -9.9040
# 5 -39.9925 -2.8787 -1.0092 0.0000 37.3203 0.0000
# 6 0.0000 0.0000 0.0000 -9.9040 0.0000 34.1369
#
#
#
# Elastic Compliance Matrix: (Units=1/GPa)
#
#
# Indices 1 2 3 4 5 6 
#
# 1 0.008395 -0.010202 -0.006159 0.000000 0.008043 0.000000
# 2 -0.010202 0.073665 0.023267 0.000000 -0.004621 0.000000
# 3 -0.006159 0.023267 0.033501 0.000000 -0.003899 0.000000
# 4 0.000000 0.000000 0.000000 0.152695 0.000000 0.044301
# 5 0.008043 -0.004621 -0.003899 0.000000 0.034952 0.000000
# 6 0.000000 0.000000 0.000000 0.044301 0.000000 0.042147
#
#
# Mechanical properties :
#
#
# Convention : Reuss Voigt Hill
#
# Bulk Modulus (GPa) = 7.72962 33.89801 20.81382
# Shear Modulus (GPa) = 13.34517 31.26048 22.30282
#
# Velocity S-wave (km/s) = 2.33051 3.56686 3.01279
# Velocity P-wave (km/s) = 3.22297 5.54611 4.53579
#
# Compressibility (1/GPa) = 0.12937240
#
# Stress axis : x y z
#
# Youngs Moduli (GPa) = 119.11280 13.57501 29.85017
#
# Poissons Ratio (x) = 0.13850 0.18385
# Poissons Ratio (y) = 1.21522 -0.69452
# Poissons Ratio (z) = 0.73361 -0.31585
#
# Static dielectric constant tensor:
#      x y z
#    x 2.148630 0.000000 -0.046040 
#    y 0.000000 1.976880 0.000000 
#    z -0.046040 0.000000 1.980730 
# 
# From -- ./inp_files/247116.got.cif
#   From: 2010.05.17/outbox.cif.g08.bks.cpg/sg15_124_cif.got.tgz:247116.got - 2010.06.03 18:47:42.
