data_PCOD9254532
_publ_section_title
;
Structure prediction by ZEFSAII (Michael W. Deem and Ramdas Pophale) SiO2 
 PCOD9254532
Probable space group: C 2/C
;
_chemical_formula_sum "Si O2"
_cell_formula_units_Z 60
_cell_length_a 19.066582
_cell_length_b 12.198323
_cell_length_c 31.679352
_cell_angle_alpha 90.000000
_cell_angle_beta 28.379064
_cell_angle_gamma 90.000000
_cell_volume 3502.027827
_symmetry_space_group_name_H-M "C 2/C"
_symmetry_group_IT_number 15
_symmetry_cell_setting 'monoclinic'
loop_
_space_group_symop_operation_xyz
x,y,z
-x,y,1/2-z
-x,-y,-z
x,-y,1/2+z
1/2+x,1/2+y,z
1/2-x,1/2+y,1/2-z
1/2-x,1/2-y,-z
1/2+x,1/2-y,1/2+z
loop_
_atom_site_type_symbol
_atom_site_label
_atom_site_fract_x
_atom_site_fract_y
_atom_site_fract_z
Si Si1 0.950119 0.285192 0.681318
Si Si2 0.041795 0.925642 0.080901
Si Si3 0.638834 0.004901 0.567088
Si Si4 0.693844 0.441601 0.911493
Si Si5 0.000000 0.690650 0.250000
Si Si6 0.155089 0.710271 0.509764
Si Si7 0.150821 0.350428 0.145517
Si Si8 0.120150 0.869419 0.858236
O O1 0.981811 0.252929 0.713753
O O2 0.779412 0.317459 0.765826
O O3 0.994168 0.186231 0.627691
O O4 0.043458 0.395103 0.621619
O O5 0.095799 0.912674 0.003886
O O6 0.916756 0.019158 0.147401
O O7 0.189401 0.971975 0.024765
O O8 0.611100 0.085457 0.542477
O O9 0.615418 0.077933 0.621938
O O10 0.852308 0.381977 0.831573
O O11 0.737347 0.569795 0.888622
O O12 0.621103 0.403116 0.906930
O O13 0.250000 0.750000 0.500000
O O14 0.262380 0.741551 0.414321
O O15 0.010770 0.785040 0.581901
O O16 0.000000 0.331084 0.250000
#
# Coordination Sequence:
#
# PCOD9254532 Si02
#       8
#     8   8   8   8   4   8   8   8
#     4  11  23  36  62  86 115 152 190 248 285 346
#     4  11  21  37  60  88 111 153 195 237 293 347
#     4  10  20  37  60  79 114 151 194 229 285 346
#     4  10  18  33  57  87 115 141 195 250 285 323
#     4  10  18  36  56  88 108 144 194 242 290 328
#     4  10  20  36  53  80 119 156 178 236 289 347
#     4  10  16  31  56  85 108 142 193 239 281 325
#     4  11  22  36  56  89 121 144 192 247 294 335
#
# _framework density 17.132930000000002
#
# number of rings (size 3 to 8) (size 9 to 14) (size 15 to 20)
#    0.000    1.600    7.333    1.600    1.867    0.000 
#    0.000    0.000    1.467    0.800    0.000    0.000 
#    0.000    0.000    0.000    0.000    0.000    0.000 
#
# Total GULP energy -167238.080880 kJ/mol
# GULP energy per Si atom -5574.602696 kJ/mol
# Density = 1.709394 g / cm^3
# Si number density = 17.132930 Si / 1000 Ang^3
#
#
#
# Elastic Constant Matrix: (Units=GPa)
#
#
# Indices 1 2 3 4 5 6 
#
# 1 77.0843 48.2910 42.7884 -0.0001 -17.9143 -0.0001
# 2 48.2910 101.4905 53.8233 0.0001 6.7181 0.0000
# 3 42.7884 53.8233 93.8561 -0.0004 -5.5749 -0.0002
# 4 -0.0001 0.0001 -0.0004 13.6369 0.0003 -1.2913
# 5 -17.9143 6.7181 -5.5749 0.0003 23.7533 0.0002
# 6 -0.0001 0.0000 -0.0002 -1.2913 0.0002 21.9504
#
#
#
# Elastic Compliance Matrix: (Units=1/GPa)
#
#
# Indices 1 2 3 4 5 6 
#
# 1 0.029672 -0.013517 -0.004279 0.000000 0.025196 0.000000
# 2 -0.013517 0.021212 -0.007062 0.000000 -0.017851 0.000000
# 3 -0.004279 -0.007062 0.016817 0.000000 0.002717 0.000000
# 4 0.000000 0.000000 0.000000 0.073741 -0.000001 0.004338
# 5 0.025196 -0.017851 0.002717 -0.000001 0.066789 -0.000001
# 6 0.000000 0.000000 0.000000 0.004338 -0.000001 0.045812
#
#
# Mechanical properties :
#
#
# Convention : Reuss Voigt Hill
#
# Bulk Modulus (GPa) = 55.60568 62.47069 59.03818
# Shear Modulus (GPa) = 16.14190 20.36999 18.25594
#
# Velocity S-wave (km/s) = 3.07279 3.45184 3.26781
# Velocity P-wave (km/s) = 6.71679 7.24075 6.98368
#
# Compressibility (1/GPa) = 0.01798378
#
# Stress axis : x y z
#
# Youngs Moduli (GPa) = 33.70233 47.14406 59.46462
#
# Poissons Ratio (x) = 0.63724 0.25445
# Poissons Ratio (y) = 0.45555 0.41995
# Poissons Ratio (z) = 0.14421 0.33294
#
# Static dielectric constant tensor:
#      x y z
#    x 1.610120 0.000000 0.003210 
#    y 0.000000 1.578430 0.000000 
#    z 0.003210 0.000000 1.587770 
# 
# From -- ./inp_files/316058.got.cif
#   From: 2010.05.17/outbox.cif.g08.bks.cpg/sg15_159_cif.got.tgz:316058.got - 2010.06.03 18:47:42.
