data_PCOD9254625
_publ_section_title
;
Structure prediction by ZEFSAII (Michael W. Deem and Ramdas Pophale) SiO2 
 PCOD9254625
Probable space group: C 2/C
;
_chemical_formula_sum "Si O2"
_cell_formula_units_Z 52
_cell_length_a 12.183418
_cell_length_b 15.582760
_cell_length_c 20.967936
_cell_angle_alpha 90.000000
_cell_angle_beta 47.366639
_cell_angle_gamma 90.000000
_cell_volume 2928.678132
_symmetry_space_group_name_H-M "C 2/C"
_symmetry_group_IT_number 15
_symmetry_cell_setting 'monoclinic'
loop_
_space_group_symop_operation_xyz
x,y,z
-x,y,1/2-z
-x,-y,-z
x,-y,1/2+z
1/2+x,1/2+y,z
1/2-x,1/2+y,1/2-z
1/2-x,1/2-y,-z
1/2+x,1/2-y,1/2+z
loop_
_atom_site_type_symbol
_atom_site_label
_atom_site_fract_x
_atom_site_fract_y
_atom_site_fract_z
Si Si1 0.116456 0.944713 0.494230
Si Si2 0.528607 0.862284 0.969682
Si Si3 0.866052 0.327806 0.343555
Si Si4 0.227221 0.821590 0.716211
Si Si5 0.759002 0.490491 0.060070
Si Si6 0.980115 0.770684 0.599336
Si Si7 0.500000 0.540501 0.250000
O O1 0.239061 0.896802 0.403672
O O2 0.201894 0.003829 0.510917
O O3 0.042582 0.865734 0.562221
O O4 0.000000 0.000000 0.500000
O O5 0.605642 0.846860 0.870253
O O6 0.651083 0.921900 0.957764
O O7 0.494352 0.780293 0.027353
O O8 0.377052 0.915573 0.023917
O O9 0.810366 0.249878 0.321929
O O10 0.000000 0.367580 0.250000
O O11 0.924033 0.284159 0.386414
O O12 0.180854 0.783374 0.803011
O O13 0.109668 0.898322 0.748322
O O14 0.613366 0.487083 0.161993
#
# Coordination Sequence:
#
# PCOD9254625 Si02
#       7
#     8   8   8   8   8   8   4
#     4  12  23  38  56  86 121 151 190 247 296 334
#     4  10  20  35  62  86 117 147 197 236 291 348
#     4  10  19  35  61  88 107 146 203 244 281 340
#     4  10  17  31  60  90 108 148 193 248 283 333
#     4  10  21  37  54  90 118 153 185 242 293 347
#     4  11  18  36  62  83 111 152 198 238 281 343
#     4  10  16  32  56  86 116 144 194 240 292 326
#
# _framework density 17.75545
#
# number of rings (size 3 to 8) (size 9 to 14) (size 15 to 20)
#    0.000    1.538    6.923    1.385    0.000    0.000 
#    8.308    0.769    0.000    0.000    0.000    0.000 
#    0.000    0.000    0.000    0.000    0.000    0.000 
#
# Total GULP energy -144905.551899 kJ/mol
# GULP energy per Si atom -5573.290458 kJ/mol
# Density = 1.771504 g / cm^3
# Si number density = 17.755450 Si / 1000 Ang^3
#
#
#
# Elastic Constant Matrix: (Units=GPa)
#
#
# Indices 1 2 3 4 5 6 
#
# 1 64.1308 23.8793 34.1173 0.0000 -8.7113 0.0000
# 2 23.8793 42.1787 43.8399 0.0000 -10.4572 0.0000
# 3 34.1173 43.8399 158.9321 0.0000 -28.3302 0.0000
# 4 0.0000 0.0000 0.0000 23.0811 0.0000 -4.8279
# 5 -8.7113 -10.4572 -28.3302 0.0000 17.3066 0.0000
# 6 0.0000 0.0000 0.0000 -4.8279 0.0000 0.4717
#
#
#
# Elastic Compliance Matrix: (Units=1/GPa)
#
#
# Indices 1 2 3 4 5 6 
#
# 1 0.020123 -0.009477 -0.001300 0.000000 0.002274 0.000000
# 2 -0.009477 0.038343 -0.007431 0.000000 0.006233 0.000000
# 3 -0.001300 -0.007431 0.010878 0.000000 0.012662 0.000000
# 4 0.000000 0.000000 0.000000 -0.037978 0.000000 -0.388696
# 5 0.002274 0.006233 0.012662 0.000000 0.083420 0.000000
# 6 0.000000 0.000000 0.000000 -0.388696 0.000000 -1.858286
#
#
# Mechanical properties :
#
#
# Convention : Reuss Voigt Hill
#
# Bulk Modulus (GPa) = 30.37011 52.10164 41.23588
# Shear Modulus (GPa) = -2.94793 19.06554 8.05881
#
# Velocity S-wave (km/s) = -1.28992 3.28042 2.13275
# Velocity P-wave (km/s) = 3.86307 6.61483 5.41661
#
# Compressibility (1/GPa) = 0.03292711
#
# Stress axis : x y z
#
# Youngs Moduli (GPa) = 49.69554 26.08018 91.92898
#
# Poissons Ratio (x) = 0.24717 0.11951
# Poissons Ratio (y) = 0.47098 0.68313
# Poissons Ratio (z) = 0.06461 0.19380
#
# Static dielectric constant tensor:
#      x y z
#    x 1.580220 0.000000 -0.013480 
#    y 0.000000 1.608700 0.000000 
#    z -0.013480 0.000000 1.683720 
# 
# From -- ./inp_files/238638.got.cif
#   From: 2010.05.17/outbox.cif.g08.bks.cpg/sg15_120_cif.got.tgz:238638.got - 2010.06.03 18:47:42.
