data_PCOD9254947
_publ_section_title
;
Structure prediction by ZEFSAII (Michael W. Deem and Ramdas Pophale) SiO2 
 PCOD9254947
Probable space group: C 2/C
;
_chemical_formula_sum "Si O2"
_cell_formula_units_Z 48
_cell_length_a 11.443288
_cell_length_b 27.394851
_cell_length_c 9.030042
_cell_angle_alpha 90.000000
_cell_angle_beta 124.276568
_cell_angle_gamma 90.000000
_cell_volume 2339.173158
_symmetry_space_group_name_H-M "C 2/C"
_symmetry_group_IT_number 15
_symmetry_cell_setting 'monoclinic'
loop_
_space_group_symop_operation_xyz
x,y,z
-x,y,1/2-z
-x,-y,-z
x,-y,1/2+z
1/2+x,1/2+y,z
1/2-x,1/2+y,1/2-z
1/2-x,1/2-y,-z
1/2+x,1/2-y,1/2+z
loop_
_atom_site_type_symbol
_atom_site_label
_atom_site_fract_x
_atom_site_fract_y
_atom_site_fract_z
Si Si1 0.263206 0.012343 0.562026
Si Si2 0.657468 0.177782 0.562966
Si Si3 0.155542 0.237027 0.294583
Si Si4 0.089241 0.557462 0.112303
Si Si5 0.750360 0.569655 0.831986
Si Si6 0.835122 0.337094 0.771946
O O1 0.337292 0.045509 0.490882
O O2 0.193408 0.048411 0.634413
O O3 0.372948 0.985014 0.747640
O O4 0.191562 0.967557 0.417603
O O5 0.689074 0.223091 0.691123
O O6 0.751662 0.128946 0.662151
O O7 0.669890 0.185396 0.395623
O O8 0.486710 0.171735 0.459437
O O9 0.250000 0.250000 0.500000
O O10 0.206275 0.184992 0.269677
O O11 0.000000 0.237617 0.250000
O O12 0.160378 0.604849 0.235378
O O13 0.922006 0.563362 0.973001
#
# Coordination Sequence:
#
# PCOD9254947 Si02
#       6
#     8   8   8   8   8   8
#     4  10  17  25  42  74 117 155 187 229 283 352
#     4  10  21  37  58  84 121 159 193 241 301 357
#     4  12  25  43  63  89 116 152 200 252 301 351
#     4  10  17  27  45  75 112 153 190 231 286 344
#     4  10  17  26  44  73 115 154 186 225 292 347
#     4  10  21  38  58  84 120 158 196 239 300 358
#
# _framework density 20.52007
#
# number of rings (size 3 to 8) (size 9 to 14) (size 15 to 20)
#    0.000    1.667    3.333    4.500    2.333    0.000 
#    0.000    0.000    0.000    0.000    0.000    1.167 
#    0.000    0.000    0.000    0.000    0.000    0.000 
#
# Total GULP energy -133625.548355 kJ/mol
# GULP energy per Si atom -5567.731181 kJ/mol
# Density = 2.047337 g / cm^3
# Si number density = 20.520070 Si / 1000 Ang^3
#
#
#
# Elastic Constant Matrix: (Units=GPa)
#
#
# Indices 1 2 3 4 5 6 
#
# 1 48.3605 22.9958 26.3899 0.0000 -8.5786 0.0000
# 2 22.9958 82.9067 20.2085 0.0000 -2.0161 0.0000
# 3 26.3899 20.2085 72.8685 0.0000 -19.3221 0.0000
# 4 0.0000 0.0000 0.0000 24.0069 0.0000 -12.3137
# 5 -8.5786 -2.0161 -19.3221 0.0000 21.0683 0.0000
# 6 0.0000 0.0000 0.0000 -12.3137 0.0000 15.4308
#
#
#
# Elastic Compliance Matrix: (Units=1/GPa)
#
#
# Indices 1 2 3 4 5 6 
#
# 1 0.028328 -0.005920 -0.007544 0.000000 0.004050 0.000000
# 2 -0.005920 0.014292 -0.002770 0.000000 -0.003583 0.000000
# 3 -0.007544 -0.002770 0.021589 0.000000 0.016463 0.000000
# 4 0.000000 0.000000 0.000000 0.070519 0.000000 0.056274
# 5 0.004050 -0.003583 0.016463 0.000000 0.063869 0.000000
# 6 0.000000 0.000000 0.000000 0.056274 0.000000 0.109712
#
#
# Mechanical properties :
#
#
# Convention : Reuss Voigt Hill
#
# Bulk Modulus (GPa) = 31.50400 38.14714 34.82557
# Shear Modulus (GPa) = 14.23060 21.07062 17.65061
#
# Velocity S-wave (km/s) = 2.63629 3.20789 2.93604
# Velocity P-wave (km/s) = 4.96516 5.68782 5.33873
#
# Compressibility (1/GPa) = 0.03174200
#
# Stress axis : x y z
#
# Youngs Moduli (GPa) = 35.30084 69.97037 46.32058
#
# Poissons Ratio (x) = 0.41423 0.34942
# Poissons Ratio (y) = 0.20898 0.12829
# Poissons Ratio (z) = 0.26629 0.19379
#
# Static dielectric constant tensor:
#      x y z
#    x 1.740460 0.000000 -0.034320 
#    y 0.000000 2.025400 0.000000 
#    z -0.034320 0.000000 1.732740 
# 
# From -- ./inp_files/33369.got.cif
#   From: 2010.05.17/outbox.cif.g08.bks.cpg/sg15_17_cif.got.tgz:33369.got - 2010.06.03 18:47:42.
