data_PCOD9254375
_publ_section_title
;
Structure prediction by ZEFSAII (Michael W. Deem and Ramdas Pophale) SiO2 
 PCOD9254375
Probable space group: C 2/C
;
_chemical_formula_sum "Si O2"
_cell_formula_units_Z 36
_cell_length_a 10.588211
_cell_length_b 21.916500
_cell_length_c 9.834611
_cell_angle_alpha 90.000000
_cell_angle_beta 57.183244
_cell_angle_gamma 90.000000
_cell_volume 1917.967426
_symmetry_space_group_name_H-M "C 2/C"
_symmetry_group_IT_number 15
_symmetry_cell_setting 'monoclinic'
loop_
_space_group_symop_operation_xyz
x,y,z
-x,y,1/2-z
-x,-y,-z
x,-y,1/2+z
1/2+x,1/2+y,z
1/2-x,1/2+y,1/2-z
1/2-x,1/2-y,-z
1/2+x,1/2-y,1/2+z
loop_
_atom_site_type_symbol
_atom_site_label
_atom_site_fract_x
_atom_site_fract_y
_atom_site_fract_z
Si Si1 0.180341 0.700053 0.639405
Si Si2 0.500000 0.864427 0.750000
Si Si3 0.316544 0.063984 0.853234
Si Si4 0.146969 0.536722 0.966680
Si Si5 0.659422 0.746617 0.691356
O O1 0.250000 0.750000 0.500000
O O2 0.225723 0.631292 0.573132
O O3 0.246527 0.714000 0.749031
O O4 0.000000 0.704109 0.750000
O O5 0.586786 0.906606 0.591483
O O6 0.611837 0.816264 0.758319
O O7 0.500000 0.063001 0.750000
O O8 0.272881 0.055106 0.720539
O O9 0.268346 0.009416 0.980817
O O10 0.000000 0.500000 0.000000
O O11 0.500000 0.715515 0.750000
O O12 0.750000 0.750000 0.500000
#
# Coordination Sequence:
#
# PCOD9254375 Si02
#       5
#     8   4   8   8   8
#     4  11  23  37  57  89 125 153 193 244 295 351
#     4  10  20  30  60  80 122 140 208 230 304 330
#     4   9  19  29  52  78 118 136 190 238 305 315
#     4  10  16  30  49  83 111 140 181 259 289 316
#     4  10  22  37  58  83 123 161 194 234 292 361
#
# _framework density 18.769870000000001
#
# number of rings (size 3 to 8) (size 9 to 14) (size 15 to 20)
#    0.667    1.333    3.333    2.667    9.333    0.000 
#    0.000    0.000    0.000    0.000    0.000   26.444 
#    0.000    0.000    0.000    0.000    0.000    0.000 
#
# Total GULP energy -100269.765867 kJ/mol
# GULP energy per Si atom -5570.542548 kJ/mol
# Density = 1.872715 g / cm^3
# Si number density = 18.769870 Si / 1000 Ang^3
#
#
#
# Elastic Constant Matrix: (Units=GPa)
#
#
# Indices 1 2 3 4 5 6 
#
# 1 83.6314 16.2618 23.0985 0.0000 12.2000 0.0000
# 2 16.2618 128.9189 32.6850 0.0000 11.0749 0.0000
# 3 23.0985 32.6850 79.6210 0.0000 16.6597 0.0000
# 4 0.0000 0.0000 0.0000 38.0547 0.0000 11.7215
# 5 12.2000 11.0749 16.6597 0.0000 26.7402 0.0000
# 6 0.0000 0.0000 0.0000 11.7215 0.0000 48.8482
#
#
#
# Elastic Compliance Matrix: (Units=1/GPa)
#
#
# Indices 1 2 3 4 5 6 
#
# 1 0.013452 -0.000638 -0.002773 0.000000 -0.004145 0.000000
# 2 -0.000638 0.008746 -0.003114 0.000000 -0.001391 0.000000
# 3 -0.002773 -0.003114 0.016223 0.000000 -0.007552 0.000000
# 4 0.000000 0.000000 0.000000 0.028375 0.000000 -0.006809
# 5 -0.004145 -0.001391 -0.007552 0.000000 0.044569 0.000000
# 6 0.000000 0.000000 0.000000 -0.006809 0.000000 0.022105
#
#
# Mechanical properties :
#
#
# Convention : Reuss Voigt Hill
#
# Bulk Modulus (GPa) = 39.41617 48.47354 43.94485
# Shear Modulus (GPa) = 32.26261 37.40371 34.83316
#
# Velocity S-wave (km/s) = 4.15040 4.46887 4.31258
# Velocity P-wave (km/s) = 6.63423 7.24631 6.94701
#
# Compressibility (1/GPa) = 0.02537030
#
# Stress axis : x y z
#
# Youngs Moduli (GPa) = 74.33882 114.33353 61.64218
#
# Poissons Ratio (x) = 0.07290 0.17096
# Poissons Ratio (y) = 0.04740 0.19198
# Poissons Ratio (z) = 0.20617 0.35608
#
# Static dielectric constant tensor:
#      x y z
#    x 1.626930 0.000000 0.013380 
#    y 0.000000 1.703910 0.000000 
#    z 0.013380 0.000000 1.658920 
# 
# From -- ./inp_files/30122.got.cif
#   From: 2010.05.17/outbox.cif.g08.bks.cpg/sg15_16_cif.got.tgz:30122.got - 2010.06.03 18:47:42.
