data_PCOD9254435
_publ_section_title
;
Structure prediction by ZEFSAII (Michael W. Deem and Ramdas Pophale) SiO2 
 PCOD9254435
Probable space group: C 2/C
;
_chemical_formula_sum "Si O2"
_cell_formula_units_Z 48
_cell_length_a 20.740537
_cell_length_b 6.874405
_cell_length_c 14.159898
_cell_angle_alpha 90.000000
_cell_angle_beta 70.261771
_cell_angle_gamma 90.000000
_cell_volume 1900.282248
_symmetry_space_group_name_H-M "C 2/C"
_symmetry_group_IT_number 15
_symmetry_cell_setting 'monoclinic'
loop_
_space_group_symop_operation_xyz
x,y,z
-x,y,1/2-z
-x,-y,-z
x,-y,1/2+z
1/2+x,1/2+y,z
1/2-x,1/2+y,1/2-z
1/2-x,1/2-y,-z
1/2+x,1/2-y,1/2+z
loop_
_atom_site_type_symbol
_atom_site_label
_atom_site_fract_x
_atom_site_fract_y
_atom_site_fract_z
Si Si1 0.026231 0.463362 0.093266
Si Si2 0.219582 0.052033 0.627063
Si Si3 0.572049 0.659666 0.687062
Si Si4 0.660046 0.821398 0.965580
Si Si5 0.884035 0.500514 0.706949
Si Si6 0.239979 0.981831 0.836074
O O1 0.052099 0.668872 0.123183
O O2 0.956400 0.391572 0.178398
O O3 0.091853 0.324742 0.061096
O O4 0.000000 0.500000 0.000000
O O5 0.142125 0.052148 0.627227
O O6 0.220731 0.968288 0.733996
O O7 0.249238 0.270478 0.624000
O O8 0.271185 0.930962 0.535792
O O9 0.500000 0.560390 0.750000
O O10 0.597354 0.785332 0.764827
O O11 0.683602 0.618631 0.910019
O O12 0.638807 0.965361 0.888822
O O13 0.817554 0.569003 0.796181
#
# Coordination Sequence:
#
# PCOD9254435 Si02
#       6
#     8   8   8   8   8   8
#     4   9  18  31  50  75 106 140 173 208 264 307
#     4  10  18  30  52  80 101 132 174 212 254 304
#     4   9  16  30  51  74 101 138 177 212 248 310
#     4  10  18  31  53  80 104 134 168 217 260 303
#     4   8  16  30  50  75 100 136 177 204 248 312
#     4  10  16  30  54  80  99 135 176 209 251 307
#
# _framework density 25.259405999999998
#
# number of rings (size 3 to 8) (size 9 to 14) (size 15 to 20)
#    0.000    2.667    5.000    0.000    0.000    0.667 
#    0.000    3.333    0.000   30.000    0.000    0.000 
#    0.000    0.000    0.000    0.000    0.000    0.000 
#
# Total GULP energy -134011.464779 kJ/mol
# GULP energy per Si atom -5583.811032 kJ/mol
# Density = 2.520191 g / cm^3
# Si number density = 25.259406 Si / 1000 Ang^3
#
#
#
# Elastic Constant Matrix: (Units=GPa)
#
#
# Indices 1 2 3 4 5 6 
#
# 1 171.2056 50.2287 62.4823 0.0000 -35.3406 0.0000
# 2 50.2287 103.8505 36.2698 0.0000 -25.1693 0.0000
# 3 62.4823 36.2698 100.2367 0.0000 -43.2925 0.0000
# 4 0.0000 0.0000 0.0000 21.8057 0.0000 7.1335
# 5 -35.3406 -25.1693 -43.2925 0.0000 64.6652 0.0000
# 6 0.0000 0.0000 0.0000 7.1335 0.0000 26.2432
#
#
#
# Elastic Compliance Matrix: (Units=1/GPa)
#
#
# Indices 1 2 3 4 5 6 
#
# 1 0.008118 -0.002368 -0.003778 0.000000 0.000986 0.000000
# 2 -0.002368 0.011957 -0.001969 0.000000 0.002042 0.000000
# 3 -0.003778 -0.001969 0.016629 0.000000 0.008302 0.000000
# 4 0.000000 0.000000 0.000000 0.050336 0.000000 -0.013682
# 5 0.000986 0.002042 0.008302 0.000000 0.022356 0.000000
# 6 0.000000 0.000000 0.000000 -0.013682 0.000000 0.041824
#
#
# Mechanical properties :
#
#
# Convention : Reuss Voigt Hill
#
# Bulk Modulus (GPa) = 48.83851 74.80605 61.82228
# Shear Modulus (GPa) = 28.69056 37.63029 33.16043
#
# Velocity S-wave (km/s) = 3.37387 3.86392 3.62718
# Velocity P-wave (km/s) = 5.87828 7.04173 6.48614
#
# Compressibility (1/GPa) = 0.02047565
#
# Stress axis : x y z
#
# Youngs Moduli (GPa) = 123.18591 83.63343 60.13501
#
# Poissons Ratio (x) = 0.19805 0.22717
# Poissons Ratio (y) = 0.29171 0.11838
# Poissons Ratio (z) = 0.46535 0.16463
#
# Static dielectric constant tensor:
#      x y z
#    x 2.077590 0.000000 -0.042920 
#    y 0.000000 1.961860 0.000000 
#    z -0.042920 0.000000 2.112710 
# 
# From -- ./inp_files/251257.got.cif
#   From: 2010.05.17/outbox.cif.g08.bks.cpg/sg15_126_cif.got.tgz:251257.got - 2010.06.03 18:47:42.
