data_PCOD9254135
_publ_section_title
;
Structure prediction by ZEFSAII (Michael W. Deem and Ramdas Pophale) SiO2 
 PCOD9254135
Probable space group: C 2/C
;
_chemical_formula_sum "Si O2"
_cell_formula_units_Z 56
_cell_length_a 11.957989
_cell_length_b 19.024463
_cell_length_c 24.773583
_cell_angle_alpha 90.000000
_cell_angle_beta 157.788110
_cell_angle_gamma 90.000000
_cell_volume 2130.536578
_symmetry_space_group_name_H-M "C 2/C"
_symmetry_group_IT_number 15
_symmetry_cell_setting 'monoclinic'
loop_
_space_group_symop_operation_xyz
x,y,z
-x,y,1/2-z
-x,-y,-z
x,-y,1/2+z
1/2+x,1/2+y,z
1/2-x,1/2+y,1/2-z
1/2-x,1/2-y,-z
1/2+x,1/2-y,1/2+z
loop_
_atom_site_type_symbol
_atom_site_label
_atom_site_fract_x
_atom_site_fract_y
_atom_site_fract_z
Si Si1 0.653925 0.977688 0.986469
Si Si2 0.700687 0.774986 0.146574
Si Si3 0.350052 0.632822 0.238273
Si Si4 0.581310 0.719864 0.638992
Si Si5 0.320978 0.914223 0.393109
Si Si6 0.339972 0.408764 0.968037
Si Si7 0.131495 0.881213 0.635962
O O1 0.467350 0.905185 0.905162
O O2 0.845491 0.966333 0.018835
O O3 0.430253 0.042683 0.890179
O O4 0.753529 0.971917 0.093252
O O5 0.517122 0.837112 0.034879
O O6 0.542688 0.700047 0.085048
O O7 0.000000 0.750354 0.250000
O O8 0.791774 0.802951 0.246449
O O9 0.500000 0.611209 0.250000
O O10 0.484362 0.603412 0.355034
O O11 0.287678 0.715571 0.213515
O O12 0.250000 0.750000 0.500000
O O13 0.532794 0.656023 0.576698
O O14 0.000000 0.880080 0.250000
O O15 0.440465 0.421905 0.951474
O O16 0.989597 0.388752 0.804513
#
# Coordination Sequence:
#
# PCOD9254135 Si02
#       7
#     8   8   8   8   8   8   8
#     4  10  20  34  51  79 113 148 193 228 287 327
#     4  10  16  26  47  78 113 129 182 238 273 319
#     4  10  21  34  51  79 119 146 172 237 294 351
#     4  11  17  29  53  83 104 142 186 234 294 334
#     4  10  21  31  50  81 112 154 187 238 277 335
#     4  10  16  29  51  81 105 135 183 242 265 341
#     4   9  17  28  51  81 106 134 183 228 285 326
#
# _framework density 26.284459999999999
#
# number of rings (size 3 to 8) (size 9 to 14) (size 15 to 20)
#    0.000    2.000    5.714    2.143    2.000    0.000 
#    0.000    0.714    0.000    0.000   29.714   45.000 
#    0.000    0.000    0.000    0.000    0.000    0.000 
#
# Total GULP energy -156027.158327 kJ/mol
# GULP energy per Si atom -5572.398512 kJ/mol
# Density = 2.622464 g / cm^3
# Si number density = 26.284460 Si / 1000 Ang^3
#
#
#
# Elastic Constant Matrix: (Units=GPa)
#
#
# Indices 1 2 3 4 5 6 
#
# 1 207.0110 56.4974 33.7101 -0.0095 -49.7563 0.0037
# 2 56.4974 96.7124 4.1481 -0.0153 -19.9913 0.0004
# 3 33.7101 4.1481 48.8462 0.0050 -27.1038 0.0342
# 4 -0.0095 -0.0153 0.0050 22.1643 0.0200 -10.9005
# 5 -49.7563 -19.9913 -27.1038 0.0200 35.8597 -0.0017
# 6 0.0037 0.0004 0.0342 -10.9005 -0.0017 41.6608
#
#
#
# Elastic Compliance Matrix: (Units=1/GPa)
#
#
# Indices 1 2 3 4 5 6 
#
# 1 0.007794 -0.002612 0.000062 -0.000008 0.009405 -0.000002
# 2 -0.002612 0.013171 0.004732 -0.000002 0.007295 -0.000004
# 3 0.000062 0.004732 0.037098 -0.000054 0.030763 -0.000043
# 4 -0.000008 -0.000002 -0.000054 0.051781 -0.000082 0.013548
# 5 0.009405 0.007295 0.030763 -0.000082 0.068254 -0.000045
# 6 -0.000002 -0.000004 -0.000043 0.013548 -0.000045 0.027548
#
#
# Mechanical properties :
#
#
# Convention : Reuss Voigt Hill
#
# Bulk Modulus (GPa) = 16.01900 60.14234 38.08067
# Shear Modulus (GPa) = 22.51329 37.15124 29.83226
#
# Velocity S-wave (km/s) = 2.92982 3.76364 3.37260
# Velocity P-wave (km/s) = 4.18961 6.46666 5.44842
#
# Compressibility (1/GPa) = 0.06242586
#
# Stress axis : x y z
#
# Youngs Moduli (GPa) = 128.30527 75.92658 26.95574
#
# Poissons Ratio (x) = 0.19829 -0.00166
# Poissons Ratio (y) = 0.33509 -0.12755
# Poissons Ratio (z) = -0.00790 -0.35927
#
# Static dielectric constant tensor:
#      x y z
#    x 2.312720 -0.000040 -0.112650 
#    y -0.000040 2.180440 -0.000040 
#    z -0.112650 -0.000040 2.329310 
# 
# From -- ./inp_files/270970.got.cif
#   From: 2010.05.17/outbox.cif.g08.bks.cpg/sg15_136_cif.got.tgz:270970.got - 2010.06.03 18:47:42.
