data_PCOD9254319
_publ_section_title
;
Structure prediction by ZEFSAII (Michael W. Deem and Ramdas Pophale) SiO2 
 PCOD9254319
Probable space group: C 2/C
;
_chemical_formula_sum "Si O2"
_cell_formula_units_Z 56
_cell_length_a 26.615620
_cell_length_b 21.704422
_cell_length_c 16.704971
_cell_angle_alpha 90.000000
_cell_angle_beta 16.493636
_cell_angle_gamma 90.000000
_cell_volume 2739.740691
_symmetry_space_group_name_H-M "C 2/C"
_symmetry_group_IT_number 15
_symmetry_cell_setting 'monoclinic'
loop_
_space_group_symop_operation_xyz
x,y,z
-x,y,1/2-z
-x,-y,-z
x,-y,1/2+z
1/2+x,1/2+y,z
1/2-x,1/2+y,1/2-z
1/2-x,1/2-y,-z
1/2+x,1/2-y,1/2+z
loop_
_atom_site_type_symbol
_atom_site_label
_atom_site_fract_x
_atom_site_fract_y
_atom_site_fract_z
Si Si1 0.370994 0.215246 0.380193
Si Si2 0.420542 0.431297 0.456835
Si Si3 0.989621 0.557983 0.953658
Si Si4 0.413588 0.388316 0.137716
Si Si5 0.050973 0.384234 0.509372
Si Si6 0.846821 0.483700 0.918890
Si Si7 0.449423 0.574991 0.417586
O O1 0.500000 0.246301 0.250000
O O2 0.250000 0.250000 0.500000
O O3 0.236015 0.165205 0.627564
O O4 0.514197 0.179208 0.107660
O O5 0.500000 0.409213 0.250000
O O6 0.475639 0.390549 0.449045
O O7 0.491160 0.501892 0.357784
O O8 0.208792 0.436876 0.775047
O O9 0.131970 0.543668 0.667911
O O10 0.000000 0.500000 0.000000
O O11 0.031390 0.616243 0.944357
O O12 0.322142 0.456623 0.279370
O O13 0.510940 0.388603 0.903214
O O14 0.237842 0.414222 0.243819
O O15 0.899802 0.428257 0.777731
O O16 0.000000 0.488068 0.750000
O O17 0.500000 0.595313 0.250000
#
# Coordination Sequence:
#
# PCOD9254319 Si02
#       7
#     8   8   8   8   8   8   8
#     4  11  23  41  69  92 112 147 199 263 332 366
#     4  11  20  30  50  86 125 165 197 234 280 355
#     4  10  18  30  47  73 111 165 196 225 290 345
#     4  11  21  37  55  86 127 151 198 259 289 352
#     4  10  18  36  54  79 115 152 195 245 294 353
#     4  10  16  29  52  73 113 161 194 227 292 333
#     4  11  21  33  55  84 119 164 202 228 286 359
#
# _framework density 20.439890999999999
#
# number of rings (size 3 to 8) (size 9 to 14) (size 15 to 20)
#    0.000    1.429    5.714    3.857    2.000    1.714 
#    0.000    0.000    0.000    0.857    0.000    0.000 
#    0.000    0.000    0.000    0.000    0.000    0.000 
#
# Total GULP energy -155988.145006 kJ/mol
# GULP energy per Si atom -5571.005179 kJ/mol
# Density = 2.039337 g / cm^3
# Si number density = 20.439891 Si / 1000 Ang^3
#
#
#
# Elastic Constant Matrix: (Units=GPa)
#
#
# Indices 1 2 3 4 5 6 
#
# 1 157.9564 30.9096 29.2384 -0.0077 -2.1095 0.0016
# 2 30.9096 25.6337 13.0968 -0.0018 3.8527 0.0068
# 3 29.2384 13.0968 69.8957 -0.0008 -3.4392 0.0031
# 4 -0.0077 -0.0018 -0.0008 14.8117 -0.0007 -5.1280
# 5 -2.1095 3.8527 -3.4392 -0.0007 40.9412 -0.0001
# 6 0.0016 0.0068 0.0031 -5.1280 -0.0001 20.9892
#
#
#
# Elastic Compliance Matrix: (Units=1/GPa)
#
#
# Indices 1 2 3 4 5 6 
#
# 1 0.008544 -0.009607 -0.001715 0.000005 0.001200 0.000004
# 2 -0.009607 0.054887 -0.006571 -0.000005 -0.006212 -0.000017
# 3 -0.001715 -0.006571 0.016349 -0.000001 0.001903 0.000000
# 4 0.000005 -0.000005 -0.000001 0.073753 0.000002 0.018019
# 5 0.001200 -0.006212 0.001903 0.000002 0.025232 0.000002
# 6 0.000004 -0.000017 0.000000 0.018019 0.000002 0.052046
#
#
# Mechanical properties :
#
#
# Convention : Reuss Voigt Hill
#
# Bulk Modulus (GPa) = 22.73062 44.44171 33.58617
# Shear Modulus (GPa) = 17.77704 27.36448 22.57076
#
# Velocity S-wave (km/s) = 2.95231 3.66290 3.32663
# Velocity P-wave (km/s) = 4.77141 6.29912 5.58772
#
# Compressibility (1/GPa) = 0.04399351
#
# Stress axis : x y z
#
# Youngs Moduli (GPa) = 117.03726 18.21938 61.16426
#
# Poissons Ratio (x) = 0.17503 0.10490
# Poissons Ratio (y) = 1.12438 0.40193
# Poissons Ratio (z) = 0.20072 0.11973
#
# Static dielectric constant tensor:
#      x y z
#    x 1.881780 0.000000 -0.009990 
#    y 0.000000 1.736430 0.000010 
#    z -0.009990 0.000010 1.828930 
# 
# From -- ./inp_files/174838.got.cif
#   From: 2010.05.17/outbox.cif.g08.bks.cpg/sg15_88_cif.got.tgz:174838.got - 2010.06.03 18:47:42.
