data_PCOD9254458
_publ_section_title
;
Structure prediction by ZEFSAII (Michael W. Deem and Ramdas Pophale) SiO2 
 PCOD9254458
Probable space group: C 2/C
;
_chemical_formula_sum "Si O2"
_cell_formula_units_Z 44
_cell_length_a 8.662383
_cell_length_b 12.876062
_cell_length_c 16.550540
_cell_angle_alpha 90.000000
_cell_angle_beta 87.235195
_cell_angle_gamma 90.000000
_cell_volume 1843.855049
_symmetry_space_group_name_H-M "C 2/C"
_symmetry_group_IT_number 15
_symmetry_cell_setting 'monoclinic'
loop_
_space_group_symop_operation_xyz
x,y,z
-x,y,1/2-z
-x,-y,-z
x,-y,1/2+z
1/2+x,1/2+y,z
1/2-x,1/2+y,1/2-z
1/2-x,1/2-y,-z
1/2+x,1/2-y,1/2+z
loop_
_atom_site_type_symbol
_atom_site_label
_atom_site_fract_x
_atom_site_fract_y
_atom_site_fract_z
Si Si1 0.325488 0.330861 0.764330
Si Si2 0.369951 0.125212 0.377275
Si Si3 0.000000 0.546314 0.750000
Si Si4 0.678991 0.821149 0.934652
Si Si5 0.836079 0.082105 0.793753
Si Si6 0.331955 0.463442 0.476009
O O1 0.500000 0.298232 0.750000
O O2 0.213670 0.312112 0.691729
O O3 0.253491 0.290447 0.848018
O O4 0.333541 0.456897 0.775447
O O5 0.456844 0.029990 0.327320
O O6 0.497836 0.184223 0.425422
O O7 0.243100 0.090204 0.444655
O O8 0.161178 0.606313 0.765793
O O9 0.750000 0.750000 0.000000
O O10 0.725997 0.937478 0.957608
O O11 0.000000 0.118921 0.750000
O O12 0.842596 0.095892 0.890384
O O13 0.500000 0.500000 0.500000
#
# Coordination Sequence:
#
# PCOD9254458 Si02
#       6
#     8   8   4   8   8   8
#     4   9  17  35  60  81 111 164 209 243 302 382
#     4  11  18  35  62  88 116 162 212 250 305 378
#     4  10  16  30  56  82 110 162 200 246 300 372
#     4  11  22  37  59  92 126 161 201 259 316 376
#     4   9  17  30  50  85 115 150 197 250 301 356
#     4  11  21  35  60  92 119 157 211 262 298 369
#
# _framework density 23.863047999999999
#
# number of rings (size 3 to 8) (size 9 to 14) (size 15 to 20)
#    0.000    1.818    5.455    4.909    0.000    0.000 
#    0.000    3.636    2.000   17.455    0.000    0.000 
#    0.000    0.000    0.000    0.000    0.000    0.000 
#
# Total GULP energy -123111.378655 kJ/mol
# GULP energy per Si atom -5595.971757 kJ/mol
# Density = 2.380873 g / cm^3
# Si number density = 23.863048 Si / 1000 Ang^3
#
#
#
# Elastic Constant Matrix: (Units=GPa)
#
#
# Indices 1 2 3 4 5 6 
#
# 1 239.2308 38.0325 102.3848 0.0000 15.2961 0.0000
# 2 38.0325 47.0634 32.1567 0.0000 7.3071 0.0000
# 3 102.3848 32.1567 193.3727 0.0000 9.4241 0.0000
# 4 0.0000 0.0000 0.0000 36.1160 0.0000 9.5486
# 5 15.2961 7.3071 9.4241 0.0000 59.5505 0.0000
# 6 0.0000 0.0000 0.0000 9.5486 0.0000 55.0794
#
#
#
# Elastic Compliance Matrix: (Units=1/GPa)
#
#
# Indices 1 2 3 4 5 6 
#
# 1 0.005764 -0.002801 -0.002550 0.000000 -0.000733 0.000000
# 2 -0.002801 0.025658 -0.002686 0.000000 -0.002004 0.000000
# 3 -0.002550 -0.002686 0.006974 0.000000 -0.000119 0.000000
# 4 0.000000 0.000000 0.000000 0.029019 0.000000 -0.005031
# 5 -0.000733 -0.002004 -0.000119 0.000000 0.017245 0.000000
# 6 0.000000 0.000000 0.000000 -0.005031 0.000000 0.019028
#
#
# Mechanical properties :
#
#
# Convention : Reuss Voigt Hill
#
# Bulk Modulus (GPa) = 44.80103 91.64610 68.22356
# Shear Modulus (GPa) = 39.30733 50.62203 44.96468
#
# Velocity S-wave (km/s) = 4.06298 4.61082 4.34554
# Velocity P-wave (km/s) = 6.38948 8.17524 7.33689
#
# Compressibility (1/GPa) = 0.02232092
#
# Stress axis : x y z
#
# Youngs Moduli (GPa) = 173.49986 38.97412 143.38976
#
# Poissons Ratio (x) = 0.10919 0.36566
# Poissons Ratio (y) = 0.48606 0.38512
# Poissons Ratio (z) = 0.44244 0.10468
#
# Static dielectric constant tensor:
#      x y z
#    x 1.876130 0.000000 0.011060 
#    y 0.000000 2.070870 0.000000 
#    z 0.011060 0.000000 1.837310 
# 
# From -- ./inp_files/134426.got.cif
#   From: 2010.05.17/outbox.cif.g08.bks.cpg/sg15_68_cif.got.tgz:134426.got - 2010.06.03 18:47:42.
