data_PCOD9254579
_publ_section_title
;
Structure prediction by ZEFSAII (Michael W. Deem and Ramdas Pophale) SiO2 
 PCOD9254579
Probable space group: C 2/C
;
_chemical_formula_sum "Si O2"
_cell_formula_units_Z 52
_cell_length_a 14.476884
_cell_length_b 6.898927
_cell_length_c 18.255351
_cell_angle_alpha 90.000000
_cell_angle_beta 85.472791
_cell_angle_gamma 90.000000
_cell_volume 1817.563942
_symmetry_space_group_name_H-M "C 2/C"
_symmetry_group_IT_number 15
_symmetry_cell_setting 'monoclinic'
loop_
_space_group_symop_operation_xyz
x,y,z
-x,y,1/2-z
-x,-y,-z
x,-y,1/2+z
1/2+x,1/2+y,z
1/2-x,1/2+y,1/2-z
1/2-x,1/2-y,-z
1/2+x,1/2-y,1/2+z
loop_
_atom_site_type_symbol
_atom_site_label
_atom_site_fract_x
_atom_site_fract_y
_atom_site_fract_z
Si Si1 0.159086 0.182205 0.644465
Si Si2 0.680871 0.863546 0.173942
Si Si3 0.899091 0.167757 0.630711
Si Si4 0.368568 0.899087 0.158782
Si Si5 0.861457 0.285803 0.003321
Si Si6 0.500000 0.537161 0.750000
Si Si7 0.639942 0.234580 0.524062
O O1 0.175272 0.410910 0.653962
O O2 0.257451 0.076703 0.649221
O O3 0.109602 0.161522 0.568631
O O4 0.092412 0.132849 0.713497
O O5 0.790931 0.834644 0.162022
O O6 0.633087 0.830525 0.256056
O O7 0.631699 0.742028 0.112190
O O8 0.923027 0.395566 0.649265
O O9 0.903565 0.153227 0.541927
O O10 0.955103 0.006701 0.672049
O O11 0.391225 0.770068 0.085434
O O12 0.884814 0.509681 0.986887
O O13 0.750000 0.250000 0.000000
O O14 0.750000 0.250000 0.500000
#
# Coordination Sequence:
#
# PCOD9254579 Si02
#       7
#     8   8   8   8   8   4   8
#     4  10  20  32  53  75 104 130 169 210 252 294
#     4  10  16  32  52  77  98 131 174 209 240 294
#     4  10  20  32  53  75 104 130 169 210 252 294
#     4  10  16  32  52  77  98 131 174 209 240 294
#     4   8  16  28  46  72  97 125 161 206 244 285
#     4  12  20  32  50  78 108 130 162 206 264 300
#     4   8  16  28  46  72  97 125 161 206 244 285
#
# _framework density 28.609722999999999
#
# number of rings (size 3 to 8) (size 9 to 14) (size 15 to 20)
#    0.000    2.462    3.077    0.000    0.000    0.000 
#    0.000    6.923    0.000    3.692    0.000   96.923 
#    0.000    0.000    0.000    0.000    0.000    0.000 
#
# Total GULP energy -145117.545568 kJ/mol
# GULP energy per Si atom -5581.444060 kJ/mol
# Density = 2.854461 g / cm^3
# Si number density = 28.609723 Si / 1000 Ang^3
#
#
#
# Elastic Constant Matrix: (Units=GPa)
#
#
# Indices 1 2 3 4 5 6 
#
# 1 54.8885 28.1833 27.1088 0.0000 18.1882 0.0000
# 2 28.1833 88.9685 57.5674 0.0000 14.2465 0.0000
# 3 27.1088 57.5674 318.6528 0.0000 42.3588 0.0000
# 4 0.0000 0.0000 0.0000 50.3442 0.0000 2.8780
# 5 18.1882 14.2465 42.3588 0.0000 50.8867 0.0000
# 6 0.0000 0.0000 0.0000 2.8780 0.0000 -4.3999
#
#
#
# Elastic Compliance Matrix: (Units=1/GPa)
#
#
# Indices 1 2 3 4 5 6 
#
# 1 0.023746 -0.006475 0.000041 0.000000 -0.006709 0.000000
# 2 -0.006475 0.014651 -0.002090 0.000000 -0.000048 0.000000
# 3 0.000041 -0.002090 0.003864 0.000000 -0.002646 0.000000
# 4 0.000000 0.000000 0.000000 0.019147 0.000000 0.012524
# 5 -0.006709 -0.000048 -0.002646 0.000000 0.024266 0.000000
# 6 0.000000 0.000000 0.000000 0.012524 0.000000 -0.219084
#
#
# Mechanical properties :
#
#
# Convention : Reuss Voigt Hill
#
# Bulk Modulus (GPa) = 39.65883 76.46987 58.06435
# Shear Modulus (GPa) = -46.31380 42.67621 -1.81879
#
# Velocity S-wave (km/s) = -4.02781 3.86640 -0.79819
# Velocity P-wave (km/s) = 2.78189 6.83511 4.41474
#
# Compressibility (1/GPa) = 0.02521506
#
# Stress axis : x y z
#
# Youngs Moduli (GPa) = 42.11233 68.25595 258.80255
#
# Poissons Ratio (x) = 0.44193 -0.01072
# Poissons Ratio (y) = 0.27266 0.54079
# Poissons Ratio (z) = -0.00174 0.14263
#
# Static dielectric constant tensor:
#      x y z
#    x 2.179210 0.000000 0.055970 
#    y 0.000000 2.237360 0.000000 
#    z 0.055970 0.000000 2.218860 
# 
# From -- ./inp_files/243101.got.cif
#   From: 2010.05.17/outbox.cif.g08.bks.cpg/sg15_122_cif.got.tgz:243101.got - 2010.06.03 18:47:42.
