data_PCOD9254046
_publ_section_title
;
Structure prediction by ZEFSAII (Michael W. Deem and Ramdas Pophale) SiO2 
 PCOD9254046
Probable space group: C 2/C
;
_chemical_formula_sum "Si O2"
_cell_formula_units_Z 48
_cell_length_a 7.871912
_cell_length_b 14.342293
_cell_length_c 16.699483
_cell_angle_alpha 90.000000
_cell_angle_beta 65.208210
_cell_angle_gamma 90.000000
_cell_volume 1711.630435
_symmetry_space_group_name_H-M "C 2/C"
_symmetry_group_IT_number 15
_symmetry_cell_setting 'monoclinic'
loop_
_space_group_symop_operation_xyz
x,y,z
-x,y,1/2-z
-x,-y,-z
x,-y,1/2+z
1/2+x,1/2+y,z
1/2-x,1/2+y,1/2-z
1/2-x,1/2-y,-z
1/2+x,1/2-y,1/2+z
loop_
_atom_site_type_symbol
_atom_site_label
_atom_site_fract_x
_atom_site_fract_y
_atom_site_fract_z
Si Si1 0.614751 0.592642 0.308156
Si Si2 0.031260 0.166675 0.649353
Si Si3 0.912148 0.682745 0.066716
Si Si4 0.319458 0.950370 0.348432
Si Si5 0.490781 0.775484 0.369669
Si Si6 0.267107 0.505006 0.453706
O O1 0.500000 0.569602 0.250000
O O2 0.798634 0.532520 0.287390
O O3 0.645257 0.702975 0.309483
O O4 0.465673 0.559889 0.404926
O O5 0.853824 0.115917 0.643064
O O6 0.511857 0.122198 0.667732
O O7 0.000000 0.165675 0.750000
O O8 0.037438 0.269516 0.609581
O O9 0.301272 0.596777 0.909892
O O10 0.702143 0.724013 0.117192
O O11 0.877567 0.572167 0.065328
O O12 0.480229 0.782184 0.466853
O O13 0.279489 0.992832 0.443858
#
# Coordination Sequence:
#
# PCOD9254046 Si02
#       6
#     8   8   8   8   8   8
#     4  10  16  22  35  60  93 118 145 194 242 277
#     4  10  16  22  35  60  93 118 145 194 242 277
#     4   8  14  24  37  54  83 122 156 189 229 275
#     4   9  15  24  38  55  84 123 156 190 229 275
#     4   8  14  24  37  54  83 122 156 189 229 275
#     4   9  15  24  38  55  84 123 156 190 229 275
#
# _framework density 28.043437000000001
#
# number of rings (size 3 to 8) (size 9 to 14) (size 15 to 20)
#    0.000    3.000    0.000    8.000    0.000    0.000 
#    0.000    0.000    0.000    0.000    0.000    0.000 
#    0.000  289.333    0.000  278.667    0.000    0.000 
#
# Total GULP energy -134402.746821 kJ/mol
# GULP energy per Si atom -5600.114451 kJ/mol
# Density = 2.797961 g / cm^3
# Si number density = 28.043437 Si / 1000 Ang^3
#
#
#
# Elastic Constant Matrix: (Units=GPa)
#
#
# Indices 1 2 3 4 5 6 
#
# 1 107.2328 70.1324 26.2184 0.0000 24.7955 0.0000
# 2 70.1324 216.2109 64.1655 0.0000 22.0886 0.0000
# 3 26.2184 64.1655 164.9537 0.0000 31.4088 0.0000
# 4 0.0000 0.0000 0.0000 -58.5289 0.0000 -22.4257
# 5 24.7955 22.0886 31.4088 0.0000 23.7214 0.0000
# 6 0.0000 0.0000 0.0000 -22.4257 0.0000 45.8665
#
#
#
# Elastic Compliance Matrix: (Units=1/GPa)
#
#
# Indices 1 2 3 4 5 6 
#
# 1 0.014689 -0.003868 0.001882 0.000000 -0.014244 0.000000
# 2 -0.003868 0.006402 -0.002019 0.000000 0.000756 0.000000
# 3 0.001882 -0.002019 0.008778 0.000000 -0.011710 0.000000
# 4 0.000000 0.000000 0.000000 -0.014390 0.000000 -0.007036
# 5 -0.014244 0.000756 -0.011710 0.000000 0.071847 0.000000
# 6 0.000000 0.000000 0.000000 -0.007036 0.000000 0.018362
#
#
# Mechanical properties :
#
#
# Convention : Reuss Voigt Hill
#
# Bulk Modulus (GPa) = 45.74838 89.93666 67.84252
# Shear Modulus (GPa) = 41.32746 24.07054 32.69900
#
# Velocity S-wave (km/s) = 3.84304 2.93291 3.41840
# Velocity P-wave (km/s) = 6.00339 6.60374 6.31071
#
# Compressibility (1/GPa) = 0.02185870
#
# Stress axis : x y z
#
# Youngs Moduli (GPa) = 68.07932 156.20487 113.91596
#
# Poissons Ratio (x) = 0.60419 -0.21441
# Poissons Ratio (y) = 0.26333 0.23004
# Poissons Ratio (z) = -0.12814 0.31543
#
# Static dielectric constant tensor:
#      x y z
#    x 2.254540 0.000000 -0.071430 
#    y 0.000000 2.252920 0.000000 
#    z -0.071430 0.000000 2.124230 
# 
# From -- ./inp_files/189873.got.cif
#   From: 2010.05.17/outbox.cif.g08.bks.cpg/sg15_95_cif.got.tgz:189873.got - 2010.06.03 18:47:42.
