data_PCOD9254041
_publ_section_title
;
Structure prediction by ZEFSAII (Michael W. Deem and Ramdas Pophale) SiO2 
 PCOD9254041
Probable space group: C 2/C
;
_chemical_formula_sum "Si O2"
_cell_formula_units_Z 60
_cell_length_a 7.397129
_cell_length_b 20.616714
_cell_length_c 17.931521
_cell_angle_alpha 90.000000
_cell_angle_beta 59.075547
_cell_angle_gamma 90.000000
_cell_volume 2345.896916
_symmetry_space_group_name_H-M "C 2/C"
_symmetry_group_IT_number 15
_symmetry_cell_setting 'monoclinic'
loop_
_space_group_symop_operation_xyz
x,y,z
-x,y,1/2-z
-x,-y,-z
x,-y,1/2+z
1/2+x,1/2+y,z
1/2-x,1/2+y,1/2-z
1/2-x,1/2-y,-z
1/2+x,1/2-y,1/2+z
loop_
_atom_site_type_symbol
_atom_site_label
_atom_site_fract_x
_atom_site_fract_y
_atom_site_fract_z
Si Si1 0.225084 0.554541 0.069930
Si Si2 0.095660 0.743506 0.386304
Si Si3 0.364381 0.203290 0.691843
Si Si4 0.884967 0.975948 0.375040
Si Si5 0.362649 0.692852 0.070900
Si Si6 0.448203 0.076098 0.891281
Si Si7 0.290516 0.104779 0.087851
Si Si8 0.500000 0.379549 0.250000
O O1 0.332146 0.615595 0.087634
O O2 0.165962 0.486251 0.121005
O O3 0.003313 0.579902 0.083500
O O4 0.357891 0.536465 0.968002
O O5 0.872069 0.717945 0.401295
O O6 0.021736 0.789966 0.469622
O O7 0.248693 0.774201 0.291636
O O8 0.214464 0.679119 0.389241
O O9 0.426747 0.264257 0.628509
O O10 0.519075 0.141532 0.662142
O O11 0.178113 0.168344 0.684418
O O12 0.889211 0.051961 0.355890
O O13 0.669385 0.950959 0.379601
O O14 0.058081 0.928455 0.303980
O O15 0.326489 0.097765 0.991871
#
# Coordination Sequence:
#
# PCOD9254041 Si02
#       8
#     8   8   8   8   8   8   8   4
#     4   8  14  23  36  49  72 114 146 167 209 261
#     4  10  17  23  36  54  84 115 138 168 221 260
#     4  11  17  24  35  58  89 113 139 176 215 263
#     4   8  14  22  35  50  75 106 138 170 208 254
#     4  10  17  24  35  55  86 116 141 176 216 264
#     4   8  14  24  35  50  76 112 143 171 207 260
#     4   8  13  24  35  49  73 112 138 168 208 260
#     4  10  16  22  32  56  82 110 132 170 206 252
#
# _framework density 25.576573
#
# number of rings (size 3 to 8) (size 9 to 14) (size 15 to 20)
#    0.000    2.933    2.667    2.400    3.733    0.000 
#    0.000    0.000    0.000    0.000    0.000    0.000 
#    4.000   15.200   18.133    0.133    0.000    0.000 
#
# Total GULP energy -167514.507946 kJ/mol
# GULP energy per Si atom -5583.816932 kJ/mol
# Density = 2.551836 g / cm^3
# Si number density = 25.576573 Si / 1000 Ang^3
#
#
#
# Elastic Constant Matrix: (Units=GPa)
#
#
# Indices 1 2 3 4 5 6 
#
# 1 72.0486 75.0542 18.9256 0.0000 -4.4276 0.0000
# 2 75.0542 258.4034 95.9516 0.0000 10.9914 0.0000
# 3 18.9256 95.9516 136.5603 0.0000 1.9970 0.0000
# 4 0.0000 0.0000 0.0000 46.7422 0.0000 0.3828
# 5 -4.4276 10.9914 1.9970 0.0000 16.9369 0.0000
# 6 0.0000 0.0000 0.0000 0.3828 0.0000 15.6016
#
#
#
# Elastic Compliance Matrix: (Units=1/GPa)
#
#
# Indices 1 2 3 4 5 6 
#
# 1 0.021859 -0.007590 0.002151 0.000000 0.010386 0.000000
# 2 -0.007590 0.008025 -0.004489 0.000000 -0.006663 0.000000
# 3 0.002151 -0.004489 0.010145 0.000000 0.002280 0.000000
# 4 0.000000 0.000000 0.000000 0.021398 0.000000 -0.000525
# 5 0.010386 -0.006663 0.002280 0.000000 0.065813 0.000000
# 6 0.000000 0.000000 0.000000 -0.000525 0.000000 0.064109
#
#
# Mechanical properties :
#
#
# Convention : Reuss Voigt Hill
#
# Bulk Modulus (GPa) = 49.56768 94.09724 71.83246
# Shear Modulus (GPa) = 22.94331 34.32821 28.63576
#
# Velocity S-wave (km/s) = 2.99832 3.66754 3.34969
# Velocity P-wave (km/s) = 5.60435 7.40302 6.56557
#
# Compressibility (1/GPa) = 0.02017444
#
# Stress axis : x y z
#
# Youngs Moduli (GPa) = 45.74790 124.61538 98.56609
#
# Poissons Ratio (x) = 0.94579 -0.21206
# Poissons Ratio (y) = 0.34721 0.44248
# Poissons Ratio (z) = -0.09843 0.55942
#
# Static dielectric constant tensor:
#      x y z
#    x 2.096810 0.000000 -0.051330 
#    y 0.000000 2.004280 0.000000 
#    z -0.051330 0.000000 2.029840 
# 
# From -- ./inp_files/274571.got.cif
#   From: 2010.05.17/outbox.cif.g08.bks.cpg/sg15_138_cif.got.tgz:274571.got - 2010.06.03 18:47:42.
