data_PCOD9254366
_publ_section_title
;
Structure prediction by ZEFSAII (Michael W. Deem and Ramdas Pophale) SiO2 
 PCOD9254366
Probable space group: C 2/C
;
_chemical_formula_sum "Si O2"
_cell_formula_units_Z 44
_cell_length_a 23.971452
_cell_length_b 16.593416
_cell_length_c 5.309624
_cell_angle_alpha 90.000000
_cell_angle_beta 67.473249
_cell_angle_gamma 90.000000
_cell_volume 1950.855986
_symmetry_space_group_name_H-M "C 2/C"
_symmetry_group_IT_number 15
_symmetry_cell_setting 'monoclinic'
loop_
_space_group_symop_operation_xyz
x,y,z
-x,y,1/2-z
-x,-y,-z
x,-y,1/2+z
1/2+x,1/2+y,z
1/2-x,1/2+y,1/2-z
1/2-x,1/2-y,-z
1/2+x,1/2-y,1/2+z
loop_
_atom_site_type_symbol
_atom_site_label
_atom_site_fract_x
_atom_site_fract_y
_atom_site_fract_z
Si Si1 0.473729 0.908876 0.547880
Si Si2 0.865738 0.945028 0.942535
Si Si3 0.332704 0.952071 0.823231
Si Si4 0.314140 0.785931 0.082533
Si Si5 0.679469 0.273641 0.426059
Si Si6 0.000000 0.054362 0.250000
O O1 0.500000 0.867527 0.750000
O O2 0.402760 0.924013 0.694775
O O3 0.500000 0.000000 0.500000
O O4 0.500000 0.870195 0.250000
O O5 0.933714 0.907125 0.847096
O O6 0.858008 0.000031 0.706238
O O7 0.823386 0.867382 0.001870
O O8 0.320480 0.980399 0.559131
O O9 0.301636 0.873902 0.993606
O O10 0.345612 0.779385 0.300129
O O11 0.248815 0.747455 0.254430
O O12 0.349073 0.740115 0.799623
O O13 0.000000 0.000000 0.500000
#
# Coordination Sequence:
#
# PCOD9254366 Si02
#       6
#     8   8   8   8   8   4
#     4  10  16  30  49  72 102 142 171 216 270 313
#     4  10  19  33  61  88 107 139 180 228 271 326
#     4  12  21  33  56  82 106 138 193 240 258 312
#     4  10  23  38  56  78 108 158 180 220 287 325
#     4  10  21  41  57  75 116 147 182 219 280 350
#     4   8  16  30  50  84 112 134 166 212 282 332
#
# _framework density 22.554205
#
# number of rings (size 3 to 8) (size 9 to 14) (size 15 to 20)
#    0.000    1.818    3.636    2.182    0.000    1.455 
#    0.000    0.000    6.000    0.000    0.000    0.000 
#    0.000    0.000    0.000    0.000    0.000    0.000 
#
# Total GULP energy -122556.657305 kJ/mol
# GULP energy per Si atom -5570.757150 kJ/mol
# Density = 2.250287 g / cm^3
# Si number density = 22.554205 Si / 1000 Ang^3
#
#
#
# Elastic Constant Matrix: (Units=GPa)
#
#
# Indices 1 2 3 4 5 6 
#
# 1 29.9186 5.2532 25.5635 0.0000 4.1426 0.0000
# 2 5.2532 72.1950 34.1730 0.0000 2.6821 0.0000
# 3 25.5635 34.1730 187.8909 0.0000 45.7792 0.0000
# 4 0.0000 0.0000 0.0000 -4.1115 0.0000 27.7442
# 5 4.1426 2.6821 45.7792 0.0000 32.6845 0.0000
# 6 0.0000 0.0000 0.0000 27.7442 0.0000 -6.3647
#
#
#
# Elastic Compliance Matrix: (Units=1/GPa)
#
#
# Indices 1 2 3 4 5 6 
#
# 1 0.038112 -0.000034 -0.006077 0.000000 0.003683 0.000000
# 2 -0.000034 0.015504 -0.003805 0.000000 0.004061 0.000000
# 3 -0.006077 -0.003805 0.009985 0.000000 -0.012902 0.000000
# 4 0.000000 0.000000 0.000000 0.008560 0.000000 0.037312
# 5 0.003683 0.004061 -0.012902 0.000000 0.047867 0.000000
# 6 0.000000 0.000000 0.000000 0.037312 0.000000 0.005529
#
#
# Mechanical properties :
#
#
# Convention : Reuss Voigt Hill
#
# Bulk Modulus (GPa) = 22.84642 46.66486 34.75564
# Shear Modulus (GPa) = 31.25450 19.44263 25.34857
#
# Velocity S-wave (km/s) = 3.72661 2.93924 3.35609
# Velocity P-wave (km/s) = 5.35428 5.67925 5.51916
#
# Compressibility (1/GPa) = 0.04377053
#
# Stress axis : x y z
#
# Youngs Moduli (GPa) = 26.23846 64.50002 100.15386
#
# Poissons Ratio (x) = 0.00217 0.60860
# Poissons Ratio (y) = 0.00088 0.38105
# Poissons Ratio (z) = 0.15944 0.24540
#
# Static dielectric constant tensor:
#      x y z
#    x 1.918030 0.000000 0.077560 
#    y 0.000000 1.805980 0.000000 
#    z 0.077560 0.000000 1.658450 
# 
# From -- ./inp_files/16913.got.cif
#   From: 2010.05.17/outbox.cif.g08.bks.cpg/sg15_9_cif.got.tgz:16913.got - 2010.06.03 18:47:42.
