data_PCOD9254988
_publ_section_title
;
Structure prediction by ZEFSAII (Michael W. Deem and Ramdas Pophale) SiO2 
 PCOD9254988
Probable space group: C 2/C
;
_chemical_formula_sum "Si O2"
_cell_formula_units_Z 64
_cell_length_a 5.435151
_cell_length_b 30.955444
_cell_length_c 20.257637
_cell_angle_alpha 90.000000
_cell_angle_beta 108.338888
_cell_angle_gamma 90.000000
_cell_volume 3235.196937
_symmetry_space_group_name_H-M "C 2/C"
_symmetry_group_IT_number 15
_symmetry_cell_setting 'monoclinic'
loop_
_space_group_symop_operation_xyz
x,y,z
-x,y,1/2-z
-x,-y,-z
x,-y,1/2+z
1/2+x,1/2+y,z
1/2-x,1/2+y,1/2-z
1/2-x,1/2-y,-z
1/2+x,1/2-y,1/2+z
loop_
_atom_site_type_symbol
_atom_site_label
_atom_site_fract_x
_atom_site_fract_y
_atom_site_fract_z
Si Si1 0.617536 0.660005 0.080944
Si Si2 0.899668 0.069991 0.483193
Si Si3 0.472831 0.289053 0.433270
Si Si4 0.691445 0.529148 0.709465
Si Si5 0.223837 0.082262 0.880137
Si Si6 0.111406 0.312646 0.575279
Si Si7 0.045753 0.669511 0.586248
Si Si8 0.836255 0.512036 0.577455
O O1 0.576042 0.609380 0.064395
O O2 0.410453 0.677887 0.114540
O O3 0.920411 0.668713 0.114069
O O4 0.557316 0.688404 0.009393
O O5 0.855165 0.090359 0.551163
O O6 0.155890 0.040856 0.514094
O O7 0.666241 0.036499 0.449643
O O8 0.444371 0.237943 0.439444
O O9 0.692643 0.302554 0.399779
O O10 0.187910 0.307565 0.395962
O O11 0.500000 0.509108 0.750000
O O12 0.461430 0.573741 0.818181
O O13 0.694975 0.507984 0.636879
O O14 0.000000 0.533048 0.750000
O O15 0.391002 0.123630 0.875994
O O16 0.399821 0.038932 0.891738
O O17 0.051234 0.335443 0.498818
#
# Coordination Sequence:
#
# PCOD9254988 Si02
#       8
#     8   8   8   8   8   8   8   8
#     4  10  17  28  41  62  96 135 173 209 235 291
#     4  10  20  32  49  81 109 139 180 213 265 311
#     4  10  17  27  41  64  95 142 180 200 233 292
#     4  11  23  41  58  75  96 134 185 225 274 316
#     4  11  20  34  56  75 108 138 182 217 269 314
#     4  10  17  27  42  61  96 142 183 195 237 289
#     4  10  18  26  44  66  95 128 176 210 239 290
#     4  10  21  35  55  77 103 142 176 222 256 328
#
# _framework density 19.782411
#
# number of rings (size 3 to 8) (size 9 to 14) (size 15 to 20)
#    0.000    1.750    3.750    5.625    1.750    0.000 
#    0.000    0.000    0.000    0.000    0.000    0.000 
#    0.000    0.000    0.000   27.000    3.000    1.750 
#
# Total GULP energy -178229.739476 kJ/mol
# GULP energy per Si atom -5569.679359 kJ/mol
# Density = 1.973739 g / cm^3
# Si number density = 19.782411 Si / 1000 Ang^3
#
#
#
# Elastic Constant Matrix: (Units=GPa)
#
#
# Indices 1 2 3 4 5 6 
#
# 1 150.5817 18.0169 7.4149 0.0000 11.0762 0.0000
# 2 18.0169 80.9444 0.2937 0.0000 15.4619 0.0000
# 3 7.4149 0.2937 21.8243 0.0000 -1.8125 0.0000
# 4 0.0000 0.0000 0.0000 2.0154 0.0000 0.6036
# 5 11.0762 15.4619 -1.8125 0.0000 14.8610 0.0000
# 6 0.0000 0.0000 0.0000 0.6036 0.0000 25.7156
#
#
#
# Elastic Compliance Matrix: (Units=1/GPa)
#
#
# Indices 1 2 3 4 5 6 
#
# 1 0.007232 -0.000627 -0.002871 0.000000 -0.005087 0.000000
# 2 -0.000627 0.015525 -0.001312 0.000000 -0.015846 0.000000
# 3 -0.002871 -0.001312 0.047587 0.000000 0.009309 0.000000
# 4 0.000000 0.000000 0.000000 0.499689 0.000000 -0.011729
# 5 -0.005087 -0.015846 0.009309 0.000000 0.088703 0.000000
# 6 0.000000 0.000000 0.000000 -0.011729 0.000000 0.039162
#
#
# Mechanical properties :
#
#
# Convention : Reuss Voigt Hill
#
# Bulk Modulus (GPa) = 16.46821 33.86684 25.16752
# Shear Modulus (GPa) = 6.87040 23.69339 15.28189
#
# Velocity S-wave (km/s) = 1.86562 3.46453 2.78240
# Velocity P-wave (km/s) = 3.60325 5.75854 4.80335
#
# Compressibility (1/GPa) = 0.06072306
#
# Stress axis : x y z
#
# Youngs Moduli (GPa) = 138.28277 64.41068 21.01432
#
# Poissons Ratio (x) = 0.04041 0.06033
# Poissons Ratio (y) = 0.08677 0.02757
# Poissons Ratio (z) = 0.39701 0.08449
#
# Static dielectric constant tensor:
#      x y z
#    x 1.869250 0.000000 0.005890 
#    y 0.000000 1.733810 0.000000 
#    z 0.005890 0.000000 1.718010 
# 
# From -- ./inp_files/228815.got.cif
#   From: 2010.05.17/outbox.cif.g08.bks.cpg/sg15_115_cif.got.tgz:228815.got - 2010.06.03 18:47:42.
