data_PCOD9254565
_publ_section_title
;
Structure prediction by ZEFSAII (Michael W. Deem and Ramdas Pophale) SiO2 
 PCOD9254565
Probable space group: C 2/C
;
_chemical_formula_sum "Si O2"
_cell_formula_units_Z 60
_cell_length_a 23.751356
_cell_length_b 18.291029
_cell_length_c 10.536575
_cell_angle_alpha 90.000000
_cell_angle_beta 44.832898
_cell_angle_gamma 90.000000
_cell_volume 3227.310122
_symmetry_space_group_name_H-M "C 2/C"
_symmetry_group_IT_number 15
_symmetry_cell_setting 'monoclinic'
loop_
_space_group_symop_operation_xyz
x,y,z
-x,y,1/2-z
-x,-y,-z
x,-y,1/2+z
1/2+x,1/2+y,z
1/2-x,1/2+y,1/2-z
1/2-x,1/2-y,-z
1/2+x,1/2-y,1/2+z
loop_
_atom_site_type_symbol
_atom_site_label
_atom_site_fract_x
_atom_site_fract_y
_atom_site_fract_z
Si Si1 0.957799 0.220239 0.048172
Si Si2 0.336627 0.636597 0.610895
Si Si3 0.628268 0.269324 0.211534
Si Si4 0.500000 0.306264 0.750000
Si Si5 0.921581 0.047603 0.098521
Si Si6 0.171974 0.008600 0.503133
Si Si7 0.243013 0.655942 0.155260
Si Si8 0.721770 0.742865 0.188048
O O1 0.941984 0.133006 0.078909
O O2 0.872716 0.253972 0.154046
O O3 0.984994 0.240117 0.147867
O O4 0.034338 0.237867 0.840423
O O5 0.361330 0.659070 0.713409
O O6 0.420393 0.646689 0.402189
O O7 0.299560 0.561296 0.623780
O O8 0.272694 0.697432 0.679830
O O9 0.666867 0.197021 0.215175
O O10 0.683052 0.292561 0.007750
O O11 0.861280 0.019573 0.307180
O O12 0.893040 0.037770 0.997436
O O13 0.000000 0.000000 0.000000
O O14 0.236324 0.073460 0.415646
O O15 0.249175 0.666203 0.296870
O O16 0.750000 0.750000 0.000000
#
# Coordination Sequence:
#
# PCOD9254565 Si02
#       8
#     8   8   8   4   8   8   8   8
#     4  11  20  35  55  81 109 146 189 232 275 339
#     4  10  20  33  55  74 112 147 179 226 281 333
#     4   9  21  38  55  79 111 154 186 228 281 343
#     4  10  16  32  50  76 110 144 174 218 280 328
#     4  12  23  32  52  80 119 146 180 224 289 344
#     4  12  22  36  52  83 113 151 185 229 281 346
#     4  10  21  38  55  76 115 150 190 226 278 343
#     4  11  20  36  53  79 110 144 190 235 275 329
#
# _framework density 18.591332999999999
#
# number of rings (size 3 to 8) (size 9 to 14) (size 15 to 20)
#    0.000    1.333    4.000    3.600    0.000    0.533 
#    0.000    0.000    0.000    0.800    0.000    0.000 
#   12.000    0.000    0.000    0.000    0.000    0.000 
#
# Total GULP energy -167165.335652 kJ/mol
# GULP energy per Si atom -5572.177855 kJ/mol
# Density = 1.854902 g / cm^3
# Si number density = 18.591333 Si / 1000 Ang^3
#
#
#
# Elastic Constant Matrix: (Units=GPa)
#
#
# Indices 1 2 3 4 5 6 
#
# 1 65.7840 12.7518 29.1893 0.0000 -11.6179 0.0000
# 2 12.7518 71.1841 31.1021 0.0000 -21.3865 0.0000
# 3 29.1893 31.1021 80.6334 0.0000 -11.9802 0.0000
# 4 0.0000 0.0000 0.0000 18.3006 0.0000 -4.3168
# 5 -11.6179 -21.3865 -11.9802 0.0000 33.3965 0.0000
# 6 0.0000 0.0000 0.0000 -4.3168 0.0000 17.3020
#
#
#
# Elastic Compliance Matrix: (Units=1/GPa)
#
#
# Indices 1 2 3 4 5 6 
#
# 1 0.018716 0.000881 -0.006405 0.000000 0.004778 0.000000
# 2 0.000881 0.019923 -0.006404 0.000000 0.010768 0.000000
# 3 -0.006405 -0.006404 0.017165 0.000000 -0.000172 0.000000
# 4 0.000000 0.000000 0.000000 0.058060 0.000000 0.014486
# 5 0.004778 0.010768 -0.000172 0.000000 0.038439 0.000000
# 6 0.000000 0.000000 0.000000 0.014486 0.000000 0.061411
#
#
# Mechanical properties :
#
#
# Convention : Reuss Voigt Hill
#
# Bulk Modulus (GPa) = 31.30035 40.40975 35.85505
# Shear Modulus (GPa) = 20.14335 23.43704 21.79020
#
# Velocity S-wave (km/s) = 3.29520 3.55441 3.42725
# Velocity P-wave (km/s) = 5.59913 6.21515 5.91517
#
# Compressibility (1/GPa) = 0.03194853
#
# Stress axis : x y z
#
# Youngs Moduli (GPa) = 53.42919 50.19232 58.25734
#
# Poissons Ratio (x) = -0.04423 0.37316
# Poissons Ratio (y) = -0.04708 0.37308
# Poissons Ratio (z) = 0.34223 0.32143
#
# Static dielectric constant tensor:
#      x y z
#    x 1.663080 0.000000 0.031000 
#    y 0.000000 1.662820 0.000000 
#    z 0.031000 0.000000 1.716090 
# 
# From -- ./inp_files/123799.got.cif
#   From: 2010.05.17/outbox.cif.g08.bks.cpg/sg15_62_cif.got.tgz:123799.got - 2010.06.03 18:47:42.
