data_PCOD9254051
_publ_section_title
;
Structure prediction by ZEFSAII (Michael W. Deem and Ramdas Pophale) SiO2 
 PCOD9254051
Probable space group: C 2/C
;
_chemical_formula_sum "Si O2"
_cell_formula_units_Z 64
_cell_length_a 9.236783
_cell_length_b 27.177364
_cell_length_c 10.710791
_cell_angle_alpha 90.000000
_cell_angle_beta 84.376397
_cell_angle_gamma 90.000000
_cell_volume 2675.804390
_symmetry_space_group_name_H-M "C 2/C"
_symmetry_group_IT_number 15
_symmetry_cell_setting 'monoclinic'
loop_
_space_group_symop_operation_xyz
x,y,z
-x,y,1/2-z
-x,-y,-z
x,-y,1/2+z
1/2+x,1/2+y,z
1/2-x,1/2+y,1/2-z
1/2-x,1/2-y,-z
1/2+x,1/2-y,1/2+z
loop_
_atom_site_type_symbol
_atom_site_label
_atom_site_fract_x
_atom_site_fract_y
_atom_site_fract_z
Si Si1 0.215810 0.115015 0.187583
Si Si2 0.636843 0.824888 0.644111
Si Si3 0.317411 0.026189 0.361406
Si Si4 0.474956 0.882060 0.464060
Si Si5 0.368009 0.713648 0.860561
Si Si6 0.336801 0.208383 0.845286
Si Si7 0.939565 0.189118 0.446400
Si Si8 0.124088 0.479180 0.374251
O O1 0.237632 0.163296 0.270788
O O2 0.247540 0.071509 0.286839
O O3 0.339644 0.108740 0.070267
O O4 0.080792 0.135816 0.118499
O O5 0.500000 0.829325 0.750000
O O6 0.606724 0.863821 0.540228
O O7 0.633729 0.770186 0.596525
O O8 0.533031 0.929478 0.390012
O O9 0.290396 0.983210 0.262787
O O10 0.275407 0.018097 0.510011
O O11 0.431939 0.837711 0.378804
O O12 0.504463 0.978582 0.626885
O O13 0.500000 0.708246 0.750000
O O14 0.226150 0.705104 0.789357
O O15 0.416119 0.685620 0.980495
O O16 0.417719 0.260033 0.869489
O O17 0.195288 0.199887 0.946510
#
# Coordination Sequence:
#
# PCOD9254051 Si02
#       8
#     8   8   8   8   8   8   8   8
#     4  10  16  23  35  54  79 114 143 167 208 261
#     4   9  14  18  33  51  76 109 138 161 201 250
#     4  10  19  29  42  61  88 117 145 179 219 264
#     4  10  16  23  35  54  79 113 142 168 208 259
#     4   9  14  22  30  49  80 111 142 176 202 253
#     4   9  15  21  32  51  77 112 145 169 207 259
#     4   9  15  21  32  51  77 111 146 170 204 262
#     4  10  19  29  42  61  88 118 146 178 219 265
#
# _framework density 23.918042
#
# number of rings (size 3 to 8) (size 9 to 14) (size 15 to 20)
#    0.000    2.500    3.750    2.250    1.750    0.000 
#    0.000    0.000    0.000    0.000    0.000    0.875 
#    0.000   27.000    0.000    2.875    0.000    0.250 
#
# Total GULP energy -178225.349976 kJ/mol
# GULP energy per Si atom -5569.542187 kJ/mol
# Density = 2.386360 g / cm^3
# Si number density = 23.918042 Si / 1000 Ang^3
#
#
#
# Elastic Constant Matrix: (Units=GPa)
#
#
# Indices 1 2 3 4 5 6 
#
# 1 53.8615 18.0739 42.0906 0.0000 8.8673 0.0000
# 2 18.0739 115.9650 73.6947 0.0000 25.7516 0.0000
# 3 42.0906 73.6947 194.6464 0.0000 22.5621 0.0000
# 4 0.0000 0.0000 0.0000 50.8392 0.0000 17.3939
# 5 8.8673 25.7516 22.5621 0.0000 45.3849 0.0000
# 6 0.0000 0.0000 0.0000 17.3939 0.0000 19.2702
#
#
#
# Elastic Compliance Matrix: (Units=1/GPa)
#
#
# Indices 1 2 3 4 5 6 
#
# 1 0.022530 -0.000148 -0.004579 0.000000 -0.002041 0.000000
# 2 -0.000148 0.012325 -0.004061 0.000000 -0.004946 0.000000
# 3 -0.004579 -0.004061 0.007741 0.000000 -0.000649 0.000000
# 4 0.000000 0.000000 0.000000 0.028458 0.000000 -0.025688
# 5 -0.002041 -0.004946 -0.000649 0.000000 0.025561 0.000000
# 6 0.000000 0.000000 0.000000 -0.025688 0.000000 0.075080
#
#
# Mechanical properties :
#
#
# Convention : Reuss Voigt Hill
#
# Bulk Modulus (GPa) = 39.96912 70.24349 55.10631
# Shear Modulus (GPa) = 25.30191 38.47311 31.88751
#
# Velocity S-wave (km/s) = 3.25600 4.01501 3.65526
# Velocity P-wave (km/s) = 5.55721 7.13624 6.39564
#
# Compressibility (1/GPa) = 0.02501931
#
# Stress axis : x y z
#
# Youngs Moduli (GPa) = 44.38431 81.13263 129.18882
#
# Poissons Ratio (x) = 0.01201 0.59160
# Poissons Ratio (y) = 0.00657 0.52467
# Poissons Ratio (z) = 0.20325 0.32950
#
# Static dielectric constant tensor:
#      x y z
#    x 2.020500 0.000000 -0.066630 
#    y 0.000000 1.933890 0.000000 
#    z -0.066630 0.000000 2.011600 
# 
# From -- ./inp_files/100854.got.cif
#   From: 2010.05.17/outbox.cif.g08.bks.cpg/sg15_51_cif.got.tgz:100854.got - 2010.06.03 18:47:42.
