data_PCOD9254386
_publ_section_title
;
Structure prediction by ZEFSAII (Michael W. Deem and Ramdas Pophale) SiO2 
 PCOD9254386
Probable space group: C 2/C
;
_chemical_formula_sum "Si O2"
_cell_formula_units_Z 64
_cell_length_a 20.047375
_cell_length_b 31.279379
_cell_length_c 5.486952
_cell_angle_alpha 90.000000
_cell_angle_beta 73.823374
_cell_angle_gamma 90.000000
_cell_volume 3304.473738
_symmetry_space_group_name_H-M "C 2/C"
_symmetry_group_IT_number 15
_symmetry_cell_setting 'monoclinic'
loop_
_space_group_symop_operation_xyz
x,y,z
-x,y,1/2-z
-x,-y,-z
x,-y,1/2+z
1/2+x,1/2+y,z
1/2-x,1/2+y,1/2-z
1/2-x,1/2-y,-z
1/2+x,1/2-y,1/2+z
loop_
_atom_site_type_symbol
_atom_site_label
_atom_site_fract_x
_atom_site_fract_y
_atom_site_fract_z
Si Si1 0.206371 0.609837 0.469216
Si Si2 0.750218 0.988351 0.891383
Si Si3 0.120355 0.382305 0.558083
Si Si4 0.435779 0.194142 0.661179
Si Si5 0.929846 0.780045 0.406234
Si Si6 0.169968 0.263470 0.877130
Si Si7 0.093315 0.522474 0.047975
Si Si8 0.702261 0.311430 0.711251
O O1 0.229465 0.560981 0.418322
O O2 0.171378 0.614943 0.770149
O O3 0.270269 0.642395 0.384687
O O4 0.156143 0.618499 0.286989
O O5 0.787453 0.999351 0.602566
O O6 0.677756 0.015707 0.962918
O O7 0.079856 0.338622 0.540605
O O8 0.079255 0.427193 0.582682
O O9 0.500000 0.176364 0.750000
O O10 0.455088 0.241680 0.554712
O O11 0.367413 0.204156 0.894306
O O12 0.887070 0.753592 0.248810
O O13 0.872068 0.809774 0.586080
O O14 0.000000 0.802484 0.250000
O O15 0.235441 0.288710 0.698658
O O16 0.195695 0.221069 0.991100
O O17 0.070022 0.502085 0.815813
#
# Coordination Sequence:
#
# PCOD9254386 Si02
#       8
#     8   8   8   8   8   8   8   8
#     4  12  21  34  54  86 116 146 183 236 290 338
#     4  10  16  30  50  77 109 147 183 216 279 349
#     4  12  22  33  56  81 112 147 188 244 287 330
#     4  11  23  37  55  78 104 147 200 243 285 337
#     4  11  22  39  61  75 110 154 192 233 287 353
#     4  10  20  40  54  78 110 146 187 235 289 343
#     4  10  16  31  49  76 103 147 187 221 285 346
#     4  10  23  33  56  86 112 143 186 240 289 337
#
# _framework density 19.367684000000001
#
# number of rings (size 3 to 8) (size 9 to 14) (size 15 to 20)
#    0.000    1.250    7.500    1.125    1.750    0.000 
#    0.000    0.000    0.000    0.750    0.000    0.000 
#    0.000    1.000    0.000    0.000    0.000    0.000 
#
# Total GULP energy -178664.807156 kJ/mol
# GULP energy per Si atom -5583.275224 kJ/mol
# Density = 1.932360 g / cm^3
# Si number density = 19.367684 Si / 1000 Ang^3
#
#
#
# Elastic Constant Matrix: (Units=GPa)
#
#
# Indices 1 2 3 4 5 6 
#
# 1 62.5153 18.4497 28.7689 0.0000 -12.1563 0.0000
# 2 18.4497 92.7240 19.5610 0.0000 -7.0695 0.0000
# 3 28.7689 19.5610 95.1456 0.0000 4.5724 0.0000
# 4 0.0000 0.0000 0.0000 17.9188 0.0000 13.6211
# 5 -12.1563 -7.0695 4.5724 0.0000 34.3104 0.0000
# 6 0.0000 0.0000 0.0000 13.6211 0.0000 -1.5764
#
#
#
# Elastic Compliance Matrix: (Units=1/GPa)
#
#
# Indices 1 2 3 4 5 6 
#
# 1 0.021083 -0.002271 -0.006285 0.000000 0.007839 0.000000
# 2 -0.002271 0.011763 -0.001821 0.000000 0.001862 0.000000
# 3 -0.006285 -0.001821 0.012993 0.000000 -0.004333 0.000000
# 4 0.000000 0.000000 0.000000 0.007374 0.000000 0.063715
# 5 0.007839 0.001862 -0.004333 0.000000 0.032884 0.000000
# 6 0.000000 0.000000 0.000000 0.063715 0.000000 -0.083819
#
#
# Mechanical properties :
#
#
# Convention : Reuss Voigt Hill
#
# Bulk Modulus (GPa) = 39.86479 42.66047 41.26263
# Shear Modulus (GPa) = 159.26765 22.37091 90.81928
#
# Velocity S-wave (km/s) = 9.07812 3.40231 6.85521
# Velocity P-wave (km/s) = 11.42413 6.12444 9.16568
#
# Compressibility (1/GPa) = 0.02508480
#
# Stress axis : x y z
#
# Youngs Moduli (GPa) = 47.43185 85.01421 76.96427
#
# Poissons Ratio (x) = 0.19311 0.48368
# Poissons Ratio (y) = 0.10774 0.14015
# Poissons Ratio (z) = 0.29809 0.15481
#
# Static dielectric constant tensor:
#      x y z
#    x 1.717710 0.000000 0.011290 
#    y 0.000000 1.662030 0.000000 
#    z 0.011290 0.000000 1.787690 
# 
# From -- ./inp_files/14641.got.cif
#   From: 2010.05.17/outbox.cif.g08.bks.cpg/sg15_8_cif.got.tgz:14641.got - 2010.06.03 18:47:42.
