data_PCOD9254745
_publ_section_title
;
Structure prediction by ZEFSAII (Michael W. Deem and Ramdas Pophale) SiO2 
 PCOD9254745
Probable space group: C 2/C
;
_chemical_formula_sum "Si O2"
_cell_formula_units_Z 40
_cell_length_a 12.105200
_cell_length_b 23.936619
_cell_length_c 11.347775
_cell_angle_alpha 90.000000
_cell_angle_beta 37.061359
_cell_angle_gamma 90.000000
_cell_volume 1981.641231
_symmetry_space_group_name_H-M "C 2/C"
_symmetry_group_IT_number 15
_symmetry_cell_setting 'monoclinic'
loop_
_space_group_symop_operation_xyz
x,y,z
-x,y,1/2-z
-x,-y,-z
x,-y,1/2+z
1/2+x,1/2+y,z
1/2-x,1/2+y,1/2-z
1/2-x,1/2-y,-z
1/2+x,1/2-y,1/2+z
loop_
_atom_site_type_symbol
_atom_site_label
_atom_site_fract_x
_atom_site_fract_y
_atom_site_fract_z
Si Si1 0.000000 0.419455 0.750000
Si Si2 0.822243 0.096825 0.574242
Si Si3 0.291132 0.019808 0.635194
Si Si4 0.500000 0.518138 0.250000
Si Si5 0.257106 0.107733 0.243532
Si Si6 0.279947 0.314410 0.943625
O O1 0.863267 0.385471 0.778154
O O2 0.115594 0.458579 0.562967
O O3 0.697018 0.063953 0.771287
O O4 0.725802 0.151431 0.606533
O O5 0.850574 0.057980 0.435106
O O6 0.032525 0.106780 0.440563
O O7 0.318792 0.955672 0.651790
O O8 0.075653 0.018972 0.788516
O O9 0.295737 0.155409 0.110934
O O10 0.500000 0.322475 0.750000
O O11 0.250000 0.250000 0.000000
#
# Coordination Sequence:
#
# PCOD9254745 Si02
#       6
#     4   8   8   4   8   8
#     4  12  24  34  48  86 134 154 182 236 296 358
#     4  10  18  36  61  83 109 153 202 239 286 344
#     4  11  20  33  55  84 121 157 191 235 298 346
#     4  10  16  34  58  80 114 150 196 242 284 352
#     4  10  21  37  56  83 119 155 195 239 288 350
#     4  10  21  40  63  88 112 147 200 251 288 337
#
# _framework density 20.185288
#
# number of rings (size 3 to 8) (size 9 to 14) (size 15 to 20)
#    0.000    1.600    5.000    5.400    0.000    1.600 
#    1.800    0.000    0.000   12.000    0.000    0.000 
#    0.000    0.000    0.000    0.000    0.000    0.000 
#
# Total GULP energy -111345.161545 kJ/mol
# GULP energy per Si atom -5567.258077 kJ/mol
# Density = 2.013935 g / cm^3
# Si number density = 20.185288 Si / 1000 Ang^3
#
#
#
# Elastic Constant Matrix: (Units=GPa)
#
#
# Indices 1 2 3 4 5 6 
#
# 1 153.9752 55.6297 19.5931 0.0000 19.9647 0.0000
# 2 55.6297 136.2418 50.8020 0.0000 27.2741 0.0000
# 3 19.5931 50.8020 84.9145 0.0000 23.1196 0.0000
# 4 0.0000 0.0000 0.0000 26.4747 0.0000 6.9563
# 5 19.9647 27.2741 23.1196 0.0000 29.7409 0.0000
# 6 0.0000 0.0000 0.0000 6.9563 0.0000 15.2826
#
#
#
# Elastic Compliance Matrix: (Units=1/GPa)
#
#
# Indices 1 2 3 4 5 6 
#
# 1 0.007845 -0.002839 0.000778 0.000000 -0.003267 0.000000
# 2 -0.002839 0.011217 -0.004787 0.000000 -0.004659 0.000000
# 3 0.000778 -0.004787 0.017008 0.000000 -0.009354 0.000000
# 4 0.000000 0.000000 0.000000 0.042903 0.000000 -0.019528
# 5 -0.003267 -0.004659 -0.009354 0.000000 0.047361 0.000000
# 6 0.000000 0.000000 0.000000 -0.019528 0.000000 0.074323
#
#
# Mechanical properties :
#
#
# Convention : Reuss Voigt Hill
#
# Bulk Modulus (GPa) = 44.69650 69.68680 57.19165
# Shear Modulus (GPa) = 22.54178 30.90677 26.72427
#
# Velocity S-wave (km/s) = 3.34540 3.91724 3.64256
# Velocity P-wave (km/s) = 6.09208 7.42012 6.78865
#
# Compressibility (1/GPa) = 0.02237312
#
# Stress axis : x y z
#
# Youngs Moduli (GPa) = 127.46977 89.15051 58.79694
#
# Poissons Ratio (x) = 0.25313 -0.04575
# Poissons Ratio (y) = 0.36193 0.28147
# Poissons Ratio (z) = -0.09919 0.42677
#
# Static dielectric constant tensor:
#      x y z
#    x 1.920270 0.000000 -0.076560 
#    y 0.000000 1.743460 0.000000 
#    z -0.076560 0.000000 1.792150 
# 
# From -- ./inp_files/99274.got.cif
#   From: 2010.05.17/outbox.cif.g08.bks.cpg/sg15_50_cif.got.tgz:99274.got - 2010.06.03 18:47:42.
