data_PCOD9254211
_publ_section_title
;
Structure prediction by ZEFSAII (Michael W. Deem and Ramdas Pophale) SiO2 
 PCOD9254211
Probable space group: C 2/C
;
_chemical_formula_sum "Si O2"
_cell_formula_units_Z 56
_cell_length_a 23.519272
_cell_length_b 14.015290
_cell_length_c 12.753106
_cell_angle_alpha 90.000000
_cell_angle_beta 118.151832
_cell_angle_gamma 90.000000
_cell_volume 3706.491215
_symmetry_space_group_name_H-M "C 2/C"
_symmetry_group_IT_number 15
_symmetry_cell_setting 'monoclinic'
loop_
_space_group_symop_operation_xyz
x,y,z
-x,y,1/2-z
-x,-y,-z
x,-y,1/2+z
1/2+x,1/2+y,z
1/2-x,1/2+y,1/2-z
1/2-x,1/2-y,-z
1/2+x,1/2-y,1/2+z
loop_
_atom_site_type_symbol
_atom_site_label
_atom_site_fract_x
_atom_site_fract_y
_atom_site_fract_z
Si Si1 0.328066 0.635852 0.265943
Si Si2 0.816503 0.688410 0.075655
Si Si3 0.772795 0.480269 0.686426
Si Si4 0.155033 0.859377 0.276859
Si Si5 0.075462 0.014156 0.553138
Si Si6 0.197440 0.343731 0.169186
Si Si7 0.160939 0.962111 0.936778
O O1 0.266197 0.578331 0.258114
O O2 0.386966 0.581165 0.374944
O O3 0.321461 0.745567 0.291257
O O4 0.334727 0.618674 0.147728
O O5 0.804432 0.597887 0.138524
O O6 0.861450 0.762309 0.176872
O O7 0.750000 0.750000 0.000000
O O8 0.834016 0.657588 0.973722
O O9 0.816477 0.560486 0.778171
O O10 0.720323 0.535106 0.568861
O O11 0.224469 0.845759 0.280926
O O12 0.103607 0.901379 0.150998
O O13 0.164028 0.940330 0.372916
O O14 0.097766 0.036459 0.454186
O O15 0.000000 0.000000 0.500000
#
# Coordination Sequence:
#
# PCOD9254211 Si02
#       7
#     8   8   8   8   8   8   8
#     4  10  19  29  46  69 101 136 163 207 256 307
#     4  10  16  28  46  64  95 134 165 199 248 301
#     4  11  16  27  45  69  99 131 165 198 250 306
#     4  10  17  29  49  68  94 134 168 201 253 306
#     4  10  21  35  49  71 101 135 178 216 251 303
#     4  11  18  29  45  73 102 132 164 206 258 313
#     4  10  17  30  45  70  98 132 166 205 256 295
#
# _framework density 15.108628
#
# number of rings (size 3 to 8) (size 9 to 14) (size 15 to 20)
#    0.000    1.714   10.000    0.857    0.000    2.857 
#    0.000    0.000    0.000    0.000    0.000    1.000 
#    0.000    2.286    0.000    0.000    0.000    0.000 
#
# Total GULP energy -155930.790348 kJ/mol
# GULP energy per Si atom -5568.956798 kJ/mol
# Density = 1.507424 g / cm^3
# Si number density = 15.108628 Si / 1000 Ang^3
#
#
#
# Elastic Constant Matrix: (Units=GPa)
#
#
# Indices 1 2 3 4 5 6 
#
# 1 52.2022 39.6255 41.4318 0.0000 -10.4008 0.0000
# 2 39.6255 121.8418 52.7392 0.0000 -13.8799 0.0000
# 3 41.4318 52.7392 76.5441 0.0000 -25.6177 0.0000
# 4 0.0000 0.0000 0.0000 31.6624 0.0000 -8.6390
# 5 -10.4008 -13.8799 -25.6177 0.0000 23.9251 0.0000
# 6 0.0000 0.0000 0.0000 -8.6390 0.0000 15.1595
#
#
#
# Elastic Compliance Matrix: (Units=1/GPa)
#
#
# Indices 1 2 3 4 5 6 
#
# 1 0.036027 -0.004357 -0.018863 0.000000 -0.007063 0.000000
# 2 -0.004357 0.012350 -0.006837 0.000000 -0.002050 0.000000
# 3 -0.018863 -0.006837 0.037269 0.000000 0.027739 0.000000
# 4 0.000000 0.000000 0.000000 0.037398 0.000000 0.021312
# 5 -0.007063 -0.002050 0.027739 0.000000 0.067239 0.000000
# 6 0.000000 0.000000 0.000000 0.021312 0.000000 0.078110
#
#
# Mechanical properties :
#
#
# Convention : Reuss Voigt Hill
#
# Bulk Modulus (GPa) = 39.16538 57.57568 48.37053
# Shear Modulus (GPa) = 14.83599 21.93552 18.38576
#
# Velocity S-wave (km/s) = 3.13702 3.81445 3.49220
# Velocity P-wave (km/s) = 6.25300 7.58885 6.95308
#
# Compressibility (1/GPa) = 0.02553275
#
# Stress axis : x y z
#
# Youngs Moduli (GPa) = 27.75683 80.97028 26.83189
#
# Poissons Ratio (x) = 0.35275 0.50613
# Poissons Ratio (y) = 0.12092 0.18346
# Poissons Ratio (z) = 0.52358 0.55362
#
# Static dielectric constant tensor:
#      x y z
#    x 1.495450 0.000000 -0.025620 
#    y 0.000000 1.519750 0.000000 
#    z -0.025620 0.000000 1.531750 
# 
# From -- ./inp_files/112435.got.cif
#   From: 2010.05.17/outbox.cif.g08.bks.cpg/sg15_57_cif.got.tgz:112435.got - 2010.06.03 18:47:42.
