data_PCOD9254619
_publ_section_title
;
Structure prediction by ZEFSAII (Michael W. Deem and Ramdas Pophale) SiO2 
 PCOD9254619
Probable space group: C 2/C
;
_chemical_formula_sum "Si O2"
_cell_formula_units_Z 52
_cell_length_a 14.142713
_cell_length_b 25.314405
_cell_length_c 11.033721
_cell_angle_alpha 90.000000
_cell_angle_beta 38.825539
_cell_angle_gamma 90.000000
_cell_volume 2476.601551
_symmetry_space_group_name_H-M "C 2/C"
_symmetry_group_IT_number 15
_symmetry_cell_setting 'monoclinic'
loop_
_space_group_symop_operation_xyz
x,y,z
-x,y,1/2-z
-x,-y,-z
x,-y,1/2+z
1/2+x,1/2+y,z
1/2-x,1/2+y,1/2-z
1/2-x,1/2-y,-z
1/2+x,1/2-y,1/2+z
loop_
_atom_site_type_symbol
_atom_site_label
_atom_site_fract_x
_atom_site_fract_y
_atom_site_fract_z
Si Si1 0.123751 0.144379 0.228142
Si Si2 0.500000 0.281039 0.250000
Si Si3 0.946291 0.771948 0.049111
Si Si4 0.759084 0.130062 0.060726
Si Si5 0.482495 0.561107 0.987971
Si Si6 0.422523 0.156769 0.011508
Si Si7 0.777778 0.367897 0.173422
O O1 0.087705 0.088841 0.324505
O O2 0.301694 0.142719 0.027976
O O3 0.000000 0.153916 0.250000
O O4 0.080822 0.191122 0.366076
O O5 0.471525 0.248858 0.158530
O O6 0.366367 0.320266 0.421528
O O7 0.935546 0.719850 0.981825
O O8 0.806433 0.812126 0.209054
O O9 0.661526 0.141834 0.277263
O O10 0.872921 0.081902 0.987757
O O11 0.674887 0.125434 0.015357
O O12 0.645519 0.588866 0.814561
O O13 0.500000 0.500000 0.000000
O O14 0.583601 0.129828 0.872205
#
# Coordination Sequence:
#
# PCOD9254619 Si02
#       7
#     8   4   8   8   8   8   8
#     4  10  22  41  55  77 114 155 203 238 278 353
#     4  10  16  32  56  78 124 146 188 232 278 364
#     4  10  20  34  54  83 118 161 193 226 289 351
#     4  10  18  35  52  83 119 145 173 236 294 350
#     4  10  20  39  61  79 104 149 197 235 289 357
#     4  11  21  33  55  88 116 150 190 234 291 335
#     4  10  20  33  55  86 120 140 185 243 289 347
#
# _framework density 20.996514999999999
#
# number of rings (size 3 to 8) (size 9 to 14) (size 15 to 20)
#    0.000    1.846    6.154    1.385    2.154    3.077 
#    0.000    6.154    0.000    3.692    0.000    0.000 
#    0.000    0.000    0.000    0.000    0.000    0.000 
#
# Total GULP energy -144778.818551 kJ/mol
# GULP energy per Si atom -5568.416098 kJ/mol
# Density = 2.094873 g / cm^3
# Si number density = 20.996515 Si / 1000 Ang^3
#
#
#
# Elastic Constant Matrix: (Units=GPa)
#
#
# Indices 1 2 3 4 5 6 
#
# 1 142.2223 21.5122 20.5743 0.0000 -21.9478 0.0000
# 2 21.5122 112.4559 10.0708 0.0000 -9.3536 0.0000
# 3 20.5743 10.0708 31.6978 0.0000 -14.3866 0.0000
# 4 0.0000 0.0000 0.0000 0.8051 0.0000 -3.7212
# 5 -21.9478 -9.3536 -14.3866 0.0000 31.1320 0.0000
# 6 0.0000 0.0000 0.0000 -3.7212 0.0000 -1.4924
#
#
#
# Elastic Compliance Matrix: (Units=1/GPa)
#
#
# Indices 1 2 3 4 5 6 
#
# 1 0.008267 -0.000956 -0.003224 0.000000 0.004052 0.000000
# 2 -0.000956 0.009342 -0.001746 0.000000 0.001326 0.000000
# 3 -0.003224 -0.001746 0.041664 0.000000 0.016457 0.000000
# 4 0.000000 0.000000 0.000000 0.099172 0.000000 -0.247277
# 5 0.004052 0.001326 0.016457 0.000000 0.042981 0.000000
# 6 0.000000 0.000000 0.000000 -0.247277 0.000000 -0.053497
#
#
# Mechanical properties :
#
#
# Convention : Reuss Voigt Hill
#
# Bulk Modulus (GPa) = 21.08683 43.41009 32.24846
# Shear Modulus (GPa) = 28.47580 21.70351 25.08965
#
# Velocity S-wave (km/s) = 3.68668 3.21856 3.46055
# Velocity P-wave (km/s) = 5.30914 5.87639 5.59995
#
# Compressibility (1/GPa) = 0.04742297
#
# Stress axis : x y z
#
# Youngs Moduli (GPa) = 120.95696 107.04511 24.00153
#
# Poissons Ratio (x) = 0.10232 0.07737
# Poissons Ratio (y) = 0.11561 0.04190
# Poissons Ratio (z) = 0.38992 0.18687
#
# Static dielectric constant tensor:
#      x y z
#    x 1.943920 0.000000 0.011270 
#    y 0.000000 1.704200 0.000000 
#    z 0.011270 0.000000 1.822820 
# 
# From -- ./inp_files/100933.got.cif
#   From: 2010.05.17/outbox.cif.g08.bks.cpg/sg15_51_cif.got.tgz:100933.got - 2010.06.03 18:47:42.
