data_PCOD9254620
_publ_section_title
;
Structure prediction by ZEFSAII (Michael W. Deem and Ramdas Pophale) SiO2 
 PCOD9254620
Probable space group: C 2/C
;
_chemical_formula_sum "Si O2"
_cell_formula_units_Z 40
_cell_length_a 15.029766
_cell_length_b 24.741981
_cell_length_c 5.161304
_cell_angle_alpha 90.000000
_cell_angle_beta 70.053520
_cell_angle_gamma 90.000000
_cell_volume 1804.178002
_symmetry_space_group_name_H-M "C 2/C"
_symmetry_group_IT_number 15
_symmetry_cell_setting 'monoclinic'
loop_
_space_group_symop_operation_xyz
x,y,z
-x,y,1/2-z
-x,-y,-z
x,-y,1/2+z
1/2+x,1/2+y,z
1/2-x,1/2+y,1/2-z
1/2-x,1/2-y,-z
1/2+x,1/2-y,1/2+z
loop_
_atom_site_type_symbol
_atom_site_label
_atom_site_fract_x
_atom_site_fract_y
_atom_site_fract_z
Si Si1 0.265223 0.965640 0.296444
Si Si2 0.000000 0.290259 0.250000
Si Si3 0.287261 0.310505 0.404349
Si Si4 0.191188 0.355423 0.998026
Si Si5 0.043877 0.939213 0.462407
Si Si6 0.000000 0.783826 0.250000
O O1 0.318312 0.914963 0.369802
O O2 0.154755 0.947315 0.392863
O O3 0.282264 0.013526 0.488292
O O4 0.909693 0.326526 0.408519
O O5 0.019297 0.253370 0.479632
O O6 0.250000 0.250000 0.500000
O O7 0.254377 0.324723 0.148632
O O8 0.400216 0.312918 0.302009
O O9 0.240857 0.349730 0.668060
O O10 0.000000 0.914707 0.250000
O O11 0.000000 0.000000 0.500000
O O12 0.000000 0.909229 0.750000
#
# Coordination Sequence:
#
# PCOD9254620 Si02
#       6
#     8   4   8   8   8   4
#     4  12  23  41  62  90 132 179 223 277 324 380
#     4  12  22  44  70  99 126 187 224 268 352 420
#     4  12  23  46  68 103 134 173 219 282 341 408
#     4  12  26  43  69 102 135 176 236 277 332 411
#     4  10  16  32  56  80 105 160 222 238 317 392
#     4  12  24  40  76  97 140 175 214 272 360 406
#
# _framework density 22.170760000000001
#
# number of rings (size 3 to 8) (size 9 to 14) (size 15 to 20)
#    0.000    0.400    8.000    3.000    0.000    0.000 
#    5.400    1.000    0.000    0.000    0.000    0.000 
#    0.000    0.000    0.000    0.000    0.000    0.000 
#
# Total GULP energy -111866.272694 kJ/mol
# GULP energy per Si atom -5593.313635 kJ/mol
# Density = 2.212030 g / cm^3
# Si number density = 22.170760 Si / 1000 Ang^3
#
#
#
# Elastic Constant Matrix: (Units=GPa)
#
#
# Indices 1 2 3 4 5 6 
#
# 1 101.9015 2.4539 10.7147 0.0000 -8.8799 0.0000
# 2 2.4539 53.8700 -19.9071 0.0000 0.2335 0.0000
# 3 10.7147 -19.9071 92.5490 0.0000 21.7155 0.0000
# 4 0.0000 0.0000 0.0000 13.2282 0.0000 4.8413
# 5 -8.8799 0.2335 21.7155 0.0000 46.0035 0.0000
# 6 0.0000 0.0000 0.0000 4.8413 0.0000 6.2511
#
#
#
# Elastic Compliance Matrix: (Units=1/GPa)
#
#
# Indices 1 2 3 4 5 6 
#
# 1 0.010339 -0.001292 -0.002187 0.000000 0.003035 0.000000
# 2 -0.001292 0.020570 0.005237 0.000000 -0.002826 0.000000
# 3 -0.002187 0.005237 0.013821 0.000000 -0.006973 0.000000
# 4 0.000000 0.000000 0.000000 0.105500 0.000000 -0.081708
# 5 0.003035 -0.002826 -0.006973 0.000000 0.025629 0.000000
# 6 0.000000 0.000000 0.000000 -0.081708 0.000000 0.223253
#
#
# Mechanical properties :
#
#
# Convention : Reuss Voigt Hill
#
# Bulk Modulus (GPa) = 20.72738 26.09371 23.41055
# Shear Modulus (GPa) = 12.14542 30.10049 21.12295
#
# Velocity S-wave (km/s) = 2.34308 3.68865 3.09000
# Velocity P-wave (km/s) = 4.08525 5.47142 4.82834
#
# Compressibility (1/GPa) = 0.04824537
#
# Stress axis : x y z
#
# Youngs Moduli (GPa) = 96.72200 48.61522 72.35446
#
# Poissons Ratio (x) = 0.06282 0.15824
# Poissons Ratio (y) = 0.12499 -0.37894
# Poissons Ratio (z) = 0.21153 -0.25461
#
# Static dielectric constant tensor:
#      x y z
#    x 1.742580 0.000000 -0.006920 
#    y 0.000000 1.852250 0.000000 
#    z -0.006920 0.000000 1.848560 
# 
# From -- ./inp_files/7508.got.cif
#   From: 2010.05.17/outbox.cif.g08.bks.cpg/sg15_4_cif.got.tgz:7508.got - 2010.06.03 18:47:42.
