data_PCOD9254223
_publ_section_title
;
Structure prediction by ZEFSAII (Michael W. Deem and Ramdas Pophale) SiO2 
 PCOD9254223
Probable space group: C 2/C
;
_chemical_formula_sum "Si O2"
_cell_formula_units_Z 52
_cell_length_a 15.303188
_cell_length_b 19.625102
_cell_length_c 24.717242
_cell_angle_alpha 90.000000
_cell_angle_beta 155.142384
_cell_angle_gamma 90.000000
_cell_volume 3120.470684
_symmetry_space_group_name_H-M "C 2/C"
_symmetry_group_IT_number 15
_symmetry_cell_setting 'monoclinic'
loop_
_space_group_symop_operation_xyz
x,y,z
-x,y,1/2-z
-x,-y,-z
x,-y,1/2+z
1/2+x,1/2+y,z
1/2-x,1/2+y,1/2-z
1/2-x,1/2-y,-z
1/2+x,1/2-y,1/2+z
loop_
_atom_site_type_symbol
_atom_site_label
_atom_site_fract_x
_atom_site_fract_y
_atom_site_fract_z
Si Si1 0.000000 0.500358 0.250000
Si Si2 0.226899 0.632237 0.364174
Si Si3 0.182194 0.179954 0.204548
Si Si4 0.972230 0.391868 0.140523
Si Si5 0.640876 0.303584 0.140641
Si Si6 0.757452 0.230106 0.925641
Si Si7 0.915190 0.879333 0.646051
O O1 0.194389 0.552509 0.359613
O O2 0.990546 0.453531 0.297406
O O3 0.264497 0.642442 0.321307
O O4 0.414383 0.664699 0.503257
O O5 0.000000 0.663466 0.250000
O O6 0.351551 0.233667 0.321107
O O7 0.095620 0.128951 0.202132
O O8 0.985218 0.227699 0.079346
O O9 0.862002 0.332093 0.113657
O O10 0.191161 0.359537 0.244379
O O11 0.796429 0.410780 0.997535
O O12 0.719389 0.282858 0.124711
O O13 0.653423 0.301651 0.879287
O O14 0.000000 0.909257 0.750000
#
# Coordination Sequence:
#
# PCOD9254223 Si02
#       7
#     4   8   8   8   8   8   8
#     4  10  22  42  50  74 118 150 196 226 250 330
#     4   9  24  40  48  78 110 150 198 228 258 314
#     4  10  18  30  55  79 111 143 171 224 287 331
#     4  11  18  30  55  81 112 149 170 223 287 334
#     4  11  17  30  57  82 105 139 178 227 289 329
#     4  10  16  28  46  88 120 123 159 221 295 344
#     4  11  18  29  50  88 122 131 164 227 300 351
#
# _framework density 16.664152999999999
#
# number of rings (size 3 to 8) (size 9 to 14) (size 15 to 20)
#    0.462    1.231    6.154    0.923    0.000    1.231 
#    0.000    0.000    0.000    0.923    8.000    0.000 
#    0.000    0.000    0.000    0.000    0.000    0.000 
#
# Total GULP energy -144775.348016 kJ/mol
# GULP energy per Si atom -5568.282616 kJ/mol
# Density = 1.662622 g / cm^3
# Si number density = 16.664153 Si / 1000 Ang^3
#
#
#
# Elastic Constant Matrix: (Units=GPa)
#
#
# Indices 1 2 3 4 5 6 
#
# 1 42.5090 -2.9488 17.6154 0.0530 4.2510 -0.0357
# 2 -2.9488 32.2947 18.6764 0.0165 6.6263 -0.0086
# 3 17.6154 18.6764 99.8229 0.2677 -1.1810 -0.1781
# 4 0.0530 0.0165 0.2677 344.4619 0.1079 -215.9630
# 5 4.2510 6.6263 -1.1810 0.1079 27.9787 -0.0705
# 6 -0.0357 -0.0086 -0.1781 -215.9630 -0.0705 162.8056
#
#
#
# Elastic Compliance Matrix: (Units=1/GPa)
#
#
# Indices 1 2 3 4 5 6 
#
# 1 0.027244 0.007369 -0.006259 0.000002 -0.006149 -0.000001
# 2 0.007369 0.038861 -0.008698 0.000003 -0.010690 -0.000006
# 3 -0.006259 -0.008698 0.012792 -0.000006 0.003551 0.000005
# 4 0.000002 0.000003 -0.000006 0.017246 -0.000010 0.022877
# 5 -0.006149 -0.010690 0.003551 -0.000010 0.039357 0.000005
# 6 -0.000001 -0.000006 0.000005 0.022877 0.000005 0.036488
#
#
# Mechanical properties :
#
#
# Convention : Reuss Voigt Hill
#
# Bulk Modulus (GPa) = 15.69327 26.81250 21.25289
# Shear Modulus (GPa) = 23.99179 116.46815 70.22997
#
# Velocity S-wave (km/s) = 3.79849 8.36918 6.49891
# Velocity P-wave (km/s) = 5.35498 10.46498 8.31239
#
# Compressibility (1/GPa) = 0.06372156
#
# Stress axis : x y z
#
# Youngs Moduli (GPa) = 36.70495 25.73263 78.17621
#
# Poissons Ratio (x) = -0.18963 0.48932
# Poissons Ratio (y) = -0.27048 0.67995
# Poissons Ratio (z) = 0.22974 0.22381
#
# Static dielectric constant tensor:
#      x y z
#    x 1.576330 0.000000 -0.018680 
#    y 0.000000 1.539590 0.000000 
#    z -0.018680 0.000000 1.637790 
# 
# From -- ./inp_files/274958.got.cif
#   From: 2010.05.17/outbox.cif.g08.bks.cpg/sg15_138_cif.got.tgz:274958.got - 2010.06.03 18:47:42.
