data_PCOD9254102
_publ_section_title
;
Structure prediction by ZEFSAII (Michael W. Deem and Ramdas Pophale) SiO2 
 PCOD9254102
Probable space group: C 2/C
;
_chemical_formula_sum "Si O2"
_cell_formula_units_Z 64
_cell_length_a 13.491569
_cell_length_b 10.056885
_cell_length_c 21.366862
_cell_angle_alpha 90.000000
_cell_angle_beta 72.089967
_cell_angle_gamma 90.000000
_cell_volume 2758.633443
_symmetry_space_group_name_H-M "C 2/C"
_symmetry_group_IT_number 15
_symmetry_cell_setting 'monoclinic'
loop_
_space_group_symop_operation_xyz
x,y,z
-x,y,1/2-z
-x,-y,-z
x,-y,1/2+z
1/2+x,1/2+y,z
1/2-x,1/2+y,1/2-z
1/2-x,1/2-y,-z
1/2+x,1/2-y,1/2+z
loop_
_atom_site_type_symbol
_atom_site_label
_atom_site_fract_x
_atom_site_fract_y
_atom_site_fract_z
Si Si1 0.995472 0.161513 0.996209
Si Si2 0.399040 0.656049 0.405609
Si Si3 0.166610 0.304108 0.614154
Si Si4 0.219216 0.085386 0.519256
Si Si5 0.577195 0.756828 0.856541
Si Si6 0.626098 0.753928 0.221043
Si Si7 0.624202 0.951162 0.745960
Si Si8 0.928600 0.000761 0.206320
O O1 0.072464 0.225917 0.930527
O O2 0.877150 0.166415 0.995085
O O3 0.031571 0.225239 0.054434
O O4 0.000000 0.000000 0.000000
O O5 0.314838 0.562654 0.456130
O O6 0.351145 0.737271 0.357273
O O7 0.486135 0.559520 0.357971
O O8 0.228066 0.169072 0.582416
O O9 0.194548 0.405741 0.551749
O O10 0.182361 0.371485 0.678577
O O11 0.045204 0.266828 0.636551
O O12 0.628625 0.881276 0.812741
O O13 0.621606 0.625772 0.815244
O O14 0.500000 0.754068 0.250000
O O15 0.646319 0.617641 0.254826
O O16 0.657100 0.895499 0.241358
O O17 0.500000 0.950671 0.750000
O O18 0.000000 0.953228 0.250000
#
# Coordination Sequence:
#
# PCOD9254102 Si02
#       8
#     8   8   8   8   8   8   8   8
#     4   9  15  26  43  74  97 120 157 202 232 283
#     4   9  15  27  45  67  95 121 162 195 235 286
#     4   9  16  26  42  65 100 118 151 198 254 279
#     4   9  16  25  41  70  95 124 150 200 244 296
#     4  10  16  25  47  72  91 117 159 201 241 282
#     4   8  17  27  43  66  94 116 154 199 243 277
#     4   9  17  28  43  66  91 117 151 198 244 283
#     4   9  14  23  42  68  88 112 152 201 236 273
#
# _framework density 23.199894
#
# number of rings (size 3 to 8) (size 9 to 14) (size 15 to 20)
#    0.000    3.250    3.750    1.125    1.750    0.000 
#    0.000    0.625    0.000   18.750   26.000    0.000 
#    0.000    0.000    0.000    0.000    0.000    0.000 
#
# Total GULP energy -178216.154074 kJ/mol
# GULP energy per Si atom -5569.254815 kJ/mol
# Density = 2.314709 g / cm^3
# Si number density = 23.199894 Si / 1000 Ang^3
#
#
#
# Elastic Constant Matrix: (Units=GPa)
#
#
# Indices 1 2 3 4 5 6 
#
# 1 32.8720 6.8856 27.3327 0.0000 -19.6455 0.0000
# 2 6.8856 82.6590 45.5581 0.0000 1.5307 0.0000
# 3 27.3327 45.5581 134.2479 0.0000 6.0872 0.0000
# 4 0.0000 0.0000 0.0000 30.6075 0.0000 3.6160
# 5 -19.6455 1.5307 6.0872 0.0000 28.5238 0.0000
# 6 0.0000 0.0000 0.0000 3.6160 0.0000 -6.9638
#
#
#
# Elastic Compliance Matrix: (Units=1/GPa)
#
#
# Indices 1 2 3 4 5 6 
#
# 1 0.085103 0.003528 -0.021380 0.000000 0.062987 0.000000
# 2 0.003528 0.015030 -0.005950 0.000000 0.002893 0.000000
# 3 -0.021380 -0.005950 0.014616 0.000000 -0.017525 0.000000
# 4 0.000000 0.000000 0.000000 0.030783 0.000000 0.015984
# 5 0.062987 0.002893 -0.017525 0.000000 0.082025 0.000000
# 6 0.000000 0.000000 0.000000 0.015984 0.000000 -0.135299
#
#
# Mechanical properties :
#
#
# Convention : Reuss Voigt Hill
#
# Bulk Modulus (GPa) = 14.89328 45.48128 30.18728
# Shear Modulus (GPa) = 30.81816 21.76700 26.29258
#
# Velocity S-wave (km/s) = 3.64864 3.06639 3.37011
# Velocity P-wave (km/s) = 4.91768 5.67306 5.30882
#
# Compressibility (1/GPa) = 0.06714436
#
# Stress axis : x y z
#
# Youngs Moduli (GPa) = 11.75052 66.53447 68.41960
#
# Poissons Ratio (x) = -0.23475 1.46282
# Poissons Ratio (y) = -0.04146 0.40710
# Poissons Ratio (z) = 0.25123 0.39588
#
# Static dielectric constant tensor:
#      x y z
#    x 1.978060 0.000000 0.021610 
#    y 0.000000 1.913810 0.000000 
#    z 0.021610 0.000000 1.921220 
# 
# From -- ./inp_files/276922.got.cif
#   From: 2010.05.17/outbox.cif.g08.bks.cpg/sg15_139_cif.got.tgz:276922.got - 2010.06.03 18:47:42.
