data_PCOD9254580
_publ_section_title
;
Structure prediction by ZEFSAII (Michael W. Deem and Ramdas Pophale) SiO2 
 PCOD9254580
Probable space group: C 2/C
;
_chemical_formula_sum "Si O2"
_cell_formula_units_Z 56
_cell_length_a 28.651806
_cell_length_b 18.784957
_cell_length_c 5.359506
_cell_angle_alpha 90.000000
_cell_angle_beta 109.878067
_cell_angle_gamma 90.000000
_cell_volume 2712.739345
_symmetry_space_group_name_H-M "C 2/C"
_symmetry_group_IT_number 15
_symmetry_cell_setting 'monoclinic'
loop_
_space_group_symop_operation_xyz
x,y,z
-x,y,1/2-z
-x,-y,-z
x,-y,1/2+z
1/2+x,1/2+y,z
1/2-x,1/2+y,1/2-z
1/2-x,1/2-y,-z
1/2+x,1/2-y,1/2+z
loop_
_atom_site_type_symbol
_atom_site_label
_atom_site_fract_x
_atom_site_fract_y
_atom_site_fract_z
Si Si1 0.176828 0.311894 0.782777
Si Si2 0.136465 0.618953 0.709630
Si Si3 0.217357 0.152186 0.840771
Si Si4 0.133564 0.955386 0.254069
Si Si5 0.479525 0.417803 0.460783
Si Si6 0.261973 0.956728 0.102557
Si Si7 0.477992 0.081072 0.961643
O O1 0.148972 0.337169 0.483818
O O2 0.193359 0.229956 0.789458
O O3 0.146117 0.334107 0.976143
O O4 0.230814 0.349089 0.914954
O O5 0.179229 0.558861 0.781390
O O6 0.081471 0.586146 0.629812
O O7 0.175331 0.102332 0.873490
O O8 0.233718 0.117825 0.604285
O O9 0.079049 0.921921 0.162004
O O10 0.137409 0.011794 0.484357
O O11 0.500000 0.382618 0.250000
O O12 0.500000 0.500000 0.500000
O O13 0.500000 0.384460 0.750000
O O14 0.249718 0.004471 0.323410
O O15 0.500000 0.114273 0.750000
O O16 0.500000 0.115703 0.250000
O O17 0.500000 0.000000 0.000000
#
# Coordination Sequence:
#
# PCOD9254580 Si02
#       7
#     8   8   8   8   8   8   8
#     4  10  24  44  65  83 123 177 218 257 290 392
#     4  11  23  41  67  92 124 172 217 254 321 378
#     4  10  24  42  61  91 123 168 215 251 316 360
#     4  12  22  34  60  90 123 151 192 257 311 377
#     4  10  16  32  52  78 111 149 181 218 291 367
#     4  11  23  36  59  91 134 158 191 262 316 389
#     4  10  22  37  63  98 127 161 203 268 322 395
#
# _framework density 20.643339000000001
#
# number of rings (size 3 to 8) (size 9 to 14) (size 15 to 20)
#    0.000    1.429    2.857    3.429    4.000    9.714 
#    0.000    0.000    0.000    5.143    0.000    0.000 
#    0.000    0.000    0.000    0.000    0.000    0.000 
#
# Total GULP energy -156353.516706 kJ/mol
# GULP energy per Si atom -5584.054168 kJ/mol
# Density = 2.059635 g / cm^3
# Si number density = 20.643339 Si / 1000 Ang^3
#
#
#
# Elastic Constant Matrix: (Units=GPa)
#
#
# Indices 1 2 3 4 5 6 
#
# 1 168.5740 44.8544 57.9872 0.0000 22.8673 0.0000
# 2 44.8544 56.0705 33.7574 0.0000 4.3467 0.0000
# 3 57.9872 33.7574 159.1957 0.0000 -18.2462 0.0000
# 4 0.0000 0.0000 0.0000 16.1618 0.0000 4.7331
# 5 22.8673 4.3467 -18.2462 0.0000 42.8535 0.0000
# 6 0.0000 0.0000 0.0000 4.7331 0.0000 18.0427
#
#
#
# Elastic Compliance Matrix: (Units=1/GPa)
#
#
# Indices 1 2 3 4 5 6 
#
# 1 0.009001 -0.005068 -0.002834 0.000000 -0.005495 0.000000
# 2 -0.005068 0.024015 -0.003380 0.000000 -0.001171 0.000000
# 3 -0.002834 -0.003380 0.008666 0.000000 0.005545 0.000000
# 4 0.000000 0.000000 0.000000 0.067023 0.000000 -0.017582
# 5 -0.005495 -0.001171 0.005545 0.000000 0.028747 0.000000
# 6 0.000000 0.000000 0.000000 -0.017582 0.000000 0.060036
#
#
# Mechanical properties :
#
#
# Convention : Reuss Voigt Hill
#
# Bulk Modulus (GPa) = 52.30894 73.00423 62.65658
# Shear Modulus (GPa) = 22.08219 31.89435 26.98827
#
# Velocity S-wave (km/s) = 3.27418 3.93494 3.61967
# Velocity P-wave (km/s) = 6.29984 7.48908 6.92005
#
# Compressibility (1/GPa) = 0.01911719
#
# Stress axis : x y z
#
# Youngs Moduli (GPa) = 111.09946 41.64037 115.39215
#
# Poissons Ratio (x) = 0.21105 0.32699
# Poissons Ratio (y) = 0.56309 0.39007
# Poissons Ratio (z) = 0.31483 0.14076
#
# Static dielectric constant tensor:
#      x y z
#    x 1.754530 0.000000 -0.046940 
#    y 0.000000 1.703630 0.000000 
#    z -0.046940 0.000000 1.762760 
# 
# From -- ./inp_files/17215.got.cif
#   From: 2010.05.17/outbox.cif.g08.bks.cpg/sg15_9_cif.got.tgz:17215.got - 2010.06.03 18:47:42.
