data_PCOD9254802
_publ_section_title
;
Structure prediction by ZEFSAII (Michael W. Deem and Ramdas Pophale) SiO2 
 PCOD9254802
Probable space group: C 2/C
;
_chemical_formula_sum "Si O2"
_cell_formula_units_Z 44
_cell_length_a 10.243274
_cell_length_b 18.977831
_cell_length_c 11.307768
_cell_angle_alpha 90.000000
_cell_angle_beta 71.212199
_cell_angle_gamma 90.000000
_cell_volume 2081.051469
_symmetry_space_group_name_H-M "C 2/C"
_symmetry_group_IT_number 15
_symmetry_cell_setting 'monoclinic'
loop_
_space_group_symop_operation_xyz
x,y,z
-x,y,1/2-z
-x,-y,-z
x,-y,1/2+z
1/2+x,1/2+y,z
1/2-x,1/2+y,1/2-z
1/2-x,1/2-y,-z
1/2+x,1/2-y,1/2+z
loop_
_atom_site_type_symbol
_atom_site_label
_atom_site_fract_x
_atom_site_fract_y
_atom_site_fract_z
Si Si1 0.500000 0.937125 0.750000
Si Si2 0.149533 0.127883 0.068892
Si Si3 0.500000 0.310190 0.250000
Si Si4 0.000000 0.995838 0.750000
Si Si5 0.127098 0.133657 0.479292
Si Si6 0.170330 0.316986 0.783036
Si Si7 0.219301 0.981079 0.375560
O O1 0.557799 0.880361 0.829334
O O2 0.631477 0.987185 0.695814
O O3 0.226436 0.177380 0.137633
O O4 0.101177 0.058988 0.155558
O O5 0.009814 0.155900 0.052275
O O6 0.237532 0.091130 0.940941
O O7 0.402071 0.347495 0.376226
O O8 0.402557 0.257308 0.204734
O O9 0.107472 0.034643 0.805000
O O10 0.251093 0.166961 0.365031
O O11 0.148826 0.049169 0.460839
#
# Coordination Sequence:
#
# PCOD9254802 Si02
#       7
#     4   8   4   4   8   8   8
#     4   9  18  38  54  85 121 164 191 236 304 361
#     4  11  19  35  63  87 118 158 197 245 303 360
#     4  11  24  37  62  86 118 159 213 248 286 351
#     4  10  16  35  52  87 119 149 196 238 288 364
#     4  10  20  39  59  89 114 156 203 253 293 350
#     4  10  20  39  61  83 119 160 202 241 306 353
#     4  10  21  33  63  89 125 158 197 244 308 360
#
# _framework density 21.143158
#
# number of rings (size 3 to 8) (size 9 to 14) (size 15 to 20)
#    0.000    1.818    5.455    2.727    0.000    4.364 
#    0.000    0.000    4.000    0.000    0.000    0.000 
#    0.000    0.000    0.000    0.000    0.000    0.000 
#
# Total GULP energy -122556.188738 kJ/mol
# GULP energy per Si atom -5570.735852 kJ/mol
# Density = 2.109503 g / cm^3
# Si number density = 21.143158 Si / 1000 Ang^3
#
#
#
# Elastic Constant Matrix: (Units=GPa)
#
#
# Indices 1 2 3 4 5 6 
#
# 1 133.1975 29.3617 43.5073 0.0000 0.0980 0.0000
# 2 29.3617 45.4002 36.8823 0.0000 -2.5956 0.0000
# 3 43.5073 36.8823 86.0143 0.0000 5.6543 0.0000
# 4 0.0000 0.0000 0.0000 8.4898 0.0000 5.3270
# 5 0.0980 -2.5956 5.6543 0.0000 21.8998 0.0000
# 6 0.0000 0.0000 0.0000 5.3270 0.0000 15.5632
#
#
#
# Elastic Compliance Matrix: (Units=1/GPa)
#
#
# Indices 1 2 3 4 5 6 
#
# 1 0.009322 -0.003301 -0.003328 0.000000 0.000426 0.000000
# 2 -0.003301 0.036362 -0.014452 0.000000 0.008056 0.000000
# 3 -0.003328 -0.014452 0.019956 0.000000 -0.006850 0.000000
# 4 0.000000 0.000000 0.000000 0.150003 0.000000 -0.051343
# 5 0.000426 0.008056 -0.006850 0.000000 0.048384 0.000000
# 6 0.000000 0.000000 0.000000 -0.051343 0.000000 0.081828
#
#
# Mechanical properties :
#
#
# Convention : Reuss Voigt Hill
#
# Bulk Modulus (GPa) = 42.59045 53.79055 48.19050
# Shear Modulus (GPa) = 12.63126 19.51461 16.07294
#
# Velocity S-wave (km/s) = 2.44686 3.04135 2.76016
# Velocity P-wave (km/s) = 5.30758 6.15056 5.74455
#
# Compressibility (1/GPa) = 0.02347944
#
# Stress axis : x y z
#
# Youngs Moduli (GPa) = 107.27343 27.50126 50.10956
#
# Poissons Ratio (x) = 0.09078 0.16675
# Poissons Ratio (y) = 0.35411 0.72416
# Poissons Ratio (z) = 0.35698 0.39744
#
# Static dielectric constant tensor:
#      x y z
#    x 1.761090 0.000000 -0.006710 
#    y 0.000000 1.780520 0.000000 
#    z -0.006710 0.000000 1.945440 
# 
# From -- ./inp_files/78248.got.cif
#   From: 2010.05.17/outbox.cif.g08.bks.cpg/sg15_40_cif.got.tgz:78248.got - 2010.06.03 18:47:42.
