data_PCOD9254361
_publ_section_title
;
Structure prediction by ZEFSAII (Michael W. Deem and Ramdas Pophale) SiO2 
 PCOD9254361
Probable space group: C 2/C
;
_chemical_formula_sum "Si O2"
_cell_formula_units_Z 28
_cell_length_a 9.297091
_cell_length_b 29.850890
_cell_length_c 5.425759
_cell_angle_alpha 90.000000
_cell_angle_beta 65.736834
_cell_angle_gamma 90.000000
_cell_volume 1372.781460
_symmetry_space_group_name_H-M "C 2/C"
_symmetry_group_IT_number 15
_symmetry_cell_setting 'monoclinic'
loop_
_space_group_symop_operation_xyz
x,y,z
-x,y,1/2-z
-x,-y,-z
x,-y,1/2+z
1/2+x,1/2+y,z
1/2-x,1/2+y,1/2-z
1/2-x,1/2-y,-z
1/2+x,1/2-y,1/2+z
loop_
_atom_site_type_symbol
_atom_site_label
_atom_site_fract_x
_atom_site_fract_y
_atom_site_fract_z
Si Si1 0.000000 0.254749 0.250000
Si Si2 0.604510 0.377916 0.927800
Si Si3 0.715231 0.210265 0.221103
Si Si4 0.181658 0.018787 0.365163
O O1 0.146728 0.222300 0.181973
O O2 0.950379 0.284198 0.520723
O O3 0.500000 0.371370 0.750000
O O4 0.738424 0.340100 0.876829
O O5 0.673435 0.427827 0.859303
O O6 0.500000 0.375980 0.250000
O O7 0.750000 0.250000 0.000000
O O8 0.255266 0.001713 0.567303
O O9 0.000000 0.000000 0.500000
#
# Coordination Sequence:
#
# PCOD9254361 Si02
#       4
#     4   8   8   8
#     4  10  22  40  56  78 114 150 196 248 290 336
#     4  12  21  33  56  86 117 155 191 237 302 349
#     4  11  23  39  58  82 116 156 200 244 290 351
#     4  10  16  30  48  77 120 142 180 241 294 342
#
# _framework density 20.396547000000002
#
# number of rings (size 3 to 8) (size 9 to 14) (size 15 to 20)
#    0.000    1.143    7.143    2.571    4.000    0.000 
#    0.000    0.000    0.000    0.000    0.000    2.000 
#    0.000    0.000    0.000    0.000    0.000    0.000 
#
# Total GULP energy -77967.573456 kJ/mol
# GULP energy per Si atom -5569.112390 kJ/mol
# Density = 2.035012 g / cm^3
# Si number density = 20.396547 Si / 1000 Ang^3
#
#
#
# Elastic Constant Matrix: (Units=GPa)
#
#
# Indices 1 2 3 4 5 6 
#
# 1 18.6308 16.2197 23.5269 0.0000 4.0169 0.0000
# 2 16.2197 205.4368 57.9206 0.0000 0.2379 0.0000
# 3 23.5269 57.9206 150.0030 0.0000 29.4199 0.0000
# 4 0.0000 0.0000 0.0000 20.2944 0.0000 1.0821
# 5 4.0169 0.2379 29.4199 0.0000 35.5181 0.0000
# 6 0.0000 0.0000 0.0000 1.0821 0.0000 25.0902
#
#
#
# Elastic Compliance Matrix: (Units=1/GPa)
#
#
# Indices 1 2 3 4 5 6 
#
# 1 0.068205 -0.002635 -0.009755 0.000000 0.000385 0.000000
# 2 -0.002635 0.005691 -0.002191 0.000000 0.002075 0.000000
# 3 -0.009755 -0.002191 0.010535 0.000000 -0.007608 0.000000
# 4 0.000000 0.000000 0.000000 0.049388 0.000000 -0.002130
# 5 0.000385 0.002075 -0.007608 0.000000 0.034399 0.000000
# 6 0.000000 0.000000 0.000000 -0.002130 0.000000 0.039948
#
#
# Mechanical properties :
#
#
# Convention : Reuss Voigt Hill
#
# Bulk Modulus (GPa) = 18.09379 63.26723 40.68051
# Shear Modulus (GPa) = 19.55022 34.60743 27.07882
#
# Velocity S-wave (km/s) = 3.09933 4.12361 3.64760
# Velocity P-wave (km/s) = 4.65812 7.33199 6.14232
#
# Compressibility (1/GPa) = 0.05526759
#
# Stress axis : x y z
#
# Youngs Moduli (GPa) = 14.66175 175.71358 94.92314
#
# Poissons Ratio (x) = 0.46300 0.92601
# Poissons Ratio (y) = 0.03863 0.20799
# Poissons Ratio (z) = 0.14303 0.38502
#
# Static dielectric constant tensor:
#      x y z
#    x 1.825640 0.000000 0.079730 
#    y 0.000000 1.745080 0.000000 
#    z 0.079730 0.000000 1.881310 
# 
# From -- ./inp_files/2246.got.cif
#   From: 2010.05.17/outbox.cif.g08.bks.cpg/sg15_2_cif.got.tgz:2246.got - 2010.06.03 18:47:42.
