data_PCOD9254297
_publ_section_title
;
Structure prediction by ZEFSAII (Michael W. Deem and Ramdas Pophale) SiO2 
 PCOD9254297
Probable space group: C 2/C
;
_chemical_formula_sum "Si O2"
_cell_formula_units_Z 64
_cell_length_a 13.325665
_cell_length_b 17.656649
_cell_length_c 24.801990
_cell_angle_alpha 90.000000
_cell_angle_beta 149.692579
_cell_angle_gamma 90.000000
_cell_volume 2944.861667
_symmetry_space_group_name_H-M "C 2/C"
_symmetry_group_IT_number 15
_symmetry_cell_setting 'monoclinic'
loop_
_space_group_symop_operation_xyz
x,y,z
-x,y,1/2-z
-x,-y,-z
x,-y,1/2+z
1/2+x,1/2+y,z
1/2-x,1/2+y,1/2-z
1/2-x,1/2-y,-z
1/2+x,1/2-y,1/2+z
loop_
_atom_site_type_symbol
_atom_site_label
_atom_site_fract_x
_atom_site_fract_y
_atom_site_fract_z
Si Si1 0.227961 0.020258 0.618684
Si Si2 0.208009 0.874352 0.669515
Si Si3 0.468499 0.891781 0.395540
Si Si4 0.391554 0.599570 0.833709
Si Si5 0.556550 0.216306 0.834728
Si Si6 0.817402 0.967533 0.520550
Si Si7 0.496334 0.237725 0.986587
Si Si8 0.643263 0.773660 0.672012
O O1 0.303868 0.946029 0.684072
O O2 0.203855 0.086769 0.650963
O O3 0.299865 0.035143 0.591765
O O4 0.000000 0.000000 0.500000
O O5 0.356061 0.835657 0.780842
O O6 0.005680 0.910147 0.602388
O O7 0.131901 0.810174 0.592184
O O8 0.270748 0.932727 0.283111
O O9 0.537397 0.836295 0.378216
O O10 0.658498 0.944392 0.491415
O O11 0.420362 0.837131 0.422151
O O12 0.589208 0.549974 0.926013
O O13 0.404567 0.688778 0.828893
O O14 0.500000 0.182671 0.750000
O O15 0.779269 0.247048 0.931854
O O16 0.375838 0.274620 0.761166
O O17 0.512852 0.222177 0.057706
#
# Coordination Sequence:
#
# PCOD9254297 Si02
#       8
#     8   8   8   8   8   8   8   8
#     4   8  17  29  44  63  95 138 169 201 246 303
#     4  10  16  29  46  68 100 138 162 206 256 307
#     4  11  19  26  46  67 100 138 167 204 253 297
#     4   9  18  31  41  71 100 134 169 200 247 310
#     4   9  17  23  37  64  98 130 153 188 238 306
#     4  10  19  30  47  66 102 141 166 209 257 305
#     4  11  17  27  41  72 105 127 171 195 251 326
#     4  10  18  27  45  68 102 137 158 203 254 307
#
# _framework density 21.732769999999999
#
# number of rings (size 3 to 8) (size 9 to 14) (size 15 to 20)
#    0.000    2.500    3.750    3.375    3.500    0.000 
#    0.000    0.000    0.000    3.000    0.000    3.500 
#    0.000    0.000    0.500    0.000    0.000    2.375 
#
# Total GULP energy -178382.602598 kJ/mol
# GULP energy per Si atom -5574.456331 kJ/mol
# Density = 2.168331 g / cm^3
# Si number density = 21.732770 Si / 1000 Ang^3
#
#
#
# Elastic Constant Matrix: (Units=GPa)
#
#
# Indices 1 2 3 4 5 6 
#
# 1 6.5870 11.9691 8.0648 -0.0006 -6.0275 -0.0001
# 2 11.9691 65.9937 14.4102 -0.0001 -21.4660 0.0000
# 3 8.0648 14.4102 65.3153 0.0019 -20.2463 0.0001
# 4 -0.0006 -0.0001 0.0019 48.7991 -0.0004 -8.5776
# 5 -6.0275 -21.4660 -20.2463 -0.0004 18.4562 -0.0002
# 6 -0.0001 0.0000 0.0001 -8.5776 -0.0002 5.4539
#
#
#
# Elastic Compliance Matrix: (Units=1/GPa)
#
#
# Indices 1 2 3 4 5 6 
#
# 1 0.259070 -0.034905 -0.016130 0.000007 0.026316 0.000018
# 2 -0.034905 0.030285 0.007596 0.000000 0.032158 -0.000001
# 3 -0.016130 0.007596 0.025353 -0.000001 0.031379 -0.000001
# 4 0.000007 0.000000 -0.000001 0.028322 0.000002 0.044542
# 5 0.026316 0.032158 0.031379 0.000002 0.134601 0.000008
# 6 0.000018 -0.000001 -0.000001 0.044542 0.000008 0.253408
#
#
# Mechanical properties :
#
#
# Convention : Reuss Voigt Hill
#
# Bulk Modulus (GPa) = 4.38924 22.97601 13.68263
# Shear Modulus (GPa) = 5.59372 21.43864 13.51618
#
# Velocity S-wave (km/s) = 1.60607 3.14421 2.49655
# Velocity P-wave (km/s) = 2.33737 4.87611 3.82359
#
# Compressibility (1/GPa) = 0.22783001
#
# Stress axis : x y z
#
# Youngs Moduli (GPa) = 3.85996 33.01981 39.44310
#
# Poissons Ratio (x) = 1.15255 0.63623
# Poissons Ratio (y) = 0.13473 -0.29963
# Poissons Ratio (z) = 0.06226 -0.25083
#
# Static dielectric constant tensor:
#      x y z
#    x 1.839600 0.000000 -0.009720 
#    y 0.000000 1.827450 0.000000 
#    z -0.009720 0.000000 1.869550 
# 
# From -- ./inp_files/299225.got.cif
#   From: 2010.05.17/outbox.cif.g08.bks.cpg/sg15_150_cif.got.tgz:299225.got - 2010.06.03 18:47:42.
