data_PCOD9254282
_publ_section_title
;
Structure prediction by ZEFSAII (Michael W. Deem and Ramdas Pophale) SiO2 
 PCOD9254282
Probable space group: C 2/C
;
_chemical_formula_sum "Si O2"
_cell_formula_units_Z 60
_cell_length_a 10.663439
_cell_length_b 15.498267
_cell_length_c 15.338718
_cell_angle_alpha 90.000000
_cell_angle_beta 74.107360
_cell_angle_gamma 90.000000
_cell_volume 2438.055843
_symmetry_space_group_name_H-M "C 2/C"
_symmetry_group_IT_number 15
_symmetry_cell_setting 'monoclinic'
loop_
_space_group_symop_operation_xyz
x,y,z
-x,y,1/2-z
-x,-y,-z
x,-y,1/2+z
1/2+x,1/2+y,z
1/2-x,1/2+y,1/2-z
1/2-x,1/2-y,-z
1/2+x,1/2-y,1/2+z
loop_
_atom_site_type_symbol
_atom_site_label
_atom_site_fract_x
_atom_site_fract_y
_atom_site_fract_z
Si Si1 0.661603 0.461625 0.433969
Si Si2 0.682452 0.528809 0.621386
Si Si3 0.078496 0.163176 0.533654
Si Si4 0.433564 0.090488 0.852123
Si Si5 0.291565 0.364773 0.663697
Si Si6 0.621915 0.199839 0.482260
Si Si7 0.000000 0.109234 0.250000
Si Si8 0.108737 0.436180 0.833838
O O1 0.710959 0.499848 0.516516
O O2 0.525903 0.413042 0.471496
O O3 0.661021 0.537769 0.365109
O O4 0.777082 0.401657 0.377861
O O5 0.633888 0.626354 0.613796
O O6 0.583881 0.456423 0.675291
O O7 0.799555 0.519923 0.666266
O O8 0.186432 0.176189 0.436272
O O9 0.979410 0.241342 0.551313
O O10 0.500000 0.114441 0.750000
O O11 0.472362 0.988431 0.860213
O O12 0.461425 0.154338 0.925724
O O13 0.400717 0.333886 0.711629
O O14 0.156720 0.380068 0.741483
O O15 0.750000 0.250000 0.500000
O O16 0.647312 0.123719 0.408276
#
# Coordination Sequence:
#
# PCOD9254282 Si02
#       8
#     8   8   8   8   8   8   4   8
#     4  11  18  38  63  93 124 167 217 265 317 377
#     4  10  19  34  65  93 124 164 219 269 311 380
#     4  11  21  40  62  97 132 169 205 278 334 379
#     4  12  25  44  68  93 128 175 222 264 313 398
#     4  10  20  34  64  97 122 164 224 269 314 372
#     4  12  26  42  65  98 138 171 212 268 334 387
#     4  10  16  28  56  98 122 152 216 276 300 366
#     4  11  24  42  68  97 126 174 223 264 318 392
#
# _framework density 24.609774000000002
#
# number of rings (size 3 to 8) (size 9 to 14) (size 15 to 20)
#    0.000    1.067    6.667    1.200    1.867    1.067 
#    0.000    0.667    1.467    0.000    0.000    0.000 
#    0.000    0.000    0.000    0.000    0.000    0.000 
#
# Total GULP energy -167137.002898 kJ/mol
# GULP energy per Si atom -5571.233430 kJ/mol
# Density = 2.455376 g / cm^3
# Si number density = 24.609774 Si / 1000 Ang^3
#
#
#
# Elastic Constant Matrix: (Units=GPa)
#
#
# Indices 1 2 3 4 5 6 
#
# 1 60.2930 8.4641 20.5533 0.0000 -9.8033 0.0000
# 2 8.4641 58.7663 10.7858 0.0000 -0.9908 0.0000
# 3 20.5533 10.7858 114.6263 0.0000 -22.2690 0.0000
# 4 0.0000 0.0000 0.0000 23.5803 0.0000 5.8892
# 5 -9.8033 -0.9908 -22.2690 0.0000 34.8227 0.0000
# 6 0.0000 0.0000 0.0000 5.8892 0.0000 36.1722
#
#
#
# Elastic Compliance Matrix: (Units=1/GPa)
#
#
# Indices 1 2 3 4 5 6 
#
# 1 0.018277 -0.002135 -0.002385 0.000000 0.003560 0.000000
# 2 -0.002135 0.017577 -0.001474 0.000000 -0.001043 0.000000
# 3 -0.002385 -0.001474 0.010450 0.000000 0.005969 0.000000
# 4 0.000000 0.000000 0.000000 0.044206 0.000000 -0.007197
# 5 0.003560 -0.001043 0.005969 0.000000 0.033507 0.000000
# 6 0.000000 0.000000 0.000000 -0.007197 0.000000 0.028817
#
#
# Mechanical properties :
#
#
# Convention : Reuss Voigt Hill
#
# Bulk Modulus (GPa) = 29.13983 34.81022 31.97502
# Shear Modulus (GPa) = 28.36724 31.84054 30.10389
#
# Velocity S-wave (km/s) = 3.39880 3.60087 3.50129
# Velocity P-wave (km/s) = 5.22196 5.60927 5.41908
#
# Compressibility (1/GPa) = 0.03431729
#
# Stress axis : x y z
#
# Youngs Moduli (GPa) = 54.71336 56.89271 95.69370
#
# Poissons Ratio (x) = 0.12145 0.22821
# Poissons Ratio (y) = 0.11680 0.14104
# Poissons Ratio (z) = 0.13048 0.08385
#
# Static dielectric constant tensor:
#      x y z
#    x 2.091470 0.000000 0.031110 
#    y 0.000000 2.096010 0.000000 
#    z 0.031110 0.000000 1.972060 
# 
# From -- ./inp_files/199133.got.cif
#   From: 2010.05.17/outbox.cif.g08.bks.cpg/sg15_100_cif.got.tgz:199133.got - 2010.06.03 18:47:42.
