data_PCOD9254609
_publ_section_title
;
Structure prediction by ZEFSAII (Michael W. Deem and Ramdas Pophale) SiO2 
 PCOD9254609
Probable space group: C 2/C
;
_chemical_formula_sum "Si O2"
_cell_formula_units_Z 60
_cell_length_a 7.762877
_cell_length_b 23.492315
_cell_length_c 20.199532
_cell_angle_alpha 90.000000
_cell_angle_beta 48.859827
_cell_angle_gamma 90.000000
_cell_volume 2774.238502
_symmetry_space_group_name_H-M "C 2/C"
_symmetry_group_IT_number 15
_symmetry_cell_setting 'monoclinic'
loop_
_space_group_symop_operation_xyz
x,y,z
-x,y,1/2-z
-x,-y,-z
x,-y,1/2+z
1/2+x,1/2+y,z
1/2-x,1/2+y,1/2-z
1/2-x,1/2-y,-z
1/2+x,1/2-y,1/2+z
loop_
_atom_site_type_symbol
_atom_site_label
_atom_site_fract_x
_atom_site_fract_y
_atom_site_fract_z
Si Si1 0.876945 0.535495 0.384898
Si Si2 0.679304 0.932515 0.267326
Si Si3 0.500000 0.131487 0.250000
Si Si4 0.763615 0.750963 0.795587
Si Si5 0.636264 0.820901 0.359731
Si Si6 0.003463 0.953000 0.423617
Si Si7 0.711631 0.217639 0.112273
Si Si8 0.657221 0.666293 0.939052
O O1 0.976064 0.588888 0.318878
O O2 0.652212 0.509237 0.403897
O O3 0.760466 0.544892 0.486313
O O4 0.070346 0.487445 0.329911
O O5 0.500000 0.920680 0.250000
O O6 0.693451 0.882453 0.316899
O O7 0.923535 0.941308 0.170260
O O8 0.699441 0.176905 0.180697
O O9 0.790255 0.720277 0.718887
O O10 0.537222 0.788248 0.856915
O O11 0.742723 0.698895 0.852341
O O12 0.000000 0.782815 0.750000
O O13 0.756164 0.785926 0.387506
O O14 0.362572 0.822692 0.438525
O O15 0.110153 0.899840 0.437703
O O16 0.922497 0.194689 0.018837
#
# Coordination Sequence:
#
# PCOD9254609 Si02
#       8
#     8   8   4   8   8   8   8   8
#     4  10  19  30  49  81 118 147 197 257 281 337
#     4  10  16  32  55  80 114 158 207 242 287 347
#     4  12  20  32  50  78 128 148 184 254 298 338
#     4  10  21  38  59  75 109 158 199 235 286 363
#     4  11  19  35  55  84 120 148 191 245 293 355
#     4  10  17  29  52  81 111 150 205 244 285 336
#     4  12  24  36  51  88 126 150 191 246 310 354
#     4  11  20  34  57  81 117 155 195 239 289 366
#
# _framework density 21.627555000000001
#
# number of rings (size 3 to 8) (size 9 to 14) (size 15 to 20)
#    0.000    1.333    8.667    1.200    0.000    0.000 
#    0.000    0.000    0.000    0.000    0.000    4.667 
#    0.000    0.000    0.000    0.000    0.000    0.000 
#
# Total GULP energy -167066.082676 kJ/mol
# GULP energy per Si atom -5568.869423 kJ/mol
# Density = 2.157833 g / cm^3
# Si number density = 21.627555 Si / 1000 Ang^3
#
#
#
# Elastic Constant Matrix: (Units=GPa)
#
#
# Indices 1 2 3 4 5 6 
#
# 1 39.5777 20.9975 24.5712 0.0000 -21.7946 0.0000
# 2 20.9975 138.3338 45.2965 0.0000 -7.9446 0.0000
# 3 24.5712 45.2965 142.8096 0.0000 -26.6111 0.0000
# 4 0.0000 0.0000 0.0000 14.4951 0.0000 4.8730
# 5 -21.7946 -7.9446 -26.6111 0.0000 19.9423 0.0000
# 6 0.0000 0.0000 0.0000 4.8730 0.0000 11.1564
#
#
#
# Elastic Compliance Matrix: (Units=1/GPa)
#
#
# Indices 1 2 3 4 5 6 
#
# 1 0.071233 -0.007916 0.005555 0.000000 0.082108 0.000000
# 2 -0.007916 0.008947 -0.003226 0.000000 -0.009391 0.000000
# 3 0.005555 -0.003226 0.010596 0.000000 0.018925 0.000000
# 4 0.000000 0.000000 0.000000 0.080863 0.000000 -0.035320
# 5 0.082108 -0.009391 0.018925 0.000000 0.161391 0.000000
# 6 0.000000 0.000000 0.000000 -0.035320 0.000000 0.105062
#
#
# Mechanical properties :
#
#
# Convention : Reuss Voigt Hill
#
# Bulk Modulus (GPa) = 12.56244 55.82796 34.19520
# Shear Modulus (GPa) = 10.50859 24.44247 17.47553
#
# Velocity S-wave (km/s) = 2.20668 3.36542 2.84566
# Velocity P-wave (km/s) = 3.50909 6.40085 5.16162
#
# Compressibility (1/GPa) = 0.07960240
#
# Stress axis : x y z
#
# Youngs Moduli (GPa) = 14.03850 111.76467 94.37216
#
# Poissons Ratio (x) = 0.88469 -0.52420
# Poissons Ratio (y) = 0.11112 0.30444
# Poissons Ratio (z) = -0.07798 0.36055
#
# Static dielectric constant tensor:
#      x y z
#    x 1.925990 0.000000 0.043990 
#    y 0.000000 1.804670 0.000000 
#    z 0.043990 0.000000 1.852010 
# 
# From -- ./inp_files/266503.got.cif
#   From: 2010.05.17/outbox.cif.g08.bks.cpg/sg15_134_cif.got.tgz:266503.got - 2010.06.03 18:47:42.
