data_PCOD9254379
_publ_section_title
;
Structure prediction by ZEFSAII (Michael W. Deem and Ramdas Pophale) SiO2 
 PCOD9254379
Probable space group: C 2/C
;
_chemical_formula_sum "Si O2"
_cell_formula_units_Z 52
_cell_length_a 17.964340
_cell_length_b 18.826307
_cell_length_c 7.109395
_cell_angle_alpha 90.000000
_cell_angle_beta 84.574027
_cell_angle_gamma 90.000000
_cell_volume 2393.639197
_symmetry_space_group_name_H-M "C 2/C"
_symmetry_group_IT_number 15
_symmetry_cell_setting 'monoclinic'
loop_
_space_group_symop_operation_xyz
x,y,z
-x,y,1/2-z
-x,-y,-z
x,-y,1/2+z
1/2+x,1/2+y,z
1/2-x,1/2+y,1/2-z
1/2-x,1/2-y,-z
1/2+x,1/2-y,1/2+z
loop_
_atom_site_type_symbol
_atom_site_label
_atom_site_fract_x
_atom_site_fract_y
_atom_site_fract_z
Si Si1 0.784493 0.811529 0.763766
Si Si2 0.756094 0.400657 0.041453
Si Si3 0.262391 0.942905 0.468058
Si Si4 0.000000 0.249342 0.750000
Si Si5 0.580329 0.901885 0.039473
Si Si6 0.134692 0.751805 0.427513
Si Si7 0.927340 0.372075 0.013625
O O1 0.788706 0.837502 0.549302
O O2 0.716004 0.756481 0.812855
O O3 0.767094 0.885098 0.878722
O O4 0.852618 0.777834 0.862409
O O5 0.729613 0.478430 0.979518
O O6 0.843681 0.387920 0.965797
O O7 0.753778 0.407173 0.266610
O O8 0.350581 0.954703 0.494512
O O9 0.067576 0.208640 0.837686
O O10 0.044185 0.297978 0.583409
O O11 0.576600 0.879349 0.259297
O O12 0.606744 0.829248 0.937139
O O13 0.501281 0.921024 0.965388
#
# Coordination Sequence:
#
# PCOD9254379 Si02
#       7
#     8   8   8   4   8   8   8
#     4  10  19  35  47  75  99 129 164 205 241 294
#     4  11  19  32  49  69  98 134 160 206 236 291
#     4  10  20  31  48  69 100 130 171 198 238 283
#     4  10  16  30  50  72  92 134 156 204 242 294
#     4   8  17  32  43  67  97 131 164 203 234 286
#     4   9  18  32  52  68 100 127 161 206 247 284
#     4   9  17  28  46  67  97 128 166 192 244 278
#
# _framework density 21.724243000000001
#
# number of rings (size 3 to 8) (size 9 to 14) (size 15 to 20)
#    0.000    2.462    3.077    0.000    0.000    0.615 
#    2.769    4.615    0.000    0.000    0.000    1.077 
#    0.000    0.000    0.000    0.000    0.000    0.000 
#
# Total GULP energy -144854.865928 kJ/mol
# GULP energy per Si atom -5571.340997 kJ/mol
# Density = 2.167480 g / cm^3
# Si number density = 21.724243 Si / 1000 Ang^3
#
#
#
# Elastic Constant Matrix: (Units=GPa)
#
#
# Indices 1 2 3 4 5 6 
#
# 1 36.2860 1.0583 18.2020 0.0000 25.0779 0.0000
# 2 1.0583 39.8417 12.7876 0.0000 -0.8417 0.0000
# 3 18.2020 12.7876 103.9190 0.0000 13.7770 0.0000
# 4 0.0000 0.0000 0.0000 29.3017 0.0000 1.0749
# 5 25.0779 -0.8417 13.7770 0.0000 38.2236 0.0000
# 6 0.0000 0.0000 0.0000 1.0749 0.0000 8.2657
#
#
#
# Elastic Compliance Matrix: (Units=1/GPa)
#
#
# Indices 1 2 3 4 5 6 
#
# 1 0.052687 -0.000551 -0.004806 0.000000 -0.032847 0.000000
# 2 -0.000551 0.026259 -0.003423 0.000000 0.002173 0.000000
# 3 -0.004806 -0.003423 0.011004 0.000000 -0.000888 0.000000
# 4 0.000000 0.000000 0.000000 0.034291 0.000000 -0.004459
# 5 -0.032847 0.002173 -0.000888 0.000000 0.048080 0.000000
# 6 0.000000 0.000000 0.000000 -0.004459 0.000000 0.121562
#
#
# Mechanical properties :
#
#
# Convention : Reuss Voigt Hill
#
# Bulk Modulus (GPa) = 13.81416 27.12696 20.47056
# Shear Modulus (GPa) = 14.89992 25.02477 19.96234
#
# Velocity S-wave (km/s) = 2.62175 3.39769 3.03462
# Velocity P-wave (km/s) = 3.94175 5.28266 4.66068
#
# Compressibility (1/GPa) = 0.07238951
#
# Stress axis : x y z
#
# Youngs Moduli (GPa) = 18.98008 38.08290 90.87909
#
# Poissons Ratio (x) = 0.02098 0.43676
# Poissons Ratio (y) = 0.01046 0.31106
# Poissons Ratio (z) = 0.09122 0.13035
#
# Static dielectric constant tensor:
#      x y z
#    x 1.876140 0.000000 0.016540 
#    y 0.000000 1.782840 0.000000 
#    z 0.016540 0.000000 1.893930 
# 
# From -- ./inp_files/48527.got.cif
#   From: 2010.05.17/outbox.cif.g08.bks.cpg/sg15_25_cif.got.tgz:48527.got - 2010.06.03 18:47:42.
