data_PCOD9254160
_publ_section_title
;
Structure prediction by ZEFSAII (Michael W. Deem and Ramdas Pophale) SiO2 
 PCOD9254160
Probable space group: C 2/C
;
_chemical_formula_sum "Si O2"
_cell_formula_units_Z 40
_cell_length_a 15.395543
_cell_length_b 21.866070
_cell_length_c 9.509463
_cell_angle_alpha 90.000000
_cell_angle_beta 123.341380
_cell_angle_gamma 90.000000
_cell_volume 2674.371497
_symmetry_space_group_name_H-M "C 2/C"
_symmetry_group_IT_number 15
_symmetry_cell_setting 'monoclinic'
loop_
_space_group_symop_operation_xyz
x,y,z
-x,y,1/2-z
-x,-y,-z
x,-y,1/2+z
1/2+x,1/2+y,z
1/2-x,1/2+y,1/2-z
1/2-x,1/2-y,-z
1/2+x,1/2-y,1/2+z
loop_
_atom_site_type_symbol
_atom_site_label
_atom_site_fract_x
_atom_site_fract_y
_atom_site_fract_z
Si Si1 0.124249 0.448623 0.359568
Si Si2 0.098836 0.758044 0.749227
Si Si3 0.994186 0.315593 0.905501
Si Si4 0.303244 0.831762 0.930487
Si Si5 0.913280 0.549550 0.973836
O O1 0.183661 0.401902 0.512511
O O2 0.132251 0.516596 0.429770
O O3 0.157837 0.444431 0.227592
O O4 0.000000 0.430355 0.250000
O O5 0.187217 0.808273 0.803409
O O6 0.000000 0.781782 0.750000
O O7 0.059104 0.726348 0.571336
O O8 0.149359 0.706075 0.894922
O O9 0.877927 0.318314 0.865052
O O10 0.000000 0.294416 0.750000
O O11 0.038909 0.384743 0.951665
O O12 0.000000 0.500000 0.000000
#
# Coordination Sequence:
#
# PCOD9254160 Si02
#       5
#     8   8   8   8   8
#     4  10  16  27  43  69  99 120 144 182 229 285
#     4   9  19  33  48  65  87 125 164 194 220 264
#     4  11  19  29  44  69 102 121 146 190 232 279
#     4  10  17  31  49  64  92 126 157 188 226 271
#     4  10  17  25  42  67  99 121 141 176 232 280
#
# _framework density 14.956784000000001
#
# number of rings (size 3 to 8) (size 9 to 14) (size 15 to 20)
#    0.000    2.000    6.000    2.400    0.000    0.800 
#    0.000    0.000    0.000    0.000    0.000    1.400 
#    0.000    0.000    0.000    0.000    0.000    0.000 
#
# Total GULP energy -111374.141024 kJ/mol
# GULP energy per Si atom -5568.707051 kJ/mol
# Density = 1.492274 g / cm^3
# Si number density = 14.956784 Si / 1000 Ang^3
#
#
#
# Elastic Constant Matrix: (Units=GPa)
#
#
# Indices 1 2 3 4 5 6 
#
# 1 74.2421 42.1042 56.9500 0.0000 1.6596 0.0000
# 2 42.1042 62.4716 30.9463 0.0000 8.6516 0.0000
# 3 56.9500 30.9463 89.5939 0.0000 -14.1846 0.0000
# 4 0.0000 0.0000 0.0000 15.5140 0.0000 -6.1283
# 5 1.6596 8.6516 -14.1846 0.0000 24.1732 0.0000
# 6 0.0000 0.0000 0.0000 -6.1283 0.0000 12.5504
#
#
#
# Elastic Compliance Matrix: (Units=1/GPa)
#
#
# Indices 1 2 3 4 5 6 
#
# 1 0.036945 -0.013478 -0.020358 0.000000 -0.009658 0.000000
# 2 -0.013478 0.027954 -0.002785 0.000000 -0.010713 0.000000
# 3 -0.020358 -0.002785 0.028048 0.000000 0.018853 0.000000
# 4 0.000000 0.000000 0.000000 0.079862 0.000000 0.038996
# 5 -0.009658 -0.010713 0.018853 0.000000 0.056928 0.000000
# 6 0.000000 0.000000 0.000000 0.038996 0.000000 0.098720
#
#
# Mechanical properties :
#
#
# Convention : Reuss Voigt Hill
#
# Bulk Modulus (GPa) = 50.74291 54.03429 52.38860
# Shear Modulus (GPa) = 12.24689 16.86801 14.55745
#
# Velocity S-wave (km/s) = 2.86460 3.36189 3.12316
# Velocity P-wave (km/s) = 6.70383 7.16066 6.93601
#
# Compressibility (1/GPa) = 0.01970719
#
# Stress axis : x y z
#
# Youngs Moduli (GPa) = 27.06729 35.77308 35.65277
#
# Poissons Ratio (x) = 0.48214 0.72581
# Poissons Ratio (y) = 0.36481 0.09928
# Poissons Ratio (z) = 0.55103 0.09961
#
# Static dielectric constant tensor:
#      x y z
#    x 1.506130 0.000000 -0.037050 
#    y 0.000000 1.498150 0.000000 
#    z -0.037050 0.000000 1.540480 
# 
# From -- ./inp_files/40153.got.cif
#   From: 2010.05.17/outbox.cif.g08.bks.cpg/sg15_21_cif.got.tgz:40153.got - 2010.06.03 18:47:42.
