data_PCOD9254197
_publ_section_title
;
Structure prediction by ZEFSAII (Michael W. Deem and Ramdas Pophale) SiO2 
 PCOD9254197
Probable space group: C 2/C
;
_chemical_formula_sum "Si O2"
_cell_formula_units_Z 64
_cell_length_a 20.894430
_cell_length_b 23.801267
_cell_length_c 18.370348
_cell_angle_alpha 90.000000
_cell_angle_beta 154.612808
_cell_angle_gamma 90.000000
_cell_volume 3916.833338
_symmetry_space_group_name_H-M "C 2/C"
_symmetry_group_IT_number 15
_symmetry_cell_setting 'monoclinic'
loop_
_space_group_symop_operation_xyz
x,y,z
-x,y,1/2-z
-x,-y,-z
x,-y,1/2+z
1/2+x,1/2+y,z
1/2-x,1/2+y,1/2-z
1/2-x,1/2-y,-z
1/2+x,1/2-y,1/2+z
loop_
_atom_site_type_symbol
_atom_site_label
_atom_site_fract_x
_atom_site_fract_y
_atom_site_fract_z
Si Si1 0.376525 0.200329 0.464123
Si Si2 0.621803 0.030711 0.271666
Si Si3 0.679491 0.071185 0.727751
Si Si4 0.291210 0.003156 0.489522
Si Si5 0.323634 0.865120 0.052448
Si Si6 0.730541 0.816088 0.351844
Si Si7 0.348551 0.505245 0.299725
Si Si8 0.150238 0.397789 0.660924
O O1 0.300506 0.165061 0.451744
O O2 0.554835 0.197577 0.659651
O O3 0.323142 0.263745 0.418247
O O4 0.335006 0.167145 0.347259
O O5 0.687808 0.977555 0.296057
O O6 0.707907 0.034207 0.436730
O O7 0.449818 0.013446 0.113836
O O8 0.638446 0.082828 0.233049
O O9 0.758976 0.127112 0.836184
O O10 0.506248 0.083785 0.536254
O O11 0.746498 0.045212 0.724410
O O12 0.293620 0.068521 0.516264
O O13 0.159051 0.999434 0.294916
O O14 0.500000 0.861052 0.250000
O O15 0.245347 0.832739 0.038732
O O16 0.500000 0.500000 0.500000
O O17 0.272944 0.563630 0.247265
#
# Coordination Sequence:
#
# PCOD9254197 Si02
#       8
#     8   8   8   8   8   8   8   8
#     4  10  20  32  51  68 101 136 177 212 248 294
#     4  10  16  27  55  77  94 127 174 218 243 303
#     4  10  17  33  50  70  97 132 176 209 244 300
#     4  11  16  29  51  79 102 128 166 209 263 301
#     4  10  16  29  48  74  99 134 174 209 244 295
#     4  10  20  32  49  71  98 138 178 213 247 294
#     4  11  21  31  48  75 107 133 160 208 266 316
#     4  10  18  33  50  71  97 136 178 210 247 301
#
# _framework density 16.339728999999998
#
# number of rings (size 3 to 8) (size 9 to 14) (size 15 to 20)
#    0.000    1.750    6.250    1.875    0.000    1.000 
#    0.000    2.500    0.000    0.000    0.000    0.875 
#    0.000    0.000    0.000    0.375    0.000    0.000 
#
# Total GULP energy -178279.821922 kJ/mol
# GULP energy per Si atom -5571.244435 kJ/mol
# Density = 1.630254 g / cm^3
# Si number density = 16.339729 Si / 1000 Ang^3
#
#
#
# Elastic Constant Matrix: (Units=GPa)
#
#
# Indices 1 2 3 4 5 6 
#
# 1 61.1870 40.4162 17.5715 0.0000 -29.1294 0.0000
# 2 40.4162 72.0285 10.2662 0.0000 -10.7595 0.0000
# 3 17.5715 10.2662 58.1618 0.0000 -20.0543 0.0000
# 4 0.0000 0.0000 0.0000 15.0935 0.0000 -0.8581
# 5 -29.1294 -10.7595 -20.0543 0.0000 24.9577 0.0000
# 6 0.0000 0.0000 0.0000 -0.8581 0.0000 28.6539
#
#
#
# Elastic Compliance Matrix: (Units=1/GPa)
#
#
# Indices 1 2 3 4 5 6 
#
# 1 0.068189 -0.028443 0.010559 0.000000 0.075809 0.000000
# 2 -0.028443 0.026717 -0.004977 0.000000 -0.025678 0.000000
# 3 0.010559 -0.004977 0.025440 0.000000 0.030620 0.000000
# 4 0.000000 0.000000 0.000000 0.066367 0.000000 0.001987
# 5 0.075809 -0.025678 0.030620 0.000000 0.142082 0.000000
# 6 0.000000 0.000000 0.000000 0.001987 0.000000 0.034959
#
#
# Mechanical properties :
#
#
# Convention : Reuss Voigt Hill
#
# Bulk Modulus (GPa) = 13.40046 36.43169 24.91608
# Shear Modulus (GPa) = 11.51149 21.94925 16.73037
#
# Velocity S-wave (km/s) = 2.65714 3.66909 3.20333
# Velocity P-wave (km/s) = 4.19914 6.34779 5.38179
#
# Compressibility (1/GPa) = 0.07462428
#
# Stress axis : x y z
#
# Youngs Moduli (GPa) = 14.66512 37.43003 39.30880
#
# Poissons Ratio (x) = 1.06460 -0.41505
# Poissons Ratio (y) = 0.41711 0.19563
# Poissons Ratio (z) = -0.15484 0.18628
#
# Static dielectric constant tensor:
#      x y z
#    x 1.593860 0.000000 0.004490 
#    y 0.000000 1.542210 0.000000 
#    z 0.004490 0.000000 1.612360 
# 
# From -- ./inp_files/51237.got.cif
#   From: 2010.05.17/outbox.cif.g08.bks.cpg/sg15_26_cif.got.tgz:51237.got - 2010.06.03 18:47:42.
