data_PCOD9254832
_publ_section_title
;
Structure prediction by ZEFSAII (Michael W. Deem and Ramdas Pophale) SiO2 
 PCOD9254832
Probable space group: C 2/C
;
_chemical_formula_sum "Si O2"
_cell_formula_units_Z 48
_cell_length_a 16.698264
_cell_length_b 18.219438
_cell_length_c 14.780313
_cell_angle_alpha 90.000000
_cell_angle_beta 150.349942
_cell_angle_gamma 90.000000
_cell_volume 2224.503091
_symmetry_space_group_name_H-M "C 2/C"
_symmetry_group_IT_number 15
_symmetry_cell_setting 'monoclinic'
loop_
_space_group_symop_operation_xyz
x,y,z
-x,y,1/2-z
-x,-y,-z
x,-y,1/2+z
1/2+x,1/2+y,z
1/2-x,1/2+y,1/2-z
1/2-x,1/2-y,-z
1/2+x,1/2-y,1/2+z
loop_
_atom_site_type_symbol
_atom_site_label
_atom_site_fract_x
_atom_site_fract_y
_atom_site_fract_z
Si Si1 0.484820 0.064325 0.406629
Si Si2 0.815832 0.631642 0.530596
Si Si3 0.318378 0.507609 0.698076
Si Si4 0.175559 0.162328 0.572667
Si Si5 0.030786 0.700250 0.990128
Si Si6 0.159411 0.011727 0.069519
O O1 0.665522 0.062069 0.545056
O O2 0.439881 0.145027 0.398519
O O3 0.331483 0.036870 0.198759
O O4 0.500000 0.000000 0.500000
O O5 0.726391 0.557015 0.414564
O O6 0.702511 0.672645 0.491596
O O7 0.847847 0.675607 0.470473
O O8 0.000000 0.618864 0.750000
O O9 0.330021 0.473132 0.811960
O O10 0.496949 0.541354 0.864075
O O11 0.051387 0.212414 0.506023
O O12 0.349861 0.179840 0.785118
O O13 0.146974 0.076130 0.552694
#
# Coordination Sequence:
#
# PCOD9254832 Si02
#       6
#     8   8   8   8   8   8
#     4  10  16  36  58  72 100 148 200 244 272 314
#     4  10  20  36  52  77 115 162 192 222 277 345
#     4  10  19  34  59  75  97 148 205 244 270 317
#     4  11  23  34  51  82 120 156 188 227 287 347
#     4  11  21  35  51  77 116 161 192 223 281 347
#     4  10  20  35  57  78 100 148 197 247 278 319
#
# _framework density 21.577852
#
# number of rings (size 3 to 8) (size 9 to 14) (size 15 to 20)
#    0.000    1.667    6.667    1.500    2.333    0.667 
#    0.000    0.000    0.000    0.000    0.000    0.000 
#    0.000    5.333    2.000    1.000    0.000    0.000 
#
# Total GULP energy -133821.697863 kJ/mol
# GULP energy per Si atom -5575.904078 kJ/mol
# Density = 2.152874 g / cm^3
# Si number density = 21.577852 Si / 1000 Ang^3
#
#
#
# Elastic Constant Matrix: (Units=GPa)
#
#
# Indices 1 2 3 4 5 6 
#
# 1 34.9138 38.3223 33.3526 0.0000 17.2405 0.0000
# 2 38.3223 89.0715 29.0120 0.0000 3.8973 0.0000
# 3 33.3526 29.0120 104.2559 0.0000 40.1918 0.0000
# 4 0.0000 0.0000 0.0000 17.5769 0.0000 2.9822
# 5 17.2405 3.8973 40.1918 0.0000 37.5675 0.0000
# 6 0.0000 0.0000 0.0000 2.9822 0.0000 40.2216
#
#
#
# Elastic Compliance Matrix: (Units=1/GPa)
#
#
# Indices 1 2 3 4 5 6 
#
# 1 0.086605 -0.033596 -0.007452 0.000000 -0.028287 0.000000
# 2 -0.033596 0.025757 -0.002269 0.000000 0.015174 0.000000
# 3 -0.007452 -0.002269 0.019059 0.000000 -0.016735 0.000000
# 4 0.000000 0.000000 0.000000 0.057618 0.000000 -0.004272
# 5 -0.028287 0.015174 -0.016735 0.000000 0.055930 0.000000
# 6 0.000000 0.000000 0.000000 -0.004272 0.000000 0.025179
#
#
# Mechanical properties :
#
#
# Convention : Reuss Voigt Hill
#
# Bulk Modulus (GPa) = 22.32865 47.73500 35.03182
# Shear Modulus (GPa) = 13.45132 27.57682 20.51407
#
# Velocity S-wave (km/s) = 2.49948 3.57881 3.08669
# Velocity P-wave (km/s) = 4.32438 6.26478 5.38274
#
# Compressibility (1/GPa) = 0.04478552
#
# Stress axis : x y z
#
# Youngs Moduli (GPa) = 11.54666 38.82474 52.46960
#
# Poissons Ratio (x) = 1.30437 0.39099
# Poissons Ratio (y) = 0.38793 0.11908
# Poissons Ratio (z) = 0.08604 0.08811
#
# Static dielectric constant tensor:
#      x y z
#    x 1.885050 0.000000 0.036740 
#    y 0.000000 1.862290 0.000000 
#    z 0.036740 0.000000 1.843640 
# 
# From -- ./inp_files/48721.got.cif
#   From: 2010.05.17/outbox.cif.g08.bks.cpg/sg15_25_cif.got.tgz:48721.got - 2010.06.03 18:47:42.
