data_PCOD9254645
_publ_section_title
;
Structure prediction by ZEFSAII (Michael W. Deem and Ramdas Pophale) SiO2 
 PCOD9254645
Probable space group: C 2/C
;
_chemical_formula_sum "Si O2"
_cell_formula_units_Z 28
_cell_length_a 20.969112
_cell_length_b 13.027966
_cell_length_c 10.214438
_cell_angle_alpha 90.000000
_cell_angle_beta 22.982846
_cell_angle_gamma 90.000000
_cell_volume 1089.538790
_symmetry_space_group_name_H-M "C 2/C"
_symmetry_group_IT_number 15
_symmetry_cell_setting 'monoclinic'
loop_
_space_group_symop_operation_xyz
x,y,z
-x,y,1/2-z
-x,-y,-z
x,-y,1/2+z
1/2+x,1/2+y,z
1/2-x,1/2+y,1/2-z
1/2-x,1/2-y,-z
1/2+x,1/2-y,1/2+z
loop_
_atom_site_type_symbol
_atom_site_label
_atom_site_fract_x
_atom_site_fract_y
_atom_site_fract_z
Si Si1 0.236852 0.945797 0.843349
Si Si2 0.508537 0.798626 0.012228
Si Si3 0.846122 0.904355 0.780849
Si Si4 0.500000 0.887306 0.750000
O O1 0.350405 0.850328 0.670008
O O2 0.133239 0.917279 0.912658
O O3 0.353959 0.037494 0.568580
O O4 0.159529 0.994229 0.120462
O O5 0.338391 0.857619 0.361569
O O6 0.468669 0.679875 0.108290
O O7 0.545465 0.820014 0.789796
#
# Coordination Sequence:
#
# PCOD9254645 Si02
#       4
#     8   8   8   4
#     4  11  17  36  61  89 120 162 198 259 306 366
#     4  10  19  32  57  95 117 157 210 249 302 380
#     4  10  20  32  61  92 119 156 212 247 310 370
#     4  10  16  32  58  86 118 154 198 254 306 350
#
# _framework density 25.698944999999998
#
# number of rings (size 3 to 8) (size 9 to 14) (size 15 to 20)
#    0.000    1.714    5.714    1.714    0.000    0.000 
#    0.000    1.429   12.571    1.714    7.429    0.000 
#    0.000    0.000    0.000    0.000    0.000    0.000 
#
# Total GULP energy -78515.798121 kJ/mol
# GULP energy per Si atom -5608.271294 kJ/mol
# Density = 2.564045 g / cm^3
# Si number density = 25.698945 Si / 1000 Ang^3
#
#
#
# Elastic Constant Matrix: (Units=GPa)
#
#
# Indices 1 2 3 4 5 6 
#
# 1 150.8778 74.0439 62.2939 -0.0001 10.3079 -0.0001
# 2 74.0439 128.5237 47.0429 -0.0001 -19.4525 -0.0001
# 3 62.2939 47.0429 114.6096 -0.0001 26.1422 -0.0001
# 4 -0.0001 -0.0001 -0.0001 43.4391 0.0000 -11.3698
# 5 10.3079 -19.4525 26.1422 0.0000 43.5491 0.0001
# 6 -0.0001 -0.0001 -0.0001 -11.3698 0.0001 3.8826
#
#
#
# Elastic Compliance Matrix: (Units=1/GPa)
#
#
# Indices 1 2 3 4 5 6 
#
# 1 0.010820 -0.005773 -0.002710 0.000000 -0.003513 0.000000
# 2 -0.005773 0.014849 -0.005540 0.000000 0.011325 0.000000
# 3 -0.002710 -0.005540 0.014935 0.000000 -0.010799 0.000001
# 4 0.000000 0.000000 0.000000 0.098580 -0.000001 0.288679
# 5 -0.003513 0.011325 -0.010799 -0.000001 0.035335 -0.000002
# 6 0.000000 0.000000 0.000001 0.288679 -0.000002 1.102920
#
#
# Mechanical properties :
#
#
# Convention : Reuss Voigt Hill
#
# Bulk Modulus (GPa) = 79.63383 84.53028 82.08205
# Shear Modulus (GPa) = 3.81775 32.21619 18.01697
#
# Velocity S-wave (km/s) = 1.22016 3.54446 2.65066
# Velocity P-wave (km/s) = 5.74800 7.05088 6.43251
#
# Compressibility (1/GPa) = 0.01255748
#
# Stress axis : x y z
#
# Youngs Moduli (GPa) = 92.42071 67.34667 66.95551
#
# Poissons Ratio (x) = 0.38882 0.18145
# Poissons Ratio (y) = 0.53358 0.37093
# Poissons Ratio (z) = 0.25045 0.37309
#
# Static dielectric constant tensor:
#      x y z
#    x 1.911960 0.000000 0.002910 
#    y 0.000000 1.979950 0.000000 
#    z 0.002910 0.000000 2.095940 
# 
# From -- ./inp_files/27363.got.cif
#   From: 2010.05.17/outbox.cif.g08.bks.cpg/sg15_14_cif.got.tgz:27363.got - 2010.06.03 18:47:42.
