data_PCOD9254149
_publ_section_title
;
Structure prediction by ZEFSAII (Michael W. Deem and Ramdas Pophale) SiO2 
 PCOD9254149
Probable space group: C 2/C
;
_chemical_formula_sum "Si O2"
_cell_formula_units_Z 48
_cell_length_a 16.968477
_cell_length_b 14.437003
_cell_length_c 11.068658
_cell_angle_alpha 90.000000
_cell_angle_beta 126.413563
_cell_angle_gamma 90.000000
_cell_volume 2182.115060
_symmetry_space_group_name_H-M "C 2/C"
_symmetry_group_IT_number 15
_symmetry_cell_setting 'monoclinic'
loop_
_space_group_symop_operation_xyz
x,y,z
-x,y,1/2-z
-x,-y,-z
x,-y,1/2+z
1/2+x,1/2+y,z
1/2-x,1/2+y,1/2-z
1/2-x,1/2-y,-z
1/2+x,1/2-y,1/2+z
loop_
_atom_site_type_symbol
_atom_site_label
_atom_site_fract_x
_atom_site_fract_y
_atom_site_fract_z
Si Si1 0.016616 0.344675 0.570320
Si Si2 0.292124 0.386466 0.988123
Si Si3 0.287844 0.058781 0.486400
Si Si4 0.275172 0.208858 0.318946
Si Si5 0.500000 0.995928 0.250000
Si Si6 0.000000 0.815006 0.250000
Si Si7 0.301871 0.883399 0.352307
O O1 0.112601 0.324010 0.582748
O O2 0.027793 0.434342 0.666043
O O3 0.008004 0.253783 0.644516
O O4 0.912771 0.363441 0.414009
O O5 0.268122 0.495851 0.966401
O O6 0.400392 0.371356 0.139362
O O7 0.215972 0.349711 0.022908
O O8 0.274934 0.335637 0.846444
O O9 0.401354 0.058231 0.629199
O O10 0.283397 0.991399 0.361962
O O11 0.239457 0.155312 0.405501
O O12 0.262855 0.318277 0.291074
#
# Coordination Sequence:
#
# PCOD9254149 Si02
#       7
#     8   8   8   8   4   4   8
#     4  10  16  26  52  80  99 130 169 213 281 307
#     4  10  19  33  49  81 106 136 177 219 274 308
#     4   9  21  32  50  83 111 137 173 220 272 324
#     4  12  18  32  57  77 111 142 171 226 272 314
#     4   9  16  30  44  74 113 128 164 223 262 322
#     4  11  16  28  56  74 105 142 158 233 274 302
#     4   9  19  32  48  80 111 130 175 225 266 314
#
# _framework density 21.997005999999999
#
# number of rings (size 3 to 8) (size 9 to 14) (size 15 to 20)
#    1.000    1.000    5.000    1.500    0.000    2.667 
#    0.000    0.833    0.000    1.000    0.000    0.000 
#    0.000    0.000    0.000    0.000    0.000    0.000 
#
# Total GULP energy -133822.429943 kJ/mol
# GULP energy per Si atom -5575.934581 kJ/mol
# Density = 2.194694 g / cm^3
# Si number density = 21.997006 Si / 1000 Ang^3
#
#
#
# Elastic Constant Matrix: (Units=GPa)
#
#
# Indices 1 2 3 4 5 6 
#
# 1 29.9716 6.0151 32.7939 0.0000 13.3435 0.0000
# 2 6.0151 80.9853 40.7797 0.0000 -7.1202 0.0000
# 3 32.7939 40.7797 68.8074 0.0000 10.1153 0.0000
# 4 0.0000 0.0000 0.0000 94.9328 0.0000 -27.4385
# 5 13.3435 -7.1202 10.1153 0.0000 30.0316 0.0000
# 6 0.0000 0.0000 0.0000 -27.4385 0.0000 14.7567
#
#
#
# Elastic Compliance Matrix: (Units=1/GPa)
#
#
# Indices 1 2 3 4 5 6 
#
# 1 0.099815 0.018679 -0.055524 0.000000 -0.021219 0.000000
# 2 0.018679 0.023184 -0.023389 0.000000 0.005075 0.000000
# 3 -0.055524 -0.023389 0.054758 0.000000 0.000681 0.000000
# 4 0.000000 0.000000 0.000000 0.022772 0.000000 0.042341
# 5 -0.021219 0.005075 0.000681 0.000000 0.043700 0.000000
# 6 0.000000 0.000000 0.000000 0.042341 0.000000 0.146495
#
#
# Mechanical properties :
#
#
# Convention : Reuss Voigt Hill
#
# Bulk Modulus (GPa) = 17.45491 37.66021 27.55756
# Shear Modulus (GPa) = 9.42883 34.62258 22.02571
#
# Velocity S-wave (km/s) = 2.07261 3.97163 3.16777
# Velocity P-wave (km/s) = 3.69865 6.17977 5.09262
#
# Compressibility (1/GPa) = 0.05729048
#
# Stress axis : x y z
#
# Youngs Moduli (GPa) = 10.01851 43.13257 18.26212
#
# Poissons Ratio (x) = -0.80569 1.01398
# Poissons Ratio (y) = -0.18714 0.42714
# Poissons Ratio (z) = 0.55626 1.00884
#
# Static dielectric constant tensor:
#      x y z
#    x 1.895280 0.000000 -0.044300 
#    y 0.000000 1.872120 0.000000 
#    z -0.044300 0.000000 1.814420 
# 
# From -- ./inp_files/173379.got.cif
#   From: 2010.05.17/outbox.cif.g08.bks.cpg/sg15_87_cif.got.tgz:173379.got - 2010.06.03 18:47:42.
