data_PCOD9254574
_publ_section_title
;
Structure prediction by ZEFSAII (Michael W. Deem and Ramdas Pophale) SiO2 
 PCOD9254574
Probable space group: C 2/C
;
_chemical_formula_sum "Si O2"
_cell_formula_units_Z 40
_cell_length_a 6.861840
_cell_length_b 15.346589
_cell_length_c 18.971410
_cell_angle_alpha 90.000000
_cell_angle_beta 131.614923
_cell_angle_gamma 90.000000
_cell_volume 1493.605683
_symmetry_space_group_name_H-M "C 2/C"
_symmetry_group_IT_number 15
_symmetry_cell_setting 'monoclinic'
loop_
_space_group_symop_operation_xyz
x,y,z
-x,y,1/2-z
-x,-y,-z
x,-y,1/2+z
1/2+x,1/2+y,z
1/2-x,1/2+y,1/2-z
1/2-x,1/2-y,-z
1/2+x,1/2-y,1/2+z
loop_
_atom_site_type_symbol
_atom_site_label
_atom_site_fract_x
_atom_site_fract_y
_atom_site_fract_z
Si Si1 0.482581 0.616251 0.665680
Si Si2 0.604541 0.891343 0.451680
Si Si3 0.589318 0.025934 0.194857
Si Si4 0.083239 0.704140 0.160674
Si Si5 0.557702 0.698959 0.119754
O O1 0.500000 0.657476 0.750000
O O2 0.666262 0.533795 0.723192
O O3 0.583013 0.693540 0.638295
O O4 0.179922 0.593441 0.580355
O O5 0.612424 0.959974 0.390392
O O6 0.578527 0.792834 0.416566
O O7 0.862260 0.880563 0.559422
O O8 0.500000 0.060758 0.250000
O O9 0.621313 0.103824 0.145726
O O10 0.310815 0.699300 0.273100
O O11 0.783408 0.698838 0.115349
#
# Coordination Sequence:
#
# PCOD9254574 Si02
#       5
#     8   8   8   8   8
#     4   9  16  34  51  72  96 134 175 200 239 298
#     4   9  18  31  56  77  95 131 178 210 235 297
#     4  11  19  30  51  78 104 132 160 209 264 293
#     4  10  16  32  52  75  99 135 167 208 244 303
#     4   9  15  32  55  76  92 133 183 204 231 295
#
# _framework density 26.780829000000001
#
# number of rings (size 3 to 8) (size 9 to 14) (size 15 to 20)
#    0.000    2.400    8.000    0.000    0.000    0.800 
#    0.000    4.000    0.000   10.800    0.000    0.000 
#    0.000    0.000    0.000    0.000    0.000    0.000 
#
# Total GULP energy -111395.318773 kJ/mol
# GULP energy per Si atom -5569.765939 kJ/mol
# Density = 2.671987 g / cm^3
# Si number density = 26.780829 Si / 1000 Ang^3
#
#
#
# Elastic Constant Matrix: (Units=GPa)
#
#
# Indices 1 2 3 4 5 6 
#
# 1 66.9998 19.0008 22.3823 -0.0001 4.2495 -0.0001
# 2 19.0008 121.7362 -15.1372 0.0000 -2.4813 0.0000
# 3 22.3823 -15.1372 68.8121 -0.0002 12.4702 -0.0001
# 4 -0.0001 0.0000 -0.0002 23.5762 -0.0001 7.5273
# 5 4.2495 -2.4813 12.4702 -0.0001 17.9136 -0.0001
# 6 -0.0001 0.0000 -0.0001 7.5273 -0.0001 16.0804
#
#
#
# Elastic Compliance Matrix: (Units=1/GPa)
#
#
# Indices 1 2 3 4 5 6 
#
# 1 0.018220 -0.003681 -0.006707 0.000000 -0.000163 0.000000
# 2 -0.003681 0.009190 0.003238 0.000000 -0.000108 0.000000
# 3 -0.006707 0.003238 0.019519 0.000000 -0.011548 0.000000
# 4 0.000000 0.000000 0.000000 0.049869 0.000000 -0.023344
# 5 -0.000163 -0.000108 -0.011548 0.000000 0.063886 0.000000
# 6 0.000000 0.000000 0.000000 -0.023344 0.000000 0.073115
#
#
# Mechanical properties :
#
#
# Convention : Reuss Voigt Hill
#
# Bulk Modulus (GPa) = 30.64644 34.44888 32.54766
# Shear Modulus (GPa) = 19.30700 26.93420 23.12060
#
# Velocity S-wave (km/s) = 2.68792 3.17476 2.94143
# Velocity P-wave (km/s) = 4.59364 5.13128 4.86988
#
# Compressibility (1/GPa) = 0.03263022
#
# Stress axis : x y z
#
# Youngs Moduli (GPa) = 54.88437 108.81978 51.23237
#
# Poissons Ratio (x) = 0.40057 0.34359
# Poissons Ratio (y) = 0.20203 -0.16591
# Poissons Ratio (z) = 0.36808 -0.35241
#
# Static dielectric constant tensor:
#      x y z
#    x 2.296890 0.000000 0.017480 
#    y 0.000000 2.192440 0.000000 
#    z 0.017480 0.000000 2.124590 
# 
# From -- ./inp_files/288537.got.cif
#   From: 2010.05.17/outbox.cif.g08.bks.cpg/sg15_145_cif.got.tgz:288537.got - 2010.06.03 18:47:42.
