data_PCOD9254590
_publ_section_title
;
Structure prediction by ZEFSAII (Michael W. Deem and Ramdas Pophale) SiO2 
 PCOD9254590
Probable space group: C 2/C
;
_chemical_formula_sum "Si O2"
_cell_formula_units_Z 60
_cell_length_a 24.731947
_cell_length_b 8.755782
_cell_length_c 17.079900
_cell_angle_alpha 90.000000
_cell_angle_beta 50.455429
_cell_angle_gamma 90.000000
_cell_volume 2852.107626
_symmetry_space_group_name_H-M "C 2/C"
_symmetry_group_IT_number 15
_symmetry_cell_setting 'monoclinic'
loop_
_space_group_symop_operation_xyz
x,y,z
-x,y,1/2-z
-x,-y,-z
x,-y,1/2+z
1/2+x,1/2+y,z
1/2-x,1/2+y,1/2-z
1/2-x,1/2-y,-z
1/2+x,1/2-y,1/2+z
loop_
_atom_site_type_symbol
_atom_site_label
_atom_site_fract_x
_atom_site_fract_y
_atom_site_fract_z
Si Si1 0.118892 0.081519 0.761148
Si Si2 0.076704 0.758623 0.782373
Si Si3 0.253041 0.499782 0.451703
Si Si4 0.500000 0.057410 0.750000
Si Si5 0.332538 0.740194 0.633380
Si Si6 0.136893 0.636891 0.144970
Si Si7 0.343272 0.702393 0.457470
Si Si8 0.687176 0.954800 0.253780
O O1 0.122363 0.169957 0.838242
O O2 0.108437 0.201933 0.701033
O O3 0.069275 0.935365 0.809635
O O4 0.198123 0.026336 0.667566
O O5 0.010381 0.659648 0.818073
O O6 0.116339 0.766378 0.660561
O O7 0.124611 0.669942 0.801098
O O8 0.196810 0.370410 0.523726
O O9 0.305355 0.541635 0.474852
O O10 0.211037 0.657378 0.482786
O O11 0.430461 0.956878 0.819840
O O12 0.374422 0.707866 0.514775
O O13 0.259124 0.643313 0.693213
O O14 0.319370 0.917122 0.671758
O O15 0.174206 0.552787 0.185230
#
# Coordination Sequence:
#
# PCOD9254590 Si02
#       8
#     8   8   8   4   8   8   8   8
#     4  10  22  31  54  85 115 137 174 228 292 326
#     4  10  20  38  56  79 104 150 188 228 262 327
#     4  10  16  32  53  80 114 141 175 229 276 329
#     4  10  20  36  60  74 102 148 200 230 262 308
#     4  11  19  30  51  83 115 147 166 221 283 345
#     4  10  19  34  53  81 109 143 183 240 257 324
#     4  10  17  30  57  79 112 144 180 221 277 328
#     4  10  18  31  49  76 113 142 176 209 276 324
#
# _framework density 21.037075000000002
#
# number of rings (size 3 to 8) (size 9 to 14) (size 15 to 20)
#    0.000    1.867    4.000    3.600    0.000    0.533 
#    0.000    0.000    0.000    8.000    0.000    0.000 
#    0.000    0.000    0.000    0.000    0.000    0.000 
#
# Total GULP energy -167072.831354 kJ/mol
# GULP energy per Si atom -5569.094378 kJ/mol
# Density = 2.098919 g / cm^3
# Si number density = 21.037075 Si / 1000 Ang^3
#
#
#
# Elastic Constant Matrix: (Units=GPa)
#
#
# Indices 1 2 3 4 5 6 
#
# 1 64.6739 33.5367 11.1703 0.0007 3.8518 -0.0004
# 2 33.5367 120.4930 2.8169 0.0017 6.8512 -0.0016
# 3 11.1703 2.8169 59.7142 0.0009 13.0450 -0.0008
# 4 0.0007 0.0017 0.0009 19.4727 -0.0008 6.1853
# 5 3.8518 6.8512 13.0450 -0.0008 19.6742 0.0006
# 6 -0.0004 -0.0016 -0.0008 6.1853 0.0006 25.1623
#
#
#
# Elastic Compliance Matrix: (Units=1/GPa)
#
#
# Indices 1 2 3 4 5 6 
#
# 1 0.018683 -0.005141 -0.003326 0.000000 0.000338 0.000000
# 2 -0.005141 0.009886 0.001202 -0.000001 -0.003233 0.000001
# 3 -0.003326 0.001202 0.020185 -0.000002 -0.013151 0.000001
# 4 0.000000 -0.000001 -0.000002 0.055703 0.000004 -0.013693
# 5 0.000338 -0.003233 -0.013151 0.000004 0.060607 -0.000003
# 6 0.000000 0.000001 0.000001 -0.013693 -0.000003 0.043108
#
#
# Mechanical properties :
#
#
# Convention : Reuss Voigt Hill
#
# Bulk Modulus (GPa) = 29.22132 37.76991 33.49561
# Shear Modulus (GPa) = 21.35742 26.01900 23.68821
#
# Velocity S-wave (km/s) = 3.18972 3.52066 3.35927
# Velocity P-wave (km/s) = 5.24274 5.87534 5.56803
#
# Compressibility (1/GPa) = 0.03422159
#
# Stress axis : x y z
#
# Youngs Moduli (GPa) = 53.52573 101.15360 49.54211
#
# Poissons Ratio (x) = 0.52007 0.16478
# Poissons Ratio (y) = 0.27520 -0.05953
# Poissons Ratio (z) = 0.17804 -0.12155
#
# Static dielectric constant tensor:
#      x y z
#    x 1.828410 0.000000 -0.000600 
#    y 0.000000 1.846140 0.000000 
#    z -0.000600 0.000000 1.794730 
# 
# From -- ./inp_files/218214.got.cif
#   From: 2010.05.17/outbox.cif.g08.bks.cpg/sg15_110_cif.got.tgz:218214.got - 2010.06.03 18:47:42.
