data_PCOD9254303
_publ_section_title
;
Structure prediction by ZEFSAII (Michael W. Deem and Ramdas Pophale) SiO2 
 PCOD9254303
Probable space group: C 2/C
;
_chemical_formula_sum "Si O2"
_cell_formula_units_Z 56
_cell_length_a 15.485694
_cell_length_b 21.676667
_cell_length_c 11.272811
_cell_angle_alpha 90.000000
_cell_angle_beta 128.356090
_cell_angle_gamma 90.000000
_cell_volume 2967.325699
_symmetry_space_group_name_H-M "C 2/C"
_symmetry_group_IT_number 15
_symmetry_cell_setting 'monoclinic'
loop_
_space_group_symop_operation_xyz
x,y,z
-x,y,1/2-z
-x,-y,-z
x,-y,1/2+z
1/2+x,1/2+y,z
1/2-x,1/2+y,1/2-z
1/2-x,1/2-y,-z
1/2+x,1/2-y,1/2+z
loop_
_atom_site_type_symbol
_atom_site_label
_atom_site_fract_x
_atom_site_fract_y
_atom_site_fract_z
Si Si1 0.373842 0.979675 0.024260
Si Si2 0.291560 0.154502 0.124972
Si Si3 0.633820 0.820480 0.068661
Si Si4 0.341897 0.735927 0.841173
Si Si5 0.057799 0.658901 0.922839
Si Si6 0.453543 0.312784 0.079897
Si Si7 0.372808 0.027105 0.267817
O O1 0.381578 0.905873 0.040733
O O2 0.321204 0.002842 0.101266
O O3 0.498957 0.006945 0.126882
O O4 0.325827 0.995360 0.853885
O O5 0.331924 0.220069 0.214049
O O6 0.356614 0.100404 0.245534
O O7 0.315695 0.148275 0.005234
O O8 0.160338 0.151033 0.036701
O O9 0.727701 0.800043 0.240976
O O10 0.538399 0.852557 0.061596
O O11 0.582336 0.758214 0.969878
O O12 0.440442 0.686541 0.914979
O O13 0.367558 0.785076 0.965577
O O14 0.000000 0.675696 0.750000
O O15 0.500000 0.324921 0.250000
#
# Coordination Sequence:
#
# PCOD9254303 Si02
#       7
#     8   8   8   8   8   8   8
#     4  10  21  35  51  74 110 138 175 223 275 313
#     4  11  19  29  53  84 104 138 174 211 282 316
#     4  10  21  29  52  79 106 144 173 207 266 322
#     4  10  19  35  51  76 117 136 170 217 259 324
#     4  11  22  35  51  72 110 148 177 215 259 314
#     4  10  16  29  48  77 112 130 163 221 260 314
#     4  10  21  32  51  76 105 137 174 220 270 325
#
# _framework density 18.872214
#
# number of rings (size 3 to 8) (size 9 to 14) (size 15 to 20)
#    0.000    1.714    5.714    0.857    6.000    0.571 
#    0.000    0.000    0.000    0.000    0.000    4.000 
#    0.000    0.000    0.000    0.000    0.000    0.000 
#
# Total GULP energy -156000.170893 kJ/mol
# GULP energy per Si atom -5571.434675 kJ/mol
# Density = 1.882926 g / cm^3
# Si number density = 18.872214 Si / 1000 Ang^3
#
#
#
# Elastic Constant Matrix: (Units=GPa)
#
#
# Indices 1 2 3 4 5 6 
#
# 1 36.8856 10.7239 37.5464 0.0000 -6.1275 0.0000
# 2 10.7239 27.2688 12.8084 0.0000 -2.9164 0.0000
# 3 37.5464 12.8084 103.1461 0.0000 -10.5815 0.0000
# 4 0.0000 0.0000 0.0000 22.1404 0.0000 -7.5050
# 5 -6.1275 -2.9164 -10.5815 0.0000 34.8689 0.0000
# 6 0.0000 0.0000 0.0000 -7.5050 0.0000 8.3502
#
#
#
# Elastic Compliance Matrix: (Units=1/GPa)
#
#
# Indices 1 2 3 4 5 6 
#
# 1 0.046124 -0.010726 -0.015191 0.000000 0.002598 0.000000
# 2 -0.010726 0.041553 -0.001128 0.000000 0.001248 0.000000
# 3 -0.015191 -0.001128 0.015566 0.000000 0.001960 0.000000
# 4 0.000000 0.000000 0.000000 0.064956 0.000000 0.058382
# 5 0.002598 0.001248 0.001960 0.000000 0.029835 0.000000
# 6 0.000000 0.000000 0.000000 0.058382 0.000000 0.172231
#
#
# Mechanical properties :
#
#
# Convention : Reuss Voigt Hill
#
# Bulk Modulus (GPa) = 20.34422 32.16200 26.25311
# Shear Modulus (GPa) = 11.34456 20.15333 15.74895
#
# Velocity S-wave (km/s) = 2.45445 3.27139 2.89191
# Velocity P-wave (km/s) = 4.34002 5.59896 5.00920
#
# Compressibility (1/GPa) = 0.04915402
#
# Stress axis : x y z
#
# Youngs Moduli (GPa) = 21.68048 24.06549 64.24298
#
# Poissons Ratio (x) = 0.25812 0.97594
# Poissons Ratio (y) = 0.23254 0.07244
# Poissons Ratio (z) = 0.32936 0.02714
#
# Static dielectric constant tensor:
#      x y z
#    x 1.712120 0.000000 -0.010840 
#    y 0.000000 1.648100 0.000000 
#    z -0.010840 0.000000 1.712110 
# 
# From -- ./inp_files/107355.got.cif
#   From: 2010.05.17/outbox.cif.g08.bks.cpg/sg15_54_cif.got.tgz:107355.got - 2010.06.03 18:47:42.
