data_PCOD9254240
_publ_section_title
;
Structure prediction by ZEFSAII (Michael W. Deem and Ramdas Pophale) SiO2 
 PCOD9254240
Probable space group: C 2/C
;
_chemical_formula_sum "Si O2"
_cell_formula_units_Z 48
_cell_length_a 19.102462
_cell_length_b 13.546607
_cell_length_c 17.055183
_cell_angle_alpha 90.000000
_cell_angle_beta 149.419742
_cell_angle_gamma 90.000000
_cell_volume 2245.309676
_symmetry_space_group_name_H-M "C 2/C"
_symmetry_group_IT_number 15
_symmetry_cell_setting 'monoclinic'
loop_
_space_group_symop_operation_xyz
x,y,z
-x,y,1/2-z
-x,-y,-z
x,-y,1/2+z
1/2+x,1/2+y,z
1/2-x,1/2+y,1/2-z
1/2-x,1/2-y,-z
1/2+x,1/2-y,1/2+z
loop_
_atom_site_type_symbol
_atom_site_label
_atom_site_fract_x
_atom_site_fract_y
_atom_site_fract_z
Si Si1 0.850331 0.957823 0.642378
Si Si2 0.136495 0.343843 0.716222
Si Si3 0.851828 0.185985 0.648640
Si Si4 0.649251 0.535919 0.176439
Si Si5 0.880778 0.455276 0.198298
Si Si6 0.904067 0.404255 0.390874
O O1 0.809217 0.073036 0.609554
O O2 0.748645 0.919129 0.477286
O O3 0.000000 0.950077 0.750000
O O4 0.853470 0.926601 0.736257
O O5 0.151919 0.239844 0.772437
O O6 0.269019 0.379922 0.794138
O O7 0.127216 0.433492 0.771900
O O8 0.993991 0.331586 0.529930
O O9 0.750000 0.250000 0.500000
O O10 0.000000 0.190393 0.750000
O O11 0.753066 0.441744 0.268747
O O12 0.500000 0.500000 0.000000
O O13 0.905068 0.388234 0.298606
O O14 0.000000 0.455056 0.250000
O O15 0.000000 0.500000 0.500000
#
# Coordination Sequence:
#
# PCOD9254240 Si02
#       6
#     8   8   8   8   8   8
#     4  11  21  33  51  80 113 145 179 221 285 335
#     4  10  19  35  48  72 108 150 187 219 268 328
#     4  11  24  35  54  80 119 156 179 220 278 346
#     4  10  20  33  50  71 108 144 185 231 270 332
#     4  10  16  28  49  72 100 137 183 224 262 315
#     4   8  17  29  46  67  96 139 183 222 262 309
#
# _framework density 21.377897999999998
#
# number of rings (size 3 to 8) (size 9 to 14) (size 15 to 20)
#    0.000    2.333    1.667    5.500    4.667    0.000 
#    0.000    0.000    0.000    0.000    0.000    0.000 
#    0.000   61.333    0.000    0.333    0.000    0.000 
#
# Total GULP energy -133774.168017 kJ/mol
# GULP energy per Si atom -5573.923667 kJ/mol
# Density = 2.132924 g / cm^3
# Si number density = 21.377898 Si / 1000 Ang^3
#
#
#
# Elastic Constant Matrix: (Units=GPa)
#
#
# Indices 1 2 3 4 5 6 
#
# 1 125.2880 2.2373 52.9672 0.0000 -25.6414 0.0000
# 2 2.2373 9.4113 -0.2373 0.0000 -1.7665 0.0000
# 3 52.9672 -0.2373 173.0569 -0.0001 -16.0718 0.0000
# 4 0.0000 0.0000 -0.0001 20.5648 -0.0001 -0.5794
# 5 -25.6414 -1.7665 -16.0718 -0.0001 38.9093 0.0000
# 6 0.0000 0.0000 0.0000 -0.5794 0.0000 30.0212
#
#
#
# Elastic Compliance Matrix: (Units=1/GPa)
#
#
# Indices 1 2 3 4 5 6 
#
# 1 0.010266 -0.001452 -0.002622 0.000000 0.005616 0.000000
# 2 -0.001452 0.107438 0.000994 0.000000 0.004331 0.000000
# 3 -0.002622 0.000994 0.006682 0.000000 0.001077 0.000000
# 4 0.000000 0.000000 0.000000 0.048653 0.000000 0.000939
# 5 0.005616 0.004331 0.001077 0.000000 0.030043 0.000000
# 6 0.000000 0.000000 0.000000 0.000939 0.000000 0.033328
#
#
# Mechanical properties :
#
#
# Convention : Reuss Voigt Hill
#
# Bulk Modulus (GPa) = 8.45847 46.41006 27.43426
# Shear Modulus (GPa) = 17.73174 34.75165 26.24169
#
# Velocity S-wave (km/s) = 2.88313 4.03623 3.50739
# Velocity P-wave (km/s) = 3.87924 6.59379 5.40955
#
# Compressibility (1/GPa) = 0.11822469
#
# Stress axis : x y z
#
# Youngs Moduli (GPa) = 97.41320 9.30769 149.64498
#
# Poissons Ratio (x) = 0.01352 0.39243
# Poissons Ratio (y) = 0.14148 -0.14876
# Poissons Ratio (z) = 0.25546 -0.00925
#
# Static dielectric constant tensor:
#      x y z
#    x 1.756780 0.000000 -0.124140 
#    y 0.000000 1.875270 0.000000 
#    z -0.124140 0.000000 1.600430 
# 
# From -- ./inp_files/163562.got.cif
#   From: 2010.05.17/outbox.cif.g08.bks.cpg/sg15_82_cif.got.tgz:163562.got - 2010.06.03 18:47:42.
