data_PCOD9254795
_publ_section_title
;
Structure prediction by ZEFSAII (Michael W. Deem and Ramdas Pophale) SiO2 
 PCOD9254795
Probable space group: C 2/C
;
_chemical_formula_sum "Si O2"
_cell_formula_units_Z 52
_cell_length_a 8.305902
_cell_length_b 12.655403
_cell_length_c 27.973037
_cell_angle_alpha 90.000000
_cell_angle_beta 42.759392
_cell_angle_gamma 90.000000
_cell_volume 1996.281182
_symmetry_space_group_name_H-M "C 2/C"
_symmetry_group_IT_number 15
_symmetry_cell_setting 'monoclinic'
loop_
_space_group_symop_operation_xyz
x,y,z
-x,y,1/2-z
-x,-y,-z
x,-y,1/2+z
1/2+x,1/2+y,z
1/2-x,1/2+y,1/2-z
1/2-x,1/2-y,-z
1/2+x,1/2-y,1/2+z
loop_
_atom_site_type_symbol
_atom_site_label
_atom_site_fract_x
_atom_site_fract_y
_atom_site_fract_z
Si Si1 0.593930 0.494672 0.905224
Si Si2 0.041807 0.231406 0.794211
Si Si3 0.563723 0.137829 0.936476
Si Si4 0.682288 0.708097 0.078025
Si Si5 0.650372 0.931088 0.551413
Si Si6 0.205767 0.199339 0.180212
Si Si7 0.500000 0.945534 0.750000
O O1 0.462937 0.388770 0.913842
O O2 0.728045 0.473279 0.925870
O O3 0.789969 0.510127 0.821136
O O4 0.379193 0.575430 0.965499
O O5 0.248691 0.216426 0.787489
O O6 0.064710 0.357320 0.776663
O O7 0.000000 0.184545 0.750000
O O8 0.812460 0.187673 0.870925
O O9 0.386219 0.188897 0.936145
O O10 0.528414 0.014986 0.935142
O O11 0.455794 0.179798 0.009375
O O12 0.620877 0.726987 0.145780
O O13 0.467129 0.844946 0.611070
O O14 0.000000 0.128089 0.250000
#
# Coordination Sequence:
#
# PCOD9254795 Si02
#       7
#     8   8   8   8   8   8   4
#     4  10  19  38  62  89 118 168 201 242 306 387
#     4  10  20  38  66  84 118 164 213 247 309 377
#     4  10  20  38  60  88 120 160 195 263 311 361
#     4  10  21  37  62  88 121 157 210 241 306 384
#     4  10  22  37  63  93 124 152 210 259 310 360
#     4  12  23  39  62  92 120 167 215 257 302 385
#     4  10  16  34  68  86 104 176 210 234 298 398
#
# _framework density 26.048435000000001
#
# number of rings (size 3 to 8) (size 9 to 14) (size 15 to 20)
#    0.462    1.231    3.077    1.846    0.000    3.692 
#    0.000    1.538    8.462    0.000    0.000    0.000 
#    0.000    0.000    0.000    0.000    0.000    0.000 
#
# Total GULP energy -144986.749676 kJ/mol
# GULP energy per Si atom -5576.413449 kJ/mol
# Density = 2.598915 g / cm^3
# Si number density = 26.048435 Si / 1000 Ang^3
#
#
#
# Elastic Constant Matrix: (Units=GPa)
#
#
# Indices 1 2 3 4 5 6 
#
# 1 98.3185 33.2222 50.8906 0.0001 19.8148 -0.0004
# 2 33.2222 50.6262 40.9028 0.0002 8.3448 -0.0003
# 3 50.8906 40.9028 273.4214 0.0001 14.7258 -0.0006
# 4 0.0001 0.0002 0.0001 13.8128 -0.0001 4.2474
# 5 19.8148 8.3448 14.7258 -0.0001 45.9295 0.0003
# 6 -0.0004 -0.0003 -0.0006 4.2474 0.0003 2.0149
#
#
#
# Elastic Compliance Matrix: (Units=1/GPa)
#
#
# Indices 1 2 3 4 5 6 
#
# 1 0.014292 -0.007620 -0.001285 -0.000001 -0.004369 0.000005
# 2 -0.007620 0.026961 -0.002573 -0.000003 -0.000786 0.000008
# 3 -0.001285 -0.002573 0.004301 -0.000001 -0.000357 0.000002
# 4 -0.000001 -0.000003 -0.000001 0.205793 0.000005 -0.433812
# 5 -0.004369 -0.000786 -0.000357 0.000005 0.023915 -0.000015
# 6 0.000005 0.000008 0.000002 -0.433812 -0.000015 1.410783
#
#
# Mechanical properties :
#
#
# Convention : Reuss Voigt Hill
#
# Bulk Modulus (GPa) = 44.25151 74.71082 59.48117
# Shear Modulus (GPa) = 2.91285 32.17481 17.54383
#
# Velocity S-wave (km/s) = 1.05862 3.51834 2.59802
# Velocity P-wave (km/s) = 4.30340 6.72672 5.64659
#
# Compressibility (1/GPa) = 0.02259810
#
# Stress axis : x y z
#
# Youngs Moduli (GPa) = 69.97165 37.09011 232.52723
#
# Poissons Ratio (x) = 0.28264 0.29873
# Poissons Ratio (y) = 0.53320 0.59821
# Poissons Ratio (z) = 0.08989 0.09542
#
# Static dielectric constant tensor:
#      x y z
#    x 2.147110 0.000000 -0.049030 
#    y 0.000000 2.078650 0.000000 
#    z -0.049030 0.000000 1.959470 
# 
# From -- ./inp_files/308499.got.cif
#   From: 2010.05.17/outbox.cif.g08.bks.cpg/sg15_155_cif.got.tgz:308499.got - 2010.06.03 18:47:42.
