data_PCOD9254086
_publ_section_title
;
Structure prediction by ZEFSAII (Michael W. Deem and Ramdas Pophale) SiO2 
 PCOD9254086
Probable space group: C 2/C
;
_chemical_formula_sum "Si O2"
_cell_formula_units_Z 56
_cell_length_a 29.470453
_cell_length_b 26.907085
_cell_length_c 5.428250
_cell_angle_alpha 90.000000
_cell_angle_beta 109.485658
_cell_angle_gamma 90.000000
_cell_volume 4057.871929
_symmetry_space_group_name_H-M "C 2/C"
_symmetry_group_IT_number 15
_symmetry_cell_setting 'monoclinic'
loop_
_space_group_symop_operation_xyz
x,y,z
-x,y,1/2-z
-x,-y,-z
x,-y,1/2+z
1/2+x,1/2+y,z
1/2-x,1/2+y,1/2-z
1/2-x,1/2-y,-z
1/2+x,1/2-y,1/2+z
loop_
_atom_site_type_symbol
_atom_site_label
_atom_site_fract_x
_atom_site_fract_y
_atom_site_fract_z
Si Si1 0.924316 0.870675 0.063645
Si Si2 0.665549 0.781995 0.114311
Si Si3 0.138273 0.730863 0.066274
Si Si4 0.553495 0.310967 0.899009
Si Si5 0.680060 0.335953 0.623048
Si Si6 0.554469 0.481467 0.545065
Si Si7 0.223402 0.188334 0.702430
O O1 0.945259 0.844312 0.348213
O O2 0.933942 0.841689 0.825469
O O3 0.866569 0.869930 0.990460
O O4 0.943775 0.925735 0.053670
O O5 0.639201 0.798406 0.313472
O O6 0.660909 0.721522 0.096085
O O7 0.721836 0.794704 0.221244
O O8 0.642057 0.800413 0.820522
O O9 0.188057 0.763467 0.146568
O O10 0.093858 0.768730 0.998634
O O11 0.500000 0.291234 0.750000
O O12 0.713340 0.338675 0.442677
O O13 0.707103 0.341808 0.931244
O O14 0.500000 0.500000 0.500000
O O15 0.576516 0.513851 0.360240
#
# Coordination Sequence:
#
# PCOD9254086 Si02
#       7
#     8   8   8   8   8   8   8
#     4  12  21  36  48  57  76  94 116 165 203 246
#     4  10  16  25  42  58  81 101 114 139 169 215
#     4  10  16  29  35  56  80  92 126 142 165 221
#     4  12  23  31  45  60  72 100 124 154 196 238
#     4  10  16  27  40  59  78  95 117 135 178 230
#     4  10  23  37  48  60  70  85 119 164 208 255
#     4  10  16  25  41  60  82  99 114 137 169 220
#
# _framework density 13.800336
#
# number of rings (size 3 to 8) (size 9 to 14) (size 15 to 20)
#    0.000    1.429    5.714    5.571    6.000    0.000 
#    0.000    0.000    0.000    0.000    0.000    0.000 
#    0.000    0.000    0.000    0.000    0.000    0.000 
#
# Total GULP energy -155944.580563 kJ/mol
# GULP energy per Si atom -5569.449306 kJ/mol
# Density = 1.376893 g / cm^3
# Si number density = 13.800336 Si / 1000 Ang^3
#
#
#
# Elastic Constant Matrix: (Units=GPa)
#
#
# Indices 1 2 3 4 5 6 
#
# 1 56.4323 22.5464 34.9331 0.0000 -2.0072 0.0000
# 2 22.5464 15.5645 10.6920 0.0000 5.7418 0.0000
# 3 34.9331 10.6920 124.2744 0.0000 -25.0033 0.0000
# 4 0.0000 0.0000 0.0000 8.6158 0.0000 -3.7898
# 5 -2.0072 5.7418 -25.0033 0.0000 30.2126 0.0000
# 6 0.0000 0.0000 0.0000 -3.7898 0.0000 13.5872
#
#
#
# Elastic Compliance Matrix: (Units=1/GPa)
#
#
# Indices 1 2 3 4 5 6 
#
# 1 0.052391 -0.077343 -0.005297 0.000000 0.013796 0.000000
# 2 -0.077343 0.196344 -0.004431 0.000000 -0.046120 0.000000
# 3 -0.005297 -0.004431 0.012016 0.000000 0.010434 0.000000
# 4 0.000000 0.000000 0.000000 0.132296 0.000000 0.036900
# 5 0.013796 -0.046120 0.010434 0.000000 0.051416 0.000000
# 6 0.000000 0.000000 0.000000 0.036900 0.000000 0.083891
#
#
# Mechanical properties :
#
#
# Convention : Reuss Voigt Hill
#
# Bulk Modulus (GPa) = 11.54606 36.95711 24.25159
# Shear Modulus (GPa) = 6.83654 19.02313 12.92983
#
# Velocity S-wave (km/s) = 2.22815 3.71678 3.06424
# Velocity P-wave (km/s) = 3.87353 6.72735 5.48915
#
# Compressibility (1/GPa) = 0.08660964
#
# Stress axis : x y z
#
# Youngs Moduli (GPa) = 19.08735 5.09311 83.22079
#
# Poissons Ratio (x) = 0.39392 0.44082
# Poissons Ratio (y) = 1.47627 0.36873
# Poissons Ratio (z) = 0.10111 0.02257
#
# Static dielectric constant tensor:
#      x y z
#    x 1.472710 0.000000 -0.035590 
#    y 0.000000 1.415060 0.000000 
#    z -0.035590 0.000000 1.583840 
# 
# From -- ./inp_files/16534.got.cif
#   From: 2010.05.17/outbox.cif.g08.bks.cpg/sg15_9_cif.got.tgz:16534.got - 2010.06.03 18:47:42.
