data_PCOD9254519
_publ_section_title
;
Structure prediction by ZEFSAII (Michael W. Deem and Ramdas Pophale) SiO2 
 PCOD9254519
Probable space group: C 2/C
;
_chemical_formula_sum "Si O2"
_cell_formula_units_Z 64
_cell_length_a 20.375782
_cell_length_b 8.693926
_cell_length_c 23.195353
_cell_angle_alpha 90.000000
_cell_angle_beta 144.166172
_cell_angle_gamma 90.000000
_cell_volume 2405.530995
_symmetry_space_group_name_H-M "C 2/C"
_symmetry_group_IT_number 15
_symmetry_cell_setting 'monoclinic'
loop_
_space_group_symop_operation_xyz
x,y,z
-x,y,1/2-z
-x,-y,-z
x,-y,1/2+z
1/2+x,1/2+y,z
1/2-x,1/2+y,1/2-z
1/2-x,1/2-y,-z
1/2+x,1/2-y,1/2+z
loop_
_atom_site_type_symbol
_atom_site_label
_atom_site_fract_x
_atom_site_fract_y
_atom_site_fract_z
Si Si1 0.018536 0.326887 0.454076
Si Si2 0.559386 0.469362 0.910404
Si Si3 0.275974 0.011195 0.211151
Si Si4 0.854442 0.119442 0.146872
Si Si5 0.252478 0.341394 0.687099
Si Si6 0.671274 0.983866 0.371979
Si Si7 0.597449 0.697776 0.022092
Si Si8 0.630944 0.052433 0.462763
O O1 0.011631 0.182148 0.406656
O O2 0.139913 0.320511 0.570504
O O3 0.023968 0.478058 0.418266
O O4 0.940678 0.312324 0.454210
O O5 0.565169 0.453399 0.845052
O O6 0.693708 0.477217 0.021858
O O7 0.515038 0.614454 0.916917
O O8 0.280298 0.080549 0.277084
O O9 0.153472 0.064603 0.100518
O O10 0.291375 0.830249 0.228341
O O11 0.346609 0.053628 0.204207
O O12 0.839086 0.078303 0.204122
O O13 0.868075 0.305078 0.154561
O O14 0.730532 0.072995 0.035296
O O15 0.617134 0.079166 0.385363
O O16 0.667866 0.804247 0.028037
#
# Coordination Sequence:
#
# PCOD9254519 Si02
#       8
#     8   8   8   8   8   8   8   8
#     4  11  19  36  57  78 111 147 174 219 276 326
#     4  10  16  31  54  79 102 137 175 227 267 305
#     4  10  22  36  53  81 110 140 180 223 270 322
#     4   9  16  31  56  76 102 138 181 222 267 312
#     4  10  21  36  55  80 106 145 179 220 273 321
#     4   9  15  33  54  77 104 134 182 224 265 310
#     4  11  23  32  51  89 114 135 180 227 271 317
#     4  10  18  31  53  82 108 135 178 228 270 310
#
# _framework density 26.605353000000001
#
# number of rings (size 3 to 8) (size 9 to 14) (size 15 to 20)
#    0.000    2.000    6.250    1.500    3.500    4.500 
#    0.000    0.000    0.000    1.500    0.000    0.000 
#    0.000    0.000    0.000    0.000    0.000    0.000 
#
# Total GULP energy -178668.022606 kJ/mol
# GULP energy per Si atom -5583.375706 kJ/mol
# Density = 2.654480 g / cm^3
# Si number density = 26.605353 Si / 1000 Ang^3
#
#
#
# Elastic Constant Matrix: (Units=GPa)
#
#
# Indices 1 2 3 4 5 6 
#
# 1 165.6109 41.0804 76.7792 0.0000 -67.5439 0.0000
# 2 41.0804 67.4537 28.1940 0.0000 -27.9849 0.0000
# 3 76.7792 28.1940 134.5362 0.0000 -65.5490 0.0000
# 4 0.0000 0.0000 0.0000 21.8789 0.0000 -24.3128
# 5 -67.5439 -27.9849 -65.5490 0.0000 71.9547 0.0000
# 6 0.0000 0.0000 0.0000 -24.3128 0.0000 29.1453
#
#
#
# Elastic Compliance Matrix: (Units=1/GPa)
#
#
# Indices 1 2 3 4 5 6 
#
# 1 0.010471 -0.002644 -0.002039 0.000000 0.006944 0.000000
# 2 -0.002644 0.018376 -0.000124 0.000000 0.004551 0.000000
# 3 -0.002039 -0.000124 0.013785 0.000000 0.010596 0.000000
# 4 0.000000 0.000000 0.000000 0.626051 0.000001 0.522247
# 5 0.006944 0.004551 0.010596 0.000001 0.031838 0.000001
# 6 0.000000 0.000000 0.000000 0.522247 0.000001 0.469965
#
#
# Mechanical properties :
#
#
# Convention : Reuss Voigt Hill
#
# Bulk Modulus (GPa) = 30.28695 73.30087 51.79391
# Shear Modulus (GPa) = 4.19778 39.36560 21.78169
#
# Velocity S-wave (km/s) = 1.25747 3.85075 2.86439
# Velocity P-wave (km/s) = 3.67652 6.88346 5.51810
#
# Compressibility (1/GPa) = 0.03301753
#
# Stress axis : x y z
#
# Youngs Moduli (GPa) = 95.49876 54.42007 72.54342
#
# Poissons Ratio (x) = 0.14390 0.14788
# Poissons Ratio (y) = 0.25252 0.00902
# Poissons Ratio (z) = 0.19468 0.00676
#
# Static dielectric constant tensor:
#      x y z
#    x 2.197010 0.000000 0.067330 
#    y 0.000000 2.078140 0.000000 
#    z 0.067330 0.000000 2.215540 
# 
# From -- ./inp_files/251932.got.cif
#   From: 2010.05.17/outbox.cif.g08.bks.cpg/sg15_126_cif.got.tgz:251932.got - 2010.06.03 18:47:42.
