data_PCOD9254946
_publ_section_title
;
Structure prediction by ZEFSAII (Michael W. Deem and Ramdas Pophale) SiO2 
 PCOD9254946
Probable space group: C 2/C
;
_chemical_formula_sum "Si O2"
_cell_formula_units_Z 48
_cell_length_a 10.712784
_cell_length_b 29.088143
_cell_length_c 9.075028
_cell_angle_alpha 90.000000
_cell_angle_beta 41.625688
_cell_angle_gamma 90.000000
_cell_volume 1878.474674
_symmetry_space_group_name_H-M "C 2/C"
_symmetry_group_IT_number 15
_symmetry_cell_setting 'monoclinic'
loop_
_space_group_symop_operation_xyz
x,y,z
-x,y,1/2-z
-x,-y,-z
x,-y,1/2+z
1/2+x,1/2+y,z
1/2-x,1/2+y,1/2-z
1/2-x,1/2-y,-z
1/2+x,1/2-y,1/2+z
loop_
_atom_site_type_symbol
_atom_site_label
_atom_site_fract_x
_atom_site_fract_y
_atom_site_fract_z
Si Si1 0.744903 0.590563 0.896501
Si Si2 0.348318 0.488006 0.514209
Si Si3 0.391456 0.177318 0.612333
Si Si4 0.316877 0.320710 0.501924
Si Si5 0.699931 0.598984 0.276385
Si Si6 0.544153 0.266038 0.540823
O O1 0.868141 0.624254 0.684765
O O2 0.772270 0.535035 0.886561
O O3 0.757956 0.603883 0.056231
O O4 0.529205 0.597697 0.032717
O O5 0.500000 0.477273 0.250000
O O6 0.500000 0.500000 0.500000
O O7 0.239188 0.445425 0.681893
O O8 0.333120 0.185950 0.494455
O O9 0.561546 0.210975 0.507341
O O10 0.225571 0.203617 0.848057
O O11 0.500000 0.338528 0.250000
O O12 0.239657 0.358643 0.679679
O O13 0.402431 0.281511 0.533143
O O14 0.500000 0.275890 0.750000
#
# Coordination Sequence:
#
# PCOD9254946 Si02
#       6
#     8   8   8   8   8   8
#     4  10  18  30  45  70 105 141 173 209 260 317
#     4  10  17  25  42  70 103 142 170 207 255 325
#     4  11  23  36  55  75 107 140 179 221 265 308
#     4  10  19  31  52  74 105 139 174 219 265 309
#     4  10  17  28  46  69 106 140 173 203 265 317
#     4  11  22  38  54  76 100 140 181 222 264 314
#
# _framework density 25.552647
#
# number of rings (size 3 to 8) (size 9 to 14) (size 15 to 20)
#    0.000    1.667    6.667    2.500    2.333    0.000 
#    0.000    0.000    0.000    0.000    0.000    0.000 
#    0.000   12.000    0.000    1.000    0.000    0.167 
#
# Total GULP energy -133968.995752 kJ/mol
# GULP energy per Si atom -5582.041490 kJ/mol
# Density = 2.549449 g / cm^3
# Si number density = 25.552647 Si / 1000 Ang^3
#
#
#
# Elastic Constant Matrix: (Units=GPa)
#
#
# Indices 1 2 3 4 5 6 
#
# 1 87.7256 23.6353 40.8017 0.0000 26.6289 0.0000
# 2 23.6353 133.7505 21.0420 0.0000 21.4575 0.0000
# 3 40.8017 21.0420 99.6834 0.0000 41.8837 0.0000
# 4 0.0000 0.0000 0.0000 33.4114 0.0000 14.2140
# 5 26.6289 21.4575 41.8837 0.0000 55.7854 0.0000
# 6 0.0000 0.0000 0.0000 14.2140 0.0000 28.2164
#
#
#
# Elastic Compliance Matrix: (Units=1/GPa)
#
#
# Indices 1 2 3 4 5 6 
#
# 1 0.014806 -0.001407 -0.004413 0.000000 -0.003213 0.000000
# 2 -0.001407 0.008125 -0.000158 0.000000 -0.002335 0.000000
# 3 -0.004413 -0.000158 0.016012 0.000000 -0.009854 0.000000
# 4 0.000000 0.000000 0.000000 0.038094 0.000000 -0.019190
# 5 -0.003213 -0.002335 -0.009854 0.000000 0.027756 0.000000
# 6 0.000000 0.000000 0.000000 -0.019190 0.000000 0.045107
#
#
# Mechanical properties :
#
#
# Convention : Reuss Voigt Hill
#
# Bulk Modulus (GPa) = 37.05583 54.67971 45.86777
# Shear Modulus (GPa) = 29.26509 39.19466 34.22987
#
# Velocity S-wave (km/s) = 3.38788 3.92073 3.66400
# Velocity P-wave (km/s) = 5.46231 6.47622 5.99075
#
# Compressibility (1/GPa) = 0.02698631
#
# Stress axis : x y z
#
# Youngs Moduli (GPa) = 67.53943 123.08223 62.45280
#
# Poissons Ratio (x) = 0.17313 0.27563
# Poissons Ratio (y) = 0.09500 0.00988
# Poissons Ratio (z) = 0.29808 0.01948
#
# Static dielectric constant tensor:
#      x y z
#    x 2.008540 0.000000 -0.089910 
#    y 0.000000 -0.041160 0.000000 
#    z -0.089910 0.000000 2.050710 
# 
# From -- ./inp_files/33393.got.cif
#   From: 2010.05.17/outbox.cif.g08.bks.cpg/sg15_17_cif.got.tgz:33393.got - 2010.06.03 18:47:42.
