data_PCOD9254654
_publ_section_title
;
Structure prediction by ZEFSAII (Michael W. Deem and Ramdas Pophale) SiO2 
 PCOD9254654
Probable space group: C 2/C
;
_chemical_formula_sum "Si O2"
_cell_formula_units_Z 56
_cell_length_a 21.556161
_cell_length_b 8.624963
_cell_length_c 15.396084
_cell_angle_alpha 90.000000
_cell_angle_beta 51.348295
_cell_angle_gamma 90.000000
_cell_volume 2235.456058
_symmetry_space_group_name_H-M "C 2/C"
_symmetry_group_IT_number 15
_symmetry_cell_setting 'monoclinic'
loop_
_space_group_symop_operation_xyz
x,y,z
-x,y,1/2-z
-x,-y,-z
x,-y,1/2+z
1/2+x,1/2+y,z
1/2-x,1/2+y,1/2-z
1/2-x,1/2-y,-z
1/2+x,1/2-y,1/2+z
loop_
_atom_site_type_symbol
_atom_site_label
_atom_site_fract_x
_atom_site_fract_y
_atom_site_fract_z
Si Si1 0.985205 0.410589 0.103418
Si Si2 0.132950 0.413238 0.515990
Si Si3 0.891992 0.834822 0.614099
Si Si4 0.658668 0.869882 0.743211
Si Si5 0.406403 0.360066 0.318931
Si Si6 0.260880 0.853163 0.640138
Si Si7 0.182900 0.022723 0.963785
O O1 0.969750 0.230725 0.094834
O O2 0.907762 0.496060 0.210992
O O3 0.000000 0.500000 0.000000
O O4 0.064170 0.457480 0.085308
O O5 0.127653 0.311131 0.432440
O O6 0.119648 0.289951 0.601979
O O7 0.214990 0.502898 0.440061
O O8 0.826742 0.852842 0.745375
O O9 0.880229 0.976211 0.557708
O O10 0.620138 0.703914 0.751432
O O11 0.684031 0.867496 0.821656
O O12 0.740563 0.911136 0.621460
O O13 0.500000 0.379988 0.250000
O O14 0.361484 0.496868 0.406999
O O15 0.283534 0.693175 0.576352
#
# Coordination Sequence:
#
# PCOD9254654 Si02
#       7
#     8   8   8   8   8   8   8
#     4  10  16  32  59  89 107 142 206 244 263 328
#     4  10  20  35  61  85 110 151 201 239 275 343
#     4   9  17  33  57  85 113 148 189 237 279 341
#     4  11  20  37  64  86 112 156 201 236 277 354
#     4  11  23  40  61  81 117 158 199 232 290 351
#     4  11  19  35  60  89 116 143 193 245 290 331
#     4  10  22  36  57  89 123 151 182 242 302 345
#
# _framework density 25.050816000000001
#
# number of rings (size 3 to 8) (size 9 to 14) (size 15 to 20)
#    0.000    1.714    5.714    1.286    0.000    0.000 
#    0.000    4.286    3.143    0.000    0.000    0.000 
#    0.000    0.000    0.000    0.000    0.000    0.000 
#
# Total GULP energy -156599.257019 kJ/mol
# GULP energy per Si atom -5592.830608 kJ/mol
# Density = 2.499380 g / cm^3
# Si number density = 25.050816 Si / 1000 Ang^3
#
#
#
# Elastic Constant Matrix: (Units=GPa)
#
#
# Indices 1 2 3 4 5 6 
#
# 1 46.9871 13.0228 35.2559 0.0000 -2.3932 -0.0001
# 2 13.0228 42.0475 20.8965 -0.0004 -6.9707 0.0002
# 3 35.2559 20.8965 100.8482 -0.0002 -12.5415 0.0002
# 4 0.0000 -0.0004 -0.0002 43.5499 0.0001 -10.0263
# 5 -2.3932 -6.9707 -12.5415 0.0001 25.2942 0.0000
# 6 -0.0001 0.0002 0.0002 -10.0263 0.0000 20.3841
#
#
#
# Elastic Compliance Matrix: (Units=1/GPa)
#
#
# Indices 1 2 3 4 5 6 
#
# 1 0.029858 -0.004922 -0.009843 0.000000 -0.003411 0.000000
# 2 -0.004922 0.027903 -0.003371 0.000000 0.005553 0.000000
# 3 -0.009843 -0.003371 0.014732 0.000000 0.005444 0.000000
# 4 0.000000 0.000000 0.000000 0.025894 0.000000 0.012737
# 5 -0.003411 0.005553 0.005444 0.000000 0.043442 0.000000
# 6 0.000000 0.000000 0.000000 0.012737 0.000000 0.055323
#
#
# Mechanical properties :
#
#
# Convention : Reuss Voigt Hill
#
# Bulk Modulus (GPa) = 27.60650 36.47033 32.03842
# Shear Modulus (GPa) = 20.36697 25.89281 23.12989
#
# Velocity S-wave (km/s) = 2.85445 3.21847 3.04191
# Velocity P-wave (km/s) = 4.68060 5.32931 5.01545
#
# Compressibility (1/GPa) = 0.03622336
#
# Stress axis : x y z
#
# Youngs Moduli (GPa) = 33.49187 35.83903 67.87810
#
# Poissons Ratio (x) = 0.17638 0.66810
# Poissons Ratio (y) = 0.16483 0.22878
# Poissons Ratio (z) = 0.32965 0.12080
#
# Static dielectric constant tensor:
#      x y z
#    x 2.131520 0.000000 0.050720 
#    y 0.000000 1.975800 0.000000 
#    z 0.050720 0.000000 1.974350 
# 
# From -- ./inp_files/218642.got.cif
#   From: 2010.05.17/outbox.cif.g08.bks.cpg/sg15_110_cif.got.tgz:218642.got - 2010.06.03 18:47:42.
