data_PCOD9254153
_publ_section_title
;
Structure prediction by ZEFSAII (Michael W. Deem and Ramdas Pophale) SiO2 
 PCOD9254153
Probable space group: C 2/C
;
_chemical_formula_sum "Si O2"
_cell_formula_units_Z 40
_cell_length_a 34.832298
_cell_length_b 11.536078
_cell_length_c 5.570955
_cell_angle_alpha 90.000000
_cell_angle_beta 90.000013
_cell_angle_gamma 90.000000
_cell_volume 2238.566300
_symmetry_space_group_name_H-M "C 2/C"
_symmetry_group_IT_number 15
_symmetry_cell_setting 'monoclinic'
loop_
_space_group_symop_operation_xyz
x,y,z
-x,y,1/2-z
-x,-y,-z
x,-y,1/2+z
1/2+x,1/2+y,z
1/2-x,1/2+y,1/2-z
1/2-x,1/2-y,-z
1/2+x,1/2-y,1/2+z
loop_
_atom_site_type_symbol
_atom_site_label
_atom_site_fract_x
_atom_site_fract_y
_atom_site_fract_z
Si Si1 0.822069 0.730377 0.000000
Si Si2 0.984453 0.633160 1.000000
Si Si3 0.104124 0.572267 0.500000
Si Si4 0.767873 0.491897 0.500000
Si Si5 0.203885 0.738982 1.000000
O O1 0.863055 0.669076 0.000000
O O2 0.789414 0.629715 1.000000
O O3 0.814284 0.788147 0.256915
O O4 0.814284 0.788147 0.743085
O O5 0.938613 0.625104 1.000000
O O6 0.000000 0.685310 0.250000
O O7 0.000000 0.685310 0.750000
O O8 0.000000 0.500000 0.000000
O O9 0.107994 0.500000 0.750001
O O10 0.746084 0.500000 0.250000
O O11 0.799440 0.596584 0.500000
O O12 0.250000 0.750000 0.000000
#
# Coordination Sequence:
#
# PCOD9254153 Si02
#       5
#     8   8   8   8   8
#     4  10  19  28  38  57  69  90 123 152 191 226
#     4  10  16  27  33  51  72  94 122 144 185 237
#     4  12  18  25  41  52  73  97 119 158 191 225
#     4   8  14  25  36  49  68  80 110 143 174 218
#     4  10  18  29  40  51  71  91 113 149 195 233
#
# _framework density 17.868580000000001
#
# number of rings (size 3 to 8) (size 9 to 14) (size 15 to 20)
#    0.000    2.000    4.000    5.400    0.000    0.000 
#    0.000    0.000    0.000    0.000    0.000    0.000 
#    0.000    0.000    0.000    0.000    0.000    0.000 
#
# Total GULP energy -111349.150369 kJ/mol
# GULP energy per Si atom -5567.457518 kJ/mol
# Density = 1.782791 g / cm^3
# Si number density = 17.868580 Si / 1000 Ang^3
#
#
#
# Elastic Constant Matrix: (Units=GPa)
#
#
# Indices 1 2 3 4 5 6 
#
# 1 129.1823 3.4016 64.7638 0.0000 -0.6743 0.0000
# 2 3.4016 9.3945 -2.9723 0.0000 -0.6561 0.0000
# 3 64.7638 -2.9723 247.5499 0.0000 12.8592 0.0000
# 4 0.0000 0.0000 0.0000 1.1729 0.0000 -1.2461
# 5 -0.6743 -0.6561 12.8592 0.0000 30.3277 0.0000
# 6 0.0000 0.0000 0.0000 -1.2461 0.0000 13.2778
#
#
#
# Elastic Compliance Matrix: (Units=1/GPa)
#
#
# Indices 1 2 3 4 5 6 
#
# 1 0.009101 -0.004001 -0.002490 0.000000 0.001171 0.000000
# 2 -0.004001 0.108707 0.002285 0.000000 0.001294 0.000000
# 3 -0.002490 0.002285 0.004825 0.000000 -0.002052 0.000000
# 4 0.000000 0.000000 0.000000 0.947018 0.000000 0.088878
# 5 0.001171 0.001294 -0.002052 0.000000 0.033897 0.000000
# 6 0.000000 0.000000 0.000000 0.088878 0.000000 0.083655
#
#
# Mechanical properties :
#
#
# Convention : Reuss Voigt Hill
#
# Bulk Modulus (GPa) = 8.75503 57.39032 33.07268
# Shear Modulus (GPa) = 4.05289 30.35125 17.20207
#
# Velocity S-wave (km/s) = 1.50768 4.12586 3.10611
# Velocity P-wave (km/s) = 2.81800 7.40842 5.60472
#
# Compressibility (1/GPa) = 0.11422006
#
# Stress axis : x y z
#
# Youngs Moduli (GPa) = 109.88170 9.19907 207.25452
#
# Poissons Ratio (x) = 0.03681 0.51602
# Poissons Ratio (y) = 0.43965 -0.47353
# Poissons Ratio (z) = 0.27358 -0.02102
#
# Static dielectric constant tensor:
#      x y z
#    x 1.581040 0.000000 0.022300 
#    y 0.000000 1.651450 0.000000 
#    z 0.022300 0.000000 1.797640 
# 
# From -- ./inp_files/7846.got.cif
#   From: 2010.05.17/outbox.cif.g08.bks.cpg/sg15_4_cif.got.tgz:7846.got - 2010.06.03 18:47:42.
