data_PCOD9254901
_publ_section_title
;
Structure prediction by ZEFSAII (Michael W. Deem and Ramdas Pophale) SiO2 
 PCOD9254901
Probable space group: C 2/C
;
_chemical_formula_sum "Si O2"
_cell_formula_units_Z 44
_cell_length_a 19.226614
_cell_length_b 13.631160
_cell_length_c 13.007538
_cell_angle_alpha 90.000000
_cell_angle_beta 32.061822
_cell_angle_gamma 90.000000
_cell_volume 1809.628618
_symmetry_space_group_name_H-M "C 2/C"
_symmetry_group_IT_number 15
_symmetry_cell_setting 'monoclinic'
loop_
_space_group_symop_operation_xyz
x,y,z
-x,y,1/2-z
-x,-y,-z
x,-y,1/2+z
1/2+x,1/2+y,z
1/2-x,1/2+y,1/2-z
1/2-x,1/2-y,-z
1/2+x,1/2-y,1/2+z
loop_
_atom_site_type_symbol
_atom_site_label
_atom_site_fract_x
_atom_site_fract_y
_atom_site_fract_z
Si Si1 0.000000 0.636155 0.750000
Si Si2 0.669592 0.171753 0.725061
Si Si3 0.474715 0.175151 0.389776
Si Si4 0.236790 0.161933 0.409606
Si Si5 0.250772 0.391937 0.827106
Si Si6 0.639236 0.519756 0.128526
O O1 0.933674 0.693217 0.737816
O O2 0.115422 0.577338 0.549638
O O3 0.737085 0.274498 0.669539
O O4 0.769846 0.095619 0.549066
O O5 0.597367 0.132968 0.918526
O O6 0.500000 0.119827 0.250000
O O7 0.619476 0.205426 0.249196
O O8 0.378037 0.262433 0.473908
O O9 0.247424 0.093723 0.295416
O O10 0.198432 0.088997 0.548505
O O11 0.363097 0.443573 0.751586
O O12 0.500000 0.517287 0.250000
#
# Coordination Sequence:
#
# PCOD9254901 Si02
#       6
#     4   8   8   8   8   8
#     4  10  16  38  60  96 134 168 232 272 342 410
#     4  10  23  38  70 102 135 185 227 293 354 421
#     4  11  24  46  73 100 143 193 238 286 352 437
#     4  11  25  47  71 104 141 189 244 290 358 424
#     4  10  23  39  69  98 138 185 226 292 350 431
#     4  11  25  42  68 105 145 180 236 302 360 417
#
# _framework density 24.314381999999998
#
# number of rings (size 3 to 8) (size 9 to 14) (size 15 to 20)
#    0.000    1.455    1.818    3.273    5.091    4.364 
#    6.545    0.000    0.000    0.000    0.000    0.000 
#    0.000    0.000    0.000    0.000    0.000    0.000 
#
# Total GULP energy -122964.222188 kJ/mol
# GULP energy per Si atom -5589.282827 kJ/mol
# Density = 2.425904 g / cm^3
# Si number density = 24.314382 Si / 1000 Ang^3
#
#
#
# Elastic Constant Matrix: (Units=GPa)
#
#
# Indices 1 2 3 4 5 6 
#
# 1 103.9517 -0.6595 48.3238 0.0000 15.6124 0.0000
# 2 -0.6595 57.3104 18.2472 0.0000 -0.3848 0.0000
# 3 48.3238 18.2472 104.4334 0.0000 -6.1819 0.0000
# 4 0.0000 0.0000 0.0000 22.7950 0.0000 4.2450
# 5 15.6124 -0.3848 -6.1819 0.0000 65.7668 0.0000
# 6 0.0000 0.0000 0.0000 4.2450 0.0000 6.6834
#
#
#
# Elastic Compliance Matrix: (Units=1/GPa)
#
#
# Indices 1 2 3 4 5 6 
#
# 1 0.013373 0.002298 -0.006815 0.000000 -0.003802 0.000000
# 2 0.002298 0.018874 -0.004412 0.000000 -0.000850 0.000000
# 3 -0.006815 -0.004412 0.013670 0.000000 0.002877 0.000000
# 4 0.000000 0.000000 0.000000 0.049754 0.000000 -0.031602
# 5 -0.003802 -0.000850 0.002877 0.000000 0.016373 0.000000
# 6 0.000000 0.000000 0.000000 -0.031602 0.000000 0.169695
#
#
# Mechanical properties :
#
#
# Convention : Reuss Voigt Hill
#
# Bulk Modulus (GPa) = 35.63637 44.16871 39.90254
# Shear Modulus (GPa) = 16.18383 32.36799 24.27591
#
# Velocity S-wave (km/s) = 2.58274 3.65256 3.16320
# Velocity P-wave (km/s) = 4.85617 5.99945 5.45782
#
# Compressibility (1/GPa) = 0.02806122
#
# Stress axis : x y z
#
# Youngs Moduli (GPa) = 74.77527 52.98250 73.15323
#
# Poissons Ratio (x) = -0.12176 0.49852
# Poissons Ratio (y) = -0.17184 0.32272
# Poissons Ratio (z) = 0.50958 0.23373
#
# Static dielectric constant tensor:
#      x y z
#    x 1.972270 0.000000 0.019320 
#    y 0.000000 1.932980 0.000000 
#    z 0.019320 0.000000 1.963710 
# 
# From -- ./inp_files/168418.got.cif
#   From: 2010.05.17/outbox.cif.g08.bks.cpg/sg15_85_cif.got.tgz:168418.got - 2010.06.03 18:47:42.
