data_PCOD9254351
_publ_section_title
;
Structure prediction by ZEFSAII (Michael W. Deem and Ramdas Pophale) SiO2 
 PCOD9254351
Probable space group: C 2/C
;
_chemical_formula_sum "Si O2"
_cell_formula_units_Z 60
_cell_length_a 19.689703
_cell_length_b 8.444785
_cell_length_c 23.565239
_cell_angle_alpha 90.000000
_cell_angle_beta 62.182150
_cell_angle_gamma 90.000000
_cell_volume 3465.499520
_symmetry_space_group_name_H-M "C 2/C"
_symmetry_group_IT_number 15
_symmetry_cell_setting 'monoclinic'
loop_
_space_group_symop_operation_xyz
x,y,z
-x,y,1/2-z
-x,-y,-z
x,-y,1/2+z
1/2+x,1/2+y,z
1/2-x,1/2+y,1/2-z
1/2-x,1/2-y,-z
1/2+x,1/2-y,1/2+z
loop_
_atom_site_type_symbol
_atom_site_label
_atom_site_fract_x
_atom_site_fract_y
_atom_site_fract_z
Si Si1 0.441498 0.593368 0.444878
Si Si2 0.396788 0.378992 0.368268
Si Si3 0.500000 0.603655 0.250000
Si Si4 0.462553 0.831507 0.662377
Si Si5 0.673625 0.316760 0.217303
Si Si6 0.553308 0.202870 0.829267
Si Si7 0.410844 0.628493 0.583769
Si Si8 0.806110 0.082218 0.197961
O O1 0.384500 0.483754 0.429701
O O2 0.479724 0.734128 0.393578
O O3 0.407441 0.648590 0.517893
O O4 0.515517 0.482668 0.430235
O O5 0.450550 0.495523 0.310434
O O6 0.450165 0.229246 0.363953
O O7 0.330468 0.337651 0.349152
O O8 0.449158 0.715570 0.230988
O O9 0.410816 0.732570 0.727094
O O10 0.429387 0.782775 0.613675
O O11 0.451031 0.016290 0.674668
O O12 0.728099 0.171911 0.214075
O O13 0.695661 0.476322 0.243674
O O14 0.630176 0.278123 0.825423
O O15 0.336735 0.541238 0.638745
#
# Coordination Sequence:
#
# PCOD9254351 Si02
#       8
#     8   8   4   8   8   8   8   8
#     4   8  16  31  52  70  95 132 170 199 251 285
#     4  10  17  32  50  71  98 131 160 207 250 292
#     4  10  16  30  48  66 104 122 156 204 252 292
#     4  10  19  29  50  76 102 126 162 208 253 287
#     4  11  19  33  47  70 100 134 160 205 249 304
#     4  10  19  29  47  79  97 126 163 204 248 299
#     4   8  16  33  50  69  98 134 165 205 240 296
#     4  10  20  33  49  70 102 132 167 195 252 298
#
# _framework density 17.313521999999999
#
# number of rings (size 3 to 8) (size 9 to 14) (size 15 to 20)
#    0.000    2.400    2.667    2.400    1.867    0.533 
#    0.000    0.667    0.000    0.000    0.000    9.333 
#    0.000    0.000    0.000    0.000    0.000    0.000 
#
# Total GULP energy -167025.355786 kJ/mol
# GULP energy per Si atom -5567.511860 kJ/mol
# Density = 1.727412 g / cm^3
# Si number density = 17.313522 Si / 1000 Ang^3
#
#
#
# Elastic Constant Matrix: (Units=GPa)
#
#
# Indices 1 2 3 4 5 6 
#
# 1 60.4632 25.5616 19.2953 0.0000 13.4383 0.0002
# 2 25.5616 90.8276 4.0019 0.0001 10.9992 0.0001
# 3 19.2953 4.0019 55.6134 0.0000 21.4854 0.0000
# 4 0.0000 0.0001 0.0000 8.3307 0.0000 1.5807
# 5 13.4383 10.9992 21.4854 0.0000 20.8584 0.0000
# 6 0.0002 0.0001 0.0000 1.5807 0.0000 23.4586
#
#
#
# Elastic Compliance Matrix: (Units=1/GPa)
#
#
# Indices 1 2 3 4 5 6 
#
# 1 0.021608 -0.005094 -0.004634 0.000000 -0.006461 0.000000
# 2 -0.005094 0.013188 0.003716 0.000000 -0.007500 0.000000
# 3 -0.004634 0.003716 0.031435 0.000000 -0.031354 0.000000
# 4 0.000000 0.000000 0.000000 0.121592 0.000000 -0.008193
# 5 -0.006461 -0.007500 -0.031354 0.000000 0.088356 0.000000
# 6 0.000000 0.000000 0.000000 -0.008193 0.000000 0.043180
#
#
# Mechanical properties :
#
#
# Convention : Reuss Voigt Hill
#
# Bulk Modulus (GPa) = 18.44829 33.84688 26.14759
# Shear Modulus (GPa) = 14.30809 21.06589 17.68699
#
# Velocity S-wave (km/s) = 2.87786 3.49195 3.19967
# Velocity P-wave (km/s) = 4.66061 5.98750 5.36523
#
# Compressibility (1/GPa) = 0.05420557
#
# Stress axis : x y z
#
# Youngs Moduli (GPa) = 46.28000 75.82592 31.81196
#
# Poissons Ratio (x) = 0.38629 0.14742
# Poissons Ratio (y) = 0.23577 -0.11821
# Poissons Ratio (z) = 0.21447 -0.28177
#
# Static dielectric constant tensor:
#      x y z
#    x 1.622980 0.000000 0.025050 
#    y 0.000000 1.575220 0.000000 
#    z 0.025050 0.000000 1.604350 
# 
# From -- ./inp_files/247402.got.cif
#   From: 2010.05.17/outbox.cif.g08.bks.cpg/sg15_124_cif.got.tgz:247402.got - 2010.06.03 18:47:42.
