data_PCOD9254558
_publ_section_title
;
Structure prediction by ZEFSAII (Michael W. Deem and Ramdas Pophale) SiO2 
 PCOD9254558
Probable space group: C 2/C
;
_chemical_formula_sum "Si O2"
_cell_formula_units_Z 32
_cell_length_a 22.709275
_cell_length_b 5.343640
_cell_length_c 13.606486
_cell_angle_alpha 90.000000
_cell_angle_beta 53.446756
_cell_angle_gamma 90.000000
_cell_volume 1326.374726
_symmetry_space_group_name_H-M "C 2/C"
_symmetry_group_IT_number 15
_symmetry_cell_setting 'monoclinic'
loop_
_space_group_symop_operation_xyz
x,y,z
-x,y,1/2-z
-x,-y,-z
x,-y,1/2+z
1/2+x,1/2+y,z
1/2-x,1/2+y,1/2-z
1/2-x,1/2-y,-z
1/2+x,1/2-y,1/2+z
loop_
_atom_site_type_symbol
_atom_site_label
_atom_site_fract_x
_atom_site_fract_y
_atom_site_fract_z
Si Si1 0.225792 0.000024 0.583910
Si Si2 0.583293 0.627455 0.636810
Si Si3 0.853200 0.561745 0.594043
Si Si4 0.085005 0.065063 0.932221
O O1 0.250000 0.750000 0.500000
O O2 0.250000 0.250000 0.500000
O O3 0.138264 0.044102 0.667409
O O4 0.270905 0.008399 0.640632
O O5 0.500000 0.647951 0.750000
O O6 0.606091 0.871563 0.550436
O O7 0.592891 0.419249 0.543159
O O8 0.887720 0.338728 0.622935
O O9 0.866955 0.819902 0.637881
O O10 0.000000 0.000000 0.000000
#
# Coordination Sequence:
#
# PCOD9254558 Si02
#       4
#     8   8   8   8
#     4  10  16  32  49  73  98 131 166 205 243 301
#     4   9  20  31  52  79 104 125 168 215 261 285
#     4   9  18  32  51  72  98 133 168 202 244 298
#     4  10  19  32  52  73 101 133 170 200 244 304
#
# _framework density 24.125910999999999
#
# number of rings (size 3 to 8) (size 9 to 14) (size 15 to 20)
#    1.500    1.000    2.500    0.750    0.000    1.000 
#    0.000    0.000    0.000    3.000    0.000    0.000 
#    0.000    0.000    0.000    0.000    0.000    0.000 
#
# Total GULP energy -89141.355628 kJ/mol
# GULP energy per Si atom -5571.334727 kJ/mol
# Density = 2.407100 g / cm^3
# Si number density = 24.125911 Si / 1000 Ang^3
#
#
#
# Elastic Constant Matrix: (Units=GPa)
#
#
# Indices 1 2 3 4 5 6 
#
# 1 116.7008 62.6171 32.9125 -0.0008 -35.2592 0.0035
# 2 62.6171 209.9193 55.9790 -0.0006 -19.0393 0.0032
# 3 32.9125 55.9790 84.9081 0.0001 -42.4773 -0.0004
# 4 -0.0008 -0.0006 0.0001 18.6877 0.0000 3.2144
# 5 -35.2592 -19.0393 -42.4773 0.0000 53.3381 -0.0010
# 6 0.0035 0.0032 -0.0004 3.2144 -0.0010 42.7082
#
#
#
# Elastic Compliance Matrix: (Units=1/GPa)
#
#
# Indices 1 2 3 4 5 6 
#
# 1 0.012433 -0.003366 0.001514 0.000001 0.008222 -0.000001
# 2 -0.003366 0.006776 -0.005096 0.000000 -0.003865 0.000000
# 3 0.001514 -0.005096 0.023506 0.000000 0.017901 0.000001
# 4 0.000001 0.000000 0.000000 0.054213 0.000000 -0.004080
# 5 0.008222 -0.003865 0.017901 0.000000 0.037060 0.000001
# 6 -0.000001 0.000000 0.000001 -0.004080 0.000001 0.023722
#
#
# Mechanical properties :
#
#
# Convention : Reuss Voigt Hill
#
# Bulk Modulus (GPa) = 34.70154 79.39394 57.04774
# Shear Modulus (GPa) = 27.59171 40.28145 33.93658
#
# Velocity S-wave (km/s) = 3.38546 4.09055 3.75459
# Velocity P-wave (km/s) = 5.44946 7.43571 6.51868
#
# Compressibility (1/GPa) = 0.02881716
#
# Stress axis : x y z
#
# Youngs Moduli (GPa) = 80.43392 147.57139 42.54195
#
# Poissons Ratio (x) = 0.49679 -0.06440
# Poissons Ratio (y) = 0.27078 0.21681
# Poissons Ratio (z) = -0.12176 0.75207
#
# Static dielectric constant tensor:
#      x y z
#    x 2.012350 0.000000 0.157090 
#    y 0.000000 1.819710 0.000010 
#    z 0.157090 0.000010 2.394930 
# 
# From -- ./inp_files/175045.got.cif
#   From: 2010.05.17/outbox.cif.g08.bks.cpg/sg15_88_cif.got.tgz:175045.got - 2010.06.03 18:47:42.
