data_PCOD9254497
_publ_section_title
;
Structure prediction by ZEFSAII (Michael W. Deem and Ramdas Pophale) SiO2 
 PCOD9254497
Probable space group: C 2/C
;
_chemical_formula_sum "Si O2"
_cell_formula_units_Z 56
_cell_length_a 20.856027
_cell_length_b 13.104007
_cell_length_c 18.019029
_cell_angle_alpha 90.000000
_cell_angle_beta 153.736914
_cell_angle_gamma 90.000000
_cell_volume 2179.084116
_symmetry_space_group_name_H-M "C 2/C"
_symmetry_group_IT_number 15
_symmetry_cell_setting 'monoclinic'
loop_
_space_group_symop_operation_xyz
x,y,z
-x,y,1/2-z
-x,-y,-z
x,-y,1/2+z
1/2+x,1/2+y,z
1/2-x,1/2+y,1/2-z
1/2-x,1/2-y,-z
1/2+x,1/2-y,1/2+z
loop_
_atom_site_type_symbol
_atom_site_label
_atom_site_fract_x
_atom_site_fract_y
_atom_site_fract_z
Si Si1 0.645291 0.421289 0.298283
Si Si2 0.162776 0.371659 0.691271
Si Si3 0.809860 0.912110 0.987128
Si Si4 0.663121 0.655834 0.273225
Si Si5 0.136430 0.586587 0.592630
Si Si6 0.549702 0.034536 0.722526
Si Si7 0.576092 0.261250 0.902709
O O1 0.692350 0.381041 0.428553
O O2 0.683649 0.541484 0.326197
O O3 0.726506 0.372995 0.311159
O O4 0.471727 0.415424 0.123647
O O5 0.219000 0.349385 0.832158
O O6 0.264499 0.330130 0.731820
O O7 0.179732 0.495040 0.692650
O O8 0.991736 0.346358 0.504216
O O9 0.722107 0.019570 0.897057
O O10 0.492495 0.674554 0.101964
O O11 0.755359 0.736071 0.418551
O O12 0.036461 0.530898 0.426808
O O13 0.500000 0.991800 0.750000
O O14 0.492310 0.148313 0.659423
O O15 0.500000 0.306173 0.750000
#
# Coordination Sequence:
#
# PCOD9254497 Si02
#       7
#     8   8   8   8   8   8   8
#     4  10  19  33  49  78 109 133 176 212 258 309
#     4   9  19  34  49  73 102 139 171 215 266 310
#     4  10  20  29  54  77 107 140 163 221 269 301
#     4  11  23  37  49  77 107 142 180 217 244 311
#     4   9  16  32  51  69 103 136 169 213 259 313
#     4  10  16  31  50  73  99 144 178 207 245 298
#     4  11  22  34  52  71 102 147 189 207 242 292
#
# _framework density 25.698869999999999
#
# number of rings (size 3 to 8) (size 9 to 14) (size 15 to 20)
#    0.000    2.000    4.286    1.286    4.000    2.286 
#    0.000    1.429    0.000    0.000    0.000    0.000 
#    0.000   13.714    0.000    0.000    0.000    0.000 
#
# Total GULP energy -156282.332706 kJ/mol
# GULP energy per Si atom -5581.511882 kJ/mol
# Density = 2.564038 g / cm^3
# Si number density = 25.698870 Si / 1000 Ang^3
#
#
#
# Elastic Constant Matrix: (Units=GPa)
#
#
# Indices 1 2 3 4 5 6 
#
# 1 154.0999 -0.4755 24.9642 0.0006 21.7536 0.0004
# 2 -0.4755 39.9570 1.8617 0.0007 4.2711 0.0004
# 3 24.9642 1.8617 75.9334 0.0008 21.6908 0.0006
# 4 0.0006 0.0007 0.0008 8.9132 0.0005 5.8467
# 5 21.7536 4.2711 21.6908 0.0005 64.4215 0.0003
# 6 0.0004 0.0004 0.0006 5.8467 0.0003 25.9353
#
#
#
# Elastic Compliance Matrix: (Units=1/GPa)
#
#
# Indices 1 2 3 4 5 6 
#
# 1 0.007036 0.000359 -0.001811 0.000000 -0.001790 0.000000
# 2 0.000359 0.025226 -0.000248 -0.000002 -0.001710 0.000000
# 3 -0.001811 -0.000248 0.015038 -0.000001 -0.004435 0.000000
# 4 0.000000 -0.000002 -0.000001 0.131664 0.000000 -0.029682
# 5 -0.001790 -0.001710 -0.004435 0.000000 0.017734 0.000000
# 6 0.000000 0.000000 0.000000 -0.029682 0.000000 0.045249
#
#
# Mechanical properties :
#
#
# Convention : Reuss Voigt Hill
#
# Bulk Modulus (GPa) = 22.77850 35.85456 29.31653
# Shear Modulus (GPa) = 19.23233 36.09665 27.66449
#
# Velocity S-wave (km/s) = 2.73861 3.75187 3.28454
# Velocity P-wave (km/s) = 4.34544 5.72283 5.08102
#
# Compressibility (1/GPa) = 0.04390105
#
# Stress axis : x y z
#
# Youngs Moduli (GPa) = 142.11685 39.64228 66.49899
#
# Poissons Ratio (x) = -0.01425 0.12041
# Poissons Ratio (y) = -0.05108 0.01650
# Poissons Ratio (z) = 0.25734 0.00984
#
# Static dielectric constant tensor:
#      x y z
#    x 2.135380 0.000000 0.007090 
#    y 0.000000 2.064190 0.000000 
#    z 0.007090 0.000000 2.022500 
# 
# From -- ./inp_files/216072.got.cif
#   From: 2010.05.17/outbox.cif.g08.bks.cpg/sg15_109_cif.got.tgz:216072.got - 2010.06.03 18:47:42.
