data_PCOD9254869
_publ_section_title
;
Structure prediction by ZEFSAII (Michael W. Deem and Ramdas Pophale) SiO2 
 PCOD9254869
Probable space group: C 2/C
;
_chemical_formula_sum "Si O2"
_cell_formula_units_Z 44
_cell_length_a 26.781208
_cell_length_b 14.572370
_cell_length_c 12.858021
_cell_angle_alpha 90.000000
_cell_angle_beta 21.990595
_cell_angle_gamma 90.000000
_cell_volume 1879.028696
_symmetry_space_group_name_H-M "C 2/C"
_symmetry_group_IT_number 15
_symmetry_cell_setting 'monoclinic'
loop_
_space_group_symop_operation_xyz
x,y,z
-x,y,1/2-z
-x,-y,-z
x,-y,1/2+z
1/2+x,1/2+y,z
1/2-x,1/2+y,1/2-z
1/2-x,1/2-y,-z
1/2+x,1/2-y,1/2+z
loop_
_atom_site_type_symbol
_atom_site_label
_atom_site_fract_x
_atom_site_fract_y
_atom_site_fract_z
Si Si1 0.181172 0.892729 0.052591
Si Si2 0.522058 0.877182 0.981445
Si Si3 0.219343 0.419088 0.190536
Si Si4 0.923637 0.828528 0.633244
Si Si5 0.000000 0.655785 0.750000
Si Si6 0.213665 0.758610 0.810873
O O1 0.320355 0.882326 0.845299
O O2 0.160037 0.805215 0.018669
O O3 0.210805 0.983328 0.926469
O O4 0.049402 0.895667 0.375733
O O5 0.420274 0.926994 0.101279
O O6 0.480156 0.769907 0.058551
O O7 0.496258 0.902196 0.151880
O O8 0.195834 0.349925 0.331044
O O9 0.317858 0.366141 0.920058
O O10 0.851204 0.809033 0.663323
O O11 0.130741 0.717534 0.489845
#
# Coordination Sequence:
#
# PCOD9254869 Si02
#       6
#     8   8   8   8   4   8
#     4  11  24  37  64 101 131 160 213 269 313 372
#     4  10  20  38  67  88 127 170 213 251 318 379
#     4  11  21  42  67  93 125 175 213 255 319 384
#     4  11  20  41  64  93 128 166 204 268 324 370
#     4  10  16  36  64  88 110 168 218 244 296 382
#     4  10  21  40  63  90 128 169 209 255 315 379
#
# _framework density 23.416353999999998
#
# number of rings (size 3 to 8) (size 9 to 14) (size 15 to 20)
#    0.000    1.455    3.636    3.273    0.000    0.000 
#    3.273    3.636   24.000    0.000    0.000    0.000 
#    0.000    0.000    0.000    0.000    0.000    0.000 
#
# Total GULP energy -123078.942517 kJ/mol
# GULP energy per Si atom -5594.497387 kJ/mol
# Density = 2.336306 g / cm^3
# Si number density = 23.416354 Si / 1000 Ang^3
#
#
#
# Elastic Constant Matrix: (Units=GPa)
#
#
# Indices 1 2 3 4 5 6 
#
# 1 68.6704 36.8251 32.8791 0.0000 -7.6441 0.0000
# 2 36.8251 114.0863 17.2192 -0.0001 2.1879 0.0000
# 3 32.8791 17.2192 98.4990 -0.0001 -19.0995 0.0000
# 4 0.0000 -0.0001 -0.0001 20.1146 0.0000 -0.8352
# 5 -7.6441 2.1879 -19.0995 0.0000 22.7229 0.0000
# 6 0.0000 0.0000 0.0000 -0.8352 0.0000 18.3500
#
#
#
# Elastic Compliance Matrix: (Units=1/GPa)
#
#
# Indices 1 2 3 4 5 6 
#
# 1 0.020586 -0.005913 -0.005238 0.000000 0.003091 0.000000
# 2 -0.005913 0.010834 -0.000607 0.000000 -0.003542 0.000000
# 3 -0.005238 -0.000607 0.013950 0.000000 0.010022 0.000000
# 4 0.000000 0.000000 0.000000 0.049809 0.000000 0.002267
# 5 0.003091 -0.003542 0.010022 0.000000 0.053813 0.000000
# 6 0.000000 0.000000 0.000000 0.002267 0.000000 0.054599
#
#
# Mechanical properties :
#
#
# Convention : Reuss Voigt Hill
#
# Bulk Modulus (GPa) = 45.76151 50.56692 48.16422
# Shear Modulus (GPa) = 21.33173 25.19299 23.26236
#
# Velocity S-wave (km/s) = 3.02151 3.28361 3.15528
# Velocity P-wave (km/s) = 5.63540 6.00147 5.82131
#
# Compressibility (1/GPa) = 0.02185243
#
# Stress axis : x y z
#
# Youngs Moduli (GPa) = 48.57768 92.30576 71.68262
#
# Poissons Ratio (x) = 0.54584 0.37550
# Poissons Ratio (y) = 0.28726 0.04350
# Poissons Ratio (z) = 0.25446 0.05602
#
# Static dielectric constant tensor:
#      x y z
#    x 1.897480 0.000000 0.012440 
#    y 0.000000 1.939840 0.000000 
#    z 0.012440 0.000000 1.871780 
# 
# From -- ./inp_files/182235.got.cif
#   From: 2010.05.17/outbox.cif.g08.bks.cpg/sg15_92_cif.got.tgz:182235.got - 2010.06.03 18:47:42.
