data_PCOD9254220
_publ_section_title
;
Structure prediction by ZEFSAII (Michael W. Deem and Ramdas Pophale) SiO2 
 PCOD9254220
Probable space group: C 2/C
;
_chemical_formula_sum "Si O2"
_cell_formula_units_Z 36
_cell_length_a 7.518850
_cell_length_b 23.635700
_cell_length_c 8.977386
_cell_angle_alpha 90.000000
_cell_angle_beta 102.262113
_cell_angle_gamma 90.000000
_cell_volume 1559.003629
_symmetry_space_group_name_H-M "C 2/C"
_symmetry_group_IT_number 15
_symmetry_cell_setting 'monoclinic'
loop_
_space_group_symop_operation_xyz
x,y,z
-x,y,1/2-z
-x,-y,-z
x,-y,1/2+z
1/2+x,1/2+y,z
1/2-x,1/2+y,1/2-z
1/2-x,1/2-y,-z
1/2+x,1/2-y,1/2+z
loop_
_atom_site_type_symbol
_atom_site_label
_atom_site_fract_x
_atom_site_fract_y
_atom_site_fract_z
Si Si1 0.688619 0.528826 0.592966
Si Si2 0.028536 0.214671 0.001423
Si Si3 0.275309 0.573467 0.210073
Si Si4 0.278980 0.801361 0.804522
Si Si5 0.500000 0.378240 0.250000
O O1 0.500000 0.500000 0.500000
O O2 0.780229 0.555783 0.465852
O O3 0.780785 0.476471 0.690273
O O4 0.644068 0.578672 0.701799
O O5 0.949098 0.267811 0.898247
O O6 0.066059 0.163076 0.894721
O O7 0.864256 0.196088 0.083299
O O8 0.185533 0.229313 0.147048
O O9 0.500000 0.577805 0.250000
O O10 0.199127 0.634081 0.238374
#
# Coordination Sequence:
#
# PCOD9254220 Si02
#       5
#     8   8   8   8   4
#     4  10  17  25  44  73 104 129 158 212 265 298
#     4  10  21  32  52  71 107 138 174 208 250 306
#     4  10  16  28  46  72 105 128 164 209 265 297
#     4  10  19  36  50  73 105 141 172 206 253 311
#     4  12  18  30  48  78 108 128 172 212 262 302
#
# _framework density 23.091671000000002
#
# number of rings (size 3 to 8) (size 9 to 14) (size 15 to 20)
#    0.000    1.778    7.778    1.333    0.000    0.889 
#    0.000    0.000    0.000    0.000    0.000    1.556 
#   13.333    0.000    0.000    0.000    0.000    0.000 
#
# Total GULP energy -100637.029940 kJ/mol
# GULP energy per Si atom -5590.946108 kJ/mol
# Density = 2.303911 g / cm^3
# Si number density = 23.091671 Si / 1000 Ang^3
#
#
#
# Elastic Constant Matrix: (Units=GPa)
#
#
# Indices 1 2 3 4 5 6 
#
# 1 67.8615 18.3372 26.8601 0.0000 6.4907 0.0000
# 2 18.3372 176.8328 81.7413 0.0000 22.4173 0.0000
# 3 26.8601 81.7413 167.8176 0.0000 -1.6606 0.0000
# 4 0.0000 0.0000 0.0000 56.7109 0.0000 -7.7378
# 5 6.4907 22.4173 -1.6606 0.0000 11.3086 0.0000
# 6 0.0000 0.0000 0.0000 -7.7378 0.0000 3.3210
#
#
#
# Elastic Compliance Matrix: (Units=1/GPa)
#
#
# Indices 1 2 3 4 5 6 
#
# 1 0.017041 0.001650 -0.003666 0.000000 -0.013590 0.000000
# 2 0.001650 0.011365 -0.006041 0.000000 -0.024363 0.000000
# 3 -0.003666 -0.006041 0.009641 0.000000 0.015495 0.000000
# 4 0.000000 0.000000 0.000000 0.025852 0.000000 0.060233
# 5 -0.013590 -0.024363 0.015495 0.000000 0.146800 0.000000
# 6 0.000000 0.000000 0.000000 0.060233 0.000000 0.441451
#
#
# Mechanical properties :
#
#
# Convention : Reuss Voigt Hill
#
# Bulk Modulus (GPa) = 45.59085 74.04325 59.81705
# Shear Modulus (GPa) = 7.40112 33.30632 20.35372
#
# Velocity S-wave (km/s) = 1.79222 3.80195 2.97211
# Velocity P-wave (km/s) = 4.90602 7.16991 6.14315
#
# Compressibility (1/GPa) = 0.02193423
#
# Stress axis : x y z
#
# Youngs Moduli (GPa) = 58.68283 87.99045 103.72028
#
# Poissons Ratio (x) = -0.14521 0.38022
# Poissons Ratio (y) = -0.09684 0.62656
# Poissons Ratio (z) = 0.21512 0.53154
#
# Static dielectric constant tensor:
#      x y z
#    x 1.916360 0.000000 0.010970 
#    y 0.000000 1.832570 0.000000 
#    z 0.010970 0.000000 1.916690 
# 
# From -- ./inp_files/23117.got.cif
#   From: 2010.05.17/outbox.cif.g08.bks.cpg/sg15_12_cif.got.tgz:23117.got - 2010.06.03 18:47:42.
