data_PCOD9254008
_publ_section_title
;
Structure prediction by ZEFSAII (Michael W. Deem and Ramdas Pophale) SiO2 
 PCOD9254008
Probable space group: C 2/C
;
_chemical_formula_sum "Si O2"
_cell_formula_units_Z 44
_cell_length_a 12.302988
_cell_length_b 9.174400
_cell_length_c 25.403491
_cell_angle_alpha 90.000000
_cell_angle_beta 139.714823
_cell_angle_gamma 90.000000
_cell_volume 1854.010980
_symmetry_space_group_name_H-M "C 2/C"
_symmetry_group_IT_number 15
_symmetry_cell_setting 'monoclinic'
loop_
_space_group_symop_operation_xyz
x,y,z
-x,y,1/2-z
-x,-y,-z
x,-y,1/2+z
1/2+x,1/2+y,z
1/2-x,1/2+y,1/2-z
1/2-x,1/2-y,-z
1/2+x,1/2-y,1/2+z
loop_
_atom_site_type_symbol
_atom_site_label
_atom_site_fract_x
_atom_site_fract_y
_atom_site_fract_z
Si Si1 0.302147 0.678123 0.609036
Si Si2 0.107352 0.327679 0.148989
Si Si3 0.000000 0.360298 0.750000
Si Si4 0.701314 0.506033 0.193605
Si Si5 0.012717 0.853289 0.038916
Si Si6 0.854526 0.595660 0.475459
O O1 0.218415 0.670952 0.636703
O O2 0.471319 0.762213 0.687082
O O3 0.300869 0.514015 0.586846
O O4 0.169456 0.775723 0.527804
O O5 0.192308 0.439768 0.219751
O O6 0.116750 0.162687 0.173548
O O7 0.922681 0.371006 0.059159
O O8 0.161615 0.459151 0.801199
O O9 0.576996 0.392179 0.120272
O O10 0.140327 0.743834 0.055925
O O11 0.000000 0.000000 0.000000
O O12 0.000000 0.500000 0.500000
#
# Coordination Sequence:
#
# PCOD9254008 Si02
#       6
#     8   8   4   8   8   8
#     4   9  19  35  58  74 114 146 192 220 279 336
#     4   9  19  31  52  84 102 139 187 233 255 332
#     4  10  20  38  52  84 112 154 176 234 290 334
#     4  11  21  33  60  80 116 138 192 230 282 321
#     4  10  15  32  56  80  98 152 185 220 260 347
#     4   8  16  31  52  77 104 140 186 220 266 327
#
# _framework density 23.732330000000001
#
# number of rings (size 3 to 8) (size 9 to 14) (size 15 to 20)
#    0.000    2.909    5.455    0.000    7.636    0.000 
#    0.000    1.818    0.000    7.636    0.000    0.000 
#    0.000    0.000    0.000    0.000    0.000    0.000 
#
# Total GULP energy -122828.758667 kJ/mol
# GULP energy per Si atom -5583.125394 kJ/mol
# Density = 2.367831 g / cm^3
# Si number density = 23.732330 Si / 1000 Ang^3
#
#
#
# Elastic Constant Matrix: (Units=GPa)
#
#
# Indices 1 2 3 4 5 6 
#
# 1 46.9891 17.8674 12.4339 0.0000 -1.5476 0.0000
# 2 17.8674 164.6827 73.8944 0.0000 -11.7361 0.0000
# 3 12.4339 73.8944 153.1269 0.0000 -17.5697 0.0000
# 4 0.0000 0.0000 0.0000 65.1550 0.0000 -3.1844
# 5 -1.5476 -11.7361 -17.5697 0.0000 25.1708 0.0000
# 6 0.0000 0.0000 0.0000 -3.1844 0.0000 10.4022
#
#
#
# Elastic Compliance Matrix: (Units=1/GPa)
#
#
# Indices 1 2 3 4 5 6 
#
# 1 0.022278 -0.002053 -0.000838 0.000000 -0.000173 0.000000
# 2 -0.002053 0.007967 -0.003551 0.000000 0.001110 0.000000
# 3 -0.000838 -0.003551 0.008823 0.000000 0.004451 0.000000
# 4 0.000000 0.000000 0.000000 0.015581 0.000000 0.004770
# 5 -0.000173 0.001110 0.004451 0.000000 0.043343 0.000000
# 6 0.000000 0.000000 0.000000 0.004770 0.000000 0.097593
#
#
# Mechanical properties :
#
#
# Convention : Reuss Voigt Hill
#
# Bulk Modulus (GPa) = 38.19052 63.68779 50.93916
# Shear Modulus (GPa) = 23.02046 37.51913 30.26980
#
# Velocity S-wave (km/s) = 3.11787 3.98040 3.57524
# Velocity P-wave (km/s) = 5.39338 6.92957 6.20917
#
# Compressibility (1/GPa) = 0.02618451
#
# Stress axis : x y z
#
# Youngs Moduli (GPa) = 44.88660 125.51099 113.34279
#
# Poissons Ratio (x) = 0.25773 0.09496
# Poissons Ratio (y) = 0.09217 0.40245
# Poissons Ratio (z) = 0.03761 0.44566
#
# Static dielectric constant tensor:
#      x y z
#    x 2.076270 0.000000 0.149630 
#    y 0.000000 1.942170 0.000000 
#    z 0.149630 0.000000 2.034590 
# 
# From -- ./inp_files/295324.got.cif
#   From: 2010.05.17/outbox.cif.g08.bks.cpg/sg15_148_cif.got.tgz:295324.got - 2010.06.03 18:47:42.
