data_PCOD9254764
_publ_section_title
;
Structure prediction by ZEFSAII (Michael W. Deem and Ramdas Pophale) SiO2 
 PCOD9254764
Probable space group: C 2/C
;
_chemical_formula_sum "Si O2"
_cell_formula_units_Z 60
_cell_length_a 8.589466
_cell_length_b 16.100673
_cell_length_c 19.172644
_cell_angle_alpha 90.000000
_cell_angle_beta 93.899641
_cell_angle_gamma 90.000000
_cell_volume 2645.364476
_symmetry_space_group_name_H-M "C 2/C"
_symmetry_group_IT_number 15
_symmetry_cell_setting 'monoclinic'
loop_
_space_group_symop_operation_xyz
x,y,z
-x,y,1/2-z
-x,-y,-z
x,-y,1/2+z
1/2+x,1/2+y,z
1/2-x,1/2+y,1/2-z
1/2-x,1/2-y,-z
1/2+x,1/2-y,1/2+z
loop_
_atom_site_type_symbol
_atom_site_label
_atom_site_fract_x
_atom_site_fract_y
_atom_site_fract_z
Si Si1 0.054389 0.713076 0.572070
Si Si2 0.363640 0.635550 0.354609
Si Si3 0.096747 0.994557 0.920158
Si Si4 0.878202 0.424896 0.001586
Si Si5 0.500000 0.972426 0.750000
Si Si6 0.080666 0.181436 0.931215
Si Si7 0.673212 0.506735 0.265536
Si Si8 0.490362 0.841407 0.627648
O O1 0.052281 0.775580 0.637358
O O2 0.041996 0.773130 0.503316
O O3 0.230700 0.677839 0.572045
O O4 0.929724 0.638431 0.564354
O O5 0.461379 0.570427 0.401820
O O6 0.343248 0.594273 0.277810
O O7 0.195958 0.644886 0.386370
O O8 0.210770 0.965566 0.985066
O O9 0.189133 0.992176 0.849102
O O10 0.032869 0.086786 0.926882
O O11 0.909085 0.368713 0.934691
O O12 0.000000 0.500000 0.000000
O O13 0.660848 0.024043 0.760289
O O14 0.528118 0.906383 0.688885
O O15 0.004941 0.241247 0.869733
O O16 0.500000 0.466725 0.250000
#
# Coordination Sequence:
#
# PCOD9254764 Si02
#       8
#     8   8   8   8   4   8   8   8
#     4   9  18  35  53  79 113 152 187 219 287 356
#     4   9  20  35  56  77 111 152 182 233 292 336
#     4  11  20  34  57  86 109 145 190 243 287 329
#     4  11  20  33  57  85 113 145 192 238 279 346
#     4  10  16  34  60  82 104 158 194 234 288 350
#     4   9  18  33  54  81 113 145 189 234 272 349
#     4   9  19  35  56  86 112 149 196 240 291 347
#     4   9  19  36  56  80 109 150 196 225 285 357
#
# _framework density 22.681183999999998
#
# number of rings (size 3 to 8) (size 9 to 14) (size 15 to 20)
#    0.000    2.400    2.667    0.800    0.000    1.067 
#    3.600    0.000    0.000    0.000   69.333    0.000 
#    0.000    0.000    0.000    0.000    0.000    0.000 
#
# Total GULP energy -167128.693333 kJ/mol
# GULP energy per Si atom -5570.956444 kJ/mol
# Density = 2.262956 g / cm^3
# Si number density = 22.681184 Si / 1000 Ang^3
#
#
#
# Elastic Constant Matrix: (Units=GPa)
#
#
# Indices 1 2 3 4 5 6 
#
# 1 78.9988 26.0115 4.0996 0.0000 4.2934 0.0000
# 2 26.0115 104.6682 -3.3158 0.0000 11.0146 0.0000
# 3 4.0996 -3.3158 34.3639 0.0000 -3.7583 0.0000
# 4 0.0000 0.0000 0.0000 18.5940 0.0000 -1.3137
# 5 4.2934 11.0146 -3.7583 0.0000 29.4194 0.0000
# 6 0.0000 0.0000 0.0000 -1.3137 0.0000 16.9374
#
#
#
# Elastic Compliance Matrix: (Units=1/GPa)
#
#
# Indices 1 2 3 4 5 6 
#
# 1 0.013951 -0.003426 -0.002107 0.000000 -0.001022 0.000000
# 2 -0.003426 0.010798 0.001078 0.000000 -0.003405 0.000000
# 3 -0.002107 0.001078 0.029862 0.000000 0.003719 0.000000
# 4 0.000000 0.000000 0.000000 0.054077 0.000000 0.004194
# 5 -0.001022 -0.003405 0.003719 0.000000 0.035890 0.000000
# 6 0.000000 0.000000 0.000000 0.004194 0.000000 0.059366
#
#
# Mechanical properties :
#
#
# Convention : Reuss Voigt Hill
#
# Bulk Modulus (GPa) = 21.88085 30.18018 26.03051
# Shear Modulus (GPa) = 21.92128 25.73921 23.83024
#
# Velocity S-wave (km/s) = 3.11222 3.37237 3.24491
# Velocity P-wave (km/s) = 4.75212 5.33845 5.05380
#
# Compressibility (1/GPa) = 0.04570207
#
# Stress axis : x y z
#
# Youngs Moduli (GPa) = 71.67696 92.61007 33.48698
#
# Poissons Ratio (x) = 0.31731 0.07055
# Poissons Ratio (y) = 0.24559 -0.03611
# Poissons Ratio (z) = 0.15101 -0.09986
#
# Static dielectric constant tensor:
#      x y z
#    x 1.866830 0.000000 0.023520 
#    y 0.000000 1.844200 0.000000 
#    z 0.023520 0.000000 1.936300 
# 
# From -- ./inp_files/264369.got.cif
#   From: 2010.05.17/outbox.cif.g08.bks.cpg/sg15_133_cif.got.tgz:264369.got - 2010.06.03 18:47:42.
