data_PCOD9254453
_publ_section_title
;
Structure prediction by ZEFSAII (Michael W. Deem and Ramdas Pophale) SiO2 
 PCOD9254453
Probable space group: C 2/C
;
_chemical_formula_sum "Si O2"
_cell_formula_units_Z 60
_cell_length_a 9.959216
_cell_length_b 13.853878
_cell_length_c 19.069237
_cell_angle_alpha 90.000000
_cell_angle_beta 57.947933
_cell_angle_gamma 90.000000
_cell_volume 2229.992741
_symmetry_space_group_name_H-M "C 2/C"
_symmetry_group_IT_number 15
_symmetry_cell_setting 'monoclinic'
loop_
_space_group_symop_operation_xyz
x,y,z
-x,y,1/2-z
-x,-y,-z
x,-y,1/2+z
1/2+x,1/2+y,z
1/2-x,1/2+y,1/2-z
1/2-x,1/2-y,-z
1/2+x,1/2-y,1/2+z
loop_
_atom_site_type_symbol
_atom_site_label
_atom_site_fract_x
_atom_site_fract_y
_atom_site_fract_z
Si Si1 0.893587 0.211638 0.372860
Si Si2 0.198482 0.055996 0.217673
Si Si3 0.000000 0.476764 0.250000
Si Si4 0.231001 0.237461 0.296813
Si Si5 0.619158 0.368288 0.474434
Si Si6 0.627316 0.007987 0.066919
Si Si7 0.635362 0.397222 0.324940
Si Si8 0.868334 0.390048 0.075886
O O1 0.847605 0.134500 0.327582
O O2 0.749882 0.284862 0.421744
O O3 0.941856 0.161197 0.433124
O O4 0.058680 0.262638 0.310302
O O5 0.256680 0.127395 0.266028
O O6 0.079903 0.987355 0.294563
O O7 0.287338 0.975809 0.144388
O O8 0.963831 0.527088 0.335211
O O9 0.824304 0.425114 0.287916
O O10 0.360726 0.301426 0.221878
O O11 0.207386 0.288917 0.379141
O O12 0.700054 0.471958 0.461348
O O13 0.537256 0.377381 0.422099
O O14 0.548848 0.912466 0.050946
O O15 0.629546 0.088945 0.007041
#
# Coordination Sequence:
#
# PCOD9254453 Si02
#       8
#     8   8   4   8   8   8   8   8
#     4  11  20  32  54  90 109 149 187 247 279 340
#     4  11  21  32  53  85 115 149 192 225 291 341
#     4  10  16  30  56  76 108 144 186 226 290 322
#     4  11  20  35  54  79 120 149 192 234 291 332
#     4  10  19  31  53  83 118 141 186 235 292 330
#     4  10  17  30  54  81 116 145 184 226 297 337
#     4  10  20  35  52  84 114 152 179 244 283 340
#     4  10  20  34  50  85 120 150 179 246 290 338
#
# _framework density 26.905919000000001
#
# number of rings (size 3 to 8) (size 9 to 14) (size 15 to 20)
#    0.000    1.600    6.667    1.200    0.000    0.000 
#    0.000    0.667    0.000    3.200   13.867    0.000 
#    0.000    0.000    0.000    0.000    0.000    0.000 
#
# Total GULP energy -167271.393611 kJ/mol
# GULP energy per Si atom -5575.713120 kJ/mol
# Density = 2.684468 g / cm^3
# Si number density = 26.905919 Si / 1000 Ang^3
#
#
#
# Elastic Constant Matrix: (Units=GPa)
#
#
# Indices 1 2 3 4 5 6 
#
# 1 30.5090 -2.9830 13.5831 0.0000 2.9294 0.0000
# 2 -2.9830 127.2462 72.4672 0.0000 9.3828 0.0000
# 3 13.5831 72.4672 201.3667 0.0000 44.9509 0.0000
# 4 0.0000 0.0000 0.0000 59.2288 0.0000 -1.9817
# 5 2.9294 9.3828 44.9509 0.0000 41.7326 0.0000
# 6 0.0000 0.0000 0.0000 -1.9817 0.0000 31.1369
#
#
#
# Elastic Compliance Matrix: (Units=1/GPa)
#
#
# Indices 1 2 3 4 5 6 
#
# 1 0.034521 0.002733 -0.003468 0.000000 0.000698 0.000000
# 2 0.002733 0.010245 -0.004364 0.000000 0.002205 0.000000
# 3 -0.003468 -0.004364 0.008554 0.000000 -0.007989 0.000000
# 4 0.000000 0.000000 0.000000 0.016920 0.000000 0.001077
# 5 0.000698 0.002205 -0.007989 0.000000 0.032022 0.000000
# 6 0.000000 0.000000 0.000000 0.001077 0.000000 0.032185
#
#
# Mechanical properties :
#
#
# Convention : Reuss Voigt Hill
#
# Bulk Modulus (GPa) = 23.18939 58.36182 40.77561
# Shear Modulus (GPa) = 31.44285 44.82332 38.13309
#
# Velocity S-wave (km/s) = 3.42222 4.08601 3.76876
# Velocity P-wave (km/s) = 4.92472 6.63316 5.84173
#
# Compressibility (1/GPa) = 0.04312317
#
# Stress axis : x y z
#
# Youngs Moduli (GPa) = 28.96754 97.60546 116.90909
#
# Poissons Ratio (x) = -0.26673 0.40542
# Poissons Ratio (y) = -0.07916 0.51014
# Poissons Ratio (z) = 0.10045 0.42591
#
# Static dielectric constant tensor:
#      x y z
#    x 2.259910 0.000000 0.006220 
#    y 0.000000 2.067510 0.000000 
#    z 0.006220 0.000000 2.137820 
# 
# From -- ./inp_files/243681.got.cif
#   From: 2010.05.17/outbox.cif.g08.bks.cpg/sg15_122_cif.got.tgz:243681.got - 2010.06.03 18:47:42.
