data_PCOD9254956
_publ_section_title
;
Structure prediction by ZEFSAII (Michael W. Deem and Ramdas Pophale) SiO2 
 PCOD9254956
Probable space group: C 2/C
;
_chemical_formula_sum "Si O2"
_cell_formula_units_Z 40
_cell_length_a 17.840041
_cell_length_b 27.781458
_cell_length_c 5.160749
_cell_angle_alpha 90.000000
_cell_angle_beta 86.488013
_cell_angle_gamma 90.000000
_cell_volume 2552.979042
_symmetry_space_group_name_H-M "C 2/C"
_symmetry_group_IT_number 15
_symmetry_cell_setting 'monoclinic'
loop_
_space_group_symop_operation_xyz
x,y,z
-x,y,1/2-z
-x,-y,-z
x,-y,1/2+z
1/2+x,1/2+y,z
1/2-x,1/2+y,1/2-z
1/2-x,1/2-y,-z
1/2+x,1/2-y,1/2+z
loop_
_atom_site_type_symbol
_atom_site_label
_atom_site_fract_x
_atom_site_fract_y
_atom_site_fract_z
Si Si1 0.374830 0.886677 0.705334
Si Si2 0.801342 0.354753 0.222616
Si Si3 0.500000 0.805177 0.750000
Si Si4 0.182625 0.783810 0.404188
Si Si5 0.000000 0.533543 0.250000
Si Si6 0.108832 0.256104 0.391050
O O1 0.336977 0.888461 0.433674
O O2 0.431118 0.840392 0.694268
O O3 0.427505 0.931677 0.758015
O O4 0.312420 0.877801 0.938764
O O5 0.720620 0.334886 0.328812
O O6 0.852250 0.306421 0.197375
O O7 0.527348 0.771432 0.511807
O O8 0.250000 0.750000 0.500000
O O9 0.122496 0.780120 0.649828
O O10 0.151162 0.762899 0.141400
O O11 0.000000 0.500000 0.500000
#
# Coordination Sequence:
#
# PCOD9254956 Si02
#       6
#     8   8   4   8   4   8
#     4  10  20  30  46  60  75 106 135 174 216 243
#     4  10  17  29  42  58  76  97 137 173 205 249
#     4   9  18  28  38  56  80 104 142 170 198 244
#     4  10  17  26  38  55  76 101 129 169 213 235
#     4  11  22  36  48  64  86 104 132 174 220 268
#     4  10  18  25  38  55  78 106 130 170 210 233
#
# _framework density 15.667971
#
# number of rings (size 3 to 8) (size 9 to 14) (size 15 to 20)
#    0.000    2.000    0.000    9.600    0.000   10.400 
#    0.000    0.000    0.000    0.000    0.000    0.000 
#    0.000    0.000    0.000    0.000    0.000    0.000 
#
# Total GULP energy -111478.023596 kJ/mol
# GULP energy per Si atom -5573.901180 kJ/mol
# Density = 1.563231 g / cm^3
# Si number density = 15.667971 Si / 1000 Ang^3
#
#
#
# Elastic Constant Matrix: (Units=GPa)
#
#
# Indices 1 2 3 4 5 6 
#
# 1 38.5026 29.2973 32.8439 0.0000 -13.8690 0.0000
# 2 29.2973 52.8379 31.9095 0.0000 -7.0885 0.0000
# 3 32.8439 31.9095 128.4954 0.0000 -9.1315 0.0000
# 4 0.0000 0.0000 0.0000 24.5452 0.0000 3.0172
# 5 -13.8690 -7.0885 -9.1315 0.0000 35.2035 0.0000
# 6 0.0000 0.0000 0.0000 3.0172 0.0000 13.9216
#
#
#
# Elastic Compliance Matrix: (Units=1/GPa)
#
#
# Indices 1 2 3 4 5 6 
#
# 1 0.056709 -0.025036 -0.007181 0.000000 0.015438 0.000000
# 2 -0.025036 0.033656 -0.002219 0.000000 -0.003662 0.000000
# 3 -0.007181 -0.002219 0.010123 0.000000 -0.000650 0.000000
# 4 0.000000 0.000000 0.000000 0.041856 0.000000 -0.009071
# 5 0.015438 -0.003662 -0.000650 0.000000 0.033582 0.000000
# 6 0.000000 0.000000 0.000000 -0.009071 0.000000 0.073797
#
#
# Mechanical properties :
#
#
# Convention : Reuss Voigt Hill
#
# Bulk Modulus (GPa) = 31.62899 45.32636 38.47768
# Shear Modulus (GPa) = 15.19145 23.11976 19.15560
#
# Velocity S-wave (km/s) = 3.11720 3.84553 3.50036
# Velocity P-wave (km/s) = 5.76079 6.97922 6.39908
#
# Compressibility (1/GPa) = 0.03161656
#
# Stress axis : x y z
#
# Youngs Moduli (GPa) = 17.63401 29.71203 98.78873
#
# Poissons Ratio (x) = 0.74387 0.70937
# Poissons Ratio (y) = 0.44148 0.21920
# Poissons Ratio (z) = 0.12662 0.06593
#
# Static dielectric constant tensor:
#      x y z
#    x 1.589870 0.000000 -0.008070 
#    y 0.000000 1.500500 0.000000 
#    z -0.008070 0.000000 1.580850 
# 
# From -- ./inp_files/10192.got.cif
#   From: 2010.05.17/outbox.cif.g08.bks.cpg/sg15_6_cif.got.tgz:10192.got - 2010.06.03 18:47:42.
