data_PCOD9254809
_publ_section_title
;
Structure prediction by ZEFSAII (Michael W. Deem and Ramdas Pophale) SiO2 
 PCOD9254809
Probable space group: C 2/C
;
_chemical_formula_sum "Si O2"
_cell_formula_units_Z 48
_cell_length_a 8.497795
_cell_length_b 17.619072
_cell_length_c 17.832239
_cell_angle_alpha 90.000000
_cell_angle_beta 131.389027
_cell_angle_gamma 90.000000
_cell_volume 2003.060397
_symmetry_space_group_name_H-M "C 2/C"
_symmetry_group_IT_number 15
_symmetry_cell_setting 'monoclinic'
loop_
_space_group_symop_operation_xyz
x,y,z
-x,y,1/2-z
-x,-y,-z
x,-y,1/2+z
1/2+x,1/2+y,z
1/2-x,1/2+y,1/2-z
1/2-x,1/2-y,-z
1/2+x,1/2-y,1/2+z
loop_
_atom_site_type_symbol
_atom_site_label
_atom_site_fract_x
_atom_site_fract_y
_atom_site_fract_z
Si Si1 0.131211 0.802042 0.900911
Si Si2 0.265520 0.310339 0.893134
Si Si3 0.233215 0.013852 0.109721
Si Si4 0.431700 0.566383 0.814051
Si Si5 0.090415 0.227796 0.631497
Si Si6 0.694751 0.971441 0.514828
O O1 0.220331 0.772572 0.849328
O O2 0.201039 0.891027 0.929393
O O3 0.890531 0.795002 0.854429
O O4 0.250000 0.750000 0.000000
O O5 0.215266 0.398823 0.878451
O O6 0.055098 0.268666 0.852641
O O7 0.433365 0.291995 0.012215
O O8 0.226634 0.990342 0.193950
O O9 0.363496 0.965204 0.091204
O O10 0.000000 0.000000 0.000000
O O11 0.500000 0.559859 0.750000
O O12 0.350743 0.648488 0.812013
O O13 0.649225 0.542106 0.921846
O O14 0.500000 0.000000 0.500000
#
# Coordination Sequence:
#
# PCOD9254809 Si02
#       6
#     8   8   8   8   8   8
#     4  10  19  31  55  91 117 141 195 254 288 342
#     4  10  17  32  58  88 113 148 197 249 293 343
#     4  10  16  35  59  84 114 157 197 243 296 355
#     4  11  23  41  59  83 125 165 195 249 323 366
#     4  10  20  33  56  86 119 152 193 245 303 359
#     4  11  21  36  64  93 116 153 211 254 293 363
#
# _framework density 23.963332000000001
#
# number of rings (size 3 to 8) (size 9 to 14) (size 15 to 20)
#    0.000    1.667    6.667    2.000    4.667    0.000 
#    0.000    2.500    0.000    0.000    0.000    0.000 
#    0.000    0.000    0.000    0.000    0.000    0.000 
#
# Total GULP energy -133851.532280 kJ/mol
# GULP energy per Si atom -5577.147178 kJ/mol
# Density = 2.390879 g / cm^3
# Si number density = 23.963332 Si / 1000 Ang^3
#
#
#
# Elastic Constant Matrix: (Units=GPa)
#
#
# Indices 1 2 3 4 5 6 
#
# 1 143.6778 53.1619 66.9345 0.0000 -56.5121 -0.0001
# 2 53.1619 135.7230 15.0162 0.0000 -28.3366 0.0000
# 3 66.9345 15.0162 107.5811 0.0000 -47.6801 0.0000
# 4 0.0000 0.0000 0.0000 17.5431 0.0000 -25.0909
# 5 -56.5121 -28.3366 -47.6801 0.0000 66.2033 0.0000
# 6 -0.0001 0.0000 0.0000 -25.0909 0.0000 39.1144
#
#
#
# Elastic Compliance Matrix: (Units=1/GPa)
#
#
# Indices 1 2 3 4 5 6 
#
# 1 0.012773 -0.003204 -0.004811 0.000001 0.006067 0.000000
# 2 -0.003204 0.008921 0.001804 0.000000 0.002383 0.000000
# 3 -0.004811 0.001804 0.015510 0.000000 0.007836 0.000000
# 4 0.000001 0.000000 0.000000 0.690623 0.000001 0.443017
# 5 0.006067 0.002383 0.007836 0.000001 0.026947 0.000001
# 6 0.000000 0.000000 0.000000 0.443017 0.000001 0.309750
#
#
# Mechanical properties :
#
#
# Convention : Reuss Voigt Hill
#
# Bulk Modulus (GPa) = 40.35199 73.02302 56.68751
# Shear Modulus (GPa) = 4.60742 41.36346 22.98544
#
# Velocity S-wave (km/s) = 1.38812 4.15916 3.10044
# Velocity P-wave (km/s) = 4.40962 7.32146 6.04353
#
# Compressibility (1/GPa) = 0.02478192
#
# Stress axis : x y z
#
# Youngs Moduli (GPa) = 78.28900 112.09688 64.47644
#
# Poissons Ratio (x) = 0.35918 0.31020
# Poissons Ratio (y) = 0.25085 -0.11634
# Poissons Ratio (z) = 0.37665 -0.20227
#
# Static dielectric constant tensor:
#      x y z
#    x 1.926540 0.000000 0.126200 
#    y 0.000000 1.842610 0.000000 
#    z 0.126200 0.000000 1.966470 
# 
# From -- ./inp_files/189871.got.cif
#   From: 2010.05.17/outbox.cif.g08.bks.cpg/sg15_95_cif.got.tgz:189871.got - 2010.06.03 18:47:42.
