data_PCOD9254522
_publ_section_title
;
Structure prediction by ZEFSAII (Michael W. Deem and Ramdas Pophale) SiO2 
 PCOD9254522
Probable space group: C 2/C
;
_chemical_formula_sum "Si O2"
_cell_formula_units_Z 56
_cell_length_a 11.689769
_cell_length_b 17.760636
_cell_length_c 17.536024
_cell_angle_alpha 90.000000
_cell_angle_beta 132.410134
_cell_angle_gamma 90.000000
_cell_volume 2688.126214
_symmetry_space_group_name_H-M "C 2/C"
_symmetry_group_IT_number 15
_symmetry_cell_setting 'monoclinic'
loop_
_space_group_symop_operation_xyz
x,y,z
-x,y,1/2-z
-x,-y,-z
x,-y,1/2+z
1/2+x,1/2+y,z
1/2-x,1/2+y,1/2-z
1/2-x,1/2-y,-z
1/2+x,1/2-y,1/2+z
loop_
_atom_site_type_symbol
_atom_site_label
_atom_site_fract_x
_atom_site_fract_y
_atom_site_fract_z
Si Si1 0.402421 0.746313 0.285825
Si Si2 0.131275 0.360025 0.459384
Si Si3 0.472140 0.623764 0.061907
Si Si4 0.639006 0.365002 0.146425
Si Si5 0.910386 0.480973 0.279046
Si Si6 0.666336 0.029642 0.095639
Si Si7 0.549763 0.520860 0.852261
O O1 0.500000 0.746601 0.250000
O O2 0.507564 0.795059 0.392101
O O3 0.408138 0.665802 0.329118
O O4 0.237200 0.788485 0.203104
O O5 0.298076 0.344501 0.498655
O O6 0.175163 0.387384 0.563852
O O7 0.043073 0.428450 0.376809
O O8 0.467332 0.536708 0.085753
O O9 0.485164 0.636166 0.977801
O O10 0.776307 0.424864 0.188884
O O11 0.547132 0.403985 0.175380
O O12 0.827209 0.525006 0.310388
O O13 0.000000 0.521091 0.250000
O O14 0.772675 0.973605 0.092495
O O15 0.500000 0.000000 0.000000
O O16 0.500000 0.481409 0.750000
#
# Coordination Sequence:
#
# PCOD9254522 Si02
#       7
#     8   8   8   8   8   8   8
#     4  11  21  36  59  88 125 164 201 254 314 364
#     4   9  17  31  53  83 118 153 195 245 301 362
#     4  11  21  36  57  89 125 156 201 258 309 356
#     4  11  21  37  56  89 125 162 198 246 314 365
#     4  10  16  31  54  83 123 157 196 245 305 364
#     4   9  19  33  56  88 116 155 205 245 304 366
#     4  11  22  38  60  90 126 159 202 255 307 365
#
# _framework density 20.832355
#
# number of rings (size 3 to 8) (size 9 to 14) (size 15 to 20)
#    0.000    1.714    4.286    2.143    0.000    0.000 
#    0.000    0.000    0.000    0.857    0.000    2.000 
#    0.000    0.000    0.000    0.000    0.000    0.000 
#
# Total GULP energy -155873.054565 kJ/mol
# GULP energy per Si atom -5566.894806 kJ/mol
# Density = 2.078494 g / cm^3
# Si number density = 20.832355 Si / 1000 Ang^3
#
#
#
# Elastic Constant Matrix: (Units=GPa)
#
#
# Indices 1 2 3 4 5 6 
#
# 1 97.0584 34.0510 29.9665 0.0000 -6.4105 0.0000
# 2 34.0510 47.6249 28.8392 0.0000 -8.9077 0.0000
# 3 29.9665 28.8392 79.0483 0.0000 -6.6010 0.0000
# 4 0.0000 0.0000 0.0000 26.8042 0.0000 4.6910
# 5 -6.4105 -8.9077 -6.6010 0.0000 39.1957 0.0000
# 6 0.0000 0.0000 0.0000 4.6910 0.0000 15.6323
#
#
#
# Elastic Compliance Matrix: (Units=1/GPa)
#
#
# Indices 1 2 3 4 5 6 
#
# 1 0.014027 -0.008749 -0.002130 0.000000 -0.000053 0.000000
# 2 -0.008749 0.033227 -0.008413 0.000000 0.004703 0.000000
# 3 -0.002130 -0.008413 0.016571 0.000000 0.000531 0.000000
# 4 0.000000 0.000000 0.000000 0.039375 0.000000 -0.011816
# 5 -0.000053 0.004703 0.000531 0.000000 0.026663 0.000000
# 6 0.000000 0.000000 0.000000 -0.011816 0.000000 0.067516
#
#
# Mechanical properties :
#
#
# Convention : Reuss Voigt Hill
#
# Bulk Modulus (GPa) = 39.61694 45.49389 42.55541
# Shear Modulus (GPa) = 20.46031 25.05144 22.75588
#
# Velocity S-wave (km/s) = 3.13731 3.47151 3.30863
# Velocity P-wave (km/s) = 5.67291 6.16068 5.92182
#
# Compressibility (1/GPa) = 0.02524173
#
# Stress axis : x y z
#
# Youngs Moduli (GPa) = 71.29340 30.09627 60.34480
#
# Poissons Ratio (x) = 0.26331 0.12853
# Poissons Ratio (y) = 0.62374 0.50766
# Poissons Ratio (z) = 0.15185 0.25319
#
# Static dielectric constant tensor:
#      x y z
#    x 1.771640 0.000000 -0.207220 
#    y 0.000000 1.904330 0.000000 
#    z -0.207220 0.000000 1.577350 
# 
# From -- ./inp_files/200213.got.cif
#   From: 2010.05.17/outbox.cif.g08.bks.cpg/sg15_101_cif.got.tgz:200213.got - 2010.06.03 18:47:42.
