data_PCOD9254473
_publ_section_title
;
Structure prediction by ZEFSAII (Michael W. Deem and Ramdas Pophale) SiO2 
 PCOD9254473
Probable space group: C 2/C
;
_chemical_formula_sum "Si O2"
_cell_formula_units_Z 44
_cell_length_a 12.990627
_cell_length_b 19.001489
_cell_length_c 11.393700
_cell_angle_alpha 90.000000
_cell_angle_beta 41.376675
_cell_angle_gamma 90.000000
_cell_volume 1859.037797
_symmetry_space_group_name_H-M "C 2/C"
_symmetry_group_IT_number 15
_symmetry_cell_setting 'monoclinic'
loop_
_space_group_symop_operation_xyz
x,y,z
-x,y,1/2-z
-x,-y,-z
x,-y,1/2+z
1/2+x,1/2+y,z
1/2-x,1/2+y,1/2-z
1/2-x,1/2-y,-z
1/2+x,1/2-y,1/2+z
loop_
_atom_site_type_symbol
_atom_site_label
_atom_site_fract_x
_atom_site_fract_y
_atom_site_fract_z
Si Si1 0.579656 0.261630 0.825730
Si Si2 0.500000 0.033575 0.750000
Si Si3 0.220215 0.577223 0.157243
Si Si4 0.500000 0.581790 0.750000
Si Si5 0.000000 0.690236 0.250000
Si Si6 0.884180 0.194813 0.679204
Si Si7 0.184665 0.643237 0.449404
O O1 0.722510 0.227260 0.776894
O O2 0.668163 0.306267 0.650122
O O3 0.461863 0.196736 0.914060
O O4 0.483393 0.319876 0.979410
O O5 0.633796 0.080624 0.576740
O O6 0.408790 0.984136 0.736631
O O7 0.147694 0.640123 0.139288
O O8 0.216643 0.609701 0.292295
O O9 0.377304 0.551967 0.953557
O O10 0.390741 0.629737 0.759873
O O11 0.016285 0.743428 0.343556
#
# Coordination Sequence:
#
# PCOD9254473 Si02
#       7
#     8   4   8   4   4   8   8
#     4  10  19  35  64  92 123 153 196 268 318 349
#     4  11  28  45  64  77 128 185 212 234 294 379
#     4  11  22  39  61  91 125 166 206 250 294 379
#     4  11  20  31  58  95 126 153 204 248 324 357
#     4  10  16  30  58  92 130 156 192 236 332 372
#     4  10  17  29  52  96 127 155 180 262 315 367
#     4  11  23  45  63  97 118 160 213 256 316 362
#
# _framework density 23.668157999999998
#
# number of rings (size 3 to 8) (size 9 to 14) (size 15 to 20)
#    0.000    1.455    5.455    1.636    2.545    3.636 
#    0.000    4.545    0.000    0.000    0.000    0.000 
#    0.000    0.000    0.000    0.000    0.000    0.000 
#
# Total GULP energy -122548.751890 kJ/mol
# GULP energy per Si atom -5570.397813 kJ/mol
# Density = 2.361429 g / cm^3
# Si number density = 23.668158 Si / 1000 Ang^3
#
#
#
# Elastic Constant Matrix: (Units=GPa)
#
#
# Indices 1 2 3 4 5 6 
#
# 1 54.7161 12.9675 34.5100 -0.0032 8.4492 0.0020
# 2 12.9675 70.3043 30.2723 -0.0027 3.5758 0.0019
# 3 34.5100 30.2723 155.9476 -0.0034 -0.7579 0.0028
# 4 -0.0032 -0.0027 -0.0034 20.8094 0.0026 9.9208
# 5 8.4492 3.5758 -0.7579 0.0026 22.8464 -0.0018
# 6 0.0020 0.0019 0.0028 9.9208 -0.0018 9.4494
#
#
#
# Elastic Compliance Matrix: (Units=1/GPa)
#
#
# Indices 1 2 3 4 5 6 
#
# 1 0.023011 -0.001754 -0.004792 0.000012 -0.008394 -0.000017
# 2 -0.001754 0.015802 -0.002689 0.000005 -0.001914 -0.000008
# 3 -0.004792 -0.002689 0.008007 0.000000 0.002459 0.000000
# 4 0.000012 0.000005 0.000000 0.096213 -0.000024 -0.101014
# 5 -0.008394 -0.001914 0.002459 -0.000024 0.047256 0.000036
# 6 -0.000017 -0.000008 0.000000 -0.101014 0.000036 0.211881
#
#
# Mechanical properties :
#
#
# Convention : Reuss Voigt Hill
#
# Bulk Modulus (GPa) = 35.27333 48.49641 41.88487
# Shear Modulus (GPa) = 11.62547 24.16890 17.89718
#
# Velocity S-wave (km/s) = 2.21868 3.19902 2.75284
# Velocity P-wave (km/s) = 4.63670 5.84633 5.27630
#
# Compressibility (1/GPa) = 0.02835003
#
# Stress axis : x y z
#
# Youngs Moduli (GPa) = 43.45810 63.28133 124.89338
#
# Poissons Ratio (x) = 0.11098 0.59854
# Poissons Ratio (y) = 0.07621 0.33581
# Poissons Ratio (z) = 0.20827 0.17015
#
# Static dielectric constant tensor:
#      x y z
#    x 1.967120 0.000000 0.065510 
#    y 0.000000 1.877590 0.000000 
#    z 0.065510 0.000000 1.971370 
# 
# From -- ./inp_files/39112.got.cif
#   From: 2010.05.17/outbox.cif.g08.bks.cpg/sg15_20_cif.got.tgz:39112.got - 2010.06.03 18:47:42.
