data_PCOD9254886
_publ_section_title
;
Structure prediction by ZEFSAII (Michael W. Deem and Ramdas Pophale) SiO2 
 PCOD9254886
Probable space group: C 2/C
;
_chemical_formula_sum "Si O2"
_cell_formula_units_Z 56
_cell_length_a 14.151162
_cell_length_b 17.085167
_cell_length_c 10.730307
_cell_angle_alpha 90.000000
_cell_angle_beta 86.678305
_cell_angle_gamma 90.000000
_cell_volume 2589.961020
_symmetry_space_group_name_H-M "C 2/C"
_symmetry_group_IT_number 15
_symmetry_cell_setting 'monoclinic'
loop_
_space_group_symop_operation_xyz
x,y,z
-x,y,1/2-z
-x,-y,-z
x,-y,1/2+z
1/2+x,1/2+y,z
1/2-x,1/2+y,1/2-z
1/2-x,1/2-y,-z
1/2+x,1/2-y,1/2+z
loop_
_atom_site_type_symbol
_atom_site_label
_atom_site_fract_x
_atom_site_fract_y
_atom_site_fract_z
Si Si1 0.443466 0.080789 0.502116
Si Si2 0.466315 0.244692 0.980563
Si Si3 0.704268 0.581300 0.244112
Si Si4 0.764279 0.961251 0.475599
Si Si5 0.588951 0.651756 0.660028
Si Si6 0.000000 0.362745 0.750000
Si Si7 0.178255 0.268947 0.830616
Si Si8 0.000000 0.139860 0.250000
O O1 0.499330 0.155978 0.551305
O O2 0.336345 0.076693 0.555690
O O3 0.440179 0.091907 0.354116
O O4 0.500000 0.000000 0.500000
O O5 0.480476 0.302782 0.865637
O O6 0.541152 0.282697 0.074994
O O7 0.353742 0.251086 0.025765
O O8 0.731568 0.538165 0.112403
O O9 0.734871 0.538649 0.372211
O O10 0.744710 0.670033 0.224165
O O11 0.591850 0.587406 0.262263
O O12 0.854545 0.910622 0.425198
O O13 0.500000 0.622035 0.750000
O O14 0.665741 0.692790 0.745607
O O15 0.920906 0.314811 0.685547
#
# Coordination Sequence:
#
# PCOD9254886 Si02
#       8
#     8   8   8   8   8   4   8   4
#     4  11  23  39  69 103 142 174 224 284 360 433
#     4  10  21  43  67 100 137 179 222 289 353 413
#     4  12  28  47  69  98 147 186 245 294 357 419
#     4  12  26  44  72 103 137 192 236 294 358 425
#     4  10  20  40  74 101 128 180 243 282 343 424
#     4  10  16  37  65  92 130 168 208 272 346 405
#     4  10  19  42  72  99 132 175 223 289 349 425
#     4  12  28  45  67  98 142 188 236 306 344 411
#
# _framework density 21.621946999999999
#
# number of rings (size 3 to 8) (size 9 to 14) (size 15 to 20)
#    0.000    1.143    6.429    1.714    3.000    5.143 
#    2.571    0.000    0.000    0.000    0.000    0.000 
#    0.000    0.000    0.000    0.000    0.000    0.000 
#
# Total GULP energy -155871.940746 kJ/mol
# GULP energy per Si atom -5566.855027 kJ/mol
# Density = 2.157273 g / cm^3
# Si number density = 21.621947 Si / 1000 Ang^3
#
#
#
# Elastic Constant Matrix: (Units=GPa)
#
#
# Indices 1 2 3 4 5 6 
#
# 1 76.0960 -7.5302 -1.1877 0.0000 -12.7333 0.0000
# 2 -7.5302 26.5130 6.6474 0.0000 4.4637 0.0000
# 3 -1.1877 6.6474 74.9119 0.0000 -12.7810 0.0000
# 4 0.0000 0.0000 0.0000 31.3742 0.0000 -16.6832
# 5 -12.7333 4.4637 -12.7810 0.0000 19.4323 0.0000
# 6 0.0000 0.0000 0.0000 -16.6832 0.0000 19.1057
#
#
#
# Elastic Compliance Matrix: (Units=1/GPa)
#
#
# Indices 1 2 3 4 5 6 
#
# 1 0.015164 0.002030 0.001888 0.000000 0.010712 0.000000
# 2 0.002030 0.041754 -0.005725 0.000000 -0.012026 0.000000
# 3 0.001888 -0.005725 0.016133 0.000000 0.013163 0.000000
# 4 0.000000 0.000000 0.000000 0.059501 0.000000 0.051956
# 5 0.010712 -0.012026 0.013163 0.000000 0.069899 0.000000
# 6 0.000000 0.000000 0.000000 0.051956 0.000000 0.097709
#
#
# Mechanical properties :
#
#
# Convention : Reuss Voigt Hill
#
# Bulk Modulus (GPa) = 14.40148 19.26442 16.83295
# Shear Modulus (GPa) = 15.29428 25.95521 20.62475
#
# Velocity S-wave (km/s) = 2.66249 3.46845 3.09185
# Velocity P-wave (km/s) = 4.01582 4.99692 4.53299
#
# Compressibility (1/GPa) = 0.06943733
#
# Stress axis : x y z
#
# Youngs Moduli (GPa) = 65.94532 23.94978 61.98596
#
# Poissons Ratio (x) = -0.04862 -0.11702
# Poissons Ratio (y) = -0.13388 0.35485
# Poissons Ratio (z) = -0.12450 0.13711
#
# Static dielectric constant tensor:
#      x y z
#    x 1.810430 0.000000 -0.069920 
#    y 0.000000 1.259000 0.000000 
#    z -0.069920 0.000000 1.816450 
# 
# From -- ./inp_files/88920.got.cif
#   From: 2010.05.17/outbox.cif.g08.bks.cpg/sg15_45_cif.got.tgz:88920.got - 2010.06.03 18:47:42.
