data_PCOD9254533
_publ_section_title
;
Structure prediction by ZEFSAII (Michael W. Deem and Ramdas Pophale) SiO2 
 PCOD9254533
Probable space group: C 2/C
;
_chemical_formula_sum "Si O2"
_cell_formula_units_Z 60
_cell_length_a 11.670259
_cell_length_b 19.853913
_cell_length_c 27.214084
_cell_angle_alpha 90.000000
_cell_angle_beta 151.037150
_cell_angle_gamma 90.000000
_cell_volume 3053.396228
_symmetry_space_group_name_H-M "C 2/C"
_symmetry_group_IT_number 15
_symmetry_cell_setting 'monoclinic'
loop_
_space_group_symop_operation_xyz
x,y,z
-x,y,1/2-z
-x,-y,-z
x,-y,1/2+z
1/2+x,1/2+y,z
1/2-x,1/2+y,1/2-z
1/2-x,1/2-y,-z
1/2+x,1/2-y,1/2+z
loop_
_atom_site_type_symbol
_atom_site_label
_atom_site_fract_x
_atom_site_fract_y
_atom_site_fract_z
Si Si1 0.500000 0.887844 0.750000
Si Si2 0.960745 0.296208 0.063993
Si Si3 0.606941 0.506409 0.134393
Si Si4 0.604400 0.535642 0.735997
Si Si5 0.359647 0.070046 0.571042
Si Si6 0.742109 0.131994 0.860738
Si Si7 0.942242 0.807576 0.286610
Si Si8 0.810876 0.211880 0.436422
O O1 0.691963 0.937203 0.797193
O O2 0.341856 0.841891 0.653606
O O3 0.875111 0.373151 0.034265
O O4 0.166302 0.290725 0.182335
O O5 0.054583 0.265211 0.048584
O O6 0.750000 0.250000 0.000000
O O7 0.524229 0.506769 0.159729
O O8 0.707077 0.434626 0.153314
O O9 0.368866 0.523347 0.016107
O O10 0.500000 0.518891 0.750000
O O11 0.531412 0.612971 0.696494
O O12 0.889771 0.533177 0.840056
O O13 0.326255 0.108246 0.610076
O O14 0.500000 0.165584 0.750000
O O15 0.984852 0.174793 0.956162
O O16 0.000000 0.797277 0.250000
O O17 0.104445 0.760030 0.380572
#
# Coordination Sequence:
#
# PCOD9254533 Si02
#       8
#     4   8   8   8   8   8   8   8
#     4  12  20  36  64  98 128 150 202 272 322 378
#     4  10  16  31  56  89 114 151 203 248 298 359
#     4  12  24  37  61  95 129 164 204 258 331 373
#     4  10  22  42  63  83 121 171 217 256 302 384
#     4  11  22  37  62  92 124 166 209 260 307 384
#     4  12  23  39  59  94 135 166 200 259 327 383
#     4   8  17  34  57  84 113 151 207 247 298 358
#     4  11  21  36  64  95 120 159 209 262 311 370
#
# _framework density 19.65025
#
# number of rings (size 3 to 8) (size 9 to 14) (size 15 to 20)
#    0.000    1.333    6.667    1.200    1.867    0.533 
#    0.000    0.667    0.000    2.400    0.000    0.000 
#    0.000    0.000    0.000    0.000    0.000    0.000 
#
# Total GULP energy -167130.390422 kJ/mol
# GULP energy per Si atom -5571.013014 kJ/mol
# Density = 1.960553 g / cm^3
# Si number density = 19.650250 Si / 1000 Ang^3
#
#
#
# Elastic Constant Matrix: (Units=GPa)
#
#
# Indices 1 2 3 4 5 6 
#
# 1 71.9796 10.7742 11.2529 -0.0032 2.6533 0.0032
# 2 10.7742 38.0039 25.3140 -0.0068 -0.9723 0.0043
# 3 11.2529 25.3140 90.2466 -0.0100 16.4423 0.0080
# 4 -0.0032 -0.0068 -0.0100 41.5893 -0.0061 -10.2971
# 5 2.6533 -0.9723 16.4423 -0.0061 26.6328 0.0047
# 6 0.0032 0.0043 0.0080 -10.2971 0.0047 34.4634
#
#
#
# Elastic Compliance Matrix: (Units=1/GPa)
#
#
# Indices 1 2 3 4 5 6 
#
# 1 0.014593 -0.003828 -0.000513 0.000000 -0.001277 -0.000001
# 2 -0.003828 0.034806 -0.010802 0.000004 0.008321 -0.000002
# 3 -0.000513 -0.010802 0.016041 0.000000 -0.010247 -0.000001
# 4 0.000000 0.000004 0.000000 0.025965 0.000004 0.007758
# 5 -0.001277 0.008321 -0.010247 0.000004 0.044305 -0.000003
# 6 -0.000001 -0.000002 -0.000001 0.007758 -0.000003 0.031334
#
#
# Mechanical properties :
#
#
# Convention : Reuss Voigt Hill
#
# Bulk Modulus (GPa) = 28.44559 32.76804 30.60682
# Shear Modulus (GPa) = 23.91781 30.72972 27.32376
#
# Velocity S-wave (km/s) = 3.49259 3.95882 3.73299
# Velocity P-wave (km/s) = 5.54722 6.13255 5.84721
#
# Compressibility (1/GPa) = 0.03515483
#
# Stress axis : x y z
#
# Youngs Moduli (GPa) = 68.52549 28.73057 62.33834
#
# Poissons Ratio (x) = 0.10998 0.03200
# Poissons Ratio (y) = 0.26231 0.67336
# Poissons Ratio (z) = 0.03517 0.31034
#
# Static dielectric constant tensor:
#      x y z
#    x 1.755200 0.000000 0.058450 
#    y 0.000000 1.701780 0.000000 
#    z 0.058450 0.000000 1.781850 
# 
# From -- ./inp_files/293558.got.cif
#   From: 2010.05.17/outbox.cif.g08.bks.cpg/sg15_147_cif.got.tgz:293558.got - 2010.06.03 18:47:42.
