data_PCOD9254740
_publ_section_title
;
Structure prediction by ZEFSAII (Michael W. Deem and Ramdas Pophale) SiO2 
 PCOD9254740
Probable space group: C 2/C
;
_chemical_formula_sum "Si O2"
_cell_formula_units_Z 32
_cell_length_a 10.397738
_cell_length_b 22.902718
_cell_length_c 5.559104
_cell_angle_alpha 90.000000
_cell_angle_beta 95.582682
_cell_angle_gamma 90.000000
_cell_volume 1317.546251
_symmetry_space_group_name_H-M "C 2/C"
_symmetry_group_IT_number 15
_symmetry_cell_setting 'monoclinic'
loop_
_space_group_symop_operation_xyz
x,y,z
-x,y,1/2-z
-x,-y,-z
x,-y,1/2+z
1/2+x,1/2+y,z
1/2-x,1/2+y,1/2-z
1/2-x,1/2-y,-z
1/2+x,1/2-y,1/2+z
loop_
_atom_site_type_symbol
_atom_site_label
_atom_site_fract_x
_atom_site_fract_y
_atom_site_fract_z
Si Si1 0.851884 0.035387 0.541255
Si Si2 0.051689 0.566096 0.506510
Si Si3 0.375603 0.334319 0.082054
Si Si4 0.152582 0.727100 0.776827
O O1 0.702616 0.054125 0.513432
O O2 0.912817 0.099670 0.518420
O O3 0.875115 0.994360 0.310215
O O4 0.000000 0.590246 0.750000
O O5 0.000000 0.500000 0.500000
O O6 0.000000 0.595642 0.250000
O O7 0.500000 0.312148 0.250000
O O8 0.238236 0.327279 0.193718
O O9 0.354803 0.286952 0.875306
O O10 0.000000 0.711579 0.750000
O O11 0.250000 0.750000 0.000000
#
# Coordination Sequence:
#
# PCOD9254740 Si02
#       4
#     8   8   8   8
#     4  12  25  42  67 105 151 204 251 299 376 465
#     4  10  16  34  57  82 132 188 236 302 344 418
#     4  11  27  47  75 113 151 198 257 322 383 467
#     4  11  24  51  83 109 147 194 258 331 398 449
#
# _framework density 24.287573999999999
#
# number of rings (size 3 to 8) (size 9 to 14) (size 15 to 20)
#    0.000    1.000    7.500    0.000    3.500    2.000 
#    4.500    0.000    0.000    0.000    0.000    0.000 
#    0.000    0.000    0.000    0.000    0.000    0.000 
#
# Total GULP energy -89127.793095 kJ/mol
# GULP energy per Si atom -5570.487068 kJ/mol
# Density = 2.423229 g / cm^3
# Si number density = 24.287574 Si / 1000 Ang^3
#
#
#
# Elastic Constant Matrix: (Units=GPa)
#
#
# Indices 1 2 3 4 5 6 
#
# 1 168.4644 19.0781 51.7666 0.0000 6.7052 0.0000
# 2 19.0781 159.8670 65.5477 0.0000 2.6348 0.0000
# 3 51.7666 65.5477 202.0317 0.0000 14.0011 0.0000
# 4 0.0000 0.0000 0.0000 -22.9131 0.0000 7.5660
# 5 6.7052 2.6348 14.0011 0.0000 39.6349 0.0000
# 6 0.0000 0.0000 0.0000 7.5660 0.0000 30.8680
#
#
#
# Elastic Compliance Matrix: (Units=1/GPa)
#
#
# Indices 1 2 3 4 5 6 
#
# 1 0.006456 -0.000114 -0.001581 0.000000 -0.000526 0.000000
# 2 -0.000114 0.007222 -0.002339 0.000000 0.000365 0.000000
# 3 -0.001581 -0.002339 0.006237 0.000000 -0.001780 0.000000
# 4 0.000000 0.000000 0.000000 -0.040375 0.000000 0.009896
# 5 -0.000526 0.000365 -0.001780 0.000000 0.025924 0.000000
# 6 0.000000 0.000000 0.000000 0.009896 0.000000 0.029970
#
#
# Mechanical properties :
#
#
# Convention : Reuss Voigt Hill
#
# Bulk Modulus (GPa) = 84.40829 89.23866 86.82348
# Shear Modulus (GPa) = 105.37450 35.78268 70.57859
#
# Velocity S-wave (km/s) = 6.59396 3.84251 5.39654
# Velocity P-wave (km/s) = 9.63343 7.51723 8.64036
#
# Compressibility (1/GPa) = 0.01184718
#
# Stress axis : x y z
#
# Youngs Moduli (GPa) = 154.90597 138.46811 160.33041
#
# Poissons Ratio (x) = 0.01573 0.25345
# Poissons Ratio (y) = 0.01759 0.37506
# Poissons Ratio (z) = 0.24487 0.32392
#
# Static dielectric constant tensor:
#      x y z
#    x 2.275370 0.000000 0.331050 
#    y 0.000000 1.788430 0.000000 
#    z 0.331050 0.000000 2.701940 
# 
# From -- ./inp_files/4434.got.cif
#   From: 2010.05.17/outbox.cif.g08.bks.cpg/sg15_3_cif.got.tgz:4434.got - 2010.06.03 18:47:42.
