data_PCOD9254671
_publ_section_title
;
Structure prediction by ZEFSAII (Michael W. Deem and Ramdas Pophale) SiO2 
 PCOD9254671
Probable space group: C 2/C
;
_chemical_formula_sum "Si O2"
_cell_formula_units_Z 60
_cell_length_a 16.758479
_cell_length_b 13.733884
_cell_length_c 11.492713
_cell_angle_alpha 90.000000
_cell_angle_beta 115.138592
_cell_angle_gamma 90.000000
_cell_volume 2394.610260
_symmetry_space_group_name_H-M "C 2/C"
_symmetry_group_IT_number 15
_symmetry_cell_setting 'monoclinic'
loop_
_space_group_symop_operation_xyz
x,y,z
-x,y,1/2-z
-x,-y,-z
x,-y,1/2+z
1/2+x,1/2+y,z
1/2-x,1/2+y,1/2-z
1/2-x,1/2-y,-z
1/2+x,1/2-y,1/2+z
loop_
_atom_site_type_symbol
_atom_site_label
_atom_site_fract_x
_atom_site_fract_y
_atom_site_fract_z
Si Si1 0.082345 0.253505 0.096943
Si Si2 0.367261 0.570720 0.483000
Si Si3 0.738242 0.489935 0.263899
Si Si4 0.000000 0.114233 0.750000
Si Si5 0.908030 0.482582 0.724822
Si Si6 0.768094 0.209694 0.140954
Si Si7 0.080198 0.278639 0.634105
Si Si8 0.797854 0.624470 0.993266
O O1 0.077477 0.138620 0.068464
O O2 0.144591 0.259152 0.248171
O O3 0.133761 0.299361 0.016221
O O4 0.983949 0.292571 0.017773
O O5 0.329916 0.483072 0.384249
O O6 0.428991 0.553683 0.631355
O O7 0.274609 0.631455 0.449253
O O8 0.837039 0.478925 0.272457
O O9 0.725576 0.592070 0.327332
O O10 0.733660 0.404048 0.350731
O O11 0.952671 0.188233 0.809805
O O12 0.926842 0.375023 0.789931
O O13 0.856633 0.465545 0.572662
O O14 0.000000 0.531869 0.750000
O O15 0.679885 0.234331 0.157229
O O16 0.750000 0.250000 0.000000
#
# Coordination Sequence:
#
# PCOD9254671 Si02
#       8
#     8   8   8   4   8   8   8   8
#     4  10  19  34  60  84 106 140 189 236 286 322
#     4   9  19  34  55  83 110 136 186 237 281 326
#     4   9  22  35  51  79 115 151 187 220 271 342
#     4  10  16  32  62  88 100 132 180 256 294 306
#     4  10  17  33  52  78 112 141 175 230 269 320
#     4  10  22  38  54  76 116 159 190 219 273 343
#     4  10  18  33  58  90 110 132 190 242 280 332
#     4  11  19  33  56  81 112 148 176 227 287 332
#
# _framework density 25.056269
#
# number of rings (size 3 to 8) (size 9 to 14) (size 15 to 20)
#    0.000    2.133    2.000    2.800    0.000    3.200 
#    0.000    0.667    0.000    3.200    0.000    0.000 
#    0.000    0.000    0.000    0.000    0.000    0.000 
#
# Total GULP energy -167322.634118 kJ/mol
# GULP energy per Si atom -5577.421137 kJ/mol
# Density = 2.499924 g / cm^3
# Si number density = 25.056269 Si / 1000 Ang^3
#
#
#
# Elastic Constant Matrix: (Units=GPa)
#
#
# Indices 1 2 3 4 5 6 
#
# 1 52.9578 1.9866 32.3373 0.0000 14.3170 0.0000
# 2 1.9866 25.1087 -0.4608 0.0000 8.6270 0.0000
# 3 32.3373 -0.4608 170.2418 0.0000 36.8532 0.0000
# 4 0.0000 0.0000 0.0000 19.0965 0.0000 0.4408
# 5 14.3170 8.6270 36.8532 0.0000 37.2096 0.0000
# 6 0.0000 0.0000 0.0000 0.4408 0.0000 7.6348
#
#
#
# Elastic Compliance Matrix: (Units=1/GPa)
#
#
# Indices 1 2 3 4 5 6 
#
# 1 0.022230 0.000109 -0.003011 0.000000 -0.005597 0.000000
# 2 0.000109 0.044441 0.002978 0.000000 -0.013294 0.000000
# 3 -0.003011 0.002978 0.008086 0.000000 -0.007541 0.000000
# 4 0.000000 0.000000 0.000000 0.052435 0.000000 -0.003028
# 5 -0.005597 -0.013294 -0.007541 0.000000 0.039579 0.000000
# 6 0.000000 0.000000 0.000000 -0.003028 0.000000 0.131154
#
#
# Mechanical properties :
#
#
# Convention : Reuss Voigt Hill
#
# Bulk Modulus (GPa) = 13.34958 35.11494 24.23226
# Shear Modulus (GPa) = 15.49213 27.08453 21.28833
#
# Velocity S-wave (km/s) = 2.48925 3.29134 2.91799
# Velocity P-wave (km/s) = 3.68798 5.33749 4.58748
#
# Compressibility (1/GPa) = 0.07490870
#
# Stress axis : x y z
#
# Youngs Moduli (GPa) = 44.98337 22.50188 123.66519
#
# Poissons Ratio (x) = -0.00245 0.37233
# Poissons Ratio (y) = -0.00490 -0.36822
# Poissons Ratio (z) = 0.13544 -0.06700
#
# Static dielectric constant tensor:
#      x y z
#    x 2.029200 0.000000 -0.042460 
#    y 0.000000 2.036990 0.000000 
#    z -0.042460 0.000000 2.079740 
# 
# From -- ./inp_files/106722.got.cif
#   From: 2010.05.17/outbox.cif.g08.bks.cpg/sg15_54_cif.got.tgz:106722.got - 2010.06.03 18:47:42.
