data_PCOD9254103
_publ_section_title
;
Structure prediction by ZEFSAII (Michael W. Deem and Ramdas Pophale) SiO2 
 PCOD9254103
Probable space group: C 2/C
;
_chemical_formula_sum "Si O2"
_cell_formula_units_Z 56
_cell_length_a 14.796533
_cell_length_b 12.105712
_cell_length_c 24.932397
_cell_angle_alpha 90.000000
_cell_angle_beta 30.430219
_cell_angle_gamma 90.000000
_cell_volume 2261.955280
_symmetry_space_group_name_H-M "C 2/C"
_symmetry_group_IT_number 15
_symmetry_cell_setting 'monoclinic'
loop_
_space_group_symop_operation_xyz
x,y,z
-x,y,1/2-z
-x,-y,-z
x,-y,1/2+z
1/2+x,1/2+y,z
1/2-x,1/2+y,1/2-z
1/2-x,1/2-y,-z
1/2+x,1/2-y,1/2+z
loop_
_atom_site_type_symbol
_atom_site_label
_atom_site_fract_x
_atom_site_fract_y
_atom_site_fract_z
Si Si1 0.833961 0.722382 0.163435
Si Si2 0.293184 0.040882 0.109128
Si Si3 0.453488 0.201230 0.211240
Si Si4 0.607797 0.793088 0.030065
Si Si5 0.583136 0.024338 0.617528
Si Si6 0.237908 0.364604 0.452410
Si Si7 0.369533 0.397429 0.055358
O O1 0.813434 0.741148 0.237476
O O2 0.739648 0.609003 0.189682
O O3 0.808634 0.829318 0.139152
O O4 0.041482 0.687531 0.045564
O O5 0.202696 0.931182 0.131961
O O6 0.285021 0.136108 0.068778
O O7 0.500000 0.000000 0.000000
O O8 0.500000 0.210454 0.250000
O O9 0.448331 0.069779 0.204419
O O10 0.623841 0.271055 0.104484
O O11 0.502764 0.881724 0.120127
O O12 0.750000 0.750000 0.000000
O O13 0.532709 0.691944 0.033829
O O14 0.717686 0.955427 0.509619
O O15 0.696572 0.066869 0.609594
O O16 0.500000 0.500000 0.000000
#
# Coordination Sequence:
#
# PCOD9254103 Si02
#       7
#     8   8   8   8   8   8   8
#     4   9  17  30  48  70  93 117 151 196 237 278
#     4   8  14  25  45  69  89 111 143 184 232 277
#     4  11  21  32  45  65  93 129 164 192 230 285
#     4   8  15  25  41  68  94 114 139 178 229 281
#     4   9  17  31  48  67  92 121 153 193 240 285
#     4   9  16  30  49  68  91 119 152 192 235 280
#     4  10  16  25  47  77  96 111 146 199 243 276
#
# _framework density 24.757341
#
# number of rings (size 3 to 8) (size 9 to 14) (size 15 to 20)
#    0.000    2.857    0.000    4.286    0.000    0.000 
#    0.000    1.429    0.000    0.000    0.000   41.000 
#    0.000    0.000    0.000    0.000    0.000    0.000 
#
# Total GULP energy -155897.469963 kJ/mol
# GULP energy per Si atom -5567.766784 kJ/mol
# Density = 2.470099 g / cm^3
# Si number density = 24.757341 Si / 1000 Ang^3
#
#
#
# Elastic Constant Matrix: (Units=GPa)
#
#
# Indices 1 2 3 4 5 6 
#
# 1 91.2452 51.9503 42.2274 -0.0007 50.4273 0.0003
# 2 51.9503 136.0126 21.0549 -0.0003 16.3717 0.0000
# 3 42.2274 21.0549 65.3409 -0.0032 26.7552 0.0014
# 4 -0.0007 -0.0003 -0.0032 -4.6173 0.0013 29.6976
# 5 50.4273 16.3717 26.7552 0.0013 45.4677 -0.0005
# 6 0.0003 0.0000 0.0014 29.6976 -0.0005 56.4751
#
#
#
# Elastic Compliance Matrix: (Units=1/GPa)
#
#
# Indices 1 2 3 4 5 6 
#
# 1 0.040569 -0.009834 -0.008004 -0.000003 -0.036743 0.000001
# 2 -0.009834 0.010227 0.000134 0.000001 0.007145 0.000000
# 3 -0.008004 0.000134 0.022158 -0.000004 -0.004209 0.000002
# 4 -0.000003 0.000001 -0.000004 -0.049422 0.000007 0.025989
# 5 -0.036743 0.007145 -0.004209 0.000007 0.062649 -0.000003
# 6 0.000001 0.000000 0.000002 0.025989 -0.000003 0.004041
#
#
# Mechanical properties :
#
#
# Convention : Reuss Voigt Hill
#
# Bulk Modulus (GPa) = 26.63375 58.11819 42.37597
# Shear Modulus (GPa) = 36.19373 31.28951 33.74162
#
# Velocity S-wave (km/s) = 3.82768 3.55892 3.69574
# Velocity P-wave (km/s) = 5.50601 6.35720 5.94685
#
# Compressibility (1/GPa) = 0.03754635
#
# Stress axis : x y z
#
# Youngs Moduli (GPa) = 24.64937 97.77572 45.13109
#
# Poissons Ratio (x) = 0.96149 0.36124
# Poissons Ratio (y) = 0.24239 -0.00604
# Poissons Ratio (z) = 0.19730 -0.01309
#
# Static dielectric constant tensor:
#      x y z
#    x 1.768010 -0.000030 0.007550 
#    y -0.000030 1.928570 0.000000 
#    z 0.007550 0.000000 1.936230 
# 
# From -- ./inp_files/276903.got.cif
#   From: 2010.05.17/outbox.cif.g08.bks.cpg/sg15_139_cif.got.tgz:276903.got - 2010.06.03 18:47:42.
