data_PCOD9254577
_publ_section_title
;
Structure prediction by ZEFSAII (Michael W. Deem and Ramdas Pophale) SiO2 
 PCOD9254577
Probable space group: C 2/C
;
_chemical_formula_sum "Si O2"
_cell_formula_units_Z 52
_cell_length_a 16.628306
_cell_length_b 17.840382
_cell_length_c 9.767824
_cell_angle_alpha 90.000000
_cell_angle_beta 103.769898
_cell_angle_gamma 90.000000
_cell_volume 2814.396277
_symmetry_space_group_name_H-M "C 2/C"
_symmetry_group_IT_number 15
_symmetry_cell_setting 'monoclinic'
loop_
_space_group_symop_operation_xyz
x,y,z
-x,y,1/2-z
-x,-y,-z
x,-y,1/2+z
1/2+x,1/2+y,z
1/2-x,1/2+y,1/2-z
1/2-x,1/2-y,-z
1/2+x,1/2-y,1/2+z
loop_
_atom_site_type_symbol
_atom_site_label
_atom_site_fract_x
_atom_site_fract_y
_atom_site_fract_z
Si Si1 0.849023 0.433502 0.591135
Si Si2 0.995021 0.152935 0.476325
Si Si3 0.500000 0.431070 0.250000
Si Si4 0.323105 0.564536 0.358306
Si Si5 0.986366 0.314748 0.582925
Si Si6 0.129295 0.947199 0.910878
Si Si7 0.083326 0.543171 0.082176
O O1 0.757769 0.406570 0.595763
O O2 0.903729 0.365879 0.552071
O O3 0.849847 0.502229 0.485369
O O4 0.893300 0.463234 0.748377
O O5 0.907738 0.111648 0.411514
O O6 0.982524 0.240957 0.489763
O O7 0.023906 0.120744 0.634334
O O8 0.067897 0.123066 0.407959
O O9 0.428079 0.485801 0.170720
O O10 0.336932 0.482544 0.434058
O O11 0.309004 0.566012 0.189782
O O12 0.000000 0.296223 0.750000
O O13 0.060015 0.369270 0.560399
O O14 0.000000 0.500000 0.000000
#
# Coordination Sequence:
#
# PCOD9254577 Si02
#       7
#     8   8   4   8   8   8   8
#     4  10  20  36  57  86 109 141 181 225 285 319
#     4  11  19  32  56  79 109 143 190 214 267 321
#     4  10  16  32  52  76  98 134 192 220 246 310
#     4  11  21  32  55  81 116 141 174 235 267 333
#     4   9  19  35  57  79 107 146 183 226 270 327
#     4  11  19  35  52  82 106 147 187 219 267 313
#     4   9  18  37  60  80 104 140 192 227 259 324
#
# _framework density 18.476431999999999
#
# number of rings (size 3 to 8) (size 9 to 14) (size 15 to 20)
#    0.000    1.846    3.846    3.231    0.000    0.615 
#    0.000    6.154    0.000   12.000    0.000    0.000 
#    0.000    0.000    0.000    0.000    0.000    0.000 
#
# Total GULP energy -144748.082180 kJ/mol
# GULP energy per Si atom -5567.233930 kJ/mol
# Density = 1.843438 g / cm^3
# Si number density = 18.476432 Si / 1000 Ang^3
#
#
#
# Elastic Constant Matrix: (Units=GPa)
#
#
# Indices 1 2 3 4 5 6 
#
# 1 77.9863 34.1244 24.2736 0.0000 -20.7575 0.0000
# 2 34.1244 108.7010 41.3261 0.0000 -17.5533 0.0000
# 3 24.2736 41.3261 77.6706 0.0000 -16.6315 0.0000
# 4 0.0000 0.0000 0.0000 21.9530 0.0000 -5.2721
# 5 -20.7575 -17.5533 -16.6315 0.0000 33.3634 0.0000
# 6 0.0000 0.0000 0.0000 -5.2721 0.0000 16.0941
#
#
#
# Elastic Compliance Matrix: (Units=1/GPa)
#
#
# Indices 1 2 3 4 5 6 
#
# 1 0.016956 -0.003357 -0.001827 0.000000 0.007872 0.000000
# 2 -0.003357 0.012545 -0.005217 0.000000 0.001911 0.000000
# 3 -0.001827 -0.005217 0.017229 0.000000 0.004707 0.000000
# 4 0.000000 0.000000 0.000000 0.049441 0.000000 0.016196
# 5 0.007872 0.001911 0.004707 0.000000 0.038223 0.000000
# 6 0.000000 0.000000 0.000000 0.016196 0.000000 0.067440
#
#
# Mechanical properties :
#
#
# Convention : Reuss Voigt Hill
#
# Bulk Modulus (GPa) = 38.56682 51.53402 45.05042
# Shear Modulus (GPa) = 21.61887 25.25769 23.43828
#
# Velocity S-wave (km/s) = 3.42435 3.70134 3.56554
# Velocity P-wave (km/s) = 6.04597 6.79844 6.43322
#
# Compressibility (1/GPa) = 0.02592902
#
# Stress axis : x y z
#
# Youngs Moduli (GPa) = 58.97706 79.71114 58.04002
#
# Poissons Ratio (x) = 0.26759 0.10605
# Poissons Ratio (y) = 0.19799 0.30277
# Poissons Ratio (z) = 0.10776 0.41582
#
# Static dielectric constant tensor:
#      x y z
#    x 1.690450 0.000000 -0.002980 
#    y 0.000000 1.619130 0.000000 
#    z -0.002980 0.000000 1.698470 
# 
# From -- ./inp_files/48562.got.cif
#   From: 2010.05.17/outbox.cif.g08.bks.cpg/sg15_25_cif.got.tgz:48562.got - 2010.06.03 18:47:42.
