data_PCOD9254845
_publ_section_title
;
Structure prediction by ZEFSAII (Michael W. Deem and Ramdas Pophale) SiO2 
 PCOD9254845
Probable space group: C 2/C
;
_chemical_formula_sum "Si O2"
_cell_formula_units_Z 48
_cell_length_a 11.486940
_cell_length_b 8.152017
_cell_length_c 19.060076
_cell_angle_alpha 90.000000
_cell_angle_beta 88.674059
_cell_angle_gamma 90.000000
_cell_volume 1784.340582
_symmetry_space_group_name_H-M "C 2/C"
_symmetry_group_IT_number 15
_symmetry_cell_setting 'monoclinic'
loop_
_space_group_symop_operation_xyz
x,y,z
-x,y,1/2-z
-x,-y,-z
x,-y,1/2+z
1/2+x,1/2+y,z
1/2-x,1/2+y,1/2-z
1/2-x,1/2-y,-z
1/2+x,1/2-y,1/2+z
loop_
_atom_site_type_symbol
_atom_site_label
_atom_site_fract_x
_atom_site_fract_y
_atom_site_fract_z
Si Si1 0.588385 0.360628 0.449135
Si Si2 0.500000 0.850109 0.750000
Si Si3 0.663805 0.434860 0.834154
Si Si4 0.709213 0.910535 0.286836
Si Si5 0.409859 0.866070 0.894555
Si Si6 0.748887 0.936252 0.933645
Si Si7 0.000000 0.500000 0.000000
O O1 0.572989 0.499175 0.391468
O O2 0.482785 0.227159 0.457476
O O3 0.697151 0.246380 0.421872
O O4 0.634957 0.430788 0.521445
O O5 0.463642 0.778628 0.825492
O O6 0.388505 0.960776 0.734130
O O7 0.649604 0.266332 0.792779
O O8 0.694725 0.572365 0.775680
O O9 0.776882 0.391154 0.880516
O O10 0.759189 0.967663 0.361151
O O11 0.469980 0.036931 0.914230
O O12 0.644607 0.009821 0.982280
#
# Coordination Sequence:
#
# PCOD9254845 Si02
#       7
#     8   4   8   8   8   8   4
#     4  10  20  39  65  91 124 167 211 263 320 385
#     4  10  20  40  62  84 124 164 214 260 314 380
#     4  11  24  41  65  92 129 169 213 266 336 379
#     4  11  23  41  61  94 122 167 212 269 318 391
#     4  10  21  38  65  91 120 172 209 259 314 392
#     4  10  20  37  65  94 125 164 220 263 315 396
#     4  10  16  36  60  90 116 170 212 242 324 378
#
# _framework density 26.900693
#
# number of rings (size 3 to 8) (size 9 to 14) (size 15 to 20)
#    0.000    1.667    5.000    1.000    2.333    0.667 
#    3.000    0.833    0.000    0.000    0.000    0.000 
#    0.000    0.000    0.000    0.000    0.000    0.000 
#
# Total GULP energy -133757.279721 kJ/mol
# GULP energy per Si atom -5573.219988 kJ/mol
# Density = 2.683947 g / cm^3
# Si number density = 26.900693 Si / 1000 Ang^3
#
#
#
# Elastic Constant Matrix: (Units=GPa)
#
#
# Indices 1 2 3 4 5 6 
#
# 1 90.7415 25.0462 56.0939 0.0000 -12.2533 0.0000
# 2 25.0462 101.0799 43.7529 0.0000 -4.5343 0.0000
# 3 56.0939 43.7529 155.3758 0.0000 0.3361 0.0000
# 4 0.0000 0.0000 0.0000 39.8541 0.0000 -8.0620
# 5 -12.2533 -4.5343 0.3361 0.0000 44.1454 0.0000
# 6 0.0000 0.0000 0.0000 -8.0620 0.0000 34.3731
#
#
#
# Elastic Compliance Matrix: (Units=1/GPa)
#
#
# Indices 1 2 3 4 5 6 
#
# 1 0.015082 -0.001359 -0.005071 0.000000 0.004085 0.000000
# 2 -0.001359 0.011451 -0.002736 0.000000 0.000820 0.000000
# 3 -0.005071 -0.002736 0.009041 0.000000 -0.001757 0.000000
# 4 0.000000 0.000000 0.000000 0.026341 0.000000 0.006178
# 5 0.004085 0.000820 -0.001757 0.000000 0.023884 0.000000
# 6 0.000000 0.000000 0.000000 0.006178 0.000000 0.030542
#
#
# Mechanical properties :
#
#
# Convention : Reuss Voigt Hill
#
# Bulk Modulus (GPa) = 57.99638 66.33144 62.16391
# Shear Modulus (GPa) = 35.60774 38.49479 37.05127
#
# Velocity S-wave (km/s) = 3.64218 3.78696 3.71527
# Velocity P-wave (km/s) = 6.26846 6.62063 6.44695
#
# Compressibility (1/GPa) = 0.01724245
#
# Stress axis : x y z
#
# Youngs Moduli (GPa) = 66.30506 87.33022 110.60818
#
# Poissons Ratio (x) = 0.11866 0.56090
# Poissons Ratio (y) = 0.09009 0.30259
# Poissons Ratio (z) = 0.33624 0.23891
#
# Static dielectric constant tensor:
#      x y z
#    x 2.034430 0.000000 -0.333190 
#    y 0.000000 15.061470 0.000000 
#    z -0.333190 0.000000 -0.039430 
# 
# From -- ./inp_files/203035.got.cif
#   From: 2010.05.17/outbox.cif.g08.bks.cpg/sg15_102_cif.got.tgz:203035.got - 2010.06.03 18:47:42.
