data_PCOD9254402
_publ_section_title
;
Structure prediction by ZEFSAII (Michael W. Deem and Ramdas Pophale) SiO2 
 PCOD9254402
Probable space group: C 2/C
;
_chemical_formula_sum "Si O2"
_cell_formula_units_Z 60
_cell_length_a 22.491314
_cell_length_b 10.305362
_cell_length_c 17.947411
_cell_angle_alpha 90.000000
_cell_angle_beta 137.361405
_cell_angle_gamma 90.000000
_cell_volume 2817.778886
_symmetry_space_group_name_H-M "C 2/C"
_symmetry_group_IT_number 15
_symmetry_cell_setting 'monoclinic'
loop_
_space_group_symop_operation_xyz
x,y,z
-x,y,1/2-z
-x,-y,-z
x,-y,1/2+z
1/2+x,1/2+y,z
1/2-x,1/2+y,1/2-z
1/2-x,1/2-y,-z
1/2+x,1/2-y,1/2+z
loop_
_atom_site_type_symbol
_atom_site_label
_atom_site_fract_x
_atom_site_fract_y
_atom_site_fract_z
Si Si1 0.496948 0.748415 0.587126
Si Si2 0.680922 0.826837 0.079429
Si Si3 0.761316 0.828570 0.635931
Si Si4 0.118573 0.578412 0.105537
Si Si5 0.000000 0.604264 0.250000
Si Si6 0.757151 0.462814 0.155547
Si Si7 0.151257 0.063236 0.697031
Si Si8 0.805718 0.479128 0.548186
O O1 0.393916 0.721533 0.479487
O O2 0.534130 0.849277 0.558849
O O3 0.559338 0.624593 0.634279
O O4 0.505347 0.810303 0.678379
O O5 0.771423 0.834059 0.207154
O O6 0.626220 0.954813 0.057558
O O7 0.704669 0.858478 0.017017
O O8 0.825733 0.931485 0.736289
O O9 0.791161 0.680475 0.662550
O O10 0.675858 0.823229 0.609944
O O11 0.730981 0.896418 0.531212
O O12 0.170258 0.529568 0.225743
O O13 0.910168 0.520629 0.162071
O O14 0.672248 0.458286 0.129806
O O15 0.751642 0.538277 0.073521
#
# Coordination Sequence:
#
# PCOD9254402 Si02
#       8
#     8   8   8   8   4   8   8   8
#     4  11  17  34  55  75 110 138 178 223 271 317
#     4   8  19  32  49  83 110 134 177 225 271 317
#     4   9  18  32  47  77 108 137 174 214 266 331
#     4   9  17  29  51  79 104 133 174 222 267 311
#     4  10  20  30  52  84 104 136 178 234 274 302
#     4  10  16  30  52  76 104 141 171 220 268 318
#     4   9  20  33  52  82 107 147 182 210 272 326
#     4   9  17  30  47  77 111 126 174 227 274 311
#
# _framework density 21.293367
#
# number of rings (size 3 to 8) (size 9 to 14) (size 15 to 20)
#    0.000    3.200    2.667    0.800    0.000    0.000 
#    0.000    6.000    0.000    4.000    3.467    0.000 
#    0.000    0.000    0.000    0.000    0.000    0.000 
#
# Total GULP energy -167111.421222 kJ/mol
# GULP energy per Si atom -5570.380707 kJ/mol
# Density = 2.124490 g / cm^3
# Si number density = 21.293367 Si / 1000 Ang^3
#
#
#
# Elastic Constant Matrix: (Units=GPa)
#
#
# Indices 1 2 3 4 5 6 
#
# 1 122.6068 24.5677 35.5320 0.0000 -27.2557 0.0000
# 2 24.5677 71.7724 25.3933 0.0000 5.4340 0.0000
# 3 35.5320 25.3933 35.4526 0.0000 -29.2516 0.0000
# 4 0.0000 0.0000 0.0000 17.9925 0.0000 2.6841
# 5 -27.2557 5.4340 -29.2516 0.0000 26.1313 0.0000
# 6 0.0000 0.0000 0.0000 2.6841 0.0000 20.5255
#
#
#
# Elastic Compliance Matrix: (Units=1/GPa)
#
#
# Indices 1 2 3 4 5 6 
#
# 1 0.011422 -0.001089 -0.008529 0.000000 0.002593 0.000000
# 2 -0.001089 -0.003284 0.040185 0.000000 0.044532 0.000000
# 3 -0.008529 0.040185 -0.081996 0.000000 -0.109040 0.000000
# 4 0.000000 0.000000 0.000000 0.056685 0.000000 -0.007413
# 5 0.002593 0.044532 -0.109040 0.000000 -0.090348 0.000000
# 6 0.000000 0.000000 0.000000 -0.007413 0.000000 0.049689
#
#
# Mechanical properties :
#
#
# Convention : Reuss Voigt Hill
#
# Bulk Modulus (GPa) = -78.60562 44.53532 -17.03515
# Shear Modulus (GPa) = -40.58195 22.55245 -9.01475
#
# Velocity S-wave (km/s) = -4.37034 3.25796 -2.05980
# Velocity P-wave (km/s) = 7.90330 5.92561 3.69792
#
# Compressibility (1/GPa) = -0.01272174
#
# Stress axis : x y z
#
# Youngs Moduli (GPa) = 87.54724 -304.52802 -12.19574
#
# Poissons Ratio (x) = -0.33148 -0.10402
# Poissons Ratio (y) = 0.09530 0.49009
# Poissons Ratio (z) = 0.74671 12.23761
#
# Static dielectric constant tensor:
#      x y z
#    x 1.771050 0.000000 -0.003010 
#    y 0.000000 1.862130 0.000000 
#    z -0.003010 0.000000 1.801440 
# 
# From -- ./inp_files/215335.got.cif
#   From: 2010.05.17/outbox.cif.g08.bks.cpg/sg15_108_cif.got.tgz:215335.got - 2010.06.03 18:47:42.
