data_PCOD9254393
_publ_section_title
;
Structure prediction by ZEFSAII (Michael W. Deem and Ramdas Pophale) SiO2 
 PCOD9254393
Probable space group: C 2/C
;
_chemical_formula_sum "Si O2"
_cell_formula_units_Z 56
_cell_length_a 24.463382
_cell_length_b 7.219341
_cell_length_c 21.030398
_cell_angle_alpha 90.000000
_cell_angle_beta 129.633748
_cell_angle_gamma 90.000000
_cell_volume 2860.420648
_symmetry_space_group_name_H-M "C 2/C"
_symmetry_group_IT_number 15
_symmetry_cell_setting 'monoclinic'
loop_
_space_group_symop_operation_xyz
x,y,z
-x,y,1/2-z
-x,-y,-z
x,-y,1/2+z
1/2+x,1/2+y,z
1/2-x,1/2+y,1/2-z
1/2-x,1/2-y,-z
1/2+x,1/2-y,1/2+z
loop_
_atom_site_type_symbol
_atom_site_label
_atom_site_fract_x
_atom_site_fract_y
_atom_site_fract_z
Si Si1 0.439000 0.881290 0.758623
Si Si2 0.950407 0.468812 0.063584
Si Si3 0.462343 0.377264 0.892650
Si Si4 0.424343 0.451621 0.728185
Si Si5 0.413428 0.640559 0.489728
Si Si6 0.674511 0.536154 0.957313
Si Si7 0.162782 0.521988 0.415549
O O1 0.500000 0.893444 0.750000
O O2 0.478961 0.951469 0.849945
O O3 0.418984 0.666159 0.746052
O O4 0.373146 0.993104 0.680358
O O5 0.916384 0.637558 0.999487
O O6 0.890334 0.430641 0.072610
O O7 0.980225 0.286958 0.051804
O O8 0.427499 0.347863 0.797883
O O9 0.511421 0.559286 0.930261
O O10 0.408676 0.395738 0.911308
O O11 0.500000 0.421115 0.750000
O O12 0.367054 0.428956 0.629600
O O13 0.358484 0.541010 0.496395
O O14 0.664842 0.754935 0.931726
O O15 0.755363 0.470971 0.019220
#
# Coordination Sequence:
#
# PCOD9254393 Si02
#       7
#     8   8   8   8   8   8   8
#     4   8  14  28  49  75 107 130 170 222 265 310
#     4  10  18  33  54  80 107 136 179 226 265 323
#     4  11  21  31  55  79 104 139 178 220 272 313
#     4  10  16  30  51  79 102 136 179 224 263 313
#     4  10  20  36  51  77 108 141 175 219 264 327
#     4   9  16  32  56  76 109 143 180 221 271 324
#     4   8  16  29  54  83 101 144 179 220 276 319
#
# _framework density 19.577541
#
# number of rings (size 3 to 8) (size 9 to 14) (size 15 to 20)
#    0.000    2.571    2.857    2.143    0.000    1.714 
#    0.000    0.714    0.000    8.571    0.000    0.000 
#    0.000    0.000    0.000    0.000    0.000    0.000 
#
# Total GULP energy -155998.443019 kJ/mol
# GULP energy per Si atom -5571.372965 kJ/mol
# Density = 1.953298 g / cm^3
# Si number density = 19.577541 Si / 1000 Ang^3
#
#
#
# Elastic Constant Matrix: (Units=GPa)
#
#
# Indices 1 2 3 4 5 6 
#
# 1 89.9680 8.4454 50.5261 0.0000 -2.0721 -0.0001
# 2 8.4454 54.2399 0.3814 -0.0002 -2.6821 -0.0002
# 3 50.5261 0.3814 73.9942 0.0000 12.4560 -0.0001
# 4 0.0000 -0.0002 0.0000 6.4622 0.0000 -6.2189
# 5 -2.0721 -2.6821 12.4560 0.0000 28.7911 0.0000
# 6 -0.0001 -0.0002 -0.0001 -6.2189 0.0000 13.8353
#
#
#
# Elastic Compliance Matrix: (Units=1/GPa)
#
#
# Indices 1 2 3 4 5 6 
#
# 1 0.019864 -0.002613 -0.014830 0.000000 0.007602 0.000000
# 2 -0.002613 0.018877 0.001534 0.000001 0.000907 0.000001
# 3 -0.014830 0.001534 0.025658 0.000000 -0.012025 0.000000
# 4 0.000000 0.000001 0.000000 0.272709 0.000000 0.122581
# 5 0.007602 0.000907 -0.012025 0.000000 0.040567 0.000000
# 6 0.000000 0.000001 0.000000 0.122581 0.000000 0.127378
#
#
# Mechanical properties :
#
#
# Convention : Reuss Voigt Hill
#
# Bulk Modulus (GPa) = 30.69235 37.43419 34.06327
# Shear Modulus (GPa) = 9.12855 20.40766 14.76811
#
# Velocity S-wave (km/s) = 2.16169 3.23213 2.74950
# Velocity P-wave (km/s) = 4.68422 5.75251 5.24563
#
# Compressibility (1/GPa) = 0.03258140
#
# Stress axis : x y z
#
# Youngs Moduli (GPa) = 50.34208 52.97313 38.97487
#
# Poissons Ratio (x) = 0.13840 0.57801
# Poissons Ratio (y) = 0.13153 -0.05979
# Poissons Ratio (z) = 0.74659 -0.08127
#
# Static dielectric constant tensor:
#      x y z
#    x 1.677070 0.000000 -0.017340 
#    y 0.000000 1.773660 0.000000 
#    z -0.017340 0.000000 1.693990 
# 
# From -- ./inp_files/251656.got.cif
#   From: 2010.05.17/outbox.cif.g08.bks.cpg/sg15_126_cif.got.tgz:251656.got - 2010.06.03 18:47:42.
