data_PCOD9254827
_publ_section_title
;
Structure prediction by ZEFSAII (Michael W. Deem and Ramdas Pophale) SiO2 
 PCOD9254827
Probable space group: C 2/C
;
_chemical_formula_sum "Si O2"
_cell_formula_units_Z 48
_cell_length_a 22.491944
_cell_length_b 15.059291
_cell_length_c 16.173667
_cell_angle_alpha 90.000000
_cell_angle_beta 24.371133
_cell_angle_gamma 90.000000
_cell_volume 2260.565969
_symmetry_space_group_name_H-M "C 2/C"
_symmetry_group_IT_number 15
_symmetry_cell_setting 'monoclinic'
loop_
_space_group_symop_operation_xyz
x,y,z
-x,y,1/2-z
-x,-y,-z
x,-y,1/2+z
1/2+x,1/2+y,z
1/2-x,1/2+y,1/2-z
1/2-x,1/2-y,-z
1/2+x,1/2-y,1/2+z
loop_
_atom_site_type_symbol
_atom_site_label
_atom_site_fract_x
_atom_site_fract_y
_atom_site_fract_z
Si Si1 0.265559 0.874700 0.501321
Si Si2 0.590116 0.532401 0.465183
Si Si3 0.906827 0.492582 0.035788
Si Si4 0.500000 0.450647 0.750000
Si Si5 0.320450 0.712464 0.219607
Si Si6 0.512677 0.806293 0.085779
Si Si7 0.000000 0.520676 0.250000
O O1 0.190828 0.840556 0.678793
O O2 0.387741 0.806667 0.313341
O O3 0.357474 0.963120 0.406198
O O4 0.144439 0.894575 0.586486
O O5 0.500000 0.500000 0.500000
O O6 0.520670 0.507622 0.640531
O O7 0.623596 0.638014 0.414669
O O8 0.741696 0.480790 0.267062
O O9 0.958675 0.435868 0.890847
O O10 0.924730 0.595025 0.983773
O O11 0.000000 0.500000 0.000000
O O12 0.435035 0.788067 0.097214
O O13 0.159777 0.749075 0.406106
#
# Coordination Sequence:
#
# PCOD9254827 Si02
#       7
#     8   8   8   4   8   8   4
#     4  11  19  35  53  83 118 149 185 231 290 352
#     4  11  21  38  56  83 116 154 196 242 284 339
#     4  10  20  35  58  79 113 150 191 237 291 344
#     4  12  24  34  61  89 116 156 204 240 288 346
#     4  11  21  37  56  81 120 153 185 238 293 353
#     4  10  22  34  55  83 116 152 186 232 295 349
#     4  10  16  36  53  79 114 144 180 234 288 338
#
# _framework density 21.233620999999999
#
# number of rings (size 3 to 8) (size 9 to 14) (size 15 to 20)
#    0.000    1.333    6.667    2.500    2.333    1.333 
#    0.000    0.000    0.000    5.000    0.000    0.000 
#    0.000    0.000    0.000    0.000    0.000    0.000 
#
# Total GULP energy -133769.369763 kJ/mol
# GULP energy per Si atom -5573.723740 kJ/mol
# Density = 2.118529 g / cm^3
# Si number density = 21.233621 Si / 1000 Ang^3
#
#
#
# Elastic Constant Matrix: (Units=GPa)
#
#
# Indices 1 2 3 4 5 6 
#
# 1 150.3940 6.3775 63.3320 0.0000 -12.4750 0.0000
# 2 6.3775 24.5838 17.2897 0.0000 4.6002 0.0000
# 3 63.3320 17.2897 105.2501 0.0001 -13.5080 0.0000
# 4 0.0000 0.0000 0.0001 9.3824 0.0000 -4.5599
# 5 -12.4750 4.6002 -13.5080 0.0000 60.5202 0.0000
# 6 0.0000 0.0000 0.0000 -4.5599 0.0000 35.1845
#
#
#
# Elastic Compliance Matrix: (Units=1/GPa)
#
#
# Indices 1 2 3 4 5 6 
#
# 1 0.008979 0.001509 -0.005588 0.000000 0.000489 0.000000
# 2 0.001509 0.047980 -0.009490 0.000000 -0.005454 0.000000
# 3 -0.005588 -0.009490 0.014791 0.000000 0.002871 0.000000
# 4 0.000000 0.000000 0.000000 0.113746 0.000000 0.014741
# 5 0.000489 -0.005454 0.002871 0.000000 0.017680 0.000000
# 6 0.000000 0.000000 0.000000 0.014741 0.000000 0.030332
#
#
# Mechanical properties :
#
#
# Convention : Reuss Voigt Hill
#
# Bulk Modulus (GPa) = 22.41508 50.46959 36.44233
# Shear Modulus (GPa) = 18.14770 33.89934 26.02352
#
# Velocity S-wave (km/s) = 2.92664 3.99995 3.50463
# Velocity P-wave (km/s) = 4.69038 6.71961 5.79451
#
# Compressibility (1/GPa) = 0.04461283
#
# Stress axis : x y z
#
# Youngs Moduli (GPa) = 111.37194 20.84182 67.60836
#
# Poissons Ratio (x) = -0.03146 0.37780
# Poissons Ratio (y) = -0.16809 0.64160
# Poissons Ratio (z) = 0.62235 0.19779
#
# Static dielectric constant tensor:
#      x y z
#    x 1.822240 0.000000 -0.003740 
#    y 0.000000 1.842970 0.000000 
#    z -0.003740 0.000000 1.828850 
# 
# From -- ./inp_files/40319.got.cif
#   From: 2010.05.17/outbox.cif.g08.bks.cpg/sg15_21_cif.got.tgz:40319.got - 2010.06.03 18:47:42.
