data_PCOD9254137
_publ_section_title
;
Structure prediction by ZEFSAII (Michael W. Deem and Ramdas Pophale) SiO2 
 PCOD9254137
Probable space group: C 2/C
;
_chemical_formula_sum "Si O2"
_cell_formula_units_Z 52
_cell_length_a 21.096986
_cell_length_b 14.239698
_cell_length_c 24.494629
_cell_angle_alpha 90.000000
_cell_angle_beta 160.449978
_cell_angle_gamma 90.000000
_cell_volume 2462.388353
_symmetry_space_group_name_H-M "C 2/C"
_symmetry_group_IT_number 15
_symmetry_cell_setting 'monoclinic'
loop_
_space_group_symop_operation_xyz
x,y,z
-x,y,1/2-z
-x,-y,-z
x,-y,1/2+z
1/2+x,1/2+y,z
1/2-x,1/2+y,1/2-z
1/2-x,1/2-y,-z
1/2+x,1/2-y,1/2+z
loop_
_atom_site_type_symbol
_atom_site_label
_atom_site_fract_x
_atom_site_fract_y
_atom_site_fract_z
Si Si1 0.892380 0.932269 0.529633
Si Si2 0.944943 0.288479 0.095634
Si Si3 0.762467 0.268354 0.308986
Si Si4 0.133484 0.154786 0.596833
Si Si5 0.000000 0.400233 0.250000
Si Si6 0.018707 0.390838 0.578722
Si Si7 0.202123 0.430224 0.608117
O O1 0.904512 0.821143 0.555597
O O2 0.901555 0.934079 0.470726
O O3 0.684022 0.960061 0.380787
O O4 0.086100 0.970175 0.712656
O O5 0.934150 0.333248 0.146850
O O6 0.162391 0.308142 0.255868
O O7 0.809817 0.347073 0.945259
O O8 0.659391 0.339078 0.183076
O O9 0.831605 0.329643 0.414989
O O10 0.640900 0.174211 0.217376
O O11 0.958286 0.224652 0.444146
O O12 0.949659 0.493878 0.536931
O O13 0.131239 0.401414 0.611768
#
# Coordination Sequence:
#
# PCOD9254137 Si02
#       7
#     8   8   8   8   4   8   8
#     4  11  19  33  48  71 103 141 177 211 246 290
#     4  11  19  33  48  71 103 141 177 211 246 290
#     4  10  16  32  50  71 102 137 174 200 260 298
#     4  10  16  26  48  64  94 140 163 200 245 289
#     4  10  24  30  46  72  96 138 190 206 242 292
#     4  10  20  33  52  80  96 139 173 207 247 318
#     4  11  21  33  52  73 106 134 181 203 249 305
#
# _framework density 21.117708
#
# number of rings (size 3 to 8) (size 9 to 14) (size 15 to 20)
#    0.000    1.538    4.615    4.154    0.000    0.615 
#    0.000    7.692    0.000    0.000    0.000    0.000 
#    0.000   12.308    0.000    0.000    0.000    0.000 
#
# Total GULP energy -144928.120821 kJ/mol
# GULP energy per Si atom -5574.158493 kJ/mol
# Density = 2.106964 g / cm^3
# Si number density = 21.117708 Si / 1000 Ang^3
#
#
#
# Elastic Constant Matrix: (Units=GPa)
#
#
# Indices 1 2 3 4 5 6 
#
# 1 23.4902 -0.9497 6.5101 -0.0008 2.7329 -0.0012
# 2 -0.9497 35.9193 3.8037 -0.0019 12.6232 -0.0038
# 3 6.5101 3.8037 109.7609 0.0065 3.9200 0.0013
# 4 -0.0008 -0.0019 0.0065 20.8489 0.0070 -2.3282
# 5 2.7329 12.6232 3.9200 0.0070 17.0053 -0.0005
# 6 -0.0012 -0.0038 0.0013 -2.3282 -0.0005 6.6320
#
#
#
# Elastic Compliance Matrix: (Units=1/GPa)
#
#
# Indices 1 2 3 4 5 6 
#
# 1 0.044666 0.005094 -0.002455 0.000008 -0.010393 0.000013
# 2 0.005094 0.038258 -0.000589 0.000017 -0.029082 0.000027
# 3 -0.002455 -0.000589 0.009324 -0.000003 -0.001317 -0.000004
# 4 0.000008 0.000017 -0.000003 0.049921 -0.000033 0.017525
# 5 -0.010393 -0.029082 -0.001317 -0.000033 0.082367 -0.000024
# 6 0.000013 0.000027 -0.000004 0.017525 -0.000024 0.156936
#
#
# Mechanical properties :
#
#
# Convention : Reuss Voigt Hill
#
# Bulk Modulus (GPa) = 10.37914 20.87763 15.62839
# Shear Modulus (GPa) = 12.21035 19.55098 15.88067
#
# Velocity S-wave (km/s) = 2.40720 3.04601 2.74525
# Velocity P-wave (km/s) = 3.55692 4.72003 4.17914
#
# Compressibility (1/GPa) = 0.09634708
#
# Stress axis : x y z
#
# Youngs Moduli (GPa) = 22.38820 26.13863 107.25277
#
# Poissons Ratio (x) = -0.13314 0.26326
# Poissons Ratio (y) = -0.11404 0.06320
# Poissons Ratio (z) = 0.05495 0.01540
#
# Static dielectric constant tensor:
#      x y z
#    x 1.836800 0.000000 -0.018580 
#    y 0.000000 1.803850 -0.000010 
#    z -0.018580 -0.000010 1.841470 
# 
# From -- ./inp_files/67070.got.cif
#   From: 2010.05.17/outbox.cif.g08.bks.cpg/sg15_34_cif.got.tgz:67070.got - 2010.06.03 18:47:42.
