data_PCOD9254284
_publ_section_title
;
Structure prediction by ZEFSAII (Michael W. Deem and Ramdas Pophale) SiO2 
 PCOD9254284
Probable space group: C 2/C
;
_chemical_formula_sum "Si O2"
_cell_formula_units_Z 52
_cell_length_a 19.036710
_cell_length_b 18.541065
_cell_length_c 9.634824
_cell_angle_alpha 90.000000
_cell_angle_beta 64.351674
_cell_angle_gamma 90.000000
_cell_volume 3065.635788
_symmetry_space_group_name_H-M "C 2/C"
_symmetry_group_IT_number 15
_symmetry_cell_setting 'monoclinic'
loop_
_space_group_symop_operation_xyz
x,y,z
-x,y,1/2-z
-x,-y,-z
x,-y,1/2+z
1/2+x,1/2+y,z
1/2-x,1/2+y,1/2-z
1/2-x,1/2-y,-z
1/2+x,1/2-y,1/2+z
loop_
_atom_site_type_symbol
_atom_site_label
_atom_site_fract_x
_atom_site_fract_y
_atom_site_fract_z
Si Si1 0.841962 0.672238 0.484154
Si Si2 0.607356 0.673768 0.849087
Si Si3 0.262114 0.775825 0.763038
Si Si4 0.992011 0.071292 0.097723
Si Si5 0.000000 0.725504 0.250000
Si Si6 0.214346 0.937943 0.087423
Si Si7 0.315471 0.581038 0.212073
O O1 0.811401 0.727505 0.627373
O O2 0.802809 0.699526 0.373233
O O3 0.799986 0.595643 0.543847
O O4 0.934062 0.678233 0.383544
O O5 0.673117 0.724820 0.860529
O O6 0.546840 0.722698 0.815055
O O7 0.653702 0.620411 0.704193
O O8 0.559153 0.626248 0.997164
O O9 0.235685 0.848472 0.711696
O O10 0.906079 0.101739 0.144577
O O11 0.000000 0.050599 0.250000
O O12 0.000000 0.000000 0.000000
O O13 0.200848 0.013843 0.173635
O O14 0.201043 0.941565 0.933651
#
# Coordination Sequence:
#
# PCOD9254284 Si02
#       7
#     8   8   8   8   4   8   8
#     4   8  15  29  48  78  98 126 172 212 242 292
#     4  10  19  32  52  77 105 131 169 211 252 295
#     4   8  16  31  50  71  99 133 171 205 244 301
#     4  12  24  34  50  78 109 135 166 206 255 307
#     4  10  16  28  58  78  98 132 168 214 258 286
#     4  10  20  32  54  75 104 130 174 210 244 304
#     4  11  20  34  53  76 102 138 166 208 255 299
#
# _framework density 16.962223000000002
#
# number of rings (size 3 to 8) (size 9 to 14) (size 15 to 20)
#    0.000    2.154    1.538    5.538    1.077    0.000 
#    0.000    0.769    3.385    8.308    0.000    0.000 
#    0.000    0.000    0.000    0.000    0.000    0.000 
#
# Total GULP energy -144992.475296 kJ/mol
# GULP energy per Si atom -5576.633665 kJ/mol
# Density = 1.692362 g / cm^3
# Si number density = 16.962223 Si / 1000 Ang^3
#
#
#
# Elastic Constant Matrix: (Units=GPa)
#
#
# Indices 1 2 3 4 5 6 
#
# 1 90.5620 47.8461 40.3202 0.0000 -27.6014 0.0000
# 2 47.8461 85.6062 42.8132 0.0000 -17.3217 0.0000
# 3 40.3202 42.8132 75.3355 0.0000 -12.3588 0.0000
# 4 0.0000 0.0000 0.0000 15.1312 0.0000 0.3609
# 5 -27.6014 -17.3217 -12.3588 0.0000 33.2122 0.0000
# 6 0.0000 0.0000 0.0000 0.3609 0.0000 21.7576
#
#
#
# Elastic Compliance Matrix: (Units=1/GPa)
#
#
# Indices 1 2 3 4 5 6 
#
# 1 0.020301 -0.006314 -0.005377 0.000000 0.011577 0.000000
# 2 -0.006314 0.019243 -0.007211 0.000000 0.002105 0.000000
# 3 -0.005377 -0.007211 0.020129 0.000000 -0.000740 0.000000
# 4 0.000000 0.000000 0.000000 0.066115 0.000000 -0.001097
# 5 0.011577 0.002105 -0.000740 0.000000 0.040553 0.000000
# 6 0.000000 0.000000 0.000000 -0.001097 0.000000 0.045979
#
#
# Mechanical properties :
#
#
# Convention : Reuss Voigt Hill
#
# Bulk Modulus (GPa) = 45.73154 57.05141 51.39148
# Shear Modulus (GPa) = 19.42399 22.05514 20.73956
#
# Velocity S-wave (km/s) = 3.38765 3.60981 3.50049
# Velocity P-wave (km/s) = 6.50545 7.14715 6.83384
#
# Compressibility (1/GPa) = 0.02186675
#
# Stress axis : x y z
#
# Youngs Moduli (GPa) = 49.25917 51.96747 49.68049
#
# Poissons Ratio (x) = 0.32815 0.26716
# Poissons Ratio (y) = 0.31104 0.35824
# Poissons Ratio (z) = 0.26489 0.37473
#
# Static dielectric constant tensor:
#      x y z
#    x 1.588830 0.000000 -0.016470 
#    y 0.000000 1.589990 0.000000 
#    z -0.016470 0.000000 1.584890 
# 
# From -- ./inp_files/48476.got.cif
#   From: 2010.05.17/outbox.cif.g08.bks.cpg/sg15_25_cif.got.tgz:48476.got - 2010.06.03 18:47:42.
