data_PCOD9254124
_publ_section_title
;
Structure prediction by ZEFSAII (Michael W. Deem and Ramdas Pophale) SiO2 
 PCOD9254124
Probable space group: C 2/C
;
_chemical_formula_sum "Si O2"
_cell_formula_units_Z 60
_cell_length_a 26.435982
_cell_length_b 12.780095
_cell_length_c 36.308253
_cell_angle_alpha 90.000000
_cell_angle_beta 167.114522
_cell_angle_gamma 90.000000
_cell_volume 2735.556466
_symmetry_space_group_name_H-M "C 2/C"
_symmetry_group_IT_number 15
_symmetry_cell_setting 'monoclinic'
loop_
_space_group_symop_operation_xyz
x,y,z
-x,y,1/2-z
-x,-y,-z
x,-y,1/2+z
1/2+x,1/2+y,z
1/2-x,1/2+y,1/2-z
1/2-x,1/2-y,-z
1/2+x,1/2-y,1/2+z
loop_
_atom_site_type_symbol
_atom_site_label
_atom_site_fract_x
_atom_site_fract_y
_atom_site_fract_z
Si Si1 0.839974 0.417036 0.324257
Si Si2 0.184566 0.134003 0.222014
Si Si3 0.338922 0.729666 0.369165
Si Si4 0.680871 0.373705 0.533324
Si Si5 0.205329 0.657821 0.783103
Si Si6 0.500000 0.677783 0.750000
Si Si7 0.063773 0.160481 0.873529
Si Si8 0.837694 0.581374 0.667764
O O1 0.826715 0.530892 0.332529
O O2 0.958471 0.328472 0.432938
O O3 0.576348 0.378300 0.135567
O O4 0.900060 0.414163 0.323866
O O5 0.274692 0.170051 0.245808
O O6 0.182897 0.225379 0.250644
O O7 0.922005 0.107804 0.027297
O O8 0.521519 0.652937 0.516796
O O9 0.162265 0.781274 0.271788
O O10 0.794956 0.260106 0.612685
O O11 0.650793 0.409497 0.469109
O O12 0.831144 0.454503 0.662933
O O13 0.108344 0.630139 0.754296
O O14 0.529489 0.614422 0.808633
O O15 0.250000 0.250000 0.000000
O O16 0.000000 0.616389 0.750000
#
# Coordination Sequence:
#
# PCOD9254124 Si02
#       8
#     8   8   8   8   8   4   8   8
#     4   9  18  33  51  76 108 134 171 221 264 305
#     4   9  20  35  53  81 104 133 180 224 264 317
#     4   9  18  33  52  76 108 140 176 213 265 315
#     4   9  17  30  47  73 104 136 175 214 259 317
#     4  10  20  34  55  80 105 137 182 222 263 320
#     4  10  16  26  46  72 104 144 180 200 262 324
#     4   9  18  29  46  74 108 146 169 214 257 313
#     4  10  20  35  55  78 100 140 176 221 270 313
#
# _framework density 21.933381000000001
#
# number of rings (size 3 to 8) (size 9 to 14) (size 15 to 20)
#    0.000    2.667    0.667    0.800    0.000    8.000 
#    0.000    0.000    0.000    0.000   15.600    0.000 
#    0.000    0.000    0.000    0.000    0.000    0.000 
#
# Total GULP energy -167129.738889 kJ/mol
# GULP energy per Si atom -5570.991296 kJ/mol
# Density = 2.188346 g / cm^3
# Si number density = 21.933381 Si / 1000 Ang^3
#
#
#
# Elastic Constant Matrix: (Units=GPa)
#
#
# Indices 1 2 3 4 5 6 
#
# 1 155.1341 15.8880 12.6645 0.0549 -15.4476 0.0086
# 2 15.8880 60.5108 -14.8375 0.0611 -9.4786 -0.0228
# 3 12.6645 -14.8375 26.5652 0.2529 1.3470 -0.1481
# 4 0.0549 0.0611 0.2529 10.3315 -0.0873 -0.6299
# 5 -15.4476 -9.4786 1.3470 -0.0873 28.9938 -0.0006
# 6 0.0086 -0.0228 -0.1481 -0.6299 -0.0006 19.9805
#
#
#
# Elastic Compliance Matrix: (Units=1/GPa)
#
#
# Indices 1 2 3 4 5 6 
#
# 1 0.007489 -0.002735 -0.005269 0.000131 0.003341 -0.000041
# 2 -0.002735 0.021165 0.012883 -0.000378 0.004862 0.000109
# 3 -0.005269 0.012883 0.047404 -0.001195 -0.000801 0.000331
# 4 0.000131 -0.000378 -0.001195 0.097011 0.000294 0.003049
# 5 0.003341 0.004862 -0.000801 0.000294 0.037898 0.000009
# 6 -0.000041 0.000109 0.000331 0.003049 0.000009 0.050148
#
#
# Mechanical properties :
#
#
# Convention : Reuss Voigt Hill
#
# Bulk Modulus (GPa) = 11.65275 29.96003 20.80639
# Shear Modulus (GPa) = 17.85960 27.09415 22.47688
#
# Velocity S-wave (km/s) = 2.85663 3.51849 3.20469
# Velocity P-wave (km/s) = 4.02552 5.49505 4.81665
#
# Compressibility (1/GPa) = 0.08581666
#
# Stress axis : x y z
#
# Youngs Moduli (GPa) = 133.53105 47.24753 21.09515
#
# Poissons Ratio (x) = 0.12922 0.11114
# Poissons Ratio (y) = 0.36521 -0.27177
# Poissons Ratio (z) = 0.70353 -0.60868
#
# Static dielectric constant tensor:
#      x y z
#    x 1.887320 -0.000130 -0.027430 
#    y -0.000130 1.860970 0.000020 
#    z -0.027430 0.000020 1.850950 
# 
# From -- ./inp_files/317960.got.cif
#   From: 2010.05.17/outbox.cif.g08.bks.cpg/sg15_159_cif.got.tgz:317960.got - 2010.06.03 18:47:42.
