data_PCOD9254203
_publ_section_title
;
Structure prediction by ZEFSAII (Michael W. Deem and Ramdas Pophale) SiO2 
 PCOD9254203
Probable space group: C 2/C
;
_chemical_formula_sum "Si O2"
_cell_formula_units_Z 48
_cell_length_a 17.346825
_cell_length_b 24.659066
_cell_length_c 9.450898
_cell_angle_alpha 90.000000
_cell_angle_beta 126.447634
_cell_angle_gamma 90.000000
_cell_volume 3251.934946
_symmetry_space_group_name_H-M "C 2/C"
_symmetry_group_IT_number 15
_symmetry_cell_setting 'monoclinic'
loop_
_space_group_symop_operation_xyz
x,y,z
-x,y,1/2-z
-x,-y,-z
x,-y,1/2+z
1/2+x,1/2+y,z
1/2-x,1/2+y,1/2-z
1/2-x,1/2-y,-z
1/2+x,1/2-y,1/2+z
loop_
_atom_site_type_symbol
_atom_site_label
_atom_site_fract_x
_atom_site_fract_y
_atom_site_fract_z
Si Si1 0.866868 0.354727 0.224573
Si Si2 0.395292 0.741038 0.701433
Si Si3 0.069098 0.525812 0.697336
Si Si4 0.771895 0.325291 0.389219
Si Si5 0.389842 0.088483 0.186375
Si Si6 0.914589 0.669198 0.462115
O O1 0.872482 0.419420 0.264402
O O2 0.786904 0.329157 0.238097
O O3 0.971623 0.333524 0.386526
O O4 0.861390 0.338564 0.053733
O O5 0.500000 0.732159 0.750000
O O6 0.334408 0.687986 0.673897
O O7 0.336814 0.776398 0.522387
O O8 0.396419 0.778315 0.844578
O O9 0.130420 0.474852 0.818010
O O10 0.000000 0.542567 0.750000
O O11 0.000000 0.500000 0.500000
O O12 0.818601 0.378951 0.508223
O O13 0.500000 0.093486 0.250000
O O14 0.388415 0.118200 0.335153
#
# Coordination Sequence:
#
# PCOD9254203 Si02
#       6
#     8   8   8   8   8   8
#     4  11  17  27  41  67  91 122 142 172 220 271
#     4  10  19  33  47  63  81 119 153 193 222 258
#     4  11  17  24  40  65  93 126 145 165 215 271
#     4  10  19  30  48  63  87 117 155 182 222 258
#     4  10  16  28  42  64  93 123 147 179 206 263
#     4  10  17  27  42  59  95 117 144 179 216 259
#
# _framework density 14.760444
#
# number of rings (size 3 to 8) (size 9 to 14) (size 15 to 20)
#    0.000    1.667    6.667    2.000    0.000    0.667 
#    0.000    0.000    0.000    0.000    0.000    1.167 
#    0.000    0.000    0.000    0.000    0.000    0.000 
#
# Total GULP energy -133658.443683 kJ/mol
# GULP energy per Si atom -5569.101820 kJ/mol
# Density = 1.472685 g / cm^3
# Si number density = 14.760444 Si / 1000 Ang^3
#
#
#
# Elastic Constant Matrix: (Units=GPa)
#
#
# Indices 1 2 3 4 5 6 
#
# 1 93.1138 39.4584 36.7783 0.0000 -15.2645 0.0000
# 2 39.4584 70.5798 18.7077 0.0000 -3.7567 0.0000
# 3 36.7783 18.7077 50.5514 0.0000 -23.9849 0.0000
# 4 0.0000 0.0000 0.0000 3.6358 0.0000 -0.3346
# 5 -15.2645 -3.7567 -23.9849 0.0000 26.8545 0.0000
# 6 0.0000 0.0000 0.0000 -0.3346 0.0000 19.5684
#
#
#
# Elastic Compliance Matrix: (Units=1/GPa)
#
#
# Indices 1 2 3 4 5 6 
#
# 1 0.017902 -0.007259 -0.010398 0.000000 -0.000127 0.000000
# 2 -0.007259 0.019082 -0.004289 0.000000 -0.005288 0.000000
# 3 -0.010398 -0.004289 0.044852 0.000000 0.033549 0.000000
# 4 0.000000 0.000000 0.000000 0.275478 0.000000 0.004711
# 5 -0.000127 -0.005288 0.033549 0.000000 0.066390 0.000000
# 6 0.000000 0.000000 0.000000 0.004711 0.000000 0.051183
#
#
# Mechanical properties :
#
#
# Convention : Reuss Voigt Hill
#
# Bulk Modulus (GPa) = 26.35544 44.90376 35.62960
# Shear Modulus (GPa) = 9.40861 17.96510 13.68686
#
# Velocity S-wave (km/s) = 2.52746 3.49250 3.04841
# Velocity P-wave (km/s) = 5.13922 6.83748 6.04825
#
# Compressibility (1/GPa) = 0.03794283
#
# Stress axis : x y z
#
# Youngs Moduli (GPa) = 55.85980 52.40529 22.29549
#
# Poissons Ratio (x) = 0.38040 0.23183
# Poissons Ratio (y) = 0.40548 0.09564
# Poissons Ratio (z) = 0.58085 0.22479
#
# Static dielectric constant tensor:
#      x y z
#    x 1.490150 0.000000 -0.033180 
#    y 0.000000 1.513740 0.000000 
#    z -0.033180 0.000000 1.524580 
# 
# From -- ./inp_files/41666.got.cif
#   From: 2010.05.17/outbox.cif.g08.bks.cpg/sg15_21_cif.got.tgz:41666.got - 2010.06.03 18:47:42.
