data_PCOD9254775
_publ_section_title
;
Structure prediction by ZEFSAII (Michael W. Deem and Ramdas Pophale) SiO2 
 PCOD9254775
Probable space group: C 2/C
;
_chemical_formula_sum "Si O2"
_cell_formula_units_Z 52
_cell_length_a 9.478004
_cell_length_b 14.984972
_cell_length_c 19.406735
_cell_angle_alpha 90.000000
_cell_angle_beta 118.826038
_cell_angle_gamma 90.000000
_cell_volume 2414.753815
_symmetry_space_group_name_H-M "C 2/C"
_symmetry_group_IT_number 15
_symmetry_cell_setting 'monoclinic'
loop_
_space_group_symop_operation_xyz
x,y,z
-x,y,1/2-z
-x,-y,-z
x,-y,1/2+z
1/2+x,1/2+y,z
1/2-x,1/2+y,1/2-z
1/2-x,1/2-y,-z
1/2+x,1/2-y,1/2+z
loop_
_atom_site_type_symbol
_atom_site_label
_atom_site_fract_x
_atom_site_fract_y
_atom_site_fract_z
Si Si1 0.403696 0.032600 0.911659
Si Si2 0.070473 0.276429 0.145251
Si Si3 0.658494 0.597976 0.096150
Si Si4 0.095531 0.059000 0.929895
Si Si5 0.000000 0.180385 0.250000
Si Si6 0.774217 0.450869 0.758996
Si Si7 0.122254 0.148217 0.716534
O O1 0.461371 0.128965 0.897458
O O2 0.221057 0.042605 0.897834
O O3 0.407562 0.963308 0.849083
O O4 0.500000 0.000000 0.000000
O O5 0.104198 0.199053 0.098307
O O6 0.228033 0.288934 0.231537
O O7 0.944758 0.239933 0.171758
O O8 0.513451 0.528997 0.082303
O O9 0.798043 0.576631 0.185047
O O10 0.685630 0.581672 0.022124
O O11 0.979687 0.140310 0.877766
O O12 0.860405 0.115856 0.244232
O O13 0.698452 0.549709 0.739095
O O14 0.000000 0.164142 0.750000
#
# Coordination Sequence:
#
# PCOD9254775 Si02
#       7
#     8   8   8   8   4   8   8
#     4  11  22  39  56  85 122 164 193 238 301 358
#     4  10  21  36  57  89 120 145 196 252 293 342
#     4   9  20  37  62  92 109 147 209 250 286 351
#     4  10  19  39  64  82 117 160 201 240 292 366
#     4  10  18  38  62  90 108 146 204 256 282 354
#     4   9  16  36  63  74 113 156 195 229 296 360
#     4  10  16  34  62  83 105 160 196 226 293 370
#
# _framework density 21.534286999999999
#
# number of rings (size 3 to 8) (size 9 to 14) (size 15 to 20)
#    0.000    2.154    3.846    1.846    0.000    0.615 
#   16.615    1.538    0.000    0.000    0.000    0.000 
#    0.000    0.000    0.000    0.000    0.000    0.000 
#
# Total GULP energy -144908.639665 kJ/mol
# GULP energy per Si atom -5573.409218 kJ/mol
# Density = 2.148527 g / cm^3
# Si number density = 21.534287 Si / 1000 Ang^3
#
#
#
# Elastic Constant Matrix: (Units=GPa)
#
#
# Indices 1 2 3 4 5 6 
#
# 1 24.5832 -2.5277 5.9411 0.0000 -9.4652 0.0000
# 2 -2.5277 85.6578 33.9738 0.0000 -6.5865 0.0000
# 3 5.9411 33.9738 182.1304 0.0000 -9.6994 0.0000
# 4 0.0000 0.0000 0.0000 34.1914 0.0000 -10.9137
# 5 -9.4652 -6.5865 -9.6994 0.0000 27.9735 0.0000
# 6 0.0000 0.0000 0.0000 -10.9137 0.0000 10.9447
#
#
#
# Elastic Compliance Matrix: (Units=1/GPa)
#
#
# Indices 1 2 3 4 5 6 
#
# 1 0.047635 0.003173 -0.001271 0.000000 0.016424 0.000000
# 2 0.003173 0.012952 -0.002343 0.000000 0.003311 0.000000
# 3 -0.001271 -0.002343 0.006028 0.000000 0.001108 0.000000
# 4 0.000000 0.000000 0.000000 0.042902 0.000000 0.042781
# 5 0.016424 0.003311 0.001108 0.000000 0.042469 0.000000
# 6 0.000000 0.000000 0.000000 0.042781 0.000000 0.134028
#
#
# Mechanical properties :
#
#
# Convention : Reuss Voigt Hill
#
# Bulk Modulus (GPa) = 15.21318 40.79398 28.00358
# Shear Modulus (GPa) = 16.19125 31.62086 23.90606
#
# Velocity S-wave (km/s) = 2.74502 3.83612 3.33549
# Velocity P-wave (km/s) = 4.13846 6.21337 5.27886
#
# Compressibility (1/GPa) = 0.06573248
#
# Stress axis : x y z
#
# Youngs Moduli (GPa) = 20.99281 77.20871 165.88854
#
# Poissons Ratio (x) = -0.24496 0.21085
# Poissons Ratio (y) = -0.06660 0.38871
# Poissons Ratio (z) = 0.02668 0.18091
#
# Static dielectric constant tensor:
#      x y z
#    x 1.819960 0.000000 0.034500 
#    y 0.000000 1.767900 0.000000 
#    z 0.034500 0.000000 1.875440 
# 
# From -- ./inp_files/238462.got.cif
#   From: 2010.05.17/outbox.cif.g08.bks.cpg/sg15_120_cif.got.tgz:238462.got - 2010.06.03 18:47:42.
