data_PCOD9254253
_publ_section_title
;
Structure prediction by ZEFSAII (Michael W. Deem and Ramdas Pophale) SiO2 
 PCOD9254253
Probable space group: C 2/C
;
_chemical_formula_sum "Si O2"
_cell_formula_units_Z 48
_cell_length_a 10.518444
_cell_length_b 26.009019
_cell_length_c 23.197027
_cell_angle_alpha 90.000000
_cell_angle_beta 157.673272
_cell_angle_gamma 90.000000
_cell_volume 2410.810393
_symmetry_space_group_name_H-M "C 2/C"
_symmetry_group_IT_number 15
_symmetry_cell_setting 'monoclinic'
loop_
_space_group_symop_operation_xyz
x,y,z
-x,y,1/2-z
-x,-y,-z
x,-y,1/2+z
1/2+x,1/2+y,z
1/2-x,1/2+y,1/2-z
1/2-x,1/2-y,-z
1/2+x,1/2-y,1/2+z
loop_
_atom_site_type_symbol
_atom_site_label
_atom_site_fract_x
_atom_site_fract_y
_atom_site_fract_z
Si Si1 0.738500 0.961707 0.563350
Si Si2 0.507450 0.423715 0.421363
Si Si3 0.292951 0.117924 0.921407
Si Si4 0.379318 0.729924 0.634806
Si Si5 0.337301 0.694219 0.859401
Si Si6 0.554030 0.002565 0.172663
O O1 0.630730 0.906240 0.539467
O O2 0.639663 0.968136 0.455187
O O3 0.500000 0.000000 0.500000
O O4 0.128363 0.973905 0.728658
O O5 0.671945 0.412758 0.427206
O O6 0.386500 0.367173 0.387847
O O7 0.213416 0.464840 0.286599
O O8 0.793622 0.452136 0.579075
O O9 0.335771 0.177507 0.953376
O O10 0.000000 0.112820 0.750000
O O11 0.500000 0.739931 0.750000
O O12 0.663174 0.712773 0.707678
O O13 0.160156 0.776877 0.520337
O O14 0.000000 0.709629 0.750000
#
# Coordination Sequence:
#
# PCOD9254253 Si02
#       6
#     8   8   8   8   8   8
#     4  11  16  25  43  78 118 154 187 237 312 360
#     4  10  20  33  52  77 116 158 197 241 298 357
#     4  10  16  28  50  80 119 152 187 244 307 364
#     4   9  21  41  65  93 120 152 213 261 302 371
#     4  10  22  44  64  87 124 167 198 258 317 358
#     4  10  19  28  47  79 119 157 195 242 290 364
#
# _framework density 19.910316999999999
#
# number of rings (size 3 to 8) (size 9 to 14) (size 15 to 20)
#    0.000    2.000    5.000    0.500    0.000    0.667 
#    9.000    4.167    0.000    0.000    0.000    0.000 
#    0.000    0.000    0.000    0.000    0.000    0.000 
#
# Total GULP energy -133848.331638 kJ/mol
# GULP energy per Si atom -5577.013818 kJ/mol
# Density = 1.986500 g / cm^3
# Si number density = 19.910317 Si / 1000 Ang^3
#
#
#
# Elastic Constant Matrix: (Units=GPa)
#
#
# Indices 1 2 3 4 5 6 
#
# 1 70.8723 32.5434 25.9481 -0.0324 10.7685 -0.0002
# 2 32.5434 89.0656 34.5011 -0.0133 -1.3137 -0.0028
# 3 25.9481 34.5011 74.7496 -0.0586 -3.6983 0.0403
# 4 -0.0324 -0.0133 -0.0586 20.0321 -0.0077 -3.0034
# 5 10.7685 -1.3137 -3.6983 -0.0077 14.5235 -0.0398
# 6 -0.0002 -0.0028 0.0403 -3.0034 -0.0398 21.9483
#
#
#
# Elastic Compliance Matrix: (Units=1/GPa)
#
#
# Indices 1 2 3 4 5 6 
#
# 1 0.021675 -0.005998 -0.005649 0.000004 -0.018052 -0.000022
# 2 -0.005998 0.015334 -0.004767 -0.000009 0.004620 0.000018
# 3 -0.005649 -0.004767 0.017951 0.000041 0.008328 -0.000013
# 4 0.000004 -0.000009 0.000041 0.050966 0.000053 0.006974
# 5 -0.018052 0.004620 0.008328 0.000053 0.084778 0.000146
# 6 -0.000022 0.000018 -0.000013 0.006974 0.000146 0.046516
#
#
# Mechanical properties :
#
#
# Convention : Reuss Voigt Hill
#
# Bulk Modulus (GPa) = 45.18148 46.74141 45.96145
# Shear Modulus (GPa) = 18.02290 20.74711 19.38500
#
# Velocity S-wave (km/s) = 3.01192 3.23155 3.12367
# Velocity P-wave (km/s) = 5.90232 6.11971 6.01199
#
# Compressibility (1/GPa) = 0.02213296
#
# Stress axis : x y z
#
# Youngs Moduli (GPa) = 46.13590 65.21517 55.70662
#
# Poissons Ratio (x) = 0.39115 0.31468
# Poissons Ratio (y) = 0.27672 0.26554
# Poissons Ratio (z) = 0.26062 0.31087
#
# Static dielectric constant tensor:
#      x y z
#    x 1.765870 -0.000030 -0.019790 
#    y -0.000030 1.722300 -0.000040 
#    z -0.019790 -0.000040 1.686090 
# 
# From -- ./inp_files/32117.got.cif
#   From: 2010.05.17/outbox.cif.g08.bks.cpg/sg15_17_cif.got.tgz:32117.got - 2010.06.03 18:47:42.
