data_PCOD9254141
_publ_section_title
;
Structure prediction by ZEFSAII (Michael W. Deem and Ramdas Pophale) SiO2 
 PCOD9254141
Probable space group: C 2/C
;
_chemical_formula_sum "Si O2"
_cell_formula_units_Z 64
_cell_length_a 19.000061
_cell_length_b 11.134440
_cell_length_c 14.043287
_cell_angle_alpha 90.000000
_cell_angle_beta 69.990472
_cell_angle_gamma 90.000000
_cell_volume 2791.590229
_symmetry_space_group_name_H-M "C 2/C"
_symmetry_group_IT_number 15
_symmetry_cell_setting 'monoclinic'
loop_
_space_group_symop_operation_xyz
x,y,z
-x,y,1/2-z
-x,-y,-z
x,-y,1/2+z
1/2+x,1/2+y,z
1/2-x,1/2+y,1/2-z
1/2-x,1/2-y,-z
1/2+x,1/2-y,1/2+z
loop_
_atom_site_type_symbol
_atom_site_label
_atom_site_fract_x
_atom_site_fract_y
_atom_site_fract_z
Si Si1 0.044675 0.149519 0.883761
Si Si2 0.751510 0.723247 0.352165
Si Si3 0.704993 0.159909 0.707265
Si Si4 0.902964 0.226001 0.849438
Si Si5 0.275060 0.364821 0.925677
Si Si6 0.923264 0.506532 0.266178
Si Si7 0.841814 0.010365 0.563597
Si Si8 0.638039 0.126334 0.370849
O O1 0.076769 0.159355 0.759971
O O2 0.078725 0.036005 0.923507
O O3 0.083594 0.262697 0.920064
O O4 0.956157 0.170636 0.906303
O O5 0.706922 0.829207 0.320109
O O6 0.813164 0.769194 0.398534
O O7 0.695423 0.618330 0.405209
O O8 0.806924 0.668632 0.242633
O O9 0.687477 0.294490 0.679195
O O10 0.648252 0.072931 0.680439
O O11 0.785611 0.104241 0.643851
O O12 0.925034 0.367013 0.822395
O O13 0.195841 0.415162 0.924199
O O14 0.250000 0.250000 0.000000
O O15 0.329437 0.449445 0.959712
O O16 0.914740 0.532906 0.157808
O O17 0.000000 0.440521 0.250000
#
# Coordination Sequence:
#
# PCOD9254141 Si02
#       8
#     8   8   8   8   8   8   8   8
#     4   9  14  23  40  67  92 123 151 190 239 287
#     4   9  17  27  45  69  92 121 163 204 233 284
#     4  10  17  29  45  72  94 120 164 205 237 292
#     4   9  14  24  42  66  96 117 147 195 252 275
#     4   9  17  26  42  67 102 129 154 194 238 292
#     4  10  16  26  49  68  90 124 153 202 251 284
#     4  11  16  27  49  69  97 132 162 195 245 289
#     4   9  14  25  41  66  94 119 155 188 237 280
#
# _framework density 22.925999999999998
#
# number of rings (size 3 to 8) (size 9 to 14) (size 15 to 20)
#    0.000    2.750   10.000    0.000    0.000    0.000 
#    0.000    0.000    5.500    3.750    0.000    0.875 
#    0.000    0.000    0.000    0.000    0.000    0.000 
#
# Total GULP energy -178163.353442 kJ/mol
# GULP energy per Si atom -5567.604795 kJ/mol
# Density = 2.287382 g / cm^3
# Si number density = 22.926000 Si / 1000 Ang^3
#
#
#
# Elastic Constant Matrix: (Units=GPa)
#
#
# Indices 1 2 3 4 5 6 
#
# 1 160.4886 40.2333 51.7630 0.0000 48.8205 0.0000
# 2 40.2333 58.0463 38.7327 0.0000 18.7800 0.0000
# 3 51.7630 38.7327 44.9779 0.0000 28.3421 0.0000
# 4 0.0000 0.0000 0.0000 22.6708 0.0000 5.4097
# 5 48.8205 18.7800 28.3421 0.0000 38.9615 0.0000
# 6 0.0000 0.0000 0.0000 5.4097 0.0000 26.8538
#
#
#
# Elastic Compliance Matrix: (Units=1/GPa)
#
#
# Indices 1 2 3 4 5 6 
#
# 1 0.011303 0.000011 -0.007550 0.000000 -0.008676 0.000000
# 2 0.000011 0.043120 -0.044385 0.000000 0.011490 0.000000
# 3 -0.007550 -0.044385 0.091765 0.000000 -0.035899 0.000000
# 4 0.000000 0.000000 0.000000 0.046337 0.000000 -0.009335
# 5 -0.008676 0.011490 -0.035899 0.000000 0.057114 0.000000
# 6 0.000000 0.000000 0.000000 -0.009335 0.000000 0.039119
#
#
# Mechanical properties :
#
#
# Convention : Reuss Voigt Hill
#
# Bulk Modulus (GPa) = 23.61872 58.33011 40.97441
# Shear Modulus (GPa) = 12.29350 26.54947 19.42148
#
# Velocity S-wave (km/s) = 2.31817 3.40671 2.91372
# Velocity P-wave (km/s) = 4.18207 6.40095 5.40657
#
# Compressibility (1/GPa) = 0.04233931
#
# Stress axis : x y z
#
# Youngs Moduli (GPa) = 88.47580 23.19121 10.89735
#
# Poissons Ratio (x) = -0.00025 0.08227
# Poissons Ratio (y) = -0.00095 0.48368
# Poissons Ratio (z) = 0.66799 1.02934
#
# Static dielectric constant tensor:
#      x y z
#    x 1.947120 0.000000 0.036250 
#    y 0.000000 1.923990 0.000000 
#    z 0.036250 0.000000 2.002020 
# 
# From -- ./inp_files/214591.got.cif
#   From: 2010.05.17/outbox.cif.g08.bks.cpg/sg15_108_cif.got.tgz:214591.got - 2010.06.03 18:47:42.
