data_PCOD9254730
_publ_section_title
;
Structure prediction by ZEFSAII (Michael W. Deem and Ramdas Pophale) SiO2 
 PCOD9254730
Probable space group: C 2/C
;
_chemical_formula_sum "Si O2"
_cell_formula_units_Z 44
_cell_length_a 7.721068
_cell_length_b 13.759611
_cell_length_c 17.226628
_cell_angle_alpha 90.000000
_cell_angle_beta 74.880013
_cell_angle_gamma 90.000000
_cell_volume 1766.781609
_symmetry_space_group_name_H-M "C 2/C"
_symmetry_group_IT_number 15
_symmetry_cell_setting 'monoclinic'
loop_
_space_group_symop_operation_xyz
x,y,z
-x,y,1/2-z
-x,-y,-z
x,-y,1/2+z
1/2+x,1/2+y,z
1/2-x,1/2+y,1/2-z
1/2-x,1/2-y,-z
1/2+x,1/2-y,1/2+z
loop_
_atom_site_type_symbol
_atom_site_label
_atom_site_fract_x
_atom_site_fract_y
_atom_site_fract_z
Si Si1 0.894256 0.413465 0.601016
Si Si2 0.990615 0.042984 0.161313
Si Si3 0.492440 0.859973 0.066696
Si Si4 0.291465 0.626004 0.651455
Si Si5 0.178061 0.236993 0.285499
Si Si6 0.500000 0.972599 0.750000
O O1 0.679895 0.408327 0.618554
O O2 0.987841 0.344559 0.527346
O O3 0.952006 0.406195 0.682796
O O4 0.945502 0.526275 0.580046
O O5 0.000000 0.009665 0.250000
O O6 0.840766 0.127707 0.179536
O O7 0.955178 0.946530 0.115658
O O8 0.683564 0.843294 0.087494
O O9 0.350972 0.802346 0.135054
O O10 0.318044 0.712243 0.710092
O O11 0.158075 0.548941 0.710483
O O12 0.000000 0.242921 0.250000
#
# Coordination Sequence:
#
# PCOD9254730 Si02
#       6
#     8   8   8   8   8   4
#     4  10  19  32  57  85 104 153 191 230 274 337
#     4  11  20  30  57  87 110 140 200 234 270 329
#     4   9  18  35  57  76 112 155 187 216 293 338
#     4  10  17  35  58  77 113 150 183 231 278 337
#     4   9  17  33  55  81 108 150 185 224 276 336
#     4  10  16  34  56  76 106 154 186 218 292 328
#
# _framework density 24.904038
#
# number of rings (size 3 to 8) (size 9 to 14) (size 15 to 20)
#    0.000    2.182    6.364    0.000    0.000    1.455 
#    0.000    0.000    6.000   12.000    0.000    0.000 
#    0.000    0.000    0.000    0.000    0.000    0.000 
#
# Total GULP energy -122821.600813 kJ/mol
# GULP energy per Si atom -5582.800037 kJ/mol
# Density = 2.484736 g / cm^3
# Si number density = 24.904038 Si / 1000 Ang^3
#
#
#
# Elastic Constant Matrix: (Units=GPa)
#
#
# Indices 1 2 3 4 5 6 
#
# 1 43.9664 14.6413 11.4700 0.0000 0.4681 0.0000
# 2 14.6413 106.6414 -4.9127 0.0000 9.4566 0.0000
# 3 11.4700 -4.9127 102.4849 0.0000 18.4591 0.0000
# 4 0.0000 0.0000 0.0000 6.1651 0.0000 -3.8364
# 5 0.4681 9.4566 18.4591 0.0000 17.4447 0.0000
# 6 0.0000 0.0000 0.0000 -3.8364 0.0000 16.4040
#
#
#
# Elastic Compliance Matrix: (Units=1/GPa)
#
#
# Indices 1 2 3 4 5 6 
#
# 1 0.025130 -0.004160 -0.004073 0.000000 0.005891 0.000000
# 2 -0.004160 0.010807 0.002494 0.000000 -0.008386 0.000000
# 3 -0.004073 0.002494 0.013043 0.000000 -0.015044 0.000000
# 4 0.000000 0.000000 0.000000 0.189829 0.000000 0.044396
# 5 0.005891 -0.008386 -0.015044 0.000000 0.077630 0.000000
# 6 0.000000 0.000000 0.000000 0.044396 0.000000 0.071344
#
#
# Mechanical properties :
#
#
# Convention : Reuss Voigt Hill
#
# Bulk Modulus (GPa) = 26.66587 32.83223 29.74905
# Shear Modulus (GPa) = 12.14296 23.46236 17.80266
#
# Velocity S-wave (km/s) = 2.21054 3.07271 2.67657
# Velocity P-wave (km/s) = 4.15283 5.07945 4.63934
#
# Compressibility (1/GPa) = 0.03750112
#
# Stress axis : x y z
#
# Youngs Moduli (GPa) = 39.79334 92.53347 76.67238
#
# Poissons Ratio (x) = 0.38496 0.31228
# Poissons Ratio (y) = 0.16555 -0.19122
# Poissons Ratio (z) = 0.16208 -0.23078
#
# Static dielectric constant tensor:
#      x y z
#    x 2.114400 0.000000 -0.045010 
#    y 0.000000 2.017110 0.000000 
#    z -0.045010 0.000000 1.999260 
# 
# From -- ./inp_files/188768.got.cif
#   From: 2010.05.17/outbox.cif.g08.bks.cpg/sg15_95_cif.got.tgz:188768.got - 2010.06.03 18:47:42.
