data_PCOD9254784
_publ_section_title
;
Structure prediction by ZEFSAII (Michael W. Deem and Ramdas Pophale) SiO2 
 PCOD9254784
Probable space group: C 2/C
;
_chemical_formula_sum "Si O2"
_cell_formula_units_Z 52
_cell_length_a 20.414471
_cell_length_b 8.184608
_cell_length_c 15.714299
_cell_angle_alpha 90.000000
_cell_angle_beta 122.216291
_cell_angle_gamma 90.000000
_cell_volume 2221.379471
_symmetry_space_group_name_H-M "C 2/C"
_symmetry_group_IT_number 15
_symmetry_cell_setting 'monoclinic'
loop_
_space_group_symop_operation_xyz
x,y,z
-x,y,1/2-z
-x,-y,-z
x,-y,1/2+z
1/2+x,1/2+y,z
1/2-x,1/2+y,1/2-z
1/2-x,1/2-y,-z
1/2+x,1/2-y,1/2+z
loop_
_atom_site_type_symbol
_atom_site_label
_atom_site_fract_x
_atom_site_fract_y
_atom_site_fract_z
Si Si1 0.486325 0.507828 0.334129
Si Si2 0.694658 0.212766 0.162327
Si Si3 0.880434 0.693121 0.213110
Si Si4 0.058629 0.452801 0.465239
Si Si5 0.127774 0.204487 0.969577
Si Si6 0.838626 0.089925 0.331750
Si Si7 0.000000 0.412996 0.250000
O O1 0.500000 0.584860 0.250000
O O2 0.440326 0.337493 0.280237
O O3 0.569069 0.449954 0.426945
O O4 0.426985 0.590199 0.358987
O O5 0.669356 0.155577 0.238899
O O6 0.685208 0.406623 0.159924
O O7 0.783232 0.155285 0.218267
O O8 0.634511 0.135107 0.055037
O O9 0.837049 0.768659 0.100218
O O10 0.927519 0.529535 0.225598
O O11 0.079475 0.630533 0.445013
O O12 0.000000 0.500000 0.500000
O O13 0.025542 0.351094 0.362320
O O14 0.171438 0.192334 0.088884
#
# Coordination Sequence:
#
# PCOD9254784 Si02
#       7
#     8   8   8   8   8   8   4
#     4   9  16  34  61  87 119 155 207 256 303 364
#     4  11  23  39  60  89 129 169 203 251 320 378
#     4   9  16  34  62  90 115 157 212 250 289 374
#     4  11  19  35  67  92 124 161 208 260 309 370
#     4  10  19  35  65  92 116 157 217 263 296 359
#     4  11  23  38  60  90 128 167 210 254 314 370
#     4  10  16  34  62  94 118 152 214 254 300 362
#
# _framework density 23.408878000000001
#
# number of rings (size 3 to 8) (size 9 to 14) (size 15 to 20)
#    0.000    1.846    5.385    2.308    0.000    0.615 
#    0.000    4.615   16.923   12.000    0.000    0.000 
#    0.000    0.000    0.000    0.000    0.000    0.000 
#
# Total GULP energy -145082.501788 kJ/mol
# GULP energy per Si atom -5580.096223 kJ/mol
# Density = 2.335560 g / cm^3
# Si number density = 23.408878 Si / 1000 Ang^3
#
#
#
# Elastic Constant Matrix: (Units=GPa)
#
#
# Indices 1 2 3 4 5 6 
#
# 1 45.9321 3.4664 30.2844 0.0000 -12.5936 0.0000
# 2 3.4664 25.4672 25.3541 0.0000 -2.7326 0.0000
# 3 30.2844 25.3541 176.1952 0.0000 1.9395 0.0000
# 4 0.0000 0.0000 0.0000 44.1710 0.0000 -4.0428
# 5 -12.5936 -2.7326 1.9395 0.0000 31.4333 0.0000
# 6 0.0000 0.0000 0.0000 -4.0428 0.0000 19.6627
#
#
#
# Elastic Compliance Matrix: (Units=1/GPa)
#
#
# Indices 1 2 3 4 5 6 
#
# 1 0.028412 0.002812 -0.005420 0.000000 0.011962 0.000000
# 2 0.002812 0.046725 -0.007269 0.000000 0.005637 0.000000
# 3 -0.005420 -0.007269 0.007689 0.000000 -0.003278 0.000000
# 4 0.000000 0.000000 0.000000 0.023074 0.000000 0.004744
# 5 0.011962 0.005637 -0.003278 0.000000 0.037298 0.000000
# 6 0.000000 0.000000 0.000000 0.004744 0.000000 0.051833
#
#
# Mechanical properties :
#
#
# Convention : Reuss Voigt Hill
#
# Bulk Modulus (GPa) = 15.85471 40.64493 28.24982
# Shear Modulus (GPa) = 21.20359 31.61938 26.41148
#
# Velocity S-wave (km/s) = 3.01290 3.67923 3.36261
# Velocity P-wave (km/s) = 4.34639 5.95397 5.21253
#
# Compressibility (1/GPa) = 0.06307275
#
# Stress axis : x y z
#
# Youngs Moduli (GPa) = 35.19613 21.40180 130.05335
#
# Poissons Ratio (x) = -0.06018 0.70486
# Poissons Ratio (y) = -0.09897 0.94536
# Poissons Ratio (z) = 0.19076 0.15557
#
# Static dielectric constant tensor:
#      x y z
#    x 1.952780 0.000000 0.004140 
#    y 0.000000 1.983880 0.000000 
#    z 0.004140 0.000000 1.991850 
# 
# From -- ./inp_files/167365.got.cif
#   From: 2010.05.17/outbox.cif.g08.bks.cpg/sg15_84_cif.got.tgz:167365.got - 2010.06.03 18:47:42.
