data_PCOD9254442
_publ_section_title
;
Structure prediction by ZEFSAII (Michael W. Deem and Ramdas Pophale) SiO2 
 PCOD9254442
Probable space group: C 2/C
;
_chemical_formula_sum "Si O2"
_cell_formula_units_Z 52
_cell_length_a 8.377294
_cell_length_b 20.424070
_cell_length_c 15.887526
_cell_angle_alpha 90.000000
_cell_angle_beta 82.139565
_cell_angle_gamma 90.000000
_cell_volume 2692.789837
_symmetry_space_group_name_H-M "C 2/C"
_symmetry_group_IT_number 15
_symmetry_cell_setting 'monoclinic'
loop_
_space_group_symop_operation_xyz
x,y,z
-x,y,1/2-z
-x,-y,-z
x,-y,1/2+z
1/2+x,1/2+y,z
1/2-x,1/2+y,1/2-z
1/2-x,1/2-y,-z
1/2+x,1/2-y,1/2+z
loop_
_atom_site_type_symbol
_atom_site_label
_atom_site_fract_x
_atom_site_fract_y
_atom_site_fract_z
Si Si1 0.243426 0.672469 0.509842
Si Si2 0.964194 0.905812 0.544430
Si Si3 0.325602 0.898589 0.309332
Si Si4 0.686207 0.522020 0.580805
Si Si5 0.598819 0.920290 0.879356
Si Si6 0.000000 0.914537 0.250000
Si Si7 0.775814 0.442923 0.808961
O O1 0.250000 0.750000 0.500000
O O2 0.432229 0.655483 0.486455
O O3 0.179391 0.639946 0.601677
O O4 0.147207 0.635266 0.441722
O O5 0.830337 0.919706 0.483670
O O6 0.882448 0.912961 0.639620
O O7 0.101189 0.962225 0.537982
O O8 0.500000 0.890202 0.250000
O O9 0.159377 0.877224 0.273045
O O10 0.294691 0.977883 0.317268
O O11 0.861381 0.493608 0.588348
O O12 0.579309 0.542477 0.668944
O O13 0.423322 0.915483 0.853201
O O14 0.710891 0.921495 0.788226
#
# Coordination Sequence:
#
# PCOD9254442 Si02
#       7
#     8   8   8   8   8   4   8
#     4  11  26  47  60  85 131 187 230 259 309 401
#     4  10  19  33  61  88 122 158 211 259 313 392
#     4  12  23  41  68 102 136 166 214 280 344 399
#     4  10  16  30  54  90 121 160 189 261 336 370
#     4  10  21  36  63  92 136 163 201 282 325 399
#     4  12  18  34  62  98 136 152 202 268 340 396
#     4  11  19  37  62 108 126 151 212 274 362 385
#
# _framework density 19.310828999999998
#
# number of rings (size 3 to 8) (size 9 to 14) (size 15 to 20)
#    0.000    1.231    6.154    1.846    0.000    5.538 
#    2.769    2.308    0.000    0.000    0.000    0.000 
#    0.000    0.000    0.000    0.000    0.000    0.000 
#
# Total GULP energy -144759.286907 kJ/mol
# GULP energy per Si atom -5567.664881 kJ/mol
# Density = 1.926688 g / cm^3
# Si number density = 19.310829 Si / 1000 Ang^3
#
#
#
# Elastic Constant Matrix: (Units=GPa)
#
#
# Indices 1 2 3 4 5 6 
#
# 1 79.8723 21.6706 43.5794 0.0000 -4.0473 0.0000
# 2 21.6706 88.0164 66.9427 0.0000 -6.3674 0.0000
# 3 43.5794 66.9427 130.3832 0.0000 -3.3877 0.0000
# 4 0.0000 0.0000 0.0000 9.9852 0.0000 -1.7362
# 5 -4.0473 -6.3674 -3.3877 0.0000 42.5857 0.0000
# 6 0.0000 0.0000 0.0000 -1.7362 0.0000 12.2232
#
#
#
# Elastic Compliance Matrix: (Units=1/GPa)
#
#
# Indices 1 2 3 4 5 6 
#
# 1 0.015364 0.000295 -0.005259 0.000000 0.001086 0.000000
# 2 0.000295 0.018823 -0.009709 0.000000 0.002070 0.000000
# 3 -0.005259 -0.009709 0.014391 0.000000 -0.000807 0.000000
# 4 0.000000 0.000000 0.000000 0.102684 0.000000 0.014586
# 5 0.001086 0.002070 -0.000807 0.000000 0.023831 0.000000
# 6 0.000000 0.000000 0.000000 0.014586 0.000000 0.083883
#
#
# Mechanical properties :
#
#
# Convention : Reuss Voigt Hill
#
# Bulk Modulus (GPa) = 51.99283 62.51745 57.25514
# Shear Modulus (GPa) = 16.96451 24.03080 20.49766
#
# Velocity S-wave (km/s) = 2.96716 3.53146 3.26154
# Velocity P-wave (km/s) = 6.22265 7.00520 6.62549
#
# Compressibility (1/GPa) = 0.01923342
#
# Stress axis : x y z
#
# Youngs Moduli (GPa) = 65.08672 53.12602 69.48549
#
# Poissons Ratio (x) = -0.01569 0.36541
# Poissons Ratio (y) = -0.01923 0.67466
# Poissons Ratio (z) = 0.34228 0.51582
#
# Static dielectric constant tensor:
#      x y z
#    x 1.801780 0.000000 0.019560 
#    y 0.000000 1.668680 0.000000 
#    z 0.019560 0.000000 1.750920 
# 
# From -- ./inp_files/135982.got.cif
#   From: 2010.05.17/outbox.cif.g08.bks.cpg/sg15_68_cif.got.tgz:135982.got - 2010.06.03 18:47:42.
