data_PCOD9254377
_publ_section_title
;
Structure prediction by ZEFSAII (Michael W. Deem and Ramdas Pophale) SiO2 
 PCOD9254377
Probable space group: C 2/C
;
_chemical_formula_sum "Si O2"
_cell_formula_units_Z 60
_cell_length_a 17.240948
_cell_length_b 19.803048
_cell_length_c 9.184686
_cell_angle_alpha 90.000000
_cell_angle_beta 75.387182
_cell_angle_gamma 90.000000
_cell_volume 3034.429367
_symmetry_space_group_name_H-M "C 2/C"
_symmetry_group_IT_number 15
_symmetry_cell_setting 'monoclinic'
loop_
_space_group_symop_operation_xyz
x,y,z
-x,y,1/2-z
-x,-y,-z
x,-y,1/2+z
1/2+x,1/2+y,z
1/2-x,1/2+y,1/2-z
1/2-x,1/2-y,-z
1/2+x,1/2-y,1/2+z
loop_
_atom_site_type_symbol
_atom_site_label
_atom_site_fract_x
_atom_site_fract_y
_atom_site_fract_z
Si Si1 0.445856 0.417225 0.107530
Si Si2 0.617325 0.554493 0.399405
Si Si3 0.118226 0.304544 0.434432
Si Si4 0.743068 0.785113 0.791448
Si Si5 0.256048 0.117881 0.471062
Si Si6 0.621110 0.706252 0.697583
Si Si7 0.500000 0.770555 0.250000
Si Si8 0.374807 0.655952 0.371915
O O1 0.400623 0.485221 0.176676
O O2 0.432553 0.351609 0.209715
O O3 0.538800 0.433800 0.035985
O O4 0.403026 0.397235 0.976759
O O5 0.700624 0.554649 0.450515
O O6 0.617519 0.617126 0.286997
O O7 0.185883 0.259985 0.316561
O O8 0.164134 0.372071 0.469238
O O9 0.092319 0.259834 0.588975
O O10 0.045387 0.311266 0.355868
O O11 0.723729 0.846213 0.690533
O O12 0.662589 0.742518 0.816136
O O13 0.783427 0.816611 0.915268
O O14 0.191676 0.166180 0.580896
O O15 0.434940 0.718880 0.347418
#
# Coordination Sequence:
#
# PCOD9254377 Si02
#       8
#     8   8   8   8   8   8   4   8
#     4  11  22  29  44  68  97 135 176 204 221 271
#     4  10  21  34  42  61  98 145 175 190 228 280
#     4   8  15  29  51  71  86 116 158 207 254 298
#     4   7  14  29  50  62  86 119 156 198 256 294
#     4   8  15  31  49  62  88 126 164 199 241 292
#     4   9  17  29  45  72  87 119 165 211 238 279
#     4  10  16  30  50  68  88 116 158 200 256 294
#     4  10  18  33  44  61  93 132 159 199 244 289
#
# _framework density 19.773074999999999
#
# number of rings (size 3 to 8) (size 9 to 14) (size 15 to 20)
#    0.000    2.933    1.333    2.400    1.867    1.067 
#    0.000    0.000    0.000    0.000    0.000    0.000 
#    0.000    9.600    0.000    0.133    0.000   83.733 
#
# Total GULP energy -167006.259659 kJ/mol
# GULP energy per Si atom -5566.875322 kJ/mol
# Density = 1.972807 g / cm^3
# Si number density = 19.773075 Si / 1000 Ang^3
#
#
#
# Elastic Constant Matrix: (Units=GPa)
#
#
# Indices 1 2 3 4 5 6 
#
# 1 137.9322 54.2084 35.5910 0.0000 39.1440 0.0000
# 2 54.2084 58.6509 15.1279 0.0000 1.3210 0.0000
# 3 35.5910 15.1279 43.4477 0.0000 18.4578 0.0000
# 4 0.0000 0.0000 0.0000 19.2947 0.0000 2.3232
# 5 39.1440 1.3210 18.4578 0.0000 31.1535 0.0000
# 6 0.0000 0.0000 0.0000 2.3232 0.0000 24.1355
#
#
#
# Elastic Compliance Matrix: (Units=1/GPa)
#
#
# Indices 1 2 3 4 5 6 
#
# 1 0.024030 -0.021645 0.000386 0.000000 -0.029505 0.000000
# 2 -0.021645 0.038630 -0.008790 0.000000 0.030767 0.000000
# 3 0.000386 -0.008790 0.034489 0.000000 -0.020547 0.000000
# 4 0.000000 0.000000 0.000000 0.052436 0.000000 -0.005047
# 5 -0.029505 0.030767 -0.020547 0.000000 0.080040 0.000000
# 6 0.000000 0.000000 0.000000 -0.005047 0.000000 0.041918
#
#
# Mechanical properties :
#
#
# Convention : Reuss Voigt Hill
#
# Bulk Modulus (GPa) = 26.98956 49.98726 38.48841
# Shear Modulus (GPa) = 14.53525 23.92364 19.22945
#
# Velocity S-wave (km/s) = 2.71422 3.48215 3.12189
# Velocity P-wave (km/s) = 4.84788 6.44224 5.70107
#
# Compressibility (1/GPa) = 0.03705136
#
# Stress axis : x y z
#
# Youngs Moduli (GPa) = 41.61451 25.88671 28.99463
#
# Poissons Ratio (x) = 0.56032 -0.01120
# Poissons Ratio (y) = 0.90075 0.25486
# Poissons Ratio (z) = -0.01607 0.22754
#
# Static dielectric constant tensor:
#      x y z
#    x 1.798900 0.000000 0.034180 
#    y 0.000000 1.701250 0.000000 
#    z 0.034180 0.000000 1.781210 
# 
# From -- ./inp_files/50193.got.cif
#   From: 2010.05.17/outbox.cif.g08.bks.cpg/sg15_26_cif.got.tgz:50193.got - 2010.06.03 18:47:42.
