data_PCOD9254475
_publ_section_title
;
Structure prediction by ZEFSAII (Michael W. Deem and Ramdas Pophale) SiO2 
 PCOD9254475
Probable space group: C 2/C
;
_chemical_formula_sum "Si O2"
_cell_formula_units_Z 56
_cell_length_a 13.330223
_cell_length_b 8.939478
_cell_length_c 19.714512
_cell_angle_alpha 90.000000
_cell_angle_beta 114.488814
_cell_angle_gamma 90.000000
_cell_volume 2137.948034
_symmetry_space_group_name_H-M "C 2/C"
_symmetry_group_IT_number 15
_symmetry_cell_setting 'monoclinic'
loop_
_space_group_symop_operation_xyz
x,y,z
-x,y,1/2-z
-x,-y,-z
x,-y,1/2+z
1/2+x,1/2+y,z
1/2-x,1/2+y,1/2-z
1/2-x,1/2-y,-z
1/2+x,1/2-y,1/2+z
loop_
_atom_site_type_symbol
_atom_site_label
_atom_site_fract_x
_atom_site_fract_y
_atom_site_fract_z
Si Si1 0.613275 0.800657 0.010273
Si Si2 0.581484 0.236046 0.855531
Si Si3 0.359253 0.145888 0.484342
Si Si4 0.194433 0.397248 0.677071
Si Si5 0.000000 0.459271 0.750000
Si Si6 0.500000 0.516119 0.250000
Si Si7 0.025053 0.758937 0.348344
Si Si8 0.673103 0.248024 0.666199
O O1 0.597734 0.718452 0.934600
O O2 0.660621 0.967575 0.011723
O O3 0.488843 0.831220 0.002050
O O4 0.671903 0.709500 0.086308
O O5 0.649677 0.223386 0.944486
O O6 0.592625 0.379521 0.809455
O O7 0.454539 0.251868 0.845586
O O8 0.578167 0.088855 0.808313
O O9 0.304828 0.185139 0.395922
O O10 0.064427 0.374847 0.663812
O O11 0.262066 0.332471 0.757734
O O12 0.208320 0.573856 0.674636
O O13 0.083418 0.322060 0.802728
O O14 0.471006 0.409273 0.305337
#
# Coordination Sequence:
#
# PCOD9254475 Si02
#       8
#     8   8   8   8   4   4   8   8
#     4   8  14  30  55  77  97 128 177 219 251 302
#     4  10  18  35  53  81  99 139 176 216 253 301
#     4   8  14  30  55  77  97 128 177 219 251 302
#     4  10  20  34  56  81 107 133 166 218 269 313
#     4  10  16  30  60  72  94 138 186 206 242 304
#     4  10  24  30  52  80 114 130 174 226 246 296
#     4  10  18  35  53  81  99 139 176 216 253 301
#     4  10  20  34  56  81 107 133 166 218 269 313
#
# _framework density 26.193341
#
# number of rings (size 3 to 8) (size 9 to 14) (size 15 to 20)
#    0.000    2.571    2.857    1.714    2.000    0.000 
#    2.571    2.143    0.000   10.286    0.000    0.000 
#    0.000    0.000    0.000    0.000    0.000    0.000 
#
# Total GULP energy -155982.699072 kJ/mol
# GULP energy per Si atom -5570.810681 kJ/mol
# Density = 2.613372 g / cm^3
# Si number density = 26.193341 Si / 1000 Ang^3
#
#
#
# Elastic Constant Matrix: (Units=GPa)
#
#
# Indices 1 2 3 4 5 6 
#
# 1 42.3537 -9.4069 27.0350 0.0000 -4.5793 0.0000
# 2 -9.4069 95.4572 67.0168 0.0000 -2.4428 0.0000
# 3 27.0350 67.0168 294.4452 0.0000 10.6291 0.0000
# 4 0.0000 0.0000 0.0000 48.8748 0.0000 -6.9399
# 5 -4.5793 -2.4428 10.6291 0.0000 48.7050 0.0000
# 6 0.0000 0.0000 0.0000 -6.9399 0.0000 12.8678
#
#
#
# Elastic Compliance Matrix: (Units=1/GPa)
#
#
# Indices 1 2 3 4 5 6 
#
# 1 0.027798 0.005621 -0.003968 0.000000 0.003761 0.000000
# 2 0.005621 0.013681 -0.003703 0.000000 0.002023 0.000000
# 3 -0.003968 -0.003703 0.004660 0.000000 -0.001576 0.000000
# 4 0.000000 0.000000 0.000000 0.022157 0.000000 0.011950
# 5 0.003761 0.002023 -0.001576 0.000000 0.021331 0.000000
# 6 0.000000 0.000000 0.000000 0.011950 0.000000 0.084158
#
#
# Mechanical properties :
#
#
# Convention : Reuss Voigt Hill
#
# Bulk Modulus (GPa) = 23.78626 66.83843 45.31235
# Shear Modulus (GPa) = 26.05543 45.26362 35.65953
#
# Velocity S-wave (km/s) = 3.15736 4.16150 3.69371
# Velocity P-wave (km/s) = 4.73209 6.97593 5.96055
#
# Compressibility (1/GPa) = 0.04204107
#
# Stress axis : x y z
#
# Youngs Moduli (GPa) = 35.97327 73.09206 214.58224
#
# Poissons Ratio (x) = -0.41086 0.85136
# Poissons Ratio (y) = -0.20221 0.79461
# Poissons Ratio (z) = 0.14273 0.27066
#
# Static dielectric constant tensor:
#      x y z
#    x 1.865490 0.000000 0.300630 
#    y 0.000000 2.011420 0.000000 
#    z 0.300630 0.000000 1.891510 
# 
# From -- ./inp_files/218198.got.cif
#   From: 2010.05.17/outbox.cif.g08.bks.cpg/sg15_110_cif.got.tgz:218198.got - 2010.06.03 18:47:42.
