data_PCOD9254656
_publ_section_title
;
Structure prediction by ZEFSAII (Michael W. Deem and Ramdas Pophale) SiO2 
 PCOD9254656
Probable space group: C 2/C
;
_chemical_formula_sum "Si O2"
_cell_formula_units_Z 36
_cell_length_a 7.416272
_cell_length_b 22.269923
_cell_length_c 9.220618
_cell_angle_alpha 90.000000
_cell_angle_beta 85.989794
_cell_angle_gamma 90.000000
_cell_volume 1519.146889
_symmetry_space_group_name_H-M "C 2/C"
_symmetry_group_IT_number 15
_symmetry_cell_setting 'monoclinic'
loop_
_space_group_symop_operation_xyz
x,y,z
-x,y,1/2-z
-x,-y,-z
x,-y,1/2+z
1/2+x,1/2+y,z
1/2-x,1/2+y,1/2-z
1/2-x,1/2-y,-z
1/2+x,1/2-y,1/2+z
loop_
_atom_site_type_symbol
_atom_site_label
_atom_site_fract_x
_atom_site_fract_y
_atom_site_fract_z
Si Si1 0.427355 0.165622 0.542109
Si Si2 0.000000 0.276737 0.750000
Si Si3 0.000000 0.238574 0.250000
Si Si4 0.000000 0.562963 0.750000
Si Si5 0.143857 0.823471 0.465939
Si Si6 0.111051 0.958675 0.385684
O O1 0.394319 0.178753 0.373155
O O2 0.371206 0.219419 0.654660
O O3 0.396078 0.103835 0.632178
O O4 0.642514 0.170720 0.547402
O O5 0.922946 0.228767 0.636684
O O6 0.905620 0.196240 0.370417
O O7 0.828598 0.532029 0.842656
O O8 0.077493 0.889131 0.430052
O O9 0.000000 0.970269 0.250000
O O10 0.000000 0.000000 0.500000
#
# Coordination Sequence:
#
# PCOD9254656 Si02
#       6
#     8   4   4   4   8   8
#     4   9  19  36  56  93 139 177 213 264 333 402
#     4  10  16  32  59  97 133 183 220 260 328 414
#     4   9  16  30  55  84 124 181 206 255 324 390
#     4   9  22  48  68  99 145 168 220 289 334 410
#     4  10  20  37  55  92 135 172 225 275 325 401
#     4  11  25  47  71  97 129 179 232 288 345 391
#
# _framework density 23.697510000000001
#
# number of rings (size 3 to 8) (size 9 to 14) (size 15 to 20)
#    0.000    2.222    1.111    2.667    1.556    0.889 
#    8.000   11.111    0.000    0.000    0.000    0.000 
#    0.000    0.000    0.000    0.000    0.000    0.000 
#
# Total GULP energy -100262.420836 kJ/mol
# GULP energy per Si atom -5570.134491 kJ/mol
# Density = 2.364357 g / cm^3
# Si number density = 23.697510 Si / 1000 Ang^3
#
#
#
# Elastic Constant Matrix: (Units=GPa)
#
#
# Indices 1 2 3 4 5 6 
#
# 1 84.9131 33.0270 41.4085 0.0000 -18.6180 0.0000
# 2 33.0270 62.4759 62.2951 0.0000 -14.5042 0.0000
# 3 41.4085 62.2951 231.4163 0.0000 -14.7419 0.0000
# 4 0.0000 0.0000 0.0000 -6.2127 0.0000 -32.1045
# 5 -18.6180 -14.5042 -14.7419 0.0000 45.2769 0.0000
# 6 0.0000 0.0000 0.0000 -32.1045 0.0000 21.1065
#
#
#
# Elastic Compliance Matrix: (Units=1/GPa)
#
#
# Indices 1 2 3 4 5 6 
#
# 1 0.015582 -0.006522 -0.000774 0.000000 0.004066 0.000000
# 2 -0.006522 0.025876 -0.005557 0.000000 0.003798 0.000000
# 3 -0.000774 -0.005557 0.005945 0.000000 -0.000162 0.000000
# 4 0.000000 0.000000 0.000000 -0.018167 0.000000 -0.027633
# 5 0.004066 0.003798 -0.000162 0.000000 0.024922 0.000000
# 6 0.000000 0.000000 0.000000 -0.027633 0.000000 0.005347
#
#
# Mechanical properties :
#
#
# Convention : Reuss Voigt Hill
#
# Bulk Modulus (GPa) = 46.08459 72.47407 59.27933
# Shear Modulus (GPa) = 54.08657 28.17245 41.12951
#
# Velocity S-wave (km/s) = 4.78260 3.45169 4.17058
# Velocity P-wave (km/s) = 7.07014 6.82165 6.94701
#
# Compressibility (1/GPa) = 0.02169923
#
# Stress axis : x y z
#
# Youngs Moduli (GPa) = 64.17543 38.64527 168.20611
#
# Poissons Ratio (x) = 0.25205 0.13011
# Poissons Ratio (y) = 0.41856 0.93467
# Poissons Ratio (z) = 0.04964 0.21474
#
# Static dielectric constant tensor:
#      x y z
#    x 2.211230 0.000000 -0.105270 
#    y 0.000000 1.993830 0.000000 
#    z -0.105270 0.000000 1.872560 
# 
# From -- ./inp_files/23142.got.cif
#   From: 2010.05.17/outbox.cif.g08.bks.cpg/sg15_12_cif.got.tgz:23142.got - 2010.06.03 18:47:42.
