data_PCOD9254157
_publ_section_title
;
Structure prediction by ZEFSAII (Michael W. Deem and Ramdas Pophale) SiO2 
 PCOD9254157
Probable space group: C 2/C
;
_chemical_formula_sum "Si O2"
_cell_formula_units_Z 64
_cell_length_a 25.948275
_cell_length_b 27.107146
_cell_length_c 5.366152
_cell_angle_alpha 90.000000
_cell_angle_beta 62.696427
_cell_angle_gamma 90.000000
_cell_volume 3353.945557
_symmetry_space_group_name_H-M "C 2/C"
_symmetry_group_IT_number 15
_symmetry_cell_setting 'monoclinic'
loop_
_space_group_symop_operation_xyz
x,y,z
-x,y,1/2-z
-x,-y,-z
x,-y,1/2+z
1/2+x,1/2+y,z
1/2-x,1/2+y,1/2-z
1/2-x,1/2-y,-z
1/2+x,1/2-y,1/2+z
loop_
_atom_site_type_symbol
_atom_site_label
_atom_site_fract_x
_atom_site_fract_y
_atom_site_fract_z
Si Si1 0.933978 0.521437 0.663531
Si Si2 0.037634 0.364917 0.413710
Si Si3 0.352893 0.519916 0.900190
Si Si4 0.180254 0.238992 0.671979
Si Si5 0.810797 0.124931 0.845967
Si Si6 0.238368 0.619642 0.505155
Si Si7 0.146030 0.294258 0.251216
Si Si8 0.218094 0.515682 0.724477
O O1 0.907245 0.504177 0.463699
O O2 0.936507 0.580038 0.681744
O O3 0.000000 0.500000 0.500000
O O4 0.086768 0.324138 0.343578
O O5 0.000000 0.354375 0.250000
O O6 0.000000 0.367559 0.750000
O O7 0.379782 0.489470 0.611746
O O8 0.349231 0.577175 0.828892
O O9 0.287158 0.498279 0.090104
O O10 0.250000 0.250000 0.500000
O O11 0.166728 0.180797 0.690148
O O12 0.150474 0.265137 0.501124
O O13 0.158735 0.260390 0.983153
O O14 0.785813 0.119137 0.621922
O O15 0.762923 0.123380 0.172739
O O16 0.196490 0.664877 0.647383
O O17 0.208221 0.567042 0.604879
O O18 0.198785 0.478269 0.551282
#
# Coordination Sequence:
#
# PCOD9254157 Si02
#       8
#     8   8   8   8   8   8   8   8
#     4  10  16  32  60  84 107 136 185 230 304 392
#     4  12  23  41  65  83 111 147 184 250 313 363
#     4  10  16  27  44  68  95 131 178 220 243 323
#     4  12  23  40  57  77 112 148 189 238 281 336
#     4  12  20  30  55  70  97 149 177 214 281 306
#     4  12  19  32  50  73 101 136 182 226 272 324
#     4  12  26  40  55  85 107 141 199 242 286 351
#     4  10  16  27  43  63  98 131 164 227 255 315
#
# _framework density 19.082003
#
# number of rings (size 3 to 8) (size 9 to 14) (size 15 to 20)
#    0.000    0.750   10.000    1.875    0.000    0.000 
#    0.000    1.250    0.000    0.000    0.000    0.000 
#    0.000    0.000    0.000    0.000    0.000   43.750 
#
# Total GULP energy -178564.088755 kJ/mol
# GULP energy per Si atom -5580.127774 kJ/mol
# Density = 1.903857 g / cm^3
# Si number density = 19.082003 Si / 1000 Ang^3
#
#
#
# Elastic Constant Matrix: (Units=GPa)
#
#
# Indices 1 2 3 4 5 6 
#
# 1 50.1356 18.1033 25.1173 0.0000 23.1824 0.0000
# 2 18.1033 113.9861 7.8892 0.0000 1.4426 0.0000
# 3 25.1173 7.8892 87.3694 0.0000 33.9300 0.0000
# 4 0.0000 0.0000 0.0000 23.4299 0.0000 21.8893
# 5 23.1824 1.4426 33.9300 0.0000 26.8735 0.0000
# 6 0.0000 0.0000 0.0000 21.8893 0.0000 8.7128
#
#
#
# Elastic Compliance Matrix: (Units=1/GPa)
#
#
# Indices 1 2 3 4 5 6 
#
# 1 0.036948 -0.005693 0.004221 0.000000 -0.036897 0.000000
# 2 -0.005693 0.009720 -0.001855 0.000000 0.006732 0.000000
# 3 0.004221 -0.001855 0.023103 0.000000 -0.032712 0.000000
# 4 0.000000 0.000000 0.000000 -0.031683 0.000000 0.079597
# 5 -0.036897 0.006732 -0.032712 0.000000 0.109980 0.000000
# 6 0.000000 0.000000 0.000000 0.079597 0.000000 -0.085200
#
#
# Mechanical properties :
#
#
# Convention : Reuss Voigt Hill
#
# Bulk Modulus (GPa) = 15.84371 39.30116 27.57244
# Shear Modulus (GPa) = 55.21022 25.16200 40.18611
#
# Velocity S-wave (km/s) = 5.38479 3.63523 4.59406
# Velocity P-wave (km/s) = 6.85436 6.18551 6.52850
#
# Compressibility (1/GPa) = 0.06311653
#
# Stress axis : x y z
#
# Youngs Moduli (GPa) = 27.06514 102.87616 43.28395
#
# Poissons Ratio (x) = 0.58570 -0.18271
# Poissons Ratio (y) = 0.15409 0.08031
# Poissons Ratio (z) = -0.11425 0.19088
#
# Static dielectric constant tensor:
#      x y z
#    x 1.625630 0.000000 0.043250 
#    y 0.000000 1.689900 0.000000 
#    z 0.043250 0.000000 1.753440 
# 
# From -- ./inp_files/16219.got.cif
#   From: 2010.05.17/outbox.cif.g08.bks.cpg/sg15_9_cif.got.tgz:16219.got - 2010.06.03 18:47:42.
