data_PCOD9254330
_publ_section_title
;
Structure prediction by ZEFSAII (Michael W. Deem and Ramdas Pophale) SiO2 
 PCOD9254330
Probable space group: C 2/C
;
_chemical_formula_sum "Si O2"
_cell_formula_units_Z 60
_cell_length_a 12.302718
_cell_length_b 15.270809
_cell_length_c 17.914210
_cell_angle_alpha 90.000000
_cell_angle_beta 112.020847
_cell_angle_gamma 90.000000
_cell_volume 3120.058661
_symmetry_space_group_name_H-M "C 2/C"
_symmetry_group_IT_number 15
_symmetry_cell_setting 'monoclinic'
loop_
_space_group_symop_operation_xyz
x,y,z
-x,y,1/2-z
-x,-y,-z
x,-y,1/2+z
1/2+x,1/2+y,z
1/2-x,1/2+y,1/2-z
1/2-x,1/2-y,-z
1/2+x,1/2-y,1/2+z
loop_
_atom_site_type_symbol
_atom_site_label
_atom_site_fract_x
_atom_site_fract_y
_atom_site_fract_z
Si Si1 0.113858 0.556135 0.005563
Si Si2 0.207752 0.418222 0.942951
Si Si3 0.000000 0.021507 0.750000
Si Si4 0.734798 0.804098 0.165434
Si Si5 0.759699 0.490948 0.816428
Si Si6 0.461178 0.209122 0.000531
Si Si7 0.863240 0.646127 0.234330
Si Si8 0.420459 0.361199 0.092816
O O1 0.210637 0.529321 0.090461
O O2 0.073852 0.655045 0.003579
O O3 0.157271 0.516042 0.939416
O O4 0.000000 0.500000 0.000000
O O5 0.122408 0.354134 0.969775
O O6 0.199852 0.388069 0.856665
O O7 0.335881 0.410881 0.012485
O O8 0.122279 0.971874 0.770240
O O9 0.013864 0.079569 0.829348
O O10 0.721350 0.904346 0.189868
O O11 0.794017 0.735311 0.236786
O O12 0.830661 0.809154 0.123517
O O13 0.616912 0.773049 0.093352
O O14 0.844080 0.428970 0.790479
O O15 0.488919 0.291809 0.059614
O O16 0.000000 0.660934 0.250000
#
# Coordination Sequence:
#
# PCOD9254330 Si02
#       8
#     8   8   4   8   8   8   8   8
#     4  10  17  30  52  81 119 157 191 235 308 373
#     4  10  17  32  50  81 120 151 192 240 299 361
#     4  10  22  38  58  76 124 162 206 246 304 362
#     4  10  19  34  54  84 124 155 192 250 311 353
#     4  11  23  37  57  92 121 162 200 252 310 362
#     4  10  16  29  56  84 118 150 194 243 307 358
#     4  12  24  34  60  97 125 149 205 262 308 353
#     4  10  17  31  56  85 109 152 198 253 295 348
#
# _framework density 19.230408000000001
#
# number of rings (size 3 to 8) (size 9 to 14) (size 15 to 20)
#    0.000    1.600    8.000    2.400    3.733    0.000 
#    0.000    0.667    1.467    0.000    0.000    2.800 
#    0.000    0.000    0.000    0.000    0.000    0.000 
#
# Total GULP energy -167144.864735 kJ/mol
# GULP energy per Si atom -5571.495491 kJ/mol
# Density = 1.918664 g / cm^3
# Si number density = 19.230408 Si / 1000 Ang^3
#
#
#
# Elastic Constant Matrix: (Units=GPa)
#
#
# Indices 1 2 3 4 5 6 
#
# 1 21.1767 19.2578 1.9017 0.0000 14.8766 0.0000
# 2 19.2578 75.4943 1.3030 0.0000 -2.8210 0.0000
# 3 1.9017 1.3030 51.5628 0.0000 19.0886 0.0000
# 4 0.0000 0.0000 0.0000 -1.9065 0.0000 10.8025
# 5 14.8766 -2.8210 19.0886 0.0000 23.9771 0.0000
# 6 0.0000 0.0000 0.0000 10.8025 0.0000 17.0950
#
#
#
# Elastic Compliance Matrix: (Units=1/GPa)
#
#
# Indices 1 2 3 4 5 6 
#
# 1 0.360724 -0.105968 0.108957 0.000000 -0.323022 0.000000
# 2 -0.105968 0.044496 -0.033312 0.000000 0.097503 0.000000
# 3 0.108957 -0.033312 0.060536 0.000000 -0.119715 0.000000
# 4 0.000000 0.000000 0.000000 -0.114512 0.000000 0.072361
# 5 -0.323022 0.097503 -0.119715 0.000000 0.348905 0.000000
# 6 0.000000 0.000000 0.000000 0.072361 0.000000 0.012771
#
#
# Mechanical properties :
#
#
# Convention : Reuss Voigt Hill
#
# Bulk Modulus (GPa) = 2.46846 21.46208 11.96527
# Shear Modulus (GPa) = 5.50296 16.21789 10.86042
#
# Velocity S-wave (km/s) = 1.69346 2.90719 2.37903
# Velocity P-wave (km/s) = 2.26056 4.73854 3.71240
#
# Compressibility (1/GPa) = 0.40511014
#
# Stress axis : x y z
#
# Youngs Moduli (GPa) = 2.77220 22.47413 16.51912
#
# Poissons Ratio (x) = 2.38153 -1.79987
# Poissons Ratio (y) = 0.29376 0.55028
# Poissons Ratio (z) = -0.30205 0.74866
#
# Static dielectric constant tensor:
#      x y z
#    x 1.693950 0.000000 0.046970 
#    y 0.000000 1.864380 0.000000 
#    z 0.046970 0.000000 1.705740 
# 
# From -- ./inp_files/244218.got.cif
#   From: 2010.05.17/outbox.cif.g08.bks.cpg/sg15_123_cif.got.tgz:244218.got - 2010.06.03 18:47:42.
