data_PCOD9254235
_publ_section_title
;
Structure prediction by ZEFSAII (Michael W. Deem and Ramdas Pophale) SiO2 
 PCOD9254235
Probable space group: C 2/C
;
_chemical_formula_sum "Si O2"
_cell_formula_units_Z 44
_cell_length_a 13.209731
_cell_length_b 20.326564
_cell_length_c 8.626901
_cell_angle_alpha 90.000000
_cell_angle_beta 102.595202
_cell_angle_gamma 90.000000
_cell_volume 2260.651748
_symmetry_space_group_name_H-M "C 2/C"
_symmetry_group_IT_number 15
_symmetry_cell_setting 'monoclinic'
loop_
_space_group_symop_operation_xyz
x,y,z
-x,y,1/2-z
-x,-y,-z
x,-y,1/2+z
1/2+x,1/2+y,z
1/2-x,1/2+y,1/2-z
1/2-x,1/2-y,-z
1/2+x,1/2-y,1/2+z
loop_
_atom_site_type_symbol
_atom_site_label
_atom_site_fract_x
_atom_site_fract_y
_atom_site_fract_z
Si Si1 0.636382 0.582787 0.114889
Si Si2 0.194952 0.679338 0.483299
Si Si3 0.550464 0.639943 0.608645
Si Si4 0.500000 0.229447 0.250000
Si Si5 0.284893 0.906755 0.234199
Si Si6 0.732552 0.474803 0.940245
O O1 0.719725 0.631118 0.062316
O O2 0.669842 0.571013 0.301695
O O3 0.523316 0.612649 0.049384
O O4 0.654376 0.514346 0.028375
O O5 0.250000 0.750000 0.500000
O O6 0.168091 0.651623 0.645880
O O7 0.093095 0.686608 0.346316
O O8 0.500000 0.610967 0.750000
O O9 0.537779 0.718525 0.630195
O O10 0.669044 0.619604 0.655840
O O11 0.283751 0.969567 0.348588
O O12 0.314273 0.935567 0.075553
#
# Coordination Sequence:
#
# PCOD9254235 Si02
#       6
#     8   8   8   4   8   8
#     4  10  19  31  51  74 102 132 162 202 245 293
#     4  11  17  33  55  71  97 130 166 203 239 289
#     4  10  16  28  48  79  95 133 167 192 239 301
#     4  10  18  30  54  72  96 130 170 196 234 300
#     4  10  19  31  51  74 102 132 162 202 245 293
#     4   9  19  32  48  75 105 131 162 198 248 298
#
# _framework density 19.463414
#
# number of rings (size 3 to 8) (size 9 to 14) (size 15 to 20)
#    0.545    1.455    7.273    0.000    0.000    5.091 
#    0.000    0.909    0.000   18.545    0.000    0.000 
#    0.000    0.000    0.000    0.000    0.000    0.000 
#
# Total GULP energy -122494.796117 kJ/mol
# GULP energy per Si atom -5567.945278 kJ/mol
# Density = 1.941911 g / cm^3
# Si number density = 19.463414 Si / 1000 Ang^3
#
#
#
# Elastic Constant Matrix: (Units=GPa)
#
#
# Indices 1 2 3 4 5 6 
#
# 1 23.0976 9.1706 3.8662 0.0000 15.9210 0.0000
# 2 9.1706 79.4738 45.5744 0.0000 13.4381 0.0000
# 3 3.8662 45.5744 137.8017 0.0000 13.7578 0.0000
# 4 0.0000 0.0000 0.0000 41.8512 0.0000 14.4875
# 5 15.9210 13.4381 13.7578 0.0000 28.9090 0.0000
# 6 0.0000 0.0000 0.0000 14.4875 0.0000 9.7645
#
#
#
# Elastic Compliance Matrix: (Units=1/GPa)
#
#
# Indices 1 2 3 4 5 6 
#
# 1 0.070972 -0.003319 0.002997 0.000000 -0.038970 0.000000
# 2 -0.003319 0.016407 -0.004991 0.000000 -0.003423 0.000000
# 3 0.002997 -0.004991 0.009193 0.000000 -0.003706 0.000000
# 4 0.000000 0.000000 0.000000 0.049125 0.000000 -0.072887
# 5 -0.038970 -0.003423 -0.003706 0.000000 0.059408 0.000000
# 6 0.000000 0.000000 0.000000 -0.072887 0.000000 0.210553
#
#
# Mechanical properties :
#
#
# Convention : Reuss Voigt Hill
#
# Bulk Modulus (GPa) = 11.63518 39.73284 25.68401
# Shear Modulus (GPa) = 10.99062 28.22240 19.60651
#
# Velocity S-wave (km/s) = 2.37888 3.81205 3.17732
# Velocity P-wave (km/s) = 3.67918 6.31142 5.16577
#
# Compressibility (1/GPa) = 0.08594623
#
# Stress axis : x y z
#
# Youngs Moduli (GPa) = 14.09004 60.95028 108.77375
#
# Poissons Ratio (x) = 0.20229 -0.32600
# Poissons Ratio (y) = 0.04676 0.54292
# Poissons Ratio (z) = -0.04223 0.30422
#
# Static dielectric constant tensor:
#      x y z
#    x 1.697800 0.000000 -0.033360 
#    y 0.000000 1.731350 0.000000 
#    z -0.033360 0.000000 1.744260 
# 
# From -- ./inp_files/40380.got.cif
#   From: 2010.05.17/outbox.cif.g08.bks.cpg/sg15_21_cif.got.tgz:40380.got - 2010.06.03 18:47:42.
