data_PCOD9254104
_publ_section_title
;
Structure prediction by ZEFSAII (Michael W. Deem and Ramdas Pophale) SiO2 
 PCOD9254104
Probable space group: C 2/C
;
_chemical_formula_sum "Si O2"
_cell_formula_units_Z 60
_cell_length_a 12.333351
_cell_length_b 16.573293
_cell_length_c 20.377002
_cell_angle_alpha 90.000000
_cell_angle_beta 137.924403
_cell_angle_gamma 90.000000
_cell_volume 2791.107974
_symmetry_space_group_name_H-M "C 2/C"
_symmetry_group_IT_number 15
_symmetry_cell_setting 'monoclinic'
loop_
_space_group_symop_operation_xyz
x,y,z
-x,y,1/2-z
-x,-y,-z
x,-y,1/2+z
1/2+x,1/2+y,z
1/2-x,1/2+y,1/2-z
1/2-x,1/2-y,-z
1/2+x,1/2-y,1/2+z
loop_
_atom_site_type_symbol
_atom_site_label
_atom_site_fract_x
_atom_site_fract_y
_atom_site_fract_z
Si Si1 0.454081 0.957234 0.155624
Si Si2 0.513187 0.427296 0.060879
Si Si3 0.169679 0.359535 0.891412
Si Si4 0.996048 0.210786 0.153617
Si Si5 0.168879 0.678857 0.238052
Si Si6 0.735419 0.499525 0.769282
Si Si7 0.000000 0.937544 0.750000
Si Si8 0.776396 0.827222 0.436615
O O1 0.500000 0.929230 0.250000
O O2 0.305144 0.904347 0.064684
O O3 0.400990 0.049333 0.142317
O O4 0.604180 0.949904 0.173916
O O5 0.591707 0.467084 0.159570
O O6 0.639410 0.362985 0.088923
O O7 0.500000 0.500000 0.000000
O O8 0.347527 0.378574 0.998358
O O9 0.187592 0.325272 0.825545
O O10 0.023898 0.309294 0.860564
O O11 0.873418 0.267022 0.138899
O O12 0.186127 0.230634 0.229027
O O13 0.980835 0.123370 0.180545
O O14 0.914033 0.208912 0.045039
O O15 0.212445 0.589186 0.232097
O O16 0.658937 0.489926 0.806519
#
# Coordination Sequence:
#
# PCOD9254104 Si02
#       8
#     8   8   8   8   8   8   4   8
#     4  11  17  30  52  86 110 129 182 247 291 317
#     4  12  16  28  53  87 119 134 178 258 295 314
#     4  10  16  25  51  82 111 137 176 241 291 324
#     4  10  22  36  51  76 118 156 190 223 266 361
#     4   9  15  30  46  74 111 148 183 218 276 339
#     4  10  19  31  52  77 109 146 184 231 290 354
#     4  10  22  38  52  72 116 166 182 216 298 356
#     4  11  21  32  55  88 112 142 193 237 288 320
#
# _framework density 21.496839999999999
#
# number of rings (size 3 to 8) (size 9 to 14) (size 15 to 20)
#    0.000    1.600    8.000    0.800    0.933    0.000 
#    0.000    0.667    2.933    1.600    0.000    9.333 
#    0.000    0.000    0.000    0.000    0.000    0.000 
#
# Total GULP energy -167147.647626 kJ/mol
# GULP energy per Si atom -5571.588254 kJ/mol
# Density = 2.144791 g / cm^3
# Si number density = 21.496840 Si / 1000 Ang^3
#
#
#
# Elastic Constant Matrix: (Units=GPa)
#
#
# Indices 1 2 3 4 5 6 
#
# 1 137.7337 23.6116 39.2319 0.0000 56.2583 0.0000
# 2 23.6116 34.4102 14.8827 0.0000 16.3844 0.0000
# 3 39.2319 14.8827 62.2799 0.0000 41.1605 0.0000
# 4 0.0000 0.0000 0.0000 13.0447 0.0000 4.8544
# 5 56.2583 16.3844 41.1605 0.0000 42.7113 0.0000
# 6 0.0000 0.0000 0.0000 4.8544 0.0000 17.8862
#
#
#
# Elastic Compliance Matrix: (Units=1/GPa)
#
#
# Indices 1 2 3 4 5 6 
#
# 1 0.018646 -0.000949 0.012317 0.000000 -0.036066 0.000000
# 2 -0.000949 0.035650 0.000801 0.000000 -0.013197 0.000000
# 3 0.012317 0.000801 0.052414 0.000000 -0.067041 0.000000
# 4 0.000000 0.000000 0.000000 0.085272 0.000000 -0.023143
# 5 -0.036066 -0.013197 -0.067041 0.000000 0.140587 0.000000
# 6 0.000000 0.000000 0.000000 -0.023143 0.000000 0.062190
#
#
# Mechanical properties :
#
#
# Convention : Reuss Voigt Hill
#
# Bulk Modulus (GPa) = 7.63091 43.31959 25.47525
# Shear Modulus (GPa) = 12.07426 25.17494 18.62460
#
# Velocity S-wave (km/s) = 2.37254 3.42585 2.94664
# Velocity P-wave (km/s) = 3.32607 5.98698 4.84286
#
# Compressibility (1/GPa) = 0.13104591
#
# Stress axis : x y z
#
# Youngs Moduli (GPa) = 53.63066 28.05062 19.07905
#
# Poissons Ratio (x) = 0.02662 -0.23499
# Poissons Ratio (y) = 0.05090 -0.01528
# Poissons Ratio (z) = -0.66055 -0.02246
#
# Static dielectric constant tensor:
#      x y z
#    x 1.818830 0.000000 0.043850 
#    y 0.000000 1.833100 0.000000 
#    z 0.043850 0.000000 1.841270 
# 
# From -- ./inp_files/270610.got.cif
#   From: 2010.05.17/outbox.cif.g08.bks.cpg/sg15_136_cif.got.tgz:270610.got - 2010.06.03 18:47:42.
