data_PCOD9254010
_publ_section_title
;
Structure prediction by ZEFSAII (Michael W. Deem and Ramdas Pophale) SiO2 
 PCOD9254010
Probable space group: C 2/C
;
_chemical_formula_sum "Si O2"
_cell_formula_units_Z 44
_cell_length_a 25.077140
_cell_length_b 16.262127
_cell_length_c 10.908775
_cell_angle_alpha 90.000000
_cell_angle_beta 157.484326
_cell_angle_gamma 90.000000
_cell_volume 1703.561090
_symmetry_space_group_name_H-M "C 2/C"
_symmetry_group_IT_number 15
_symmetry_cell_setting 'monoclinic'
loop_
_space_group_symop_operation_xyz
x,y,z
-x,y,1/2-z
-x,-y,-z
x,-y,1/2+z
1/2+x,1/2+y,z
1/2-x,1/2+y,1/2-z
1/2-x,1/2-y,-z
1/2+x,1/2-y,1/2+z
loop_
_atom_site_type_symbol
_atom_site_label
_atom_site_fract_x
_atom_site_fract_y
_atom_site_fract_z
Si Si1 0.402281 0.328972 0.822289
Si Si2 0.500000 0.585147 0.750000
Si Si3 0.991794 0.654748 0.464764
Si Si4 0.500000 0.966947 0.750000
Si Si5 0.000000 0.322517 0.250000
Si Si6 0.326191 0.320620 0.269691
Si Si7 0.698371 0.542115 0.577136
O O1 0.309134 0.394394 0.551113
O O2 0.402454 0.358022 0.961956
O O3 0.398925 0.229815 0.817753
O O4 0.553017 0.337625 0.072900
O O5 0.418565 0.526784 0.670644
O O6 0.998006 0.590139 0.368687
O O7 0.014866 0.628291 0.654602
O O8 0.830910 0.686364 0.113173
O O9 0.345539 0.002369 0.408008
O O10 0.125216 0.257505 0.544722
O O11 0.325867 0.399497 0.357571
#
# Coordination Sequence:
#
# PCOD9254010 Si02
#       7
#     8   4   8   4   4   8   8
#     4  11  20  38  63  94 115 156 211 259 296 356
#     4  12  24  38  68  90 115 160 227 256 278 364
#     4  10  21  37  61  97 128 158 192 254 319 374
#     4  10  25  42  60  90 131 164 198 250 326 376
#     4  10  15  32  56  90 120 162 187 238 300 376
#     4  10  18  36  63  87 128 158 192 246 320 369
#     4  11  21  41  62  86 120 172 198 250 312 357
#
# _framework density 25.828250000000001
#
# number of rings (size 3 to 8) (size 9 to 14) (size 15 to 20)
#    0.000    1.455    5.455    3.273    0.000    0.727 
#    6.545    0.909    0.000    1.091    0.000    0.000 
#    0.000    0.000    0.000    0.000    0.000    0.000 
#
# Total GULP energy -122994.089446 kJ/mol
# GULP energy per Si atom -5590.640429 kJ/mol
# Density = 2.576946 g / cm^3
# Si number density = 25.828250 Si / 1000 Ang^3
#
#
#
# Elastic Constant Matrix: (Units=GPa)
#
#
# Indices 1 2 3 4 5 6 
#
# 1 64.0205 17.0437 11.2851 0.0000 -24.3830 0.0000
# 2 17.0437 60.8996 7.1665 0.0000 -8.9956 0.0000
# 3 11.2851 7.1665 121.2897 0.0000 -7.2659 0.0000
# 4 0.0000 0.0000 0.0000 32.1803 0.0000 -21.2568
# 5 -24.3830 -8.9956 -7.2659 0.0000 45.9555 0.0000
# 6 0.0000 0.0000 0.0000 -21.2568 0.0000 67.2343
#
#
#
# Elastic Compliance Matrix: (Units=1/GPa)
#
#
# Indices 1 2 3 4 5 6 
#
# 1 0.020742 -0.004199 -0.001082 0.000000 0.010012 0.000000
# 2 -0.004199 0.017838 -0.000593 0.000000 0.001170 0.000000
# 3 -0.001082 -0.000593 0.008419 0.000000 0.000641 0.000000
# 4 0.000000 0.000000 0.000000 0.039278 0.000000 0.012418
# 5 0.010012 0.001170 0.000641 0.000000 0.027403 0.000000
# 6 0.000000 0.000000 0.000000 0.012418 0.000000 0.018799
#
#
# Mechanical properties :
#
#
# Convention : Reuss Voigt Hill
#
# Bulk Modulus (GPa) = 28.36796 35.24448 31.80622
# Shear Modulus (GPa) = 32.05601 43.12165 37.58883
#
# Velocity S-wave (km/s) = 3.52678 4.09045 3.81903
# Velocity P-wave (km/s) = 5.25275 5.99870 5.63807
#
# Compressibility (1/GPa) = 0.03525104
#
# Stress axis : x y z
#
# Youngs Moduli (GPa) = 48.21187 56.05946 118.78120
#
# Poissons Ratio (x) = 0.23537 0.12852
# Poissons Ratio (y) = 0.20242 0.07046
# Poissons Ratio (z) = 0.05217 0.03326
#
# Static dielectric constant tensor:
#      x y z
#    x 2.012000 0.000000 0.047090 
#    y 0.000000 2.092560 0.000000 
#    z 0.047090 0.000000 2.037430 
# 
# From -- ./inp_files/127335.got.cif
#   From: 2010.05.17/outbox.cif.g08.bks.cpg/sg15_64_cif.got.tgz:127335.got - 2010.06.03 18:47:42.
