data_PCOD9254178
_publ_section_title
;
Structure prediction by ZEFSAII (Michael W. Deem and Ramdas Pophale) SiO2 
 PCOD9254178
Probable space group: C 2/C
;
_chemical_formula_sum "Si O2"
_cell_formula_units_Z 40
_cell_length_a 18.716822
_cell_length_b 7.047995
_cell_length_c 27.065918
_cell_angle_alpha 90.000000
_cell_angle_beta 155.746761
_cell_angle_gamma 90.000000
_cell_volume 1466.626726
_symmetry_space_group_name_H-M "C 2/C"
_symmetry_group_IT_number 15
_symmetry_cell_setting 'monoclinic'
loop_
_space_group_symop_operation_xyz
x,y,z
-x,y,1/2-z
-x,-y,-z
x,-y,1/2+z
1/2+x,1/2+y,z
1/2-x,1/2+y,1/2-z
1/2-x,1/2-y,-z
1/2+x,1/2-y,1/2+z
loop_
_atom_site_type_symbol
_atom_site_label
_atom_site_fract_x
_atom_site_fract_y
_atom_site_fract_z
Si Si1 0.274474 0.615885 0.325085
Si Si2 0.707396 0.967351 0.886175
Si Si3 0.612186 0.043492 0.428638
Si Si4 0.694526 0.416792 0.856829
Si Si5 0.360749 0.274717 0.776069
O O1 0.304363 0.635715 0.402078
O O2 0.381358 0.696284 0.347202
O O3 0.068607 0.658175 0.186524
O O4 0.281097 0.390419 0.318820
O O5 0.500000 0.924823 0.750000
O O6 0.722682 0.192036 0.885189
O O7 0.686441 0.028148 0.529922
O O8 0.536403 0.829013 0.368152
O O9 0.742980 0.082698 0.465683
O O10 0.500000 0.465900 0.750000
O O11 0.699846 0.435682 0.800441
#
# Coordination Sequence:
#
# PCOD9254178 Si02
#       5
#     8   8   8   8   8
#     4   8  17  31  49  73 104 127 163 202 251 296
#     4   8  13  27  45  71  91 122 165 206 231 283
#     4   9  17  28  51  72  98 129 165 207 246 283
#     4  10  16  27  48  74 100 123 170 210 242 284
#     4   9  18  31  48  76 102 129 162 207 247 299
#
# _framework density 27.273468999999999
#
# number of rings (size 3 to 8) (size 9 to 14) (size 15 to 20)
#    1.200    2.000    4.000    0.600    0.000    0.800 
#    0.000    4.000    0.000    3.600    0.000    2.800 
#    0.000    0.000    0.000    0.000    0.000    0.000 
#
# Total GULP energy -111649.489875 kJ/mol
# GULP energy per Si atom -5582.474494 kJ/mol
# Density = 2.721139 g / cm^3
# Si number density = 27.273469 Si / 1000 Ang^3
#
#
#
# Elastic Constant Matrix: (Units=GPa)
#
#
# Indices 1 2 3 4 5 6 
#
# 1 251.8881 57.6478 30.8903 0.0012 -16.1145 0.0001
# 2 57.6478 69.4974 15.0126 0.0015 -18.9542 -0.0015
# 3 30.8903 15.0126 98.1927 0.0138 -14.5834 -0.0057
# 4 0.0012 0.0015 0.0138 11.4694 -0.0025 -12.7441
# 5 -16.1145 -18.9542 -14.5834 -0.0025 31.6318 0.0003
# 6 0.0001 -0.0015 -0.0057 -12.7441 0.0003 48.3411
#
#
#
# Elastic Compliance Matrix: (Units=1/GPa)
#
#
# Indices 1 2 3 4 5 6 
#
# 1 0.004990 -0.004011 -0.001005 0.000001 -0.000324 0.000000
# 2 -0.004011 0.020552 -0.000381 0.000001 0.010096 0.000001
# 3 -0.001005 -0.000381 0.011217 -0.000015 0.004431 -0.000003
# 4 0.000001 0.000001 -0.000015 0.123309 0.000004 0.032508
# 5 -0.000324 0.010096 0.004431 0.000004 0.039541 0.000002
# 6 0.000000 0.000001 -0.000003 0.032508 0.000002 0.029256
#
#
# Mechanical properties :
#
#
# Convention : Reuss Voigt Hill
#
# Bulk Modulus (GPa) = 38.51293 69.63109 54.07201
# Shear Modulus (GPa) = 20.13585 39.35698 29.74641
#
# Velocity S-wave (km/s) = 2.72011 3.80287 3.30612
# Velocity P-wave (km/s) = 4.90071 6.69840 5.86880
#
# Compressibility (1/GPa) = 0.02596530
#
# Stress axis : x y z
#
# Youngs Moduli (GPa) = 200.38253 48.65740 89.15431
#
# Poissons Ratio (x) = 0.19516 0.08959
# Poissons Ratio (y) = 0.80372 0.03396
# Poissons Ratio (z) = 0.20136 0.01853
#
# Static dielectric constant tensor:
#      x y z
#    x 2.156060 0.000000 -0.056010 
#    y 0.000000 2.223100 0.000000 
#    z -0.056010 0.000000 2.094640 
# 
# From -- ./inp_files/295808.got.cif
#   From: 2010.05.17/outbox.cif.g08.bks.cpg/sg15_148_cif.got.tgz:295808.got - 2010.06.03 18:47:42.
