data_PCOD9254148
_publ_section_title
;
Structure prediction by ZEFSAII (Michael W. Deem and Ramdas Pophale) SiO2 
 PCOD9254148
Probable space group: C 2/C
;
_chemical_formula_sum "Si O2"
_cell_formula_units_Z 40
_cell_length_a 8.027437
_cell_length_b 24.268435
_cell_length_c 20.526703
_cell_angle_alpha 90.000000
_cell_angle_beta 28.215722
_cell_angle_gamma 90.000000
_cell_volume 1890.638620
_symmetry_space_group_name_H-M "C 2/C"
_symmetry_group_IT_number 15
_symmetry_cell_setting 'monoclinic'
loop_
_space_group_symop_operation_xyz
x,y,z
-x,y,1/2-z
-x,-y,-z
x,-y,1/2+z
1/2+x,1/2+y,z
1/2-x,1/2+y,1/2-z
1/2-x,1/2-y,-z
1/2+x,1/2-y,1/2+z
loop_
_atom_site_type_symbol
_atom_site_label
_atom_site_fract_x
_atom_site_fract_y
_atom_site_fract_z
Si Si1 0.099734 0.683606 0.896627
Si Si2 0.125461 0.413121 0.306437
Si Si3 0.109114 0.527656 0.137529
Si Si4 0.436549 0.624735 0.960310
Si Si5 0.294196 0.734975 0.593241
O O1 0.500000 0.702713 0.750000
O O2 0.088450 0.618396 0.887013
O O3 0.886313 0.709107 0.909124
O O4 0.949495 0.707556 0.014990
O O5 0.445340 0.387894 0.153991
O O6 0.137407 0.478848 0.304771
O O7 0.778381 0.395973 0.384399
O O8 0.000000 0.537377 0.250000
O O9 0.500000 0.500000 0.000000
O O10 0.129578 0.584660 0.091014
O O11 0.420764 0.689572 0.981111
O O12 0.000000 0.739743 0.750000
#
# Coordination Sequence:
#
# PCOD9254148 Si02
#       5
#     8   8   8   8   8
#     4  10  21  34  57  80 110 156 186 221 285 349
#     4   9  15  31  48  74 108 141 173 217 281 328
#     4  10  16  26  51  81 105 132 179 237 279 314
#     4   9  15  29  52  76 105 138 175 229 277 311
#     4  10  19  37  57  81 114 146 189 240 278 323
#
# _framework density 21.156873000000001
#
# number of rings (size 3 to 8) (size 9 to 14) (size 15 to 20)
#    0.000    2.400    8.000    0.000    0.000    1.600 
#    0.000    0.000    0.000    1.200    0.000    0.000 
#    0.000    0.000    0.000    0.000    0.000    0.000 
#
# Total GULP energy -111480.419214 kJ/mol
# GULP energy per Si atom -5574.020961 kJ/mol
# Density = 2.110872 g / cm^3
# Si number density = 21.156873 Si / 1000 Ang^3
#
#
#
# Elastic Constant Matrix: (Units=GPa)
#
#
# Indices 1 2 3 4 5 6 
#
# 1 65.0932 25.4675 6.3538 -0.0017 11.8304 0.0010
# 2 25.4675 150.0781 60.4544 0.0001 40.7762 -0.0001
# 3 6.3538 60.4544 72.8658 -0.0042 36.2024 0.0042
# 4 -0.0017 0.0001 -0.0042 34.3058 0.0061 9.5321
# 5 11.8304 40.7762 36.2024 0.0061 25.4177 -0.0021
# 6 0.0010 -0.0001 0.0042 9.5321 -0.0021 3.6480
#
#
#
# Elastic Compliance Matrix: (Units=1/GPa)
#
#
# Indices 1 2 3 4 5 6 
#
# 1 0.018615 -0.001689 0.009361 0.000048 -0.019286 -0.000152
# 2 -0.001689 0.012002 -0.002172 0.000014 -0.015375 -0.000042
# 3 0.009361 -0.002172 0.051797 0.000180 -0.074648 -0.000575
# 4 0.000048 0.000014 0.000180 0.106402 -0.000349 -0.278028
# 5 -0.019286 -0.015375 -0.074648 -0.000349 0.179306 0.001107
# 6 -0.000152 -0.000042 -0.000575 -0.278028 0.001107 1.000615
#
#
# Mechanical properties :
#
#
# Convention : Reuss Voigt Hill
#
# Bulk Modulus (GPa) = 10.70511 52.50980 31.60745
# Shear Modulus (GPa) = 3.60004 25.72504 14.66254
#
# Velocity S-wave (km/s) = 1.30587 3.49079 2.63542
# Velocity P-wave (km/s) = 2.71009 6.41253 4.92266
#
# Compressibility (1/GPa) = 0.09341337
#
# Stress axis : x y z
#
# Youngs Moduli (GPa) = 53.71992 83.31964 19.30609
#
# Poissons Ratio (x) = 0.14076 -0.18072
# Poissons Ratio (y) = 0.09076 0.04192
# Poissons Ratio (z) = -0.50285 0.18093
#
# Static dielectric constant tensor:
#      x y z
#    x 1.869330 0.000000 -0.018900 
#    y 0.000000 1.861630 0.000000 
#    z -0.018900 0.000000 1.752050 
# 
# From -- ./inp_files/81002.got.cif
#   From: 2010.05.17/outbox.cif.g08.bks.cpg/sg15_41_cif.got.tgz:81002.got - 2010.06.03 18:47:42.
