data_PCOD9254371
_publ_section_title
;
Structure prediction by ZEFSAII (Michael W. Deem and Ramdas Pophale) SiO2 
 PCOD9254371
Probable space group: C 2/C
;
_chemical_formula_sum "Si O2"
_cell_formula_units_Z 64
_cell_length_a 21.870017
_cell_length_b 6.989873
_cell_length_c 22.374611
_cell_angle_alpha 90.000000
_cell_angle_beta 134.598345
_cell_angle_gamma 90.000000
_cell_volume 2435.466443
_symmetry_space_group_name_H-M "C 2/C"
_symmetry_group_IT_number 15
_symmetry_cell_setting 'monoclinic'
loop_
_space_group_symop_operation_xyz
x,y,z
-x,y,1/2-z
-x,-y,-z
x,-y,1/2+z
1/2+x,1/2+y,z
1/2-x,1/2+y,1/2-z
1/2-x,1/2-y,-z
1/2+x,1/2-y,1/2+z
loop_
_atom_site_type_symbol
_atom_site_label
_atom_site_fract_x
_atom_site_fract_y
_atom_site_fract_z
Si Si1 0.429755 0.016454 0.857751
Si Si2 0.051077 0.974065 0.447331
Si Si3 0.590806 0.144395 0.792156
Si Si4 0.635578 0.415045 0.181902
Si Si5 0.728538 0.369952 0.365082
Si Si6 0.593674 0.896767 0.035822
Si Si7 0.582584 0.732855 0.845375
Si Si8 0.223668 0.917853 0.113301
O O1 0.427966 0.093013 0.790202
O O2 0.402212 0.796462 0.833117
O O3 0.372077 0.091168 0.872641
O O4 0.519657 0.025124 0.955615
O O5 0.059064 0.817865 0.505356
O O6 0.067610 0.842105 0.400912
O O7 0.134941 0.103758 0.514985
O O8 0.952423 0.041750 0.379069
O O9 0.500000 0.246334 0.750000
O O10 0.592988 0.959041 0.838304
O O11 0.693175 0.195947 0.855512
O O12 0.688401 0.457479 0.277632
O O13 0.692566 0.397501 0.161100
O O14 0.822047 0.444508 0.443752
O O15 0.662710 0.378370 0.373535
O O16 0.745923 0.140783 0.368041
O O17 0.500000 0.681722 0.750000
#
# Coordination Sequence:
#
# PCOD9254371 Si02
#       8
#     8   8   8   8   8   8   8   8
#     4  10  18  33  50  74 102 132 165 211 258 293
#     4  10  20  33  51  78 108 134 163 212 259 310
#     4  10  18  31  50  74 103 130 168 216 262 298
#     4  11  18  33  50  70 112 134 164 208 258 306
#     4  10  19  30  49  77 100 130 167 211 255 306
#     4   9  19  30  48  75 104 127 172 205 250 305
#     4  10  16  30  49  74 102 128 161 205 268 302
#     4  10  21  31  47  79 103 134 173 201 258 320
#
# _framework density 26.278335999999999
#
# number of rings (size 3 to 8) (size 9 to 14) (size 15 to 20)
#    0.000    2.000    3.750    3.375    0.000    5.500 
#    0.000    0.000    0.000    0.000    0.000   37.625 
#    0.000    1.000    0.000    0.000    0.000    0.000 
#
# Total GULP energy -178655.771203 kJ/mol
# GULP energy per Si atom -5582.992850 kJ/mol
# Density = 2.621852 g / cm^3
# Si number density = 26.278336 Si / 1000 Ang^3
#
#
#
# Elastic Constant Matrix: (Units=GPa)
#
#
# Indices 1 2 3 4 5 6 
#
# 1 122.3360 19.9773 6.8455 0.0000 17.4460 0.0000
# 2 19.9773 61.9981 15.6869 0.0000 1.1481 0.0000
# 3 6.8455 15.6869 82.4690 0.0000 10.6819 0.0000
# 4 0.0000 0.0000 0.0000 23.3528 0.0000 -17.3379
# 5 17.4460 1.1481 10.6819 0.0000 58.1328 0.0000
# 6 0.0000 0.0000 0.0000 -17.3379 0.0000 59.3042
#
#
#
# Elastic Compliance Matrix: (Units=1/GPa)
#
#
# Indices 1 2 3 4 5 6 
#
# 1 0.009020 -0.002895 0.000149 0.000000 -0.002677 0.000000
# 2 -0.002895 0.017878 -0.003306 0.000000 0.001123 0.000000
# 3 0.000149 -0.003306 0.013050 0.000000 -0.002377 0.000000
# 4 0.000000 0.000000 0.000000 0.054693 0.000000 0.015990
# 5 -0.002677 0.001123 -0.002377 0.000000 0.018420 0.000000
# 6 0.000000 0.000000 0.000000 0.015990 0.000000 0.021537
#
#
# Mechanical properties :
#
#
# Convention : Reuss Voigt Hill
#
# Bulk Modulus (GPa) = 35.91340 39.09138 37.50239
# Shear Modulus (GPa) = 32.05466 43.11086 37.58276
#
# Velocity S-wave (km/s) = 3.49637 4.05476 3.78588
# Velocity P-wave (km/s) = 5.47683 6.06874 5.78037
#
# Compressibility (1/GPa) = 0.02784476
#
# Stress axis : x y z
#
# Youngs Moduli (GPa) = 110.86025 55.93494 76.62729
#
# Poissons Ratio (x) = 0.16191 -0.01139
# Poissons Ratio (y) = 0.32090 0.25332
# Poissons Ratio (z) = -0.01648 0.18491
#
# Static dielectric constant tensor:
#      x y z
#    x 2.169700 0.000000 0.048470 
#    y 0.000000 2.156550 0.000000 
#    z 0.048470 0.000000 2.030280 
# 
# From -- ./inp_files/252396.got.cif
#   From: 2010.05.17/outbox.cif.g08.bks.cpg/sg15_127_cif.got.tgz:252396.got - 2010.06.03 18:47:42.
