data_PCOD9254821
_publ_section_title
;
Structure prediction by ZEFSAII (Michael W. Deem and Ramdas Pophale) SiO2 
 PCOD9254821
Probable space group: C 2/C
;
_chemical_formula_sum "Si O2"
_cell_formula_units_Z 48
_cell_length_a 15.606759
_cell_length_b 22.540460
_cell_length_c 5.897674
_cell_angle_alpha 90.000000
_cell_angle_beta 115.669671
_cell_angle_gamma 90.000000
_cell_volume 1869.944599
_symmetry_space_group_name_H-M "C 2/C"
_symmetry_group_IT_number 15
_symmetry_cell_setting 'monoclinic'
loop_
_space_group_symop_operation_xyz
x,y,z
-x,y,1/2-z
-x,-y,-z
x,-y,1/2+z
1/2+x,1/2+y,z
1/2-x,1/2+y,1/2-z
1/2-x,1/2-y,-z
1/2+x,1/2-y,1/2+z
loop_
_atom_site_type_symbol
_atom_site_label
_atom_site_fract_x
_atom_site_fract_y
_atom_site_fract_z
Si Si1 0.710040 0.339832 0.782366
Si Si2 0.596624 0.428220 0.943093
Si Si3 0.275874 0.974247 0.338497
Si Si4 0.032862 0.429787 0.034726
Si Si5 0.113055 0.727054 0.905718
Si Si6 0.400997 0.682827 0.751148
O O1 0.665964 0.400164 0.832573
O O2 0.650565 0.279754 0.783200
O O3 0.686696 0.342638 0.491540
O O4 0.814367 0.327506 0.998708
O O5 0.500000 0.457740 0.750000
O O6 0.663992 0.463775 0.187357
O O7 0.567270 0.368226 0.038750
O O8 0.353987 0.925281 0.365553
O O9 0.294308 0.986418 0.627662
O O10 0.000000 0.409258 0.250000
O O11 0.000000 0.404647 0.750000
O O12 0.000000 0.500000 0.000000
O O13 0.000000 0.718333 0.750000
O O14 0.131611 0.757833 0.167832
O O15 0.500000 0.697191 0.750000
#
# Coordination Sequence:
#
# PCOD9254821 Si02
#       6
#     8   8   8   8   8   8
#     4  10  20  37  58  85 121 161 204 244 308 374
#     4  11  25  41  60  84 122 163 205 262 319 380
#     4  12  25  41  67  98 123 163 219 268 321 380
#     4  10  16  35  64  90 116 148 193 255 300 378
#     4  10  19  33  59  91 121 155 202 252 295 368
#     4  11  18  36  63  87 116 167 208 246 308 376
#
# _framework density 25.66921
#
# number of rings (size 3 to 8) (size 9 to 14) (size 15 to 20)
#    0.000    1.333    6.667    1.500    2.333    0.667 
#    0.000    0.833    0.000    0.000    0.000    0.000 
#    0.000    0.000    0.000    0.000    0.000    0.000 
#
# Total GULP energy -133768.455908 kJ/mol
# GULP energy per Si atom -5573.685663 kJ/mol
# Density = 2.561079 g / cm^3
# Si number density = 25.669210 Si / 1000 Ang^3
#
#
#
# Elastic Constant Matrix: (Units=GPa)
#
#
# Indices 1 2 3 4 5 6 
#
# 1 110.1397 8.2430 36.1038 0.0000 18.8793 0.0000
# 2 8.2430 33.7123 6.4422 0.0000 -4.8094 0.0000
# 3 36.1038 6.4422 117.9779 0.0000 13.3657 0.0000
# 4 0.0000 0.0000 0.0000 18.0917 0.0000 11.7367
# 5 18.8793 -4.8094 13.3657 0.0000 66.2856 0.0000
# 6 0.0000 0.0000 0.0000 11.7367 0.0000 14.7210
#
#
#
# Elastic Compliance Matrix: (Units=1/GPa)
#
#
# Indices 1 2 3 4 5 6 
#
# 1 0.010640 -0.002438 -0.002824 0.000000 -0.002638 0.000000
# 2 -0.002438 0.030966 -0.001308 0.000000 0.003205 0.000000
# 3 -0.002824 -0.001308 0.009550 0.000000 -0.001216 0.000000
# 4 0.000000 0.000000 0.000000 0.114491 0.000000 -0.091281
# 5 -0.002638 0.003205 -0.001216 0.000000 0.016315 0.000000
# 6 0.000000 0.000000 0.000000 -0.091281 0.000000 0.140707
#
#
# Mechanical properties :
#
#
# Convention : Reuss Voigt Hill
#
# Bulk Modulus (GPa) = 26.30522 40.37866 33.34194
# Shear Modulus (GPa) = 14.34800 33.88906 24.11853
#
# Velocity S-wave (km/s) = 2.36679 3.63743 3.06860
# Velocity P-wave (km/s) = 4.21177 5.77977 5.05691
#
# Compressibility (1/GPa) = 0.03801526
#
# Stress axis : x y z
#
# Youngs Moduli (GPa) = 93.98734 32.29338 104.71682
#
# Poissons Ratio (x) = 0.07874 0.29572
# Poissons Ratio (y) = 0.22916 0.13696
# Poissons Ratio (z) = 0.26542 0.04224
#
# Static dielectric constant tensor:
#      x y z
#    x 2.009430 0.000000 -0.086340 
#    y 0.000000 2.007890 0.000000 
#    z -0.086340 0.000000 2.098270 
# 
# From -- ./inp_files/8843.got.cif
#   From: 2010.05.17/outbox.cif.g08.bks.cpg/sg15_5_cif.got.tgz:8843.got - 2010.06.03 18:47:42.
