data_PCOD9254101
_publ_section_title
;
Structure prediction by ZEFSAII (Michael W. Deem and Ramdas Pophale) SiO2 
 PCOD9254101
Probable space group: C 2/C
;
_chemical_formula_sum "Si O2"
_cell_formula_units_Z 48
_cell_length_a 11.825589
_cell_length_b 15.747194
_cell_length_c 21.737376
_cell_angle_alpha 90.000000
_cell_angle_beta 150.238343
_cell_angle_gamma 90.000000
_cell_volume 2009.365030
_symmetry_space_group_name_H-M "C 2/C"
_symmetry_group_IT_number 15
_symmetry_cell_setting 'monoclinic'
loop_
_space_group_symop_operation_xyz
x,y,z
-x,y,1/2-z
-x,-y,-z
x,-y,1/2+z
1/2+x,1/2+y,z
1/2-x,1/2+y,1/2-z
1/2-x,1/2-y,-z
1/2+x,1/2-y,1/2+z
loop_
_atom_site_type_symbol
_atom_site_label
_atom_site_fract_x
_atom_site_fract_y
_atom_site_fract_z
Si Si1 0.962201 0.073196 0.122064
Si Si2 0.732474 0.179020 0.699019
Si Si3 0.210294 0.559891 0.573447
Si Si4 0.715873 0.771107 0.573171
Si Si5 0.429465 0.089497 0.653276
Si Si6 0.406807 0.832990 0.848467
O O1 0.852562 0.154879 0.103990
O O2 0.222263 0.099733 0.234641
O O3 0.916472 0.997640 0.147757
O O4 0.790099 0.051946 0.985139
O O5 0.767752 0.125275 0.654311
O O6 0.516080 0.235409 0.575099
O O7 0.638577 0.112699 0.706196
O O8 0.912620 0.248124 0.809212
O O9 0.000000 0.500000 0.500000
O O10 0.123431 0.613279 0.472939
O O11 0.836923 0.682239 0.627738
O O12 0.679642 0.798826 0.625994
O O13 0.500000 0.045057 0.750000
#
# Coordination Sequence:
#
# PCOD9254101 Si02
#       6
#     8   8   8   8   8   8
#     4  11  19  32  47  78 120 147 178 232 290 330
#     4  10  18  29  45  76 117 146 182 225 284 342
#     4  11  22  32  50  87 120 144 192 238 285 336
#     4  10  16  25  46  79 107 142 178 216 278 348
#     4  11  16  24  47  78 108 144 179 217 288 353
#     4  11  19  31  54  78 119 153 179 227 287 344
#
# _framework density 23.888142999999999
#
# number of rings (size 3 to 8) (size 9 to 14) (size 15 to 20)
#    0.000    1.333   10.000    1.500    0.000    0.000 
#    0.000    0.000    0.000    1.000    0.000    4.667 
#    0.000    0.000    0.000    0.000    0.000    0.000 
#
# Total GULP energy -134124.053832 kJ/mol
# GULP energy per Si atom -5588.502243 kJ/mol
# Density = 2.383377 g / cm^3
# Si number density = 23.888143 Si / 1000 Ang^3
#
#
#
# Elastic Constant Matrix: (Units=GPa)
#
#
# Indices 1 2 3 4 5 6 
#
# 1 31.6518 33.8058 34.8212 -0.0007 -11.3644 -0.0002
# 2 33.8058 81.3821 49.6852 0.0030 -9.1532 -0.0002
# 3 34.8212 49.6852 119.6780 0.0057 -40.3388 0.0001
# 4 -0.0007 0.0030 0.0057 34.9861 0.0006 -7.6155
# 5 -11.3644 -9.1532 -40.3388 0.0006 37.0063 -0.0003
# 6 -0.0002 -0.0002 0.0001 -7.6155 -0.0003 36.4084
#
#
#
# Elastic Compliance Matrix: (Units=1/GPa)
#
#
# Indices 1 2 3 4 5 6 
#
# 1 0.065914 -0.021743 -0.008127 0.000005 0.006004 0.000001
# 2 -0.021743 0.024327 -0.006317 -0.000001 -0.007546 0.000000
# 3 -0.008127 -0.006317 0.018930 -0.000003 0.016577 -0.000001
# 4 0.000005 -0.000001 -0.000003 0.029946 -0.000003 0.006264
# 5 0.006004 -0.007546 0.016577 -0.000003 0.045069 0.000000
# 6 0.000001 0.000000 -0.000001 0.006264 0.000000 0.028776
#
#
# Mechanical properties :
#
#
# Convention : Reuss Voigt Hill
#
# Bulk Modulus (GPa) = 27.17611 52.14847 39.66229
# Shear Modulus (GPa) = 16.80088 29.30680 23.05384
#
# Velocity S-wave (km/s) = 2.65489 3.50642 3.10994
# Velocity P-wave (km/s) = 4.56059 6.18635 5.43461
#
# Compressibility (1/GPa) = 0.03679702
#
# Stress axis : x y z
#
# Youngs Moduli (GPa) = 15.17140 41.10578 52.82528
#
# Poissons Ratio (x) = 0.89376 0.42934
# Poissons Ratio (y) = 0.32987 0.33369
# Poissons Ratio (z) = 0.12330 0.25966
#
# Static dielectric constant tensor:
#      x y z
#    x 1.989920 0.000000 0.004200 
#    y 0.000000 1.907600 0.000000 
#    z 0.004200 0.000000 2.043840 
# 
# From -- ./inp_files/274391.got.cif
#   From: 2010.05.17/outbox.cif.g08.bks.cpg/sg15_138_cif.got.tgz:274391.got - 2010.06.03 18:47:42.
