data_PCOD9254394
_publ_section_title
;
Structure prediction by ZEFSAII (Michael W. Deem and Ramdas Pophale) SiO2 
 PCOD9254394
Probable space group: C 2/C
;
_chemical_formula_sum "Si O2"
_cell_formula_units_Z 48
_cell_length_a 5.277051
_cell_length_b 30.214552
_cell_length_c 15.232939
_cell_angle_alpha 90.000000
_cell_angle_beta 104.988557
_cell_angle_gamma 90.000000
_cell_volume 2346.162902
_symmetry_space_group_name_H-M "C 2/C"
_symmetry_group_IT_number 15
_symmetry_cell_setting 'monoclinic'
loop_
_space_group_symop_operation_xyz
x,y,z
-x,y,1/2-z
-x,-y,-z
x,-y,1/2+z
1/2+x,1/2+y,z
1/2-x,1/2+y,1/2-z
1/2-x,1/2-y,-z
1/2+x,1/2-y,1/2+z
loop_
_atom_site_type_symbol
_atom_site_label
_atom_site_fract_x
_atom_site_fract_y
_atom_site_fract_z
Si Si1 0.241337 0.876293 0.877464
Si Si2 0.548006 0.246380 0.563080
Si Si3 0.702377 0.970225 0.687812
Si Si4 0.295914 0.932006 0.312184
Si Si5 0.742373 0.835986 0.872283
Si Si6 0.091284 0.350587 0.053395
O O1 0.328051 0.926709 0.873452
O O2 0.431642 0.845120 0.835335
O O3 0.932707 0.869770 0.839887
O O4 0.312930 0.860430 0.982105
O O5 0.750000 0.250000 0.500000
O O6 0.639275 0.287131 0.631993
O O7 0.582787 0.196515 0.601389
O O8 0.250000 0.250000 0.500000
O O9 0.500000 0.966529 0.750000
O O10 0.000000 0.969322 0.750000
O O11 0.660171 0.018925 0.643205
O O12 0.500000 0.927645 0.250000
O O13 0.331163 0.891609 0.381134
O O14 0.000000 0.931030 0.250000
O O15 0.763301 0.845437 0.979907
#
# Coordination Sequence:
#
# PCOD9254394 Si02
#       6
#     8   8   8   8   8   8
#     4  10  19  32  56  80 103 134 177 223 257 307
#     4  10  16  30  51  81 105 136 165 211 260 315
#     4  10  21  39  55  74 105 145 178 213 272 328
#     4  10  23  38  55  75 106 145 179 215 269 322
#     4   9  18  31  51  87 104 130 173 217 261 307
#     4   9  21  32  58  80 107 136 180 222 259 307
#
# _framework density 20.458936999999999
#
# number of rings (size 3 to 8) (size 9 to 14) (size 15 to 20)
#    1.000    1.333    1.667    1.000    2.333    0.667 
#    0.000    0.833    0.000    6.000    0.000    0.000 
#    0.000    0.000    0.000    0.000    0.000    0.000 
#
# Total GULP energy -133617.774459 kJ/mol
# GULP energy per Si atom -5567.407269 kJ/mol
# Density = 2.041237 g / cm^3
# Si number density = 20.458937 Si / 1000 Ang^3
#
#
#
# Elastic Constant Matrix: (Units=GPa)
#
#
# Indices 1 2 3 4 5 6 
#
# 1 144.0435 25.1910 11.2592 0.0000 15.3031 0.0000
# 2 25.1910 171.6310 22.0834 0.0000 -4.2169 0.0000
# 3 11.2592 22.0834 21.1325 0.0000 2.8587 0.0000
# 4 0.0000 0.0000 0.0000 17.2697 0.0000 7.3761
# 5 15.3031 -4.2169 2.8587 0.0000 21.6677 0.0000
# 6 0.0000 0.0000 0.0000 7.3761 0.0000 9.4903
#
#
#
# Elastic Compliance Matrix: (Units=1/GPa)
#
#
# Indices 1 2 3 4 5 6 
#
# 1 0.007881 -0.000976 -0.002444 0.000000 -0.005434 0.000000
# 2 -0.000976 0.006965 -0.007163 0.000000 0.002990 0.000000
# 3 -0.002444 -0.007163 0.057082 0.000000 -0.007199 0.000000
# 4 0.000000 0.000000 0.000000 0.086679 0.000000 -0.067369
# 5 -0.005434 0.002990 -0.007199 0.000000 0.051521 0.000000
# 6 0.000000 0.000000 0.000000 -0.067369 0.000000 0.157732
#
#
# Mechanical properties :
#
#
# Convention : Reuss Voigt Hill
#
# Bulk Modulus (GPa) = 19.69976 50.43045 35.06510
# Shear Modulus (GPa) = 12.31693 28.23711 20.27702
#
# Velocity S-wave (km/s) = 2.45630 3.71911 3.15160
# Velocity P-wave (km/s) = 4.20646 6.56852 5.51543
#
# Compressibility (1/GPa) = 0.05076205
#
# Stress axis : x y z
#
# Youngs Moduli (GPa) = 126.88204 143.58059 17.51879
#
# Poissons Ratio (x) = 0.14010 0.04282
# Poissons Ratio (y) = 0.12381 0.12548
# Poissons Ratio (z) = 0.31015 1.02842
#
# Static dielectric constant tensor:
#      x y z
#    x 1.732170 0.000000 0.053300 
#    y 0.000000 1.768840 0.000000 
#    z 0.053300 0.000000 1.782910 
# 
# From -- ./inp_files/227754.got.cif
#   From: 2010.05.17/outbox.cif.g08.bks.cpg/sg15_114_cif.got.tgz:227754.got - 2010.06.03 18:47:42.
