data_PCOD9254020
_publ_section_title
;
Structure prediction by ZEFSAII (Michael W. Deem and Ramdas Pophale) SiO2 
 PCOD9254020
Probable space group: C 2/C
;
_chemical_formula_sum "Si O2"
_cell_formula_units_Z 56
_cell_length_a 17.935758
_cell_length_b 11.773157
_cell_length_c 18.012653
_cell_angle_alpha 90.000000
_cell_angle_beta 41.420015
_cell_angle_gamma 90.000000
_cell_volume 2516.336346
_symmetry_space_group_name_H-M "C 2/C"
_symmetry_group_IT_number 15
_symmetry_cell_setting 'monoclinic'
loop_
_space_group_symop_operation_xyz
x,y,z
-x,y,1/2-z
-x,-y,-z
x,-y,1/2+z
1/2+x,1/2+y,z
1/2-x,1/2+y,1/2-z
1/2-x,1/2-y,-z
1/2+x,1/2-y,1/2+z
loop_
_atom_site_type_symbol
_atom_site_label
_atom_site_fract_x
_atom_site_fract_y
_atom_site_fract_z
Si Si1 0.394093 0.234464 0.220966
Si Si2 0.855772 0.489631 0.294665
Si Si3 0.566715 0.661853 0.433119
Si Si4 0.162113 0.061195 0.823782
Si Si5 0.880579 0.471874 0.438227
Si Si6 0.054546 0.377500 0.975803
Si Si7 0.644326 0.763924 0.525624
O O1 0.359496 0.127723 0.296392
O O2 0.328062 0.351355 0.252503
O O3 0.401310 0.172705 0.134485
O O4 0.520970 0.267954 0.149722
O O5 0.769500 0.445196 0.297413
O O6 0.823892 0.450200 0.401425
O O7 0.984978 0.459963 0.178431
O O8 0.447262 0.608134 0.549192
O O9 0.629024 0.570704 0.335325
O O10 0.534544 0.785217 0.427713
O O11 0.639231 0.692564 0.452666
O O12 0.854080 0.393590 0.528080
O O13 0.862674 0.600520 0.478962
O O14 0.000000 0.500000 0.000000
O O15 0.750000 0.750000 0.500000
#
# Coordination Sequence:
#
# PCOD9254020 Si02
#       7
#     8   8   8   8   8   8   8
#     4   9  20  34  51  77 108 138 182 225 261 324
#     4  10  19  32  49  75 107 139 171 223 274 309
#     4   9  18  30  52  77 100 140 178 216 259 322
#     4   9  18  34  50  73 105 136 182 216 263 322
#     4  10  19  30  49  79 107 131 178 222 265 317
#     4  10  15  33  52  73 108 135 173 219 256 306
#     4   9  15  27  47  73 104 130 164 218 269 299
#
# _framework density 22.254577000000001
#
# number of rings (size 3 to 8) (size 9 to 14) (size 15 to 20)
#    0.000    2.857    4.286    0.857    0.000    1.143 
#    0.000    2.857    0.000    0.000    0.000   20.000 
#    0.000    0.000    0.000    0.000    0.000    0.000 
#
# Total GULP energy -156026.178306 kJ/mol
# GULP energy per Si atom -5572.363511 kJ/mol
# Density = 2.220392 g / cm^3
# Si number density = 22.254577 Si / 1000 Ang^3
#
#
#
# Elastic Constant Matrix: (Units=GPa)
#
#
# Indices 1 2 3 4 5 6 
#
# 1 123.7852 40.1701 17.0705 0.0000 -14.9025 0.0000
# 2 40.1701 103.2746 7.9268 0.0000 5.2371 0.0000
# 3 17.0705 7.9268 42.9441 0.0000 0.5095 0.0000
# 4 0.0000 0.0000 0.0000 18.9721 0.0000 3.7410
# 5 -14.9025 5.2371 0.5095 0.0000 37.5649 0.0000
# 6 0.0000 0.0000 0.0000 3.7410 0.0000 37.9339
#
#
#
# Elastic Compliance Matrix: (Units=1/GPa)
#
#
# Indices 1 2 3 4 5 6 
#
# 1 0.010437 -0.004035 -0.003460 0.000000 0.004750 0.000000
# 2 -0.004035 0.011450 -0.000472 0.000000 -0.003191 0.000000
# 3 -0.003460 -0.000472 0.024768 0.000000 -0.001643 0.000000
# 4 0.000000 0.000000 0.000000 0.053754 0.000000 -0.005301
# 5 0.004750 -0.003191 -0.001643 0.000000 0.028972 0.000000
# 6 0.000000 0.000000 0.000000 -0.005301 0.000000 0.026884
#
#
# Mechanical properties :
#
#
# Convention : Reuss Voigt Hill
#
# Bulk Modulus (GPa) = 32.55058 44.48210 38.51634
# Shear Modulus (GPa) = 27.40618 32.54995 29.97807
#
# Velocity S-wave (km/s) = 3.51306 3.82857 3.67420
# Velocity P-wave (km/s) = 5.57796 6.29088 5.94512
#
# Compressibility (1/GPa) = 0.03072142
#
# Stress axis : x y z
#
# Youngs Moduli (GPa) = 95.81373 87.33353 40.37446
#
# Poissons Ratio (x) = 0.35238 0.13971
# Poissons Ratio (y) = 0.38660 0.01905
# Poissons Ratio (z) = 0.33154 0.04121
#
# Static dielectric constant tensor:
#      x y z
#    x 1.890470 0.000000 0.027870 
#    y 0.000000 1.863340 0.000000 
#    z 0.027870 0.000000 1.984460 
# 
# From -- ./inp_files/276904.got.cif
#   From: 2010.05.17/outbox.cif.g08.bks.cpg/sg15_139_cif.got.tgz:276904.got - 2010.06.03 18:47:42.
