data_PCOD9254047
_publ_section_title
;
Structure prediction by ZEFSAII (Michael W. Deem and Ramdas Pophale) SiO2 
 PCOD9254047
Probable space group: C 2/C
;
_chemical_formula_sum "Si O2"
_cell_formula_units_Z 44
_cell_length_a 11.119935
_cell_length_b 25.979785
_cell_length_c 6.841081
_cell_angle_alpha 90.000000
_cell_angle_beta 118.614779
_cell_angle_gamma 90.000000
_cell_volume 1734.952276
_symmetry_space_group_name_H-M "C 2/C"
_symmetry_group_IT_number 15
_symmetry_cell_setting 'monoclinic'
loop_
_space_group_symop_operation_xyz
x,y,z
-x,y,1/2-z
-x,-y,-z
x,-y,1/2+z
1/2+x,1/2+y,z
1/2-x,1/2+y,1/2-z
1/2-x,1/2-y,-z
1/2+x,1/2-y,1/2+z
loop_
_atom_site_type_symbol
_atom_site_label
_atom_site_fract_x
_atom_site_fract_y
_atom_site_fract_z
Si Si1 0.500000 0.728988 0.750000
Si Si2 0.690613 0.154526 0.209046
Si Si3 0.179710 0.953565 0.228059
Si Si4 0.768184 0.726393 0.779585
Si Si5 0.887763 0.369706 0.392255
Si Si6 0.888238 0.932748 0.876645
O O1 0.619417 0.701773 0.722925
O O2 0.398870 0.759002 0.522422
O O3 0.720476 0.215294 0.193158
O O4 0.662646 0.145779 0.424094
O O5 0.820955 0.120094 0.256250
O O6 0.550252 0.130884 0.018548
O O7 0.316013 0.922797 0.281496
O O8 0.138546 0.934538 0.410740
O O9 0.188182 0.015103 0.249107
O O10 0.051809 0.940021 0.987119
O O11 0.833325 0.678185 0.721028
#
# Coordination Sequence:
#
# PCOD9254047 Si02
#       6
#     4   8   8   8   8   8
#     4  10  16  22  36  54  96 118 150 174 232 272
#     4  10  17  26  40  62  91 120 149 183 225 273
#     4   9  19  32  48  67  90 120 155 188 224 266
#     4  11  16  24  36  62  89 120 147 184 227 280
#     4  10  17  26  40  62  91 120 149 183 225 273
#     4   9  19  32  48  67  90 120 155 188 224 266
#
# _framework density 25.360928000000001
#
# number of rings (size 3 to 8) (size 9 to 14) (size 15 to 20)
#    0.000    2.182    5.455    0.000    2.545    0.727 
#    0.000    0.000    0.000    0.000    0.000    1.273 
#    0.000    0.000    0.000    0.000    0.000    0.000 
#
# Total GULP energy -122602.735996 kJ/mol
# GULP energy per Si atom -5572.851636 kJ/mol
# Density = 2.530320 g / cm^3
# Si number density = 25.360928 Si / 1000 Ang^3
#
#
#
# Elastic Constant Matrix: (Units=GPa)
#
#
# Indices 1 2 3 4 5 6 
#
# 1 70.1260 35.9366 44.0538 0.0000 23.0796 0.0000
# 2 35.9366 152.9118 49.8788 0.0000 33.4203 0.0000
# 3 44.0538 49.8788 121.3303 0.0000 40.4019 0.0000
# 4 0.0000 0.0000 0.0000 12.5012 0.0000 5.7925
# 5 23.0796 33.4203 40.4019 0.0000 43.4186 0.0000
# 6 0.0000 0.0000 0.0000 5.7925 0.0000 22.9425
#
#
#
# Elastic Compliance Matrix: (Units=1/GPa)
#
#
# Indices 1 2 3 4 5 6 
#
# 1 0.019852 -0.002116 -0.004878 0.000000 -0.004385 0.000000
# 2 -0.002116 0.008357 -0.001304 0.000000 -0.004095 0.000000
# 3 -0.004878 -0.001304 0.013550 0.000000 -0.009012 0.000000
# 4 0.000000 0.000000 0.000000 0.090590 0.000000 -0.022872
# 5 -0.004385 -0.004095 -0.009012 0.000000 0.036900 0.000000
# 6 0.000000 0.000000 0.000000 -0.022872 0.000000 0.049362
#
#
# Mechanical properties :
#
#
# Convention : Reuss Voigt Hill
#
# Bulk Modulus (GPa) = 39.74042 67.12294 53.43168
# Shear Modulus (GPa) = 20.52587 30.07239 25.29913
#
# Velocity S-wave (km/s) = 2.84799 3.44725 3.16185
# Velocity P-wave (km/s) = 5.14963 6.50916 5.86890
#
# Compressibility (1/GPa) = 0.02516330
#
# Stress axis : x y z
#
# Youngs Moduli (GPa) = 50.37294 119.65642 73.80012
#
# Poissons Ratio (x) = 0.25319 0.36001
# Poissons Ratio (y) = 0.10659 0.09623
# Poissons Ratio (z) = 0.24573 0.15602
#
# Static dielectric constant tensor:
#      x y z
#    x 2.140220 0.000000 -0.206000 
#    y 0.000000 1.953480 0.000000 
#    z -0.206000 0.000000 2.094130 
# 
# From -- ./inp_files/100542.got.cif
#   From: 2010.05.17/outbox.cif.g08.bks.cpg/sg15_51_cif.got.tgz:100542.got - 2010.06.03 18:47:42.
