data_PCOD9254735
_publ_section_title
;
Structure prediction by ZEFSAII (Michael W. Deem and Ramdas Pophale) SiO2 
 PCOD9254735
Probable space group: C 2/C
;
_chemical_formula_sum "Si O2"
_cell_formula_units_Z 60
_cell_length_a 33.349444
_cell_length_b 9.868414
_cell_length_c 19.173646
_cell_angle_alpha 90.000000
_cell_angle_beta 152.759061
_cell_angle_gamma 90.000000
_cell_volume 2888.372406
_symmetry_space_group_name_H-M "C 2/C"
_symmetry_group_IT_number 15
_symmetry_cell_setting 'monoclinic'
loop_
_space_group_symop_operation_xyz
x,y,z
-x,y,1/2-z
-x,-y,-z
x,-y,1/2+z
1/2+x,1/2+y,z
1/2-x,1/2+y,1/2-z
1/2-x,1/2-y,-z
1/2+x,1/2-y,1/2+z
loop_
_atom_site_type_symbol
_atom_site_label
_atom_site_fract_x
_atom_site_fract_y
_atom_site_fract_z
Si Si1 0.836944 0.496941 0.186591
Si Si2 0.683320 0.105508 0.999812
Si Si3 0.583346 0.415585 0.498613
Si Si4 0.939930 0.711538 0.269318
Si Si5 0.500000 0.986140 0.750000
Si Si6 0.307880 0.657052 0.463940
Si Si7 0.787733 0.892048 0.252853
Si Si8 0.804563 0.682383 0.753738
O O1 0.901690 0.622832 0.272763
O O2 0.743455 0.553334 0.067310
O O3 0.863469 0.400912 0.291140
O O4 0.825164 0.417201 0.095963
O O5 0.725219 0.246664 0.088726
O O6 0.746204 0.991887 0.131464
O O7 0.586667 0.075975 0.879848
O O8 0.486212 0.355210 0.354220
O O9 0.619946 0.405997 0.476237
O O10 0.613829 0.558280 0.578368
O O11 0.639740 0.301941 0.626133
O O12 0.003341 0.613729 0.322196
O O13 0.858898 0.739557 0.092632
O O14 0.234757 0.741126 0.307379
O O15 0.734844 0.906140 0.244122
#
# Coordination Sequence:
#
# PCOD9254735 Si02
#       8
#     8   8   8   8   4   8   8   8
#     4  11  22  36  61  87 118 156 202 245 302 363
#     4  10  21  36  61  86 119 154 202 251 291 366
#     4  10  20  36  60  84 117 149 202 247 303 353
#     4  11  20  35  60  89 116 151 205 255 290 363
#     4  10  16  34  56  84 114 154 202 240 294 354
#     4  11  19  37  61  86 110 158 204 244 297 372
#     4  10  19  37  59  86 114 156 200 249 301 360
#     4  10  21  37  58  86 118 157 195 245 308 360
#
# _framework density 20.772943000000001
#
# number of rings (size 3 to 8) (size 9 to 14) (size 15 to 20)
#    0.000    1.600    5.333    1.600    0.000    0.533 
#    0.000    2.000    0.000    0.000    0.000    0.000 
#    0.000    0.000    0.000    0.000    0.000    0.000 
#
# Total GULP energy -167364.085566 kJ/mol
# GULP energy per Si atom -5578.802852 kJ/mol
# Density = 2.072566 g / cm^3
# Si number density = 20.772943 Si / 1000 Ang^3
#
#
#
# Elastic Constant Matrix: (Units=GPa)
#
#
# Indices 1 2 3 4 5 6 
#
# 1 69.9225 -2.2083 5.9056 0.0000 -3.8970 0.0000
# 2 -2.2083 28.8126 10.3368 0.0000 2.1971 0.0000
# 3 5.9056 10.3368 47.9392 0.0000 3.7774 0.0000
# 4 0.0000 0.0000 0.0000 22.5022 0.0000 8.3949
# 5 -3.8970 2.1971 3.7774 0.0000 17.9852 0.0000
# 6 0.0000 0.0000 0.0000 8.3949 0.0000 13.9082
#
#
#
# Elastic Compliance Matrix: (Units=1/GPa)
#
#
# Indices 1 2 3 4 5 6 
#
# 1 0.014761 0.001751 -0.002472 0.000000 0.003504 0.000000
# 2 0.001751 0.037978 -0.008205 0.000000 -0.002537 0.000000
# 3 -0.002472 -0.008205 0.023282 0.000000 -0.004423 0.000000
# 4 0.000000 0.000000 0.000000 0.057355 0.000000 -0.034619
# 5 0.003504 -0.002537 -0.004423 0.000000 0.057599 0.000000
# 6 0.000000 0.000000 0.000000 -0.034619 0.000000 0.092796
#
#
# Mechanical properties :
#
#
# Convention : Reuss Voigt Hill
#
# Bulk Modulus (GPa) = 17.19115 19.41585 18.30350
# Shear Modulus (GPa) = 15.57569 19.72182 17.64875
#
# Velocity S-wave (km/s) = 2.74123 3.08458 2.91796
# Velocity P-wave (km/s) = 4.27935 4.69608 4.49255
#
# Compressibility (1/GPa) = 0.05816947
#
# Stress axis : x y z
#
# Youngs Moduli (GPa) = 67.74657 26.33087 42.95177
#
# Poissons Ratio (x) = -0.04611 0.10618
# Poissons Ratio (y) = -0.11862 0.35241
# Poissons Ratio (z) = 0.16747 0.21604
#
# Static dielectric constant tensor:
#      x y z
#    x 1.740860 0.000000 -0.011480 
#    y 0.000000 1.810830 0.000000 
#    z -0.011480 0.000000 1.769110 
# 
# From -- ./inp_files/225023.got.cif
#   From: 2010.05.17/outbox.cif.g08.bks.cpg/sg15_113_cif.got.tgz:225023.got - 2010.06.03 18:47:42.
