data_PCOD9254341
_publ_section_title
;
Structure prediction by ZEFSAII (Michael W. Deem and Ramdas Pophale) SiO2 
 PCOD9254341
Probable space group: C 2/C
;
_chemical_formula_sum "Si O2"
_cell_formula_units_Z 64
_cell_length_a 23.855210
_cell_length_b 7.832626
_cell_length_c 24.915847
_cell_angle_alpha 90.000000
_cell_angle_beta 32.869719
_cell_angle_gamma 90.000000
_cell_volume 2526.682217
_symmetry_space_group_name_H-M "C 2/C"
_symmetry_group_IT_number 15
_symmetry_cell_setting 'monoclinic'
loop_
_space_group_symop_operation_xyz
x,y,z
-x,y,1/2-z
-x,-y,-z
x,-y,1/2+z
1/2+x,1/2+y,z
1/2-x,1/2+y,1/2-z
1/2-x,1/2-y,-z
1/2+x,1/2-y,1/2+z
loop_
_atom_site_type_symbol
_atom_site_label
_atom_site_fract_x
_atom_site_fract_y
_atom_site_fract_z
Si Si1 0.046038 0.789495 0.982927
Si Si2 0.504978 0.386190 0.903284
Si Si3 0.698585 0.708798 0.595929
Si Si4 0.558817 0.541164 0.154649
Si Si5 0.878816 0.530427 0.499832
Si Si6 0.043018 0.667153 0.295095
Si Si7 0.262073 0.371448 0.812877
Si Si8 0.274518 0.235456 0.270529
O O1 0.052807 0.610237 0.007616
O O2 0.163596 0.849255 0.873213
O O3 0.995699 0.774275 0.964537
O O4 0.001266 0.928010 0.061479
O O5 0.428501 0.375782 0.913729
O O6 0.614915 0.336989 0.786518
O O7 0.750000 0.750000 0.500000
O O8 0.650331 0.527635 0.618255
O O9 0.792646 0.679425 0.559999
O O10 0.614712 0.843880 0.684362
O O11 0.500000 0.639801 0.250000
O O12 0.503575 0.359365 0.179165
O O13 0.806403 0.376134 0.578397
O O14 0.953112 0.541324 0.387869
O O15 0.130710 0.666953 0.270842
O O16 0.261271 0.567309 0.794608
O O17 0.210343 0.273864 0.805346
#
# Coordination Sequence:
#
# PCOD9254341 Si02
#       8
#     8   8   8   8   8   8   8   8
#     4   9  17  26  48  65  92 135 171 216 250 318
#     4  10  16  30  44  67  95 137 173 209 265 305
#     4  11  19  29  47  70 101 143 175 211 267 339
#     4  10  18  27  43  65  99 138 163 213 266 318
#     4  11  19  32  46  71 103 140 171 217 280 321
#     4  11  19  31  45  68 106 138 170 216 266 328
#     4  10  19  32  50  71 104 143 175 220 258 329
#     4  10  19  32  49  72 103 142 177 212 269 314
#
# _framework density 25.329661000000002
#
# number of rings (size 3 to 8) (size 9 to 14) (size 15 to 20)
#    0.000    1.750    6.250    0.750    0.000    0.500 
#    0.000    0.000    0.000    0.000    0.000    0.000 
#    0.000   46.000    1.000   10.000    1.500    0.000 
#
# Total GULP energy -178166.164675 kJ/mol
# GULP energy per Si atom -5567.692646 kJ/mol
# Density = 2.527201 g / cm^3
# Si number density = 25.329661 Si / 1000 Ang^3
#
#
#
# Elastic Constant Matrix: (Units=GPa)
#
#
# Indices 1 2 3 4 5 6 
#
# 1 74.2171 9.7744 35.1646 0.0031 16.8151 -0.0003
# 2 9.7744 26.1729 25.1162 0.0011 5.1399 0.0000
# 3 35.1646 25.1162 199.6189 0.0036 27.2384 -0.0027
# 4 0.0031 0.0011 0.0036 26.7340 0.0022 7.3126
# 5 16.8151 5.1399 27.2384 0.0022 49.8272 -0.0025
# 6 -0.0003 0.0000 -0.0027 7.3126 -0.0025 22.0197
#
#
#
# Elastic Compliance Matrix: (Units=1/GPa)
#
#
# Indices 1 2 3 4 5 6 
#
# 1 0.015663 -0.003347 -0.001798 -0.000001 -0.003958 0.000000
# 2 -0.003347 0.044290 -0.004878 -0.000001 -0.000773 -0.000001
# 3 -0.001798 -0.004878 0.006255 0.000000 -0.002309 0.000001
# 4 -0.000001 -0.000001 0.000000 0.041143 -0.000002 -0.013663
# 5 -0.003958 -0.000773 -0.002309 -0.000002 0.022747 0.000003
# 6 0.000000 -0.000001 0.000001 -0.013663 0.000003 0.049951
#
#
# Mechanical properties :
#
#
# Convention : Reuss Voigt Hill
#
# Bulk Modulus (GPa) = 21.66221 48.90215 35.28218
# Shear Modulus (GPa) = 23.20373 35.04642 29.12507
#
# Velocity S-wave (km/s) = 3.02995 3.72373 3.39461
# Velocity P-wave (km/s) = 4.56196 6.15113 5.41516
#
# Compressibility (1/GPa) = 0.04616335
#
# Stress axis : x y z
#
# Youngs Moduli (GPa) = 63.84307 22.57854 159.86896
#
# Poissons Ratio (x) = 0.07557 0.28746
# Poissons Ratio (y) = 0.21367 0.77977
# Poissons Ratio (z) = 0.11480 0.11013
#
# Static dielectric constant tensor:
#      x y z
#    x 2.058550 -0.000030 0.062180 
#    y -0.000030 1.350000 -0.000060 
#    z 0.062180 -0.000060 2.103380 
# 
# From -- ./inp_files/281828.got.cif
#   From: 2010.05.17/outbox.cif.g08.bks.cpg/sg15_141_cif.got.tgz:281828.got - 2010.06.03 18:47:42.
