data_PCOD9254186
_publ_section_title
;
Structure prediction by ZEFSAII (Michael W. Deem and Ramdas Pophale) SiO2 
 PCOD9254186
Probable space group: C 2/C
;
_chemical_formula_sum "Si O2"
_cell_formula_units_Z 48
_cell_length_a 29.809287
_cell_length_b 12.852338
_cell_length_c 5.447089
_cell_angle_alpha 90.000000
_cell_angle_beta 111.601237
_cell_angle_gamma 90.000000
_cell_volume 1940.318588
_symmetry_space_group_name_H-M "C 2/C"
_symmetry_group_IT_number 15
_symmetry_cell_setting 'monoclinic'
loop_
_space_group_symop_operation_xyz
x,y,z
-x,y,1/2-z
-x,-y,-z
x,-y,1/2+z
1/2+x,1/2+y,z
1/2-x,1/2+y,1/2-z
1/2-x,1/2-y,-z
1/2+x,1/2-y,1/2+z
loop_
_atom_site_type_symbol
_atom_site_label
_atom_site_fract_x
_atom_site_fract_y
_atom_site_fract_z
Si Si1 0.299403 0.385538 0.253779
Si Si2 0.239820 0.875828 0.823261
Si Si3 0.892684 0.390132 0.570971
Si Si4 0.500000 0.853538 0.750000
Si Si5 0.146634 0.623674 0.007106
Si Si6 0.500000 0.278861 0.750000
Si Si7 0.910335 0.933450 0.543937
O O1 0.272355 0.334786 0.430010
O O2 0.278050 0.502877 0.188896
O O3 0.355613 0.391517 0.428798
O O4 0.289560 0.334401 0.970324
O O5 0.296048 0.873524 0.874942
O O6 0.866711 0.501302 0.525063
O O7 0.877983 0.335036 0.794458
O O8 0.949490 0.412760 0.669519
O O9 0.874903 0.332301 0.289931
O O10 0.496698 0.787445 0.493018
O O11 0.452458 0.349261 0.634844
O O12 0.915473 0.998647 0.302112
#
# Coordination Sequence:
#
# PCOD9254186 Si02
#       7
#     8   8   8   4   8   4   8
#     4  10  16  27  49  82 121 144 163 214 294 361
#     4  10  16  28  48  88 131 138 169 216 306 352
#     4  10  20  35  57  81 120 150 202 241 286 338
#     4  12  26  45  57  80 112 168 206 238 292 340
#     4  10  19  32  57  97 115 152 187 246 291 324
#     4  12  28  43  61  82 114 158 202 246 290 358
#     4  12  21  40  62  92 116 143 189 245 310 345
#
# _framework density 24.738205000000001
#
# number of rings (size 3 to 8) (size 9 to 14) (size 15 to 20)
#    0.000    1.333    3.333    7.500    0.000    2.667 
#    0.000    0.000    0.000    0.000    0.000   39.667 
#    0.000    0.000    0.000    0.000    0.000    0.000 
#
# Total GULP energy -134467.880811 kJ/mol
# GULP energy per Si atom -5602.828367 kJ/mol
# Density = 2.468190 g / cm^3
# Si number density = 24.738205 Si / 1000 Ang^3
#
#
#
# Elastic Constant Matrix: (Units=GPa)
#
#
# Indices 1 2 3 4 5 6 
#
# 1 157.1445 33.1339 65.3418 0.0000 10.9162 0.0000
# 2 33.1339 50.0508 18.5941 0.0000 -4.3614 0.0000
# 3 65.3418 18.5941 189.8902 0.0000 -50.7429 0.0000
# 4 0.0000 0.0000 0.0000 37.3466 0.0000 -60.2963
# 5 10.9162 -4.3614 -50.7429 0.0000 65.7871 0.0000
# 6 0.0000 0.0000 0.0000 -60.2963 0.0000 588.4151
#
#
#
# Elastic Compliance Matrix: (Units=1/GPa)
#
#
# Indices 1 2 3 4 5 6 
#
# 1 0.009544 -0.005226 -0.004142 0.000000 -0.005125 0.000000
# 2 -0.005226 0.023598 0.000173 0.000000 0.002565 0.000000
# 3 -0.004142 0.000173 0.008642 0.000000 0.007365 0.000000
# 4 0.000000 0.000000 0.000000 0.032084 0.000000 0.003288
# 5 -0.005125 0.002565 0.007365 0.000000 0.021902 0.000000
# 6 0.000000 0.000000 0.000000 0.003288 0.000000 0.002036
#
#
# Mechanical properties :
#
#
# Convention : Reuss Voigt Hill
#
# Bulk Modulus (GPa) = 42.74361 70.13612 56.43986
# Shear Modulus (GPa) = 40.32439 156.97747 98.65093
#
# Velocity S-wave (km/s) = 4.04176 7.97454 6.32175
# Velocity P-wave (km/s) = 6.25276 10.63973 8.72642
#
# Compressibility (1/GPa) = 0.02339531
#
# Stress axis : x y z
#
# Youngs Moduli (GPa) = 104.78293 42.37558 115.70761
#
# Poissons Ratio (x) = 0.22145 0.47922
# Poissons Ratio (y) = 0.54757 -0.02000
# Poissons Ratio (z) = 0.43397 -0.00732
#
# Static dielectric constant tensor:
#      x y z
#    x 1.917440 0.000000 -0.069860 
#    y 0.000000 2.017370 0.000000 
#    z -0.069860 0.000000 2.052070 
# 
# From -- ./inp_files/18262.got.cif
#   From: 2010.05.17/outbox.cif.g08.bks.cpg/sg15_10_cif.got.tgz:18262.got - 2010.06.03 18:47:42.
