data_PCOD9254472
_publ_section_title
;
Structure prediction by ZEFSAII (Michael W. Deem and Ramdas Pophale) SiO2 
 PCOD9254472
Probable space group: C 2/C
;
_chemical_formula_sum "Si O2"
_cell_formula_units_Z 56
_cell_length_a 8.470424
_cell_length_b 27.230167
_cell_length_c 12.970302
_cell_angle_alpha 90.000000
_cell_angle_beta 103.629404
_cell_angle_gamma 90.000000
_cell_volume 2907.370652
_symmetry_space_group_name_H-M "C 2/C"
_symmetry_group_IT_number 15
_symmetry_cell_setting 'monoclinic'
loop_
_space_group_symop_operation_xyz
x,y,z
-x,y,1/2-z
-x,-y,-z
x,-y,1/2+z
1/2+x,1/2+y,z
1/2-x,1/2+y,1/2-z
1/2-x,1/2-y,-z
1/2+x,1/2-y,1/2+z
loop_
_atom_site_type_symbol
_atom_site_label
_atom_site_fract_x
_atom_site_fract_y
_atom_site_fract_z
Si Si1 0.107875 0.845176 0.365408
Si Si2 0.270461 0.840799 0.960945
Si Si3 0.891875 0.021463 0.333889
Si Si4 0.906530 0.073088 0.950938
Si Si5 0.810100 0.120646 0.261173
Si Si6 0.435867 0.808533 0.356458
Si Si7 0.419336 0.297483 0.926006
O O1 0.292640 0.846941 0.356273
O O2 0.098531 0.804781 0.454879
O O3 0.000000 0.832064 0.250000
O O4 0.034465 0.894920 0.403772
O O5 0.295919 0.858857 0.848444
O O6 0.110733 0.806408 0.932852
O O7 0.217594 0.887728 0.021273
O O8 0.420525 0.816168 0.039651
O O9 0.768872 0.065000 0.284958
O O10 0.000000 0.010199 0.250000
O O11 0.002980 0.047342 0.438945
O O12 0.831394 0.970436 0.371466
O O13 0.820384 0.158314 0.356882
O O14 0.000000 0.118478 0.250000
O O15 0.500000 0.812127 0.250000
O O16 0.370548 0.753690 0.368317
#
# Coordination Sequence:
#
# PCOD9254472 Si02
#       7
#     8   8   8   8   8   8   8
#     4  11  23  40  56  83 118 150 194 244 284 342
#     4  10  19  35  57  88 119 151 190 239 283 344
#     4  10  16  30  58  89 106 145 197 236 281 336
#     4  10  19  32  58  87 110 146 194 238 282 335
#     4   9  15  32  56  84 112 140 192 239 277 334
#     4  12  24  37  58  85 118 157 190 231 296 343
#     4  10  20  38  59  83 114 153 198 238 275 336
#
# _framework density 19.261391
#
# number of rings (size 3 to 8) (size 9 to 14) (size 15 to 20)
#    0.000    1.714    5.714    4.286    0.000    1.143 
#    0.000    0.714    0.000    3.429   11.143    0.000 
#    0.000    0.000    0.000    0.000    0.000    0.000 
#
# Total GULP energy -156195.039449 kJ/mol
# GULP energy per Si atom -5578.394266 kJ/mol
# Density = 1.921755 g / cm^3
# Si number density = 19.261391 Si / 1000 Ang^3
#
#
#
# Elastic Constant Matrix: (Units=GPa)
#
#
# Indices 1 2 3 4 5 6 
#
# 1 30.0074 12.7387 20.4370 0.0000 -3.7160 0.0000
# 2 12.7387 62.2865 22.0428 0.0000 -4.8551 0.0000
# 3 20.4370 22.0428 125.5173 0.0000 -13.3984 0.0000
# 4 0.0000 0.0000 0.0000 29.0433 0.0000 -3.9124
# 5 -3.7160 -4.8551 -13.3984 0.0000 19.9859 0.0000
# 6 0.0000 0.0000 0.0000 -3.9124 0.0000 5.2738
#
#
#
# Elastic Compliance Matrix: (Units=1/GPa)
#
#
# Indices 1 2 3 4 5 6 
#
# 1 0.039721 -0.006116 -0.005131 0.000000 0.002460 0.000000
# 2 -0.006116 0.018160 -0.001986 0.000000 0.001943 0.000000
# 3 -0.005131 -0.001986 0.009691 0.000000 0.005061 0.000000
# 4 0.000000 0.000000 0.000000 0.038254 0.000000 0.028379
# 5 0.002460 0.001943 0.005061 0.000000 0.054357 0.000000
# 6 0.000000 0.000000 0.000000 0.028379 0.000000 0.210670
#
#
# Mechanical properties :
#
#
# Convention : Reuss Voigt Hill
#
# Bulk Modulus (GPa) = 24.32711 36.47202 30.39956
# Shear Modulus (GPa) = 12.16484 21.70010 16.93247
#
# Velocity S-wave (km/s) = 2.51582 3.36014 2.96816
# Velocity P-wave (km/s) = 4.59310 5.83357 5.25010
#
# Compressibility (1/GPa) = 0.04110641
#
# Stress axis : x y z
#
# Youngs Moduli (GPa) = 25.17591 55.06620 103.18439
#
# Poissons Ratio (x) = 0.33679 0.52941
# Poissons Ratio (y) = 0.15398 0.20492
# Poissons Ratio (z) = 0.12917 0.10936
#
# Static dielectric constant tensor:
#      x y z
#    x 1.669290 0.000000 -0.023770 
#    y 0.000000 1.695480 0.000000 
#    z -0.023770 0.000000 1.683170 
# 
# From -- ./inp_files/82288.got.cif
#   From: 2010.05.17/outbox.cif.g08.bks.cpg/sg15_42_cif.got.tgz:82288.got - 2010.06.03 18:47:42.
