data_PCOD9254594
_publ_section_title
;
Structure prediction by ZEFSAII (Michael W. Deem and Ramdas Pophale) SiO2 
 PCOD9254594
Probable space group: C 2/C
;
_chemical_formula_sum "Si O2"
_cell_formula_units_Z 60
_cell_length_a 15.411328
_cell_length_b 9.270751
_cell_length_c 22.474143
_cell_angle_alpha 90.000000
_cell_angle_beta 87.039963
_cell_angle_gamma 90.000000
_cell_volume 3206.699733
_symmetry_space_group_name_H-M "C 2/C"
_symmetry_group_IT_number 15
_symmetry_cell_setting 'monoclinic'
loop_
_space_group_symop_operation_xyz
x,y,z
-x,y,1/2-z
-x,-y,-z
x,-y,1/2+z
1/2+x,1/2+y,z
1/2-x,1/2+y,1/2-z
1/2-x,1/2-y,-z
1/2+x,1/2-y,1/2+z
loop_
_atom_site_type_symbol
_atom_site_label
_atom_site_fract_x
_atom_site_fract_y
_atom_site_fract_z
Si Si1 0.450094 0.523773 0.917779
Si Si2 0.038459 0.671640 0.132739
Si Si3 0.633660 0.462466 0.454196
Si Si4 0.790676 0.051414 0.851646
Si Si5 0.844339 0.681963 0.122421
Si Si6 0.225186 0.615017 0.118487
Si Si7 0.500000 0.647053 0.750000
Si Si8 0.320034 0.568531 0.714767
O O1 0.455228 0.698468 0.915559
O O2 0.550815 0.479157 0.918233
O O3 0.387277 0.492855 0.864531
O O4 0.400470 0.469345 0.977773
O O5 0.122930 0.573123 0.122466
O O6 0.940422 0.617079 0.129593
O O7 0.040902 0.749879 0.197510
O O8 0.652276 0.301439 0.429732
O O9 0.718718 0.556878 0.438544
O O10 0.777626 0.212396 0.876853
O O11 0.778864 0.061091 0.781297
O O12 0.723453 0.943529 0.883588
O O13 0.815949 0.777132 0.181147
O O14 0.274471 0.545481 0.173221
O O15 0.423721 0.555561 0.722348
#
# Coordination Sequence:
#
# PCOD9254594 Si02
#       8
#     8   8   8   8   8   8   4   8
#     4   9  18  35  58  78 101 138 185 213 258 309
#     4   9  18  32  52  76 100 144 172 208 251 325
#     4   9  19  37  57  78 101 137 181 224 252 315
#     4  11  20  32  52  80 107 136 170 221 265 312
#     4   9  20  35  53  74 106 140 175 209 267 313
#     4  10  20  33  54  79 105 136 179 217 258 300
#     4  10  16  32  54  72 100 140 178 204 248 314
#     4  10  19  32  54  75 104 139 178 212 248 317
#
# _framework density 18.710826000000001
#
# number of rings (size 3 to 8) (size 9 to 14) (size 15 to 20)
#    0.000    2.400    2.667    1.600    1.867    2.667 
#    0.000    2.667    2.933    8.000    0.000    0.000 
#    0.000    0.000    0.000    0.000    0.000    0.000 
#
# Total GULP energy -167013.473029 kJ/mol
# GULP energy per Si atom -5567.115768 kJ/mol
# Density = 1.866824 g / cm^3
# Si number density = 18.710826 Si / 1000 Ang^3
#
#
#
# Elastic Constant Matrix: (Units=GPa)
#
#
# Indices 1 2 3 4 5 6 
#
# 1 105.1865 29.3374 -9.0200 0.0000 -8.7957 0.0000
# 2 29.3374 39.0786 -3.7122 0.0000 -3.9738 0.0000
# 3 -9.0200 -3.7122 25.0249 0.0000 -12.4050 0.0000
# 4 0.0000 0.0000 0.0000 5.1250 0.0000 -7.3068
# 5 -8.7957 -3.9738 -12.4050 0.0000 29.2988 0.0000
# 6 0.0000 0.0000 0.0000 -7.3068 0.0000 30.5807
#
#
#
# Elastic Compliance Matrix: (Units=1/GPa)
#
#
# Indices 1 2 3 4 5 6 
#
# 1 0.012834 -0.008541 0.005942 0.000000 0.005210 0.000000
# 2 -0.008541 0.032661 0.003406 0.000000 0.003308 0.000000
# 3 0.005942 0.003406 0.055334 0.000000 0.025674 0.000000
# 4 0.000000 0.000000 0.000000 0.295935 0.000000 0.070709
# 5 0.005210 0.003308 0.025674 0.000000 0.047014 0.000000
# 6 0.000000 0.000000 0.000000 0.070709 0.000000 0.049595
#
#
# Mechanical properties :
#
#
# Convention : Reuss Voigt Hill
#
# Bulk Modulus (GPa) = 9.76143 22.50005 16.13074
# Shear Modulus (GPa) = 9.50739 23.17989 16.34364
#
# Velocity S-wave (km/s) = 2.25660 3.52355 2.95869
# Velocity P-wave (km/s) = 3.46670 5.34837 4.50683
#
# Compressibility (1/GPa) = 0.10244401
#
# Stress axis : x y z
#
# Youngs Moduli (GPa) = 77.91679 30.61739 18.07216
#
# Poissons Ratio (x) = 0.26149 -0.10738
# Poissons Ratio (y) = 0.66547 -0.06156
# Poissons Ratio (z) = -0.46296 -0.10430
#
# Static dielectric constant tensor:
#      x y z
#    x 1.696780 0.000000 0.002750 
#    y 0.000000 1.618280 0.000000 
#    z 0.002750 0.000000 1.691650 
# 
# From -- ./inp_files/272771.got.cif
#   From: 2010.05.17/outbox.cif.g08.bks.cpg/sg15_137_cif.got.tgz:272771.got - 2010.06.03 18:47:42.
