data_PCOD9254668
_publ_section_title
;
Structure prediction by ZEFSAII (Michael W. Deem and Ramdas Pophale) SiO2 
 PCOD9254668
Probable space group: C 2/C
;
_chemical_formula_sum "Si O2"
_cell_formula_units_Z 52
_cell_length_a 11.971758
_cell_length_b 15.076151
_cell_length_c 14.616993
_cell_angle_alpha 90.000000
_cell_angle_beta 71.427454
_cell_angle_gamma 90.000000
_cell_volume 2500.798230
_symmetry_space_group_name_H-M "C 2/C"
_symmetry_group_IT_number 15
_symmetry_cell_setting 'monoclinic'
loop_
_space_group_symop_operation_xyz
x,y,z
-x,y,1/2-z
-x,-y,-z
x,-y,1/2+z
1/2+x,1/2+y,z
1/2-x,1/2+y,1/2-z
1/2-x,1/2-y,-z
1/2+x,1/2-y,1/2+z
loop_
_atom_site_type_symbol
_atom_site_label
_atom_site_fract_x
_atom_site_fract_y
_atom_site_fract_z
Si Si1 0.104825 0.185008 0.447859
Si Si2 0.500000 0.155206 0.250000
Si Si3 0.935892 0.079226 0.359519
Si Si4 0.282735 0.715356 0.775938
Si Si5 0.010076 0.630784 0.047698
Si Si6 0.740502 0.577761 0.566647
Si Si7 0.264810 0.790920 0.594431
O O1 0.169734 0.236340 0.348841
O O2 0.044135 0.264804 0.521202
O O3 0.197430 0.139764 0.493208
O O4 0.019737 0.114155 0.419915
O O5 0.611230 0.219120 0.227938
O O6 0.512396 0.103000 0.153085
O O7 0.856281 0.161564 0.348573
O O8 0.000000 0.046765 0.250000
O O9 0.840789 0.008148 0.419493
O O10 0.293008 0.624809 0.828703
O O11 0.283905 0.715846 0.666347
O O12 0.871593 0.637846 0.061334
O O13 0.116244 0.575806 0.973433
O O14 0.250000 0.750000 0.500000
#
# Coordination Sequence:
#
# PCOD9254668 Si02
#       7
#     8   4   8   8   8   8   8
#     4  11  19  41  62  94 125 165 208 263 323 395
#     4  10  16  32  60  96 116 156 224 266 292 374
#     4  12  26  41  60  93 138 170 204 273 339 388
#     4  10  20  36  66  89 124 166 222 264 307 393
#     4  10  20  36  68  88 122 167 219 264 307 385
#     4  11  23  40  61  98 128 163 213 272 335 383
#     4  11  23  41  63  91 124 174 225 261 324 397
#
# _framework density 20.79336
#
# number of rings (size 3 to 8) (size 9 to 14) (size 15 to 20)
#    0.000    1.231    6.154    1.385    1.077    0.615 
#    2.769    0.000    0.000    0.000    0.000    0.000 
#    0.000    0.000    0.000    0.000    0.000    0.000 
#
# Total GULP energy -144930.139934 kJ/mol
# GULP energy per Si atom -5574.236151 kJ/mol
# Density = 2.074603 g / cm^3
# Si number density = 20.793360 Si / 1000 Ang^3
#
#
#
# Elastic Constant Matrix: (Units=GPa)
#
#
# Indices 1 2 3 4 5 6 
#
# 1 88.2816 6.3937 32.0173 0.0000 5.5008 0.0000
# 2 6.3937 35.2003 25.1446 0.0000 7.8506 0.0000
# 3 32.0173 25.1446 97.8091 0.0000 8.7161 0.0000
# 4 0.0000 0.0000 0.0000 17.4890 0.0000 -0.2855
# 5 5.5008 7.8506 8.7161 0.0000 40.4234 0.0000
# 6 0.0000 0.0000 0.0000 -0.2855 0.0000 33.5977
#
#
#
# Elastic Compliance Matrix: (Units=1/GPa)
#
#
# Indices 1 2 3 4 5 6 
#
# 1 0.012912 0.001022 -0.004400 0.000000 -0.001007 0.000000
# 2 0.001022 0.035869 -0.009097 0.000000 -0.005144 0.000000
# 3 -0.004400 -0.009097 0.014062 0.000000 -0.000667 0.000000
# 4 0.000000 0.000000 0.000000 0.057187 0.000000 0.000486
# 5 -0.001007 -0.005144 -0.000667 0.000000 0.026018 0.000000
# 6 0.000000 0.000000 0.000000 0.000486 0.000000 0.029768
#
#
# Mechanical properties :
#
#
# Convention : Reuss Voigt Hill
#
# Bulk Modulus (GPa) = 26.38999 38.71135 32.55067
# Shear Modulus (GPa) = 23.43061 28.81772 26.12416
#
# Velocity S-wave (km/s) = 3.36047 3.72682 3.54838
# Velocity P-wave (km/s) = 5.27031 6.09725 5.69880
#
# Compressibility (1/GPa) = 0.03789316
#
# Stress axis : x y z
#
# Youngs Moduli (GPa) = 77.44901 27.87938 71.11206
#
# Poissons Ratio (x) = -0.02849 0.31287
# Poissons Ratio (y) = -0.07916 0.64693
# Poissons Ratio (z) = 0.34075 0.25363
#
# Static dielectric constant tensor:
#      x y z
#    x 1.742120 0.000000 -0.009890 
#    y 0.000000 1.775690 0.000000 
#    z -0.009890 0.000000 1.852140 
# 
# From -- ./inp_files/144183.got.cif
#   From: 2010.05.17/outbox.cif.g08.bks.cpg/sg15_73_cif.got.tgz:144183.got - 2010.06.03 18:47:42.
