data_PCOD9254488
_publ_section_title
;
Structure prediction by ZEFSAII (Michael W. Deem and Ramdas Pophale) SiO2 
 PCOD9254488
Probable space group: C 2/C
;
_chemical_formula_sum "Si O2"
_cell_formula_units_Z 48
_cell_length_a 26.099275
_cell_length_b 10.770244
_cell_length_c 10.043559
_cell_angle_alpha 90.000000
_cell_angle_beta 134.731605
_cell_angle_gamma 90.000000
_cell_volume 2005.633254
_symmetry_space_group_name_H-M "C 2/C"
_symmetry_group_IT_number 15
_symmetry_cell_setting 'monoclinic'
loop_
_space_group_symop_operation_xyz
x,y,z
-x,y,1/2-z
-x,-y,-z
x,-y,1/2+z
1/2+x,1/2+y,z
1/2-x,1/2+y,1/2-z
1/2-x,1/2-y,-z
1/2+x,1/2-y,1/2+z
loop_
_atom_site_type_symbol
_atom_site_label
_atom_site_fract_x
_atom_site_fract_y
_atom_site_fract_z
Si Si1 0.726247 0.292707 0.809636
Si Si2 0.500000 0.314083 0.250000
Si Si3 0.082037 0.853409 0.647686
Si Si4 0.363909 0.842581 0.884112
Si Si5 0.500000 0.688146 0.250000
Si Si6 0.579912 0.945327 0.158742
Si Si7 0.361269 0.156336 0.077784
O O1 0.661182 0.386810 0.734477
O O2 0.798729 0.328945 0.866140
O O3 0.692265 0.198791 0.636948
O O4 0.750000 0.250000 0.000000
O O5 0.528133 0.384979 0.430430
O O6 0.435210 0.226284 0.177899
O O7 0.083417 0.701437 0.661700
O O8 0.048769 0.884826 0.730330
O O9 0.379503 0.987111 0.885880
O O10 0.438390 0.773077 0.063934
O O11 0.381900 0.013999 0.149173
O O12 0.658179 0.203373 0.306493
O O13 0.500000 0.000000 0.000000
#
# Coordination Sequence:
#
# PCOD9254488 Si02
#       7
#     8   4   8   8   4   8   8
#     4  11  22  36  50  71 109 159 194 233 274 341
#     4  10  16  31  46  80 100 147 178 228 266 343
#     4  11  21  32  52  77 115 147 192 229 284 341
#     4  10  21  35  50  75 113 152 188 227 283 344
#     4  12  18  31  52  76 104 147 178 236 276 335
#     4  10  18  34  52  81 111 149 186 227 280 350
#     4   9  20  32  52  68 111 150 188 226 280 335
#
# _framework density 23.932590999999999
#
# number of rings (size 3 to 8) (size 9 to 14) (size 15 to 20)
#    1.000    0.667    6.667    0.500    0.000    4.000 
#    0.000    0.000    0.000    0.000    0.000    0.000 
#    0.000   10.667    0.000    0.000    0.000    0.167 
#
# Total GULP energy -133725.227366 kJ/mol
# GULP energy per Si atom -5571.884474 kJ/mol
# Density = 2.387812 g / cm^3
# Si number density = 23.932591 Si / 1000 Ang^3
#
#
#
# Elastic Constant Matrix: (Units=GPa)
#
#
# Indices 1 2 3 4 5 6 
#
# 1 230.1151 32.3181 63.6749 0.0000 -11.7252 0.0000
# 2 32.3181 40.1413 30.6616 0.0000 7.4921 0.0000
# 3 63.6749 30.6616 181.6810 0.0000 -20.0090 0.0000
# 4 0.0000 0.0000 0.0000 19.6403 0.0000 -0.9814
# 5 -11.7252 7.4921 -20.0090 0.0000 65.2421 0.0000
# 6 0.0000 0.0000 0.0000 -0.9814 0.0000 2.2527
#
#
#
# Elastic Compliance Matrix: (Units=1/GPa)
#
#
# Indices 1 2 3 4 5 6 
#
# 1 0.005200 -0.003517 -0.001119 0.000000 0.000995 0.000000
# 2 -0.003517 0.032597 -0.004917 0.000000 -0.005883 0.000000
# 3 -0.001119 -0.004917 0.007003 0.000000 0.002511 0.000000
# 4 0.000000 0.000000 0.000000 0.052049 0.000000 0.022674
# 5 0.000995 -0.005883 0.002511 0.000000 0.016952 0.000000
# 6 0.000000 0.000000 0.000000 0.022674 0.000000 0.453786
#
#
# Mechanical properties :
#
#
# Convention : Reuss Voigt Hill
#
# Bulk Modulus (GPa) = 38.91989 78.36074 58.64032
# Shear Modulus (GPa) = 8.39971 39.11253 23.75612
#
# Velocity S-wave (km/s) = 1.87546 4.04701 3.15402
# Velocity P-wave (km/s) = 4.58120 7.39263 6.14973
#
# Compressibility (1/GPa) = 0.02569380
#
# Stress axis : x y z
#
# Youngs Moduli (GPa) = 192.30501 30.67725 142.80143
#
# Poissons Ratio (x) = 0.10790 0.15983
# Poissons Ratio (y) = 0.67642 0.70209
# Poissons Ratio (z) = 0.21524 0.15083
#
# Static dielectric constant tensor:
#      x y z
#    x 2.158280 0.000000 -0.086210 
#    y 0.000000 1.941370 0.000000 
#    z -0.086210 0.000000 1.987280 
# 
# From -- ./inp_files/126645.got.cif
#   From: 2010.05.17/outbox.cif.g08.bks.cpg/sg15_64_cif.got.tgz:126645.got - 2010.06.03 18:47:42.
