data_PCOD9254401
_publ_section_title
;
Structure prediction by ZEFSAII (Michael W. Deem and Ramdas Pophale) SiO2 
 PCOD9254401
Probable space group: C 2/C
;
_chemical_formula_sum "Si O2"
_cell_formula_units_Z 48
_cell_length_a 18.634647
_cell_length_b 15.059213
_cell_length_c 9.056149
_cell_angle_alpha 90.000000
_cell_angle_beta 54.334566
_cell_angle_gamma 90.000000
_cell_volume 2064.694767
_symmetry_space_group_name_H-M "C 2/C"
_symmetry_group_IT_number 15
_symmetry_cell_setting 'monoclinic'
loop_
_space_group_symop_operation_xyz
x,y,z
-x,y,1/2-z
-x,-y,-z
x,-y,1/2+z
1/2+x,1/2+y,z
1/2-x,1/2+y,1/2-z
1/2-x,1/2-y,-z
1/2+x,1/2-y,1/2+z
loop_
_atom_site_type_symbol
_atom_site_label
_atom_site_fract_x
_atom_site_fract_y
_atom_site_fract_z
Si Si1 0.438282 0.044009 0.448107
Si Si2 0.000000 0.142555 0.750000
Si Si3 0.000000 0.891079 0.750000
Si Si4 0.934446 0.750733 0.046613
Si Si5 0.685991 0.112792 0.438820
Si Si6 0.629686 0.805298 0.296012
Si Si7 0.127071 0.902566 0.858592
O O1 0.368713 0.116695 0.587333
O O2 0.500000 0.000000 0.500000
O O3 0.385697 0.962383 0.442894
O O4 0.500000 0.086652 0.250000
O O5 0.047119 0.203567 0.817916
O O6 0.072802 0.085882 0.573846
O O7 0.067289 0.829277 0.572659
O O8 0.062566 0.930680 0.802463
O O9 0.854179 0.682792 0.130580
O O10 0.023663 0.698126 0.892793
O O11 0.689327 0.167147 0.587296
O O12 0.774291 0.064218 0.278916
O O13 0.644597 0.704481 0.327418
#
# Coordination Sequence:
#
# PCOD9254401 Si02
#       7
#     8   4   4   8   8   8   8
#     4  12  23  35  58  84 129 166 176 223 300 371
#     4   8  20  34  46  81 115 154 184 238 310 334
#     4   8  16  32  52  75 103 158 180 238 294 328
#     4  10  16  30  52  75 119 152 186 222 287 352
#     4  12  20  34  55  89 114 155 205 242 275 351
#     4  10  20  35  53  84 120 160 186 227 292 350
#     4  10  21  34  61  81 119 147 202 252 289 339
#
# _framework density 23.247987999999999
#
# number of rings (size 3 to 8) (size 9 to 14) (size 15 to 20)
#    0.000    2.000    6.667    0.500    4.667    0.667 
#    0.000    0.000    0.000    0.000    0.000    3.500 
#    0.000    0.000    0.000    0.000    0.000    0.000 
#
# Total GULP energy -133959.726970 kJ/mol
# GULP energy per Si atom -5581.655290 kJ/mol
# Density = 2.319507 g / cm^3
# Si number density = 23.247988 Si / 1000 Ang^3
#
#
#
# Elastic Constant Matrix: (Units=GPa)
#
#
# Indices 1 2 3 4 5 6 
#
# 1 56.2793 -4.1583 42.6525 0.0000 -12.8807 0.0000
# 2 -4.1583 47.4425 7.9487 0.0000 9.8378 0.0000
# 3 42.6525 7.9487 148.8501 0.0000 4.8935 0.0000
# 4 0.0000 0.0000 0.0000 29.7010 0.0000 -0.1575
# 5 -12.8807 9.8378 4.8935 0.0000 40.4753 0.0000
# 6 0.0000 0.0000 0.0000 -0.1575 0.0000 15.4169
#
#
#
# Elastic Compliance Matrix: (Units=1/GPa)
#
#
# Indices 1 2 3 4 5 6 
#
# 1 0.025780 0.001753 -0.007767 0.000000 0.008717 0.000000
# 2 0.001753 0.022469 -0.001547 0.000000 -0.004716 0.000000
# 3 -0.007767 -0.001547 0.009132 0.000000 -0.003200 0.000000
# 4 0.000000 0.000000 0.000000 0.033671 0.000000 0.000344
# 5 0.008717 -0.004716 -0.003200 0.000000 0.029014 0.000000
# 6 0.000000 0.000000 0.000000 0.000344 0.000000 0.064867
#
#
# Mechanical properties :
#
#
# Convention : Reuss Voigt Hill
#
# Bulk Modulus (GPa) = 23.66411 38.38419 31.02415
# Shear Modulus (GPa) = 23.34913 30.86056 27.10484
#
# Velocity S-wave (km/s) = 3.17259 3.64737 3.41823
# Velocity P-wave (km/s) = 4.86020 5.85529 5.38079
#
# Compressibility (1/GPa) = 0.04225808
#
# Stress axis : x y z
#
# Youngs Moduli (GPa) = 38.79012 44.50576 109.50889
#
# Poissons Ratio (x) = -0.07803 0.85059
# Poissons Ratio (y) = -0.06801 0.16944
# Poissons Ratio (z) = 0.30129 0.06886
#
# Static dielectric constant tensor:
#      x y z
#    x 1.913790 0.000000 0.004830 
#    y 0.000000 1.916820 0.000000 
#    z 0.004830 0.000000 1.913540 
# 
# From -- ./inp_files/63034.got.cif
#   From: 2010.05.17/outbox.cif.g08.bks.cpg/sg15_32_cif.got.tgz:63034.got - 2010.06.03 18:47:42.
