data_PCOD9254979
_publ_section_title
;
Structure prediction by ZEFSAII (Michael W. Deem and Ramdas Pophale) SiO2 
 PCOD9254979
Probable space group: C 2/C
;
_chemical_formula_sum "Si O2"
_cell_formula_units_Z 40
_cell_length_a 22.799897
_cell_length_b 7.085432
_cell_length_c 13.132842
_cell_angle_alpha 90.000000
_cell_angle_beta 128.046713
_cell_angle_gamma 90.000000
_cell_volume 1670.756710
_symmetry_space_group_name_H-M "C 2/C"
_symmetry_group_IT_number 15
_symmetry_cell_setting 'monoclinic'
loop_
_space_group_symop_operation_xyz
x,y,z
-x,y,1/2-z
-x,-y,-z
x,-y,1/2+z
1/2+x,1/2+y,z
1/2-x,1/2+y,1/2-z
1/2-x,1/2-y,-z
1/2+x,1/2-y,1/2+z
loop_
_atom_site_type_symbol
_atom_site_label
_atom_site_fract_x
_atom_site_fract_y
_atom_site_fract_z
Si Si1 0.768672 0.375403 0.395899
Si Si2 0.130622 0.931365 0.856469
Si Si3 0.791244 0.970676 0.374483
Si Si4 0.434222 0.351359 0.915789
Si Si5 0.569007 0.824045 0.884553
O O1 0.701377 0.490940 0.369659
O O2 0.765923 0.396091 0.269563
O O3 0.849559 0.416028 0.528070
O O4 0.755823 0.150473 0.393505
O O5 0.082308 0.818601 0.721410
O O6 0.084720 0.114460 0.850209
O O7 0.169957 0.841827 0.998329
O O8 0.861123 0.050477 0.385839
O O9 0.500000 0.500000 0.000000
O O10 0.450815 0.190907 0.016672
O O11 0.500000 0.908578 0.750000
#
# Coordination Sequence:
#
# PCOD9254979 Si02
#       5
#     8   8   8   8   8
#     4   9  18  32  47  71  91 124 160 193 232 279
#     4   9  16  29  48  68  93 125 154 192 238 274
#     4   9  18  29  48  70  93 125 157 193 234 277
#     4   9  15  25  42  71  95 110 149 198 239 263
#     4  10  17  26  45  70  92 123 157 194 229 280
#
# _framework density 23.941246
#
# number of rings (size 3 to 8) (size 9 to 14) (size 15 to 20)
#    0.000    3.200    2.000    2.400    0.000    0.000 
#    0.000    9.000    0.000    4.800   10.400    0.000 
#    0.000    0.000    0.000    0.000    0.000    0.000 
#
# Total GULP energy -111402.553291 kJ/mol
# GULP energy per Si atom -5570.127665 kJ/mol
# Density = 2.388675 g / cm^3
# Si number density = 23.941246 Si / 1000 Ang^3
#
#
#
# Elastic Constant Matrix: (Units=GPa)
#
#
# Indices 1 2 3 4 5 6 
#
# 1 45.6334 4.1062 21.3385 0.0000 9.9481 0.0000
# 2 4.1062 34.9695 8.3100 0.0000 6.7481 0.0000
# 3 21.3385 8.3100 246.1100 0.0000 -3.0503 0.0000
# 4 0.0000 0.0000 0.0000 12.4955 0.0000 -5.7427
# 5 9.9481 6.7481 -3.0503 0.0000 42.0927 0.0000
# 6 0.0000 0.0000 0.0000 -5.7427 0.0000 14.4344
#
#
#
# Elastic Compliance Matrix: (Units=1/GPa)
#
#
# Indices 1 2 3 4 5 6 
#
# 1 0.024263 -0.001245 -0.002132 0.000000 -0.005689 0.000000
# 2 -0.001245 0.029850 -0.000957 0.000000 -0.004561 0.000000
# 3 -0.002132 -0.000957 0.004292 0.000000 0.000968 0.000000
# 4 0.000000 0.000000 0.000000 0.097935 0.000000 0.038963
# 5 -0.005689 -0.004561 0.000968 0.000000 0.025903 0.000000
# 6 0.000000 0.000000 0.000000 0.038963 0.000000 0.084780
#
#
# Mechanical properties :
#
#
# Convention : Reuss Voigt Hill
#
# Bulk Modulus (GPa) = 20.10500 43.80250 31.95375
# Shear Modulus (GPa) = 17.10752 33.33508 25.22130
#
# Velocity S-wave (km/s) = 2.67603 3.73550 3.24924
# Velocity P-wave (km/s) = 4.23840 6.07789 5.23951
#
# Compressibility (1/GPa) = 0.04973888
#
# Stress axis : x y z
#
# Youngs Moduli (GPa) = 41.21496 33.50101 232.97056
#
# Poissons Ratio (x) = 0.04169 0.49673
# Poissons Ratio (y) = 0.05129 0.22284
# Poissons Ratio (z) = 0.08788 0.03204
#
# Static dielectric constant tensor:
#      x y z
#    x 1.922980 0.000000 -0.090900 
#    y 0.000000 2.002420 0.000000 
#    z -0.090900 0.000000 2.083260 
# 
# From -- ./inp_files/110279.got.cif
#   From: 2010.05.17/outbox.cif.g08.bks.cpg/sg15_56_cif.got.tgz:110279.got - 2010.06.03 18:47:42.
