data_PCOD9254571
_publ_section_title
;
Structure prediction by ZEFSAII (Michael W. Deem and Ramdas Pophale) SiO2 
 PCOD9254571
Probable space group: C 2/C
;
_chemical_formula_sum "Si O2"
_cell_formula_units_Z 56
_cell_length_a 26.468787
_cell_length_b 14.309790
_cell_length_c 8.434910
_cell_angle_alpha 90.000000
_cell_angle_beta 126.115970
_cell_angle_gamma 90.000000
_cell_volume 2580.865538
_symmetry_space_group_name_H-M "C 2/C"
_symmetry_group_IT_number 15
_symmetry_cell_setting 'monoclinic'
loop_
_space_group_symop_operation_xyz
x,y,z
-x,y,1/2-z
-x,-y,-z
x,-y,1/2+z
1/2+x,1/2+y,z
1/2-x,1/2+y,1/2-z
1/2-x,1/2-y,-z
1/2+x,1/2-y,1/2+z
loop_
_atom_site_type_symbol
_atom_site_label
_atom_site_fract_x
_atom_site_fract_y
_atom_site_fract_z
Si Si1 0.094653 0.576173 0.839008
Si Si2 0.067660 0.771736 0.942876
Si Si3 0.640180 0.768047 0.871371
Si Si4 0.765310 0.622228 0.390316
Si Si5 0.248416 0.118306 0.020380
Si Si6 0.699261 0.342593 0.085645
Si Si7 0.436320 0.880037 0.558894
O O1 0.077828 0.663059 0.918313
O O2 0.079497 0.476961 0.884037
O O3 0.056883 0.596569 0.610329
O O4 0.167783 0.582829 0.931730
O O5 0.000000 0.799752 0.750000
O O6 0.083691 0.771080 0.159742
O O7 0.124643 0.830399 0.970187
O O8 0.694760 0.693024 0.969644
O O9 0.616672 0.804644 0.996142
O O10 0.678574 0.852487 0.859876
O O11 0.718583 0.613331 0.452442
O O12 0.775785 0.733956 0.375569
O O13 0.749471 0.570223 0.195797
O O14 0.227757 0.108747 0.796951
O O15 0.500000 0.843638 0.750000
#
# Coordination Sequence:
#
# PCOD9254571 Si02
#       7
#     8   8   8   8   8   8   8
#     4  11  22  33  47  64  89 134 176 205 237 276
#     4  10  18  31  46  66  98 128 160 200 243 292
#     4  10  18  32  49  68  88 125 167 202 253 283
#     4  10  17  30  50  69  87 113 163 211 248 283
#     4  10  16  32  52  69  91 113 158 217 253 289
#     4   9  17  27  48  73  87 116 159 199 255 298
#     4  12  24  35  46  64  98 137 176 203 229 286
#
# _framework density 21.698146000000001
#
# number of rings (size 3 to 8) (size 9 to 14) (size 15 to 20)
#    0.000    1.714    5.714    3.429    4.000    0.000 
#    0.000    0.000    0.000    0.000    0.000    0.000 
#    0.000    0.000    0.000   25.714   14.857    4.571 
#
# Total GULP energy -156023.081811 kJ/mol
# GULP energy per Si atom -5572.252922 kJ/mol
# Density = 2.164876 g / cm^3
# Si number density = 21.698146 Si / 1000 Ang^3
#
#
#
# Elastic Constant Matrix: (Units=GPa)
#
#
# Indices 1 2 3 4 5 6 
#
# 1 56.4799 3.4383 28.4503 0.0000 14.0373 0.0000
# 2 3.4383 23.8134 3.6026 0.0000 -0.9945 0.0000
# 3 28.4503 3.6026 123.7924 0.0000 18.8723 0.0000
# 4 0.0000 0.0000 0.0000 13.6754 0.0000 -6.7228
# 5 14.0373 -0.9945 18.8723 0.0000 20.5056 0.0000
# 6 0.0000 0.0000 0.0000 -6.7228 0.0000 14.1219
#
#
#
# Elastic Compliance Matrix: (Units=1/GPa)
#
#
# Indices 1 2 3 4 5 6 
#
# 1 0.022678 -0.003328 -0.003168 0.000000 -0.012770 0.000000
# 2 -0.003328 0.042909 -0.001336 0.000000 0.005589 0.000000
# 3 -0.003168 -0.001336 0.009916 0.000000 -0.007022 0.000000
# 4 0.000000 0.000000 0.000000 0.095466 0.000000 0.045447
# 5 -0.012770 0.005589 -0.007022 0.000000 0.064242 0.000000
# 6 0.000000 0.000000 0.000000 0.045447 0.000000 0.092447
#
#
# Mechanical properties :
#
#
# Convention : Reuss Voigt Hill
#
# Bulk Modulus (GPa) = 16.71187 30.56312 23.63750
# Shear Modulus (GPa) = 13.76394 20.90021 17.33207
#
# Velocity S-wave (km/s) = 2.52134 3.10695 2.82934
# Velocity P-wave (km/s) = 4.02429 5.19491 4.64661
#
# Compressibility (1/GPa) = 0.05983771
#
# Stress axis : x y z
#
# Youngs Moduli (GPa) = 44.09619 23.30496 100.85209
#
# Poissons Ratio (x) = 0.07757 0.31952
# Poissons Ratio (y) = 0.14677 0.13472
# Poissons Ratio (z) = 0.13971 0.03113
#
# Static dielectric constant tensor:
#      x y z
#    x 1.817240 0.000000 -0.033880 
#    y 0.000000 1.849830 0.000000 
#    z -0.033880 0.000000 1.844460 
# 
# From -- ./inp_files/66912.got.cif
#   From: 2010.05.17/outbox.cif.g08.bks.cpg/sg15_34_cif.got.tgz:66912.got - 2010.06.03 18:47:42.
