data_PCOD9254724
_publ_section_title
;
Structure prediction by ZEFSAII (Michael W. Deem and Ramdas Pophale) SiO2 
 PCOD9254724
Probable space group: C 2/C
;
_chemical_formula_sum "Si O2"
_cell_formula_units_Z 60
_cell_length_a 23.524352
_cell_length_b 14.473765
_cell_length_c 18.722341
_cell_angle_alpha 90.000000
_cell_angle_beta 149.777316
_cell_angle_gamma 90.000000
_cell_volume 3208.779210
_symmetry_space_group_name_H-M "C 2/C"
_symmetry_group_IT_number 15
_symmetry_cell_setting 'monoclinic'
loop_
_space_group_symop_operation_xyz
x,y,z
-x,y,1/2-z
-x,-y,-z
x,-y,1/2+z
1/2+x,1/2+y,z
1/2-x,1/2+y,1/2-z
1/2-x,1/2-y,-z
1/2+x,1/2-y,1/2+z
loop_
_atom_site_type_symbol
_atom_site_label
_atom_site_fract_x
_atom_site_fract_y
_atom_site_fract_z
Si Si1 0.651833 0.181805 0.545845
Si Si2 0.012008 0.629299 0.840859
Si Si3 0.667830 0.965262 0.865447
Si Si4 0.505156 0.209930 0.526041
Si Si5 0.422817 0.585435 0.395004
Si Si6 0.276174 0.139064 0.212910
Si Si7 0.000000 0.319415 0.750000
Si Si8 0.756940 0.482487 0.908309
O O1 0.595654 0.180570 0.563640
O O2 0.746384 0.260297 0.649053
O O3 0.560062 0.218271 0.387193
O O4 0.700413 0.080286 0.579661
O O5 0.973655 0.683848 0.868877
O O6 0.000000 0.676816 0.750000
O O7 0.928371 0.542109 0.746282
O O8 0.138751 0.589315 0.986431
O O9 0.712716 0.934226 0.838332
O O10 0.601364 0.879234 0.827154
O O11 0.755421 0.998430 0.020482
O O12 0.503160 0.321201 0.524575
O O13 0.392160 0.156117 0.380574
O O14 0.500000 0.500000 0.500000
O O15 0.323256 0.606255 0.343447
O O16 0.353944 0.558023 0.248907
#
# Coordination Sequence:
#
# PCOD9254724 Si02
#       8
#     8   8   8   8   8   8   4   8
#     4  10  21  34  58  90 118 158 203 254 299 369
#     4  10  19  37  63  91 116 150 208 260 300 359
#     4  10  19  36  59  93 119 155 205 251 303 371
#     4  11  22  39  62  86 121 157 211 254 296 376
#     4  11  25  43  59  87 125 159 198 256 311 370
#     4  11  22  38  60  89 118 164 207 244 313 372
#     4  10  16  34  54  84 128 146 194 256 300 348
#     4  10  19  38  61  84 126 161 192 253 314 349
#
# _framework density 18.698701
#
# number of rings (size 3 to 8) (size 9 to 14) (size 15 to 20)
#    0.000    1.600    6.000    0.800    1.867    3.200 
#    4.800    4.000    0.000    0.000    0.000    0.000 
#    0.000    0.000    0.000    0.000    0.000    0.000 
#
# Total GULP energy -167160.944184 kJ/mol
# GULP energy per Si atom -5572.031473 kJ/mol
# Density = 1.865614 g / cm^3
# Si number density = 18.698701 Si / 1000 Ang^3
#
#
#
# Elastic Constant Matrix: (Units=GPa)
#
#
# Indices 1 2 3 4 5 6 
#
# 1 78.3461 18.3443 30.5405 0.0000 -26.0195 0.0000
# 2 18.3443 40.8928 10.6773 0.0000 -6.6069 0.0000
# 3 30.5405 10.6773 65.6507 -0.0004 -21.0716 0.0003
# 4 0.0000 0.0000 -0.0004 2176.7983 -0.0002-2054.0440
# 5 -26.0195 -6.6069 -21.0716 -0.0002 29.3322 0.0002
# 6 0.0000 0.0000 0.0003-2054.0440 0.0002 1934.2074
#
#
#
# Elastic Compliance Matrix: (Units=1/GPa)
#
#
# Indices 1 2 3 4 5 6 
#
# 1 0.020281 -0.005812 -0.004075 0.000000 0.013754 0.000000
# 2 -0.005812 0.027500 -0.001866 0.000000 -0.000302 0.000000
# 3 -0.004075 -0.001866 0.020972 0.000000 0.011031 0.000000
# 4 0.000000 0.000000 0.000000 -0.221878 0.000000 -0.235625
# 5 0.013754 -0.000302 0.011031 0.000000 0.054149 0.000000
# 6 0.000000 0.000000 0.000000 -0.235625 0.000000 -0.249706
#
#
# Mechanical properties :
#
#
# Convention : Reuss Voigt Hill
#
# Bulk Modulus (GPa) = 22.10054 33.77932 27.93993
# Shear Modulus (GPa) = -16.12408 836.42272 410.14932
#
# Velocity S-wave (km/s) = -2.93970 21.17279 14.82642
# Velocity P-wave (km/s) = 0.56791 24.81573 17.55196
#
# Compressibility (1/GPa) = 0.04524776
#
# Stress axis : x y z
#
# Youngs Moduli (GPa) = 49.30722 36.36401 47.68346
#
# Poissons Ratio (x) = 0.21134 0.19430
# Poissons Ratio (y) = 0.28656 0.08896
# Poissons Ratio (z) = 0.20092 0.06784
#
# Static dielectric constant tensor:
#      x y z
#    x 1.650210 0.000000 -0.048980 
#    y 0.000000 1.637540 0.000000 
#    z -0.048980 0.000000 1.686450 
# 
# From -- ./inp_files/219604.got.cif
#   From: 2010.05.17/outbox.cif.g08.bks.cpg/sg15_110_cif.got.tgz:219604.got - 2010.06.03 18:47:42.
