data_PCOD9254759
_publ_section_title
;
Structure prediction by ZEFSAII (Michael W. Deem and Ramdas Pophale) SiO2 
 PCOD9254759
Probable space group: C 2/C
;
_chemical_formula_sum "Si O2"
_cell_formula_units_Z 52
_cell_length_a 21.099389
_cell_length_b 8.753192
_cell_length_c 12.582906
_cell_angle_alpha 90.000000
_cell_angle_beta 64.979961
_cell_angle_gamma 90.000000
_cell_volume 2105.824317
_symmetry_space_group_name_H-M "C 2/C"
_symmetry_group_IT_number 15
_symmetry_cell_setting 'monoclinic'
loop_
_space_group_symop_operation_xyz
x,y,z
-x,y,1/2-z
-x,-y,-z
x,-y,1/2+z
1/2+x,1/2+y,z
1/2-x,1/2+y,1/2-z
1/2-x,1/2-y,-z
1/2+x,1/2-y,1/2+z
loop_
_atom_site_type_symbol
_atom_site_label
_atom_site_fract_x
_atom_site_fract_y
_atom_site_fract_z
Si Si1 0.500000 0.494519 0.250000
Si Si2 0.735472 0.598569 0.073873
Si Si3 0.106915 0.756745 0.728304
Si Si4 0.105088 0.410050 0.006427
Si Si5 0.284206 0.351070 0.569698
Si Si6 0.078715 0.271709 0.580455
Si Si7 0.364908 0.907734 0.738275
O O1 0.450683 0.612220 0.219619
O O2 0.466590 0.375888 0.359122
O O3 0.679122 0.651883 0.198513
O O4 0.750000 0.750000 0.000000
O O5 0.812157 0.536425 0.047765
O O6 0.697231 0.497957 0.013272
O O7 0.096584 0.703183 0.611035
O O8 0.113648 0.587122 0.773655
O O9 0.056493 0.560016 0.054175
O O10 0.103027 0.338671 0.891461
O O11 0.250000 0.250000 0.500000
O O12 0.358708 0.279036 0.542839
O O13 0.219645 0.389004 0.693152
O O14 0.106784 0.323459 0.677565
#
# Coordination Sequence:
#
# PCOD9254759 Si02
#       7
#     4   8   8   8   8   8   8
#     4  12  24  42  70  76 116 172 200 254 314 318
#     4  10  16  34  59  86 122 144 186 251 291 349
#     4  10  22  40  60  91 120 158 207 245 285 363
#     4  10  21  39  64  90 123 159 191 243 312 363
#     4  10  16  34  59  86 122 144 186 251 291 349
#     4  10  22  40  60  91 120 158 207 245 285 363
#     4  10  21  39  64  90 123 159 191 243 312 363
#
# _framework density 24.693418999999999
#
# number of rings (size 3 to 8) (size 9 to 14) (size 15 to 20)
#    0.000    1.846    7.692    0.000    0.000    3.692 
#    0.000    6.154    0.000    0.000    0.000    0.000 
#    0.000    0.000    0.000    0.000    0.000    0.000 
#
# Total GULP energy -144799.551426 kJ/mol
# GULP energy per Si atom -5569.213516 kJ/mol
# Density = 2.463722 g / cm^3
# Si number density = 24.693419 Si / 1000 Ang^3
#
#
#
# Elastic Constant Matrix: (Units=GPa)
#
#
# Indices 1 2 3 4 5 6 
#
# 1 66.0367 34.8268 15.3570 0.0000 -17.7371 0.0000
# 2 34.8268 136.6266 28.6168 0.0000 -23.0039 0.0000
# 3 15.3570 28.6168 113.3841 0.0000 9.7299 0.0000
# 4 0.0000 0.0000 0.0000 25.6722 0.0000 -17.7074
# 5 -17.7371 -23.0039 9.7299 0.0000 34.1918 0.0000
# 6 0.0000 0.0000 0.0000 -17.7074 0.0000 30.7415
#
#
#
# Elastic Compliance Matrix: (Units=1/GPa)
#
#
# Indices 1 2 3 4 5 6 
#
# 1 0.019754 -0.002947 -0.002707 0.000000 0.009035 0.000000
# 2 -0.002947 0.009533 -0.002487 0.000000 0.005592 0.000000
# 3 -0.002707 -0.002487 0.010330 0.000000 -0.006017 0.000000
# 4 0.000000 0.000000 0.000000 0.064631 0.000000 0.037228
# 5 0.009035 0.005592 -0.006017 0.000000 0.039408 0.000000
# 6 0.000000 0.000000 0.000000 0.037228 0.000000 0.053973
#
#
# Mechanical properties :
#
#
# Convention : Reuss Voigt Hill
#
# Bulk Modulus (GPa) = 42.85405 52.62763 47.74084
# Shear Modulus (GPa) = 22.55416 33.93755 28.24585
#
# Velocity S-wave (km/s) = 3.02548 3.71125 3.38577
# Velocity P-wave (km/s) = 5.44029 6.30264 5.88727
#
# Compressibility (1/GPa) = 0.02333502
#
# Stress axis : x y z
#
# Youngs Moduli (GPa) = 50.62379 104.89966 96.80377
#
# Poissons Ratio (x) = 0.30915 0.26204
# Poissons Ratio (y) = 0.14919 0.24073
# Poissons Ratio (z) = 0.13704 0.26086
#
# Static dielectric constant tensor:
#      x y z
#    x 2.124340 0.000000 -0.072210 
#    y 0.000000 1.872610 0.000000 
#    z -0.072210 0.000000 2.001190 
# 
# From -- ./inp_files/171766.got.cif
#   From: 2010.05.17/outbox.cif.g08.bks.cpg/sg15_86_cif.got.tgz:171766.got - 2010.06.03 18:47:42.
