data_PCOD9254859
_publ_section_title
;
Structure prediction by ZEFSAII (Michael W. Deem and Ramdas Pophale) SiO2 
 PCOD9254859
Probable space group: C 2/C
;
_chemical_formula_sum "Si O2"
_cell_formula_units_Z 44
_cell_length_a 17.495791
_cell_length_b 8.278545
_cell_length_c 15.293212
_cell_angle_alpha 90.000000
_cell_angle_beta 94.045787
_cell_angle_gamma 90.000000
_cell_volume 2209.544164
_symmetry_space_group_name_H-M "C 2/C"
_symmetry_group_IT_number 15
_symmetry_cell_setting 'monoclinic'
loop_
_space_group_symop_operation_xyz
x,y,z
-x,y,1/2-z
-x,-y,-z
x,-y,1/2+z
1/2+x,1/2+y,z
1/2-x,1/2+y,1/2-z
1/2-x,1/2-y,-z
1/2+x,1/2-y,1/2+z
loop_
_atom_site_type_symbol
_atom_site_label
_atom_site_fract_x
_atom_site_fract_y
_atom_site_fract_z
Si Si1 0.595964 0.889904 0.296484
Si Si2 0.208011 0.189496 0.410696
Si Si3 0.397176 0.606646 0.634071
Si Si4 0.147489 0.687406 0.199271
Si Si5 0.996718 0.389808 0.585597
Si Si6 0.500000 0.609919 0.250000
O O1 0.642063 0.815059 0.380614
O O2 0.568882 0.734952 0.238759
O O3 0.644636 0.012221 0.243976
O O4 0.529116 0.993915 0.336845
O O5 0.250000 0.250000 0.500000
O O6 0.271392 0.202852 0.340076
O O7 0.167443 0.012826 0.409558
O O8 0.368554 0.685911 0.723610
O O9 0.431576 0.750185 0.577655
O O10 0.470238 0.498169 0.668662
O O11 0.077802 0.686319 0.122978
O O12 0.000000 0.500000 0.500000
#
# Coordination Sequence:
#
# PCOD9254859 Si02
#       6
#     8   8   8   8   8   4
#     4  10  20  38  63  87 122 163 213 251 311 378
#     4  11  24  40  58  94 134 161 203 274 324 374
#     4  10  21  40  65  88 126 169 217 256 315 391
#     4  11  20  41  64  90 119 171 217 253 308 395
#     4  11  21  39  63  94 125 163 208 267 319 371
#     4  10  16  36  62  94 108 154 210 266 286 372
#
# _framework density 19.913609999999998
#
# number of rings (size 3 to 8) (size 9 to 14) (size 15 to 20)
#    0.000    1.455    3.636    3.273    0.000    0.000 
#    3.273   12.727    0.000    0.000    0.000    0.000 
#    0.000    0.000    0.000    0.000    0.000    0.000 
#
# Total GULP energy -122669.329000 kJ/mol
# GULP energy per Si atom -5575.878591 kJ/mol
# Density = 1.986829 g / cm^3
# Si number density = 19.913610 Si / 1000 Ang^3
#
#
#
# Elastic Constant Matrix: (Units=GPa)
#
#
# Indices 1 2 3 4 5 6 
#
# 1 71.2080 37.9820 21.4367 0.0000 14.9976 0.0000
# 2 37.9820 115.7262 48.5192 0.0000 13.4688 0.0000
# 3 21.4367 48.5192 79.4420 0.0000 12.1212 0.0000
# 4 0.0000 0.0000 0.0000 24.5880 0.0000 8.1755
# 5 14.9976 13.4688 12.1212 0.0000 28.3233 0.0000
# 6 0.0000 0.0000 0.0000 8.1755 0.0000 28.7303
#
#
#
# Elastic Compliance Matrix: (Units=1/GPa)
#
#
# Indices 1 2 3 4 5 6 
#
# 1 0.018379 -0.004818 -0.000943 0.000000 -0.007037 0.000000
# 2 -0.004818 0.013069 -0.006550 0.000000 -0.000860 0.000000
# 3 -0.000943 -0.006550 0.017430 0.000000 -0.003845 0.000000
# 4 0.000000 0.000000 0.000000 0.044920 0.000000 -0.012783
# 5 -0.007037 -0.000860 -0.003845 0.000000 0.041088 0.000000
# 6 0.000000 0.000000 0.000000 -0.012783 0.000000 0.038444
#
#
# Mechanical properties :
#
#
# Convention : Reuss Voigt Hill
#
# Bulk Modulus (GPa) = 41.22898 53.58355 47.40626
# Shear Modulus (GPa) = 24.26745 26.89087 25.57916
#
# Velocity S-wave (km/s) = 3.49468 3.67873 3.58789
# Velocity P-wave (km/s) = 6.08544 6.70899 6.40481
#
# Compressibility (1/GPa) = 0.02425479
#
# Stress axis : x y z
#
# Youngs Moduli (GPa) = 54.40919 76.51867 57.37352
#
# Poissons Ratio (x) = 0.36864 0.05412
# Poissons Ratio (y) = 0.26212 0.37582
# Poissons Ratio (z) = 0.05133 0.50123
#
# Static dielectric constant tensor:
#      x y z
#    x 1.737440 0.000000 0.031750 
#    y 0.000000 1.724330 0.000000 
#    z 0.031750 0.000000 1.707740 
# 
# From -- ./inp_files/159329.got.cif
#   From: 2010.05.17/outbox.cif.g08.bks.cpg/sg15_80_cif.got.tgz:159329.got - 2010.06.03 18:47:42.
