data_PCOD9254003
_publ_section_title
;
Structure prediction by ZEFSAII (Michael W. Deem and Ramdas Pophale) SiO2 
 PCOD9254003
Probable space group: C 2/C
;
_chemical_formula_sum "Si O2"
_cell_formula_units_Z 52
_cell_length_a 11.839657
_cell_length_b 13.187580
_cell_length_c 16.049298
_cell_angle_alpha 90.000000
_cell_angle_beta 110.438469
_cell_angle_gamma 90.000000
_cell_volume 2348.129194
_symmetry_space_group_name_H-M "C 2/C"
_symmetry_group_IT_number 15
_symmetry_cell_setting 'monoclinic'
loop_
_space_group_symop_operation_xyz
x,y,z
-x,y,1/2-z
-x,-y,-z
x,-y,1/2+z
1/2+x,1/2+y,z
1/2-x,1/2+y,1/2-z
1/2-x,1/2-y,-z
1/2+x,1/2-y,1/2+z
loop_
_atom_site_type_symbol
_atom_site_label
_atom_site_fract_x
_atom_site_fract_y
_atom_site_fract_z
Si Si1 0.613324 0.253377 0.436324
Si Si2 0.446401 0.736252 0.025376
Si Si3 0.170731 0.532233 0.429494
Si Si4 0.540559 0.877507 0.174308
Si Si5 0.792276 0.561505 0.244801
Si Si6 0.500000 0.217702 0.250000
Si Si7 0.232796 0.112273 0.410635
O O1 0.750000 0.250000 0.500000
O O2 0.522681 0.312929 0.471806
O O3 0.593280 0.131258 0.431971
O O4 0.577683 0.282854 0.334215
O O5 0.547251 0.798956 0.102138
O O6 0.379058 0.664905 0.072616
O O7 0.345302 0.810282 0.958047
O O8 0.246552 0.553857 0.363367
O O9 0.238385 0.488701 0.527513
O O10 0.073297 0.448256 0.378151
O O11 0.500000 0.826374 0.250000
O O12 0.651697 0.951794 0.217541
O O13 0.900804 0.643454 0.265683
O O14 0.718779 0.593999 0.308183
#
# Coordination Sequence:
#
# PCOD9254003 Si02
#       7
#     8   8   8   8   8   4   8
#     4  11  21  37  57  85 115 157 208 248 288 357
#     4  10  20  33  51  88 119 151 187 239 319 355
#     4   9  18  33  55  83 111 156 206 240 290 355
#     4   9  15  30  53  82 112 141 195 251 286 340
#     4  10  15  31  58  83 112 155 200 252 296 345
#     4  10  18  36  56  82 116 154 206 248 296 354
#     4  10  19  33  57  82 122 150 186 249 311 361
#
# _framework density 22.145288999999998
#
# number of rings (size 3 to 8) (size 9 to 14) (size 15 to 20)
#    0.000    2.154    5.385    0.923    0.000    2.462 
#    5.538    3.846    0.000    0.000    2.000    0.000 
#    0.000    0.000    0.000    0.000    0.000    0.000 
#
# Total GULP energy -144809.997311 kJ/mol
# GULP energy per Si atom -5569.615281 kJ/mol
# Density = 2.209489 g / cm^3
# Si number density = 22.145289 Si / 1000 Ang^3
#
#
#
# Elastic Constant Matrix: (Units=GPa)
#
#
# Indices 1 2 3 4 5 6 
#
# 1 84.1274 2.6669 47.3424 0.0000 -23.3897 0.0000
# 2 2.6669 6.0547 5.8196 0.0000 -12.5513 0.0000
# 3 47.3424 5.8196 84.6035 0.0000 -23.4057 0.0000
# 4 0.0000 0.0000 0.0000 12.0217 0.0000 -7.6390
# 5 -23.3897 -12.5513 -23.4057 0.0000 34.4104 0.0000
# 6 0.0000 0.0000 0.0000 -7.6390 0.0000 9.5564
#
#
#
# Elastic Compliance Matrix: (Units=1/GPa)
#
#
# Indices 1 2 3 4 5 6 
#
# 1 0.026146 0.088252 -0.008474 0.000000 0.044199 0.000000
# 2 0.088252 1.028350 0.000302 0.000000 0.435288 0.000000
# 3 -0.008474 0.000302 0.018450 0.000000 0.006900 0.000000
# 4 0.000000 0.000000 0.000000 0.169050 0.000000 0.135131
# 5 0.044199 0.435288 0.006900 0.000000 0.222571 0.000000
# 6 0.000000 0.000000 0.000000 0.135131 0.000000 0.212660
#
#
# Mechanical properties :
#
#
# Convention : Reuss Voigt Hill
#
# Bulk Modulus (GPa) = 0.81096 31.82706 16.31901
# Shear Modulus (GPa) = 2.59323 19.12814 10.86068
#
# Velocity S-wave (km/s) = 1.08330 2.94216 2.21696
# Velocity P-wave (km/s) = 1.38987 5.09361 3.73340
#
# Compressibility (1/GPa) = 1.23310676
#
# Stress axis : x y z
#
# Youngs Moduli (GPa) = 38.24666 0.97243 54.20180
#
# Poissons Ratio (x) = -0.08582 0.45929
# Poissons Ratio (y) = -3.37535 -0.01637
# Poissons Ratio (z) = 0.32409 -0.00029
#
# Static dielectric constant tensor:
#      x y z
#    x 1.848860 0.000000 -0.049350 
#    y 0.000000 1.854760 0.000000 
#    z -0.049350 0.000000 2.035070 
# 
# From -- ./inp_files/144331.got.cif
#   From: 2010.05.17/outbox.cif.g08.bks.cpg/sg15_73_cif.got.tgz:144331.got - 2010.06.03 18:47:42.
