data_PCOD9254495
_publ_section_title
;
Structure prediction by ZEFSAII (Michael W. Deem and Ramdas Pophale) SiO2 
 PCOD9254495
Probable space group: C 2/C
;
_chemical_formula_sum "Si O2"
_cell_formula_units_Z 56
_cell_length_a 17.138966
_cell_length_b 9.499610
_cell_length_c 18.343170
_cell_angle_alpha 90.000000
_cell_angle_beta 123.760802
_cell_angle_gamma 90.000000
_cell_volume 2482.884091
_symmetry_space_group_name_H-M "C 2/C"
_symmetry_group_IT_number 15
_symmetry_cell_setting 'monoclinic'
loop_
_space_group_symop_operation_xyz
x,y,z
-x,y,1/2-z
-x,-y,-z
x,-y,1/2+z
1/2+x,1/2+y,z
1/2-x,1/2+y,1/2-z
1/2-x,1/2-y,-z
1/2+x,1/2-y,1/2+z
loop_
_atom_site_type_symbol
_atom_site_label
_atom_site_fract_x
_atom_site_fract_y
_atom_site_fract_z
Si Si1 0.824671 0.132397 0.107031
Si Si2 0.703423 0.899378 0.782288
Si Si3 0.886473 0.450213 0.963075
Si Si4 0.262125 0.576343 0.924604
Si Si5 0.891189 0.189606 0.863310
Si Si6 0.941409 0.388970 0.363540
Si Si7 0.098316 0.081219 0.201326
O O1 0.815692 0.302618 0.102041
O O2 0.890462 0.078141 0.205505
O O3 0.719233 0.081824 0.071937
O O4 0.833323 0.080422 0.028958
O O5 0.655927 0.754778 0.733283
O O6 0.795064 0.907733 0.776990
O O7 0.726843 0.925236 0.878998
O O8 0.626836 0.021106 0.723639
O O9 0.955232 0.449988 0.067429
O O10 0.923703 0.324328 0.927896
O O11 0.892327 0.589353 0.917082
O O12 0.314973 0.628598 0.879684
O O13 0.946376 0.054094 0.862012
O O14 0.948748 0.228651 0.343509
#
# Coordination Sequence:
#
# PCOD9254495 Si02
#       7
#     8   8   8   8   8   8   8
#     4  10  17  30  50  76 105 126 165 210 255 286
#     4  10  16  31  49  73  93 129 167 207 239 291
#     4   9  19  32  48  74 104 133 160 210 247 296
#     4   9  17  29  50  74 104 127 161 215 247 289
#     4   9  18  30  50  72 102 125 168 207 248 288
#     4  10  18  31  51  74 101 129 170 203 250 288
#     4  11  17  29  53  75  95 129 168 210 243 292
#
# _framework density 22.554417000000001
#
# number of rings (size 3 to 8) (size 9 to 14) (size 15 to 20)
#    0.000    2.286    5.714    0.857    0.000    0.571 
#    0.000    1.429    0.000    0.000    0.000    0.000 
#   12.857    0.000    0.000    0.000    0.000    0.000 
#
# Total GULP energy -155964.015328 kJ/mol
# GULP energy per Si atom -5570.143405 kJ/mol
# Density = 2.250308 g / cm^3
# Si number density = 22.554417 Si / 1000 Ang^3
#
#
#
# Elastic Constant Matrix: (Units=GPa)
#
#
# Indices 1 2 3 4 5 6 
#
# 1 30.0891 10.8909 19.7616 0.0000 6.6677 0.0000
# 2 10.8909 53.9089 29.1327 0.0000 -19.1193 0.0000
# 3 19.7616 29.1327 98.5346 0.0000 -14.9643 0.0000
# 4 0.0000 0.0000 0.0000 34.2591 0.0000 -7.0347
# 5 6.6677 -19.1193 -14.9643 0.0000 26.5797 0.0000
# 6 0.0000 0.0000 0.0000 -7.0347 0.0000 17.5403
#
#
#
# Elastic Compliance Matrix: (Units=1/GPa)
#
#
# Indices 1 2 3 4 5 6 
#
# 1 0.052575 -0.015729 -0.010514 0.000000 -0.030422 0.000000
# 2 -0.015729 0.032170 -0.002453 0.000000 0.025705 0.000000
# 3 -0.010514 -0.002453 0.014341 0.000000 0.008947 0.000000
# 4 0.000000 0.000000 0.000000 0.031809 0.000000 0.012757
# 5 -0.030422 0.025705 0.008947 0.000000 0.068782 0.000000
# 6 0.000000 0.000000 0.000000 0.012757 0.000000 0.062128
#
#
# Mechanical properties :
#
#
# Convention : Reuss Voigt Hill
#
# Bulk Modulus (GPa) = 23.98440 33.56701 28.77570
# Shear Modulus (GPa) = 15.01078 23.85896 19.43487
#
# Velocity S-wave (km/s) = 2.58260 3.25597 2.93864
# Velocity P-wave (km/s) = 4.42156 5.38982 4.92952
#
# Compressibility (1/GPa) = 0.04169377
#
# Stress axis : x y z
#
# Youngs Moduli (GPa) = 19.02058 31.08529 69.72844
#
# Poissons Ratio (x) = 0.48894 0.73311
# Poissons Ratio (y) = 0.29918 0.17104
# Poissons Ratio (z) = 0.19998 0.07625
#
# Static dielectric constant tensor:
#      x y z
#    x 1.853100 0.000000 -0.000730 
#    y 0.000000 1.910220 0.000000 
#    z -0.000730 0.000000 1.889070 
# 
# From -- ./inp_files/254888.got.cif
#   From: 2010.05.17/outbox.cif.g08.bks.cpg/sg15_128_cif.got.tgz:254888.got - 2010.06.03 18:47:42.
