data_PCOD9254876
_publ_section_title
;
Structure prediction by ZEFSAII (Michael W. Deem and Ramdas Pophale) SiO2 
 PCOD9254876
Probable space group: C 2/C
;
_chemical_formula_sum "Si O2"
_cell_formula_units_Z 64
_cell_length_a 21.725515
_cell_length_b 7.705404
_cell_length_c 16.689312
_cell_angle_alpha 90.000000
_cell_angle_beta 106.738269
_cell_angle_gamma 90.000000
_cell_volume 2675.480736
_symmetry_space_group_name_H-M "C 2/C"
_symmetry_group_IT_number 15
_symmetry_cell_setting 'monoclinic'
loop_
_space_group_symop_operation_xyz
x,y,z
-x,y,1/2-z
-x,-y,-z
x,-y,1/2+z
1/2+x,1/2+y,z
1/2-x,1/2+y,1/2-z
1/2-x,1/2-y,-z
1/2+x,1/2-y,1/2+z
loop_
_atom_site_type_symbol
_atom_site_label
_atom_site_fract_x
_atom_site_fract_y
_atom_site_fract_z
Si Si1 0.597021 0.035052 0.176142
Si Si2 0.816569 0.746180 0.419191
Si Si3 0.458844 0.203589 0.125101
Si Si4 0.712471 0.852636 0.268676
Si Si5 0.427224 0.533955 0.217818
Si Si6 0.515743 0.808318 0.039921
Si Si7 0.162270 0.961533 0.672571
Si Si8 0.893588 0.673791 0.590946
O O1 0.653529 0.985854 0.259931
O O2 0.566280 0.858262 0.127514
O O3 0.637208 0.135486 0.122727
O O4 0.532841 0.144552 0.174833
O O5 0.744545 0.754452 0.356715
O O6 0.830646 0.677228 0.512107
O O7 0.840235 0.945437 0.413634
O O8 0.430268 0.356687 0.168305
O O9 0.418630 0.023010 0.114575
O O10 0.461149 0.275912 0.033868
O O11 0.686819 0.732044 0.188476
O O12 0.777292 0.942552 0.262492
O O13 0.500000 0.596690 0.250000
O O14 0.398537 0.504799 0.294957
O O15 0.389999 0.693184 0.162857
O O16 0.451149 0.743881 0.056916
O O17 0.500000 0.000000 0.000000
#
# Coordination Sequence:
#
# PCOD9254876 Si02
#       8
#     8   8   8   8   8   8   8   8
#     4  10  16  36  66  93 125 161 229 277 307 387
#     4  10  17  40  67  93 123 166 237 273 312 378
#     4  10  21  41  65  97 133 180 212 277 347 395
#     4  10  21  39  69  90 127 177 234 274 307 386
#     4  12  28  42  59 105 148 163 210 279 356 412
#     4   8  16  32  65  95 118 167 228 265 315 393
#     4  10  24  41  64 101 127 171 229 280 320 398
#     4  10  21  42  66  96 133 178 220 277 337 392
#
# _framework density 23.920935
#
# number of rings (size 3 to 8) (size 9 to 14) (size 15 to 20)
#    0.750    1.500    5.000    0.750    3.500    2.000 
#    4.500    0.625    0.000    5.250    0.000    0.000 
#    0.000    0.000    0.000    0.000    0.000    0.000 
#
# Total GULP energy -178341.219668 kJ/mol
# GULP energy per Si atom -5573.163115 kJ/mol
# Density = 2.386649 g / cm^3
# Si number density = 23.920935 Si / 1000 Ang^3
#
#
#
# Elastic Constant Matrix: (Units=GPa)
#
#
# Indices 1 2 3 4 5 6 
#
# 1 103.7735 10.4935 9.5633 0.0000 23.5080 0.0000
# 2 10.4935 72.8771 14.0077 0.0000 8.5068 0.0000
# 3 9.5633 14.0077 30.8865 0.0000 11.2358 0.0000
# 4 0.0000 0.0000 0.0000 31.0062 0.0000 1.0151
# 5 23.5080 8.5068 11.2358 0.0000 47.1717 0.0000
# 6 0.0000 0.0000 0.0000 1.0151 0.0000 37.0382
#
#
#
# Elastic Compliance Matrix: (Units=1/GPa)
#
#
# Indices 1 2 3 4 5 6 
#
# 1 0.010967 -0.000757 -0.001220 0.000000 -0.005038 0.000000
# 2 -0.000757 0.015146 -0.006326 0.000000 -0.000847 0.000000
# 3 -0.001220 -0.006326 0.038306 0.000000 -0.007375 0.000000
# 4 0.000000 0.000000 0.000000 0.032281 0.000000 -0.000885
# 5 -0.005038 -0.000847 -0.007375 0.000000 0.025620 0.000000
# 6 0.000000 0.000000 0.000000 -0.000885 0.000000 0.027023
#
#
# Mechanical properties :
#
#
# Convention : Reuss Voigt Hill
#
# Bulk Modulus (GPa) = 20.91459 30.62957 25.77208
# Shear Modulus (GPa) = 27.48991 34.60805 31.04898
#
# Velocity S-wave (km/s) = 3.39366 3.80777 3.60666
# Velocity P-wave (km/s) = 4.91102 5.67137 5.30483
#
# Compressibility (1/GPa) = 0.04781351
#
# Stress axis : x y z
#
# Youngs Moduli (GPa) = 91.18599 66.02593 26.10533
#
# Poissons Ratio (x) = 0.04995 0.03184
# Poissons Ratio (y) = 0.06899 0.16515
# Poissons Ratio (z) = 0.11121 0.41770
#
# Static dielectric constant tensor:
#      x y z
#    x 1.919620 0.000000 -0.001140 
#    y 0.000000 1.971370 0.000000 
#    z -0.001140 0.000000 2.029250 
# 
# From -- ./inp_files/176623.got.cif
#   From: 2010.05.17/outbox.cif.g08.bks.cpg/sg15_89_cif.got.tgz:176623.got - 2010.06.03 18:47:42.
