data_PCOD9254706
_publ_section_title
;
Structure prediction by ZEFSAII (Michael W. Deem and Ramdas Pophale) SiO2 
 PCOD9254706
Probable space group: C 2/C
;
_chemical_formula_sum "Si O2"
_cell_formula_units_Z 64
_cell_length_a 11.525459
_cell_length_b 15.812141
_cell_length_c 18.912833
_cell_angle_alpha 90.000000
_cell_angle_beta 114.794886
_cell_angle_gamma 90.000000
_cell_volume 3128.980159
_symmetry_space_group_name_H-M "C 2/C"
_symmetry_group_IT_number 15
_symmetry_cell_setting 'monoclinic'
loop_
_space_group_symop_operation_xyz
x,y,z
-x,y,1/2-z
-x,-y,-z
x,-y,1/2+z
1/2+x,1/2+y,z
1/2-x,1/2+y,1/2-z
1/2-x,1/2-y,-z
1/2+x,1/2-y,1/2+z
loop_
_atom_site_type_symbol
_atom_site_label
_atom_site_fract_x
_atom_site_fract_y
_atom_site_fract_z
Si Si1 0.290645 0.299608 0.256325
Si Si2 0.564481 0.674997 0.194948
Si Si3 0.844853 0.124366 0.919477
Si Si4 0.050027 0.240247 0.992575
Si Si5 0.669596 0.781208 0.875069
Si Si6 0.081799 0.562000 0.701304
Si Si7 0.912587 0.326291 0.074065
Si Si8 0.254412 0.551388 0.333987
O O1 0.193323 0.224376 0.248633
O O2 0.350087 0.328686 0.344785
O O3 0.363197 0.268530 0.205177
O O4 0.200142 0.377867 0.213278
O O5 0.500000 0.644827 0.250000
O O6 0.476010 0.746315 0.133673
O O7 0.619985 0.597704 0.164110
O O8 0.734200 0.163523 0.940915
O O9 0.801152 0.029858 0.889824
O O10 0.984182 0.148017 0.984217
O O11 0.085106 0.261711 0.921205
O O12 0.184077 0.244478 0.068363
O O13 0.950149 0.304201 0.003599
O O14 0.677679 0.880507 0.860604
O O15 0.154284 0.478247 0.747010
O O16 0.000000 0.590437 0.750000
O O17 0.981629 0.585512 0.614615
#
# Coordination Sequence:
#
# PCOD9254706 Si02
#       8
#     8   8   8   8   8   8   8   8
#     4   9  16  35  63  83 111 156 214 244 289 361
#     4  10  17  35  60  86 118 157 200 251 302 363
#     4  11  22  37  63  96 116 156 214 262 301 354
#     4  11  23  39  63  87 124 170 209 238 302 388
#     4  10  22  42  59  86 128 172 195 249 314 372
#     4  10  16  33  62  88 110 153 200 252 302 350
#     4  11  18  39  66  85 119 167 210 242 300 373
#     4  10  21  37  59  93 120 151 203 256 319 344
#
# _framework density 20.453948
#
# number of rings (size 3 to 8) (size 9 to 14) (size 15 to 20)
#    0.000    1.750    7.500    1.125    0.000    1.000 
#    9.000    0.625    0.000    0.000    0.000    0.000 
#    0.000    0.000    0.000    0.000    0.000    0.000 
#
# Total GULP energy -178203.201003 kJ/mol
# GULP energy per Si atom -5568.850031 kJ/mol
# Density = 2.040739 g / cm^3
# Si number density = 20.453948 Si / 1000 Ang^3
#
#
#
# Elastic Constant Matrix: (Units=GPa)
#
#
# Indices 1 2 3 4 5 6 
#
# 1 125.0165 52.0921 53.1951 0.0000 -14.4603 0.0000
# 2 52.0921 91.0737 15.1170 0.0000 -11.3818 0.0000
# 3 53.1951 15.1170 36.8987 0.0000 -19.3450 0.0000
# 4 0.0000 0.0000 0.0000 23.5261 0.0000 -5.0824
# 5 -14.4603 -11.3818 -19.3450 0.0000 28.1818 0.0000
# 6 0.0000 0.0000 0.0000 -5.0824 0.0000 8.6569
#
#
#
# Elastic Compliance Matrix: (Units=1/GPa)
#
#
# Indices 1 2 3 4 5 6 
#
# 1 0.039213 -0.015305 -0.067102 0.000000 -0.032122 0.000000
# 2 -0.015305 0.017848 0.022519 0.000000 0.014813 0.000000
# 3 -0.067102 0.022519 0.158298 0.000000 0.083326 0.000000
# 4 0.000000 0.000000 0.000000 0.048680 0.000000 0.028580
# 5 -0.032122 0.014813 0.083326 0.000000 0.082182 0.000000
# 6 0.000000 0.000000 0.000000 0.028580 0.000000 0.132294
#
#
# Mechanical properties :
#
#
# Convention : Reuss Voigt Hill
#
# Bulk Modulus (GPa) = 10.46216 54.86637 32.66427
# Shear Modulus (GPa) = 7.93458 20.91193 14.42325
#
# Velocity S-wave (km/s) = 1.97172 3.20095 2.65836
# Velocity P-wave (km/s) = 3.21086 6.36742 5.04250
#
# Compressibility (1/GPa) = 0.09558253
#
# Stress axis : x y z
#
# Youngs Moduli (GPa) = 25.50167 56.02928 6.31718
#
# Poissons Ratio (x) = 0.85755 0.42389
# Poissons Ratio (y) = 0.39031 -0.14226
# Poissons Ratio (z) = 1.71121 -1.26171
#
# Static dielectric constant tensor:
#      x y z
#    x 1.744690 0.000000 0.026320 
#    y 0.000000 1.749060 0.000000 
#    z 0.026320 0.000000 1.804100 
# 
# From -- ./inp_files/238774.got.cif
#   From: 2010.05.17/outbox.cif.g08.bks.cpg/sg15_120_cif.got.tgz:238774.got - 2010.06.03 18:47:42.
