data_PCOD9254542
_publ_section_title
;
Structure prediction by ZEFSAII (Michael W. Deem and Ramdas Pophale) SiO2 
 PCOD9254542
Probable space group: C 2/C
;
_chemical_formula_sum "Si O2"
_cell_formula_units_Z 60
_cell_length_a 13.653596
_cell_length_b 11.815433
_cell_length_c 27.800620
_cell_angle_alpha 90.000000
_cell_angle_beta 139.007263
_cell_angle_gamma 90.000000
_cell_volume 2941.919261
_symmetry_space_group_name_H-M "C 2/C"
_symmetry_group_IT_number 15
_symmetry_cell_setting 'monoclinic'
loop_
_space_group_symop_operation_xyz
x,y,z
-x,y,1/2-z
-x,-y,-z
x,-y,1/2+z
1/2+x,1/2+y,z
1/2-x,1/2+y,1/2-z
1/2-x,1/2-y,-z
1/2+x,1/2-y,1/2+z
loop_
_atom_site_type_symbol
_atom_site_label
_atom_site_fract_x
_atom_site_fract_y
_atom_site_fract_z
Si Si1 0.824401 0.304646 0.889573
Si Si2 0.965432 0.922102 0.558733
Si Si3 0.679185 0.899337 0.504762
Si Si4 0.500000 0.654113 0.250000
Si Si5 0.217878 0.866660 0.409357
Si Si6 0.914298 0.977423 0.302641
Si Si7 0.589721 0.343582 0.506645
Si Si8 0.643586 0.946776 0.139952
O O1 0.837646 0.336756 0.950672
O O2 0.652229 0.278011 0.814671
O O3 0.863552 0.419284 0.875352
O O4 0.944229 0.207515 0.926198
O O5 0.826378 0.859294 0.531533
O O6 0.050606 0.857715 0.548433
O O7 0.888732 0.031848 0.505709
O O8 0.074098 0.964113 0.641288
O O9 0.523324 0.899356 0.418790
O O10 0.714172 0.029681 0.534298
O O11 0.471335 0.570777 0.284697
O O12 0.279579 0.747132 0.449734
O O13 0.275489 0.890702 0.376478
O O14 0.040526 0.880777 0.346832
O O15 0.753215 0.935570 0.225827
#
# Coordination Sequence:
#
# PCOD9254542 Si02
#       8
#     8   8   8   4   8   8   8   8
#     4  10  17  32  58  85 109 144 181 233 278 332
#     4  10  24  39  52  78 115 160 180 234 273 331
#     4  10  17  33  58  85 107 137 194 229 277 324
#     4  10  16  32  60  86 114 136 172 244 288 320
#     4  10  16  32  59  85 104 143 184 230 274 330
#     4  10  18  34  59  82 118 140 176 227 298 322
#     4  11  22  38  56  76 119 150 194 221 277 329
#     4  10  16  31  58  89 113 132 177 244 286 322
#
# _framework density 20.394849000000001
#
# number of rings (size 3 to 8) (size 9 to 14) (size 15 to 20)
#    0.000    1.867    8.000    0.800    0.000    2.667 
#    0.000    4.000    2.933    1.600    0.000    0.000 
#    0.000    0.000    0.000    0.000    0.000    0.000 
#
# Total GULP energy -167559.563874 kJ/mol
# GULP energy per Si atom -5585.318796 kJ/mol
# Density = 2.034843 g / cm^3
# Si number density = 20.394849 Si / 1000 Ang^3
#
#
#
# Elastic Constant Matrix: (Units=GPa)
#
#
# Indices 1 2 3 4 5 6 
#
# 1 46.2593 2.9484 32.8908 0.0000 -4.7283 0.0000
# 2 2.9484 46.7089 4.8032 0.0000 -5.7431 0.0000
# 3 32.8908 4.8032 152.7792 0.0000 20.8184 0.0000
# 4 0.0000 0.0000 0.0000 12.6495 0.0000 1.3347
# 5 -4.7283 -5.7431 20.8184 0.0000 30.9130 0.0000
# 6 0.0000 0.0000 0.0000 1.3347 0.0000 5.3716
#
#
#
# Elastic Compliance Matrix: (Units=1/GPa)
#
#
# Indices 1 2 3 4 5 6 
#
# 1 0.027658 0.000113 -0.007198 0.000000 0.009099 0.000000
# 2 0.000113 0.022173 -0.001415 0.000000 0.005090 0.000000
# 3 -0.007198 -0.001415 0.009166 0.000000 -0.007537 0.000000
# 4 0.000000 0.000000 0.000000 0.081183 0.000000 -0.020172
# 5 0.009099 0.005090 -0.007537 0.000000 0.039762 0.000000
# 6 0.000000 0.000000 0.000000 -0.020172 0.000000 0.191175
#
#
# Mechanical properties :
#
#
# Convention : Reuss Voigt Hill
#
# Bulk Modulus (GPa) = 23.81045 36.33689 30.07367
# Shear Modulus (GPa) = 12.43423 23.46049 17.94736
#
# Velocity S-wave (km/s) = 2.47184 3.39531 2.96969
# Velocity P-wave (km/s) = 4.45497 5.76422 5.15136
#
# Compressibility (1/GPa) = 0.04199836
#
# Stress axis : x y z
#
# Youngs Moduli (GPa) = 36.15646 45.09914 109.09405
#
# Poissons Ratio (x) = -0.00510 0.78521
# Poissons Ratio (y) = -0.00409 0.15436
# Poissons Ratio (z) = 0.26024 0.06381
#
# Static dielectric constant tensor:
#      x y z
#    x 1.739940 0.000000 0.001530 
#    y 0.000000 1.745190 0.000000 
#    z 0.001530 0.000000 1.730230 
# 
# From -- ./inp_files/313801.got.cif
#   From: 2010.05.17/outbox.cif.g08.bks.cpg/sg15_157_cif.got.tgz:313801.got - 2010.06.03 18:47:42.
