data_PCOD9254975
_publ_section_title
;
Structure prediction by ZEFSAII (Michael W. Deem and Ramdas Pophale) SiO2 
 PCOD9254975
Probable space group: C 2/C
;
_chemical_formula_sum "Si O2"
_cell_formula_units_Z 40
_cell_length_a 28.354815
_cell_length_b 7.426708
_cell_length_c 8.818867
_cell_angle_alpha 90.000000
_cell_angle_beta 131.383928
_cell_angle_gamma 90.000000
_cell_volume 1393.377862
_symmetry_space_group_name_H-M "C 2/C"
_symmetry_group_IT_number 15
_symmetry_cell_setting 'monoclinic'
loop_
_space_group_symop_operation_xyz
x,y,z
-x,y,1/2-z
-x,-y,-z
x,-y,1/2+z
1/2+x,1/2+y,z
1/2-x,1/2+y,1/2-z
1/2-x,1/2-y,-z
1/2+x,1/2-y,1/2+z
loop_
_atom_site_type_symbol
_atom_site_label
_atom_site_fract_x
_atom_site_fract_y
_atom_site_fract_z
Si Si1 0.789588 0.468354 0.940762
Si Si2 0.952966 0.326264 0.513318
Si Si3 0.342232 0.613537 0.229523
Si Si4 0.937750 0.086079 0.196517
Si Si5 0.864650 0.653722 0.316561
O O1 0.813937 0.287533 0.079741
O O2 0.822988 0.645778 0.077050
O O3 0.715467 0.480010 0.811115
O O4 0.813919 0.436568 0.824375
O O5 0.895779 0.198640 0.450287
O O6 0.968878 0.225111 0.388985
O O7 0.920855 0.513901 0.401239
O O8 0.000000 0.359846 0.750000
O O9 0.384160 0.506596 0.194653
O O10 0.000000 0.004089 0.250000
O O11 0.898091 0.192177 0.985238
#
# Coordination Sequence:
#
# PCOD9254975 Si02
#       5
#     8   8   8   8   8
#     4   9  16  29  47  59  94 117 156 172 228 252
#     4   9  18  28  44  67  95 119 147 176 221 266
#     4   7  16  31  43  60  88 130 142 181 212 271
#     4   9  18  28  44  67  95 119 147 176 221 266
#     4  10  17  26  44  72  89 122 138 186 218 278
#
# _framework density 28.707217
#
# number of rings (size 3 to 8) (size 9 to 14) (size 15 to 20)
#    1.200    2.000    2.000    0.600    2.800    1.600 
#    0.000    0.000    4.400    4.800    0.000    4.200 
#    0.000    0.000    0.000    0.000    0.000    0.000 
#
# Total GULP energy -111807.433055 kJ/mol
# GULP energy per Si atom -5590.371653 kJ/mol
# Density = 2.864188 g / cm^3
# Si number density = 28.707217 Si / 1000 Ang^3
#
#
#
# Elastic Constant Matrix: (Units=GPa)
#
#
# Indices 1 2 3 4 5 6 
#
# 1 170.0196 19.6125 40.1891 0.0000 24.2189 0.0000
# 2 19.6125 50.5203 9.6177 0.0000 4.4609 0.0000
# 3 40.1891 9.6177 147.1107 0.0000 27.1656 0.0000
# 4 0.0000 0.0000 0.0000 42.6693 0.0000 0.6757
# 5 24.2189 4.4609 27.1656 0.0000 52.3273 0.0000
# 6 0.0000 0.0000 0.0000 0.6757 0.0000 36.6141
#
#
#
# Elastic Compliance Matrix: (Units=1/GPa)
#
#
# Indices 1 2 3 4 5 6 
#
# 1 0.006761 -0.002179 -0.001284 0.000000 -0.002277 0.000000
# 2 -0.002179 0.020807 -0.000690 0.000000 -0.000407 0.000000
# 3 -0.001284 -0.000690 0.007823 0.000000 -0.003408 0.000000
# 4 0.000000 0.000000 0.000000 0.023443 0.000000 -0.000433
# 5 -0.002277 -0.000407 -0.003408 0.000000 0.021968 0.000000
# 6 0.000000 0.000000 0.000000 -0.000433 0.000000 0.027320
#
#
# Mechanical properties :
#
#
# Convention : Reuss Voigt Hill
#
# Bulk Modulus (GPa) = 36.92106 56.27660 46.59883
# Shear Modulus (GPa) = 39.85446 46.20424 43.02935
#
# Velocity S-wave (km/s) = 3.73004 4.01621 3.87577
# Velocity P-wave (km/s) = 5.60715 6.41504 6.02465
#
# Compressibility (1/GPa) = 0.02708482
#
# Stress axis : x y z
#
# Youngs Moduli (GPa) = 147.90913 48.06017 127.83077
#
# Poissons Ratio (x) = 0.10473 0.16415
# Poissons Ratio (y) = 0.32232 0.08818
# Poissons Ratio (z) = 0.18993 0.03315
#
# Static dielectric constant tensor:
#      x y z
#    x 2.145900 0.000000 0.010320 
#    y 0.000000 2.353720 0.000000 
#    z 0.010320 0.000000 2.202260 
# 
# From -- ./inp_files/65729.got.cif
#   From: 2010.05.17/outbox.cif.g08.bks.cpg/sg15_33_cif.got.tgz:65729.got - 2010.06.03 18:47:42.
