data_PCOD9254831
_publ_section_title
;
Structure prediction by ZEFSAII (Michael W. Deem and Ramdas Pophale) SiO2 
 PCOD9254831
Probable space group: C 2/C
;
_chemical_formula_sum "Si O2"
_cell_formula_units_Z 56
_cell_length_a 17.938835
_cell_length_b 9.518444
_cell_length_c 16.398011
_cell_angle_alpha 90.000000
_cell_angle_beta 121.377760
_cell_angle_gamma 90.000000
_cell_volume 2390.471634
_symmetry_space_group_name_H-M "C 2/C"
_symmetry_group_IT_number 15
_symmetry_cell_setting 'monoclinic'
loop_
_space_group_symop_operation_xyz
x,y,z
-x,y,1/2-z
-x,-y,-z
x,-y,1/2+z
1/2+x,1/2+y,z
1/2-x,1/2+y,1/2-z
1/2-x,1/2-y,-z
1/2+x,1/2-y,1/2+z
loop_
_atom_site_type_symbol
_atom_site_label
_atom_site_fract_x
_atom_site_fract_y
_atom_site_fract_z
Si Si1 0.379055 0.291348 0.625777
Si Si2 0.012329 0.368602 0.645446
Si Si3 0.273324 0.847126 0.298128
Si Si4 0.667370 0.862965 0.634353
Si Si5 0.456651 0.800414 0.343144
Si Si6 0.848170 0.282158 0.636330
Si Si7 0.229086 0.460245 0.497430
O O1 0.453606 0.283127 0.599769
O O2 0.416927 0.265068 0.736828
O O3 0.328170 0.433828 0.579932
O O4 0.308485 0.166724 0.578175
O O5 0.065243 0.342513 0.593052
O O6 0.007694 0.538920 0.649359
O O7 0.085192 0.331022 0.754622
O O8 0.924834 0.278215 0.609528
O O9 0.220564 0.771930 0.194941
O O10 0.374839 0.796190 0.357632
O O11 0.217670 0.817571 0.349100
O O12 0.287620 0.011370 0.287414
O O13 0.677528 0.930040 0.551509
O O14 0.786778 0.399394 0.560932
#
# Coordination Sequence:
#
# PCOD9254831 Si02
#       7
#     8   8   8   8   8   8   8
#     4  10  19  30  58  84 116 152 202 247 289 353
#     4   9  17  34  58  82 109 160 197 242 286 355
#     4  10  22  38  63  85 119 162 201 242 299 369
#     4  10  22  37  61  90 119 153 206 247 301 356
#     4  10  16  36  57  87 107 162 204 242 273 368
#     4  10  18  34  56  83 117 151 193 247 298 344
#     4  11  20  32  55  94 117 148 198 258 301 345
#
# _framework density 23.426341000000001
#
# number of rings (size 3 to 8) (size 9 to 14) (size 15 to 20)
#    0.000    2.000    4.286    0.857    0.000    1.143 
#    0.000    0.714   12.571    0.000    0.000    0.000 
#    0.000    0.000    0.000    0.000    0.000    0.000 
#
# Total GULP energy -155885.895994 kJ/mol
# GULP energy per Si atom -5567.353428 kJ/mol
# Density = 2.337302 g / cm^3
# Si number density = 23.426341 Si / 1000 Ang^3
#
#
#
# Elastic Constant Matrix: (Units=GPa)
#
#
# Indices 1 2 3 4 5 6 
#
# 1 208.4358 35.3452 16.4268 0.0000 7.3500 0.0000
# 2 35.3452 38.4196 19.7245 0.0000 5.6629 0.0000
# 3 16.4268 19.7245 39.1876 0.0000 -3.0360 0.0000
# 4 0.0000 0.0000 0.0000 15.8206 0.0000 -4.1473
# 5 7.3500 5.6629 -3.0360 0.0000 26.8112 0.0000
# 6 0.0000 0.0000 0.0000 -4.1473 0.0000 30.8747
#
#
#
# Elastic Compliance Matrix: (Units=1/GPa)
#
#
# Indices 1 2 3 4 5 6 
#
# 1 0.005692 -0.005306 0.000253 0.000000 -0.000411 0.000000
# 2 -0.005306 0.042616 -0.019986 0.000000 -0.009810 0.000000
# 3 0.000253 -0.019986 0.036111 0.000000 0.008241 0.000000
# 4 0.000000 0.000000 0.000000 0.065516 0.000000 0.008801
# 5 -0.000411 -0.009810 0.008241 0.000000 0.040416 0.000000
# 6 0.000000 0.000000 0.000000 0.008801 0.000000 0.033571
#
#
# Mechanical properties :
#
#
# Convention : Reuss Voigt Hill
#
# Bulk Modulus (GPa) = 29.12018 47.67067 38.39543
# Shear Modulus (GPa) = 17.51639 29.00439 23.26039
#
# Velocity S-wave (km/s) = 2.73742 3.52250 3.15448
# Velocity P-wave (km/s) = 4.73801 6.07761 5.44913
#
# Compressibility (1/GPa) = 0.03434044
#
# Stress axis : x y z
#
# Youngs Moduli (GPa) = 175.68801 23.46519 27.69263
#
# Poissons Ratio (x) = 0.12450 -0.00700
# Poissons Ratio (y) = 0.93212 0.55347
# Poissons Ratio (z) = -0.04439 0.46898
#
# Static dielectric constant tensor:
#      x y z
#    x 2.034160 0.000000 -0.038260 
#    y 0.000000 1.923210 0.000000 
#    z -0.038260 0.000000 1.933260 
# 
# From -- ./inp_files/210402.got.cif
#   From: 2010.05.17/outbox.cif.g08.bks.cpg/sg15_106_cif.got.tgz:210402.got - 2010.06.03 18:47:42.
