data_PCOD9254072
_publ_section_title
;
Structure prediction by ZEFSAII (Michael W. Deem and Ramdas Pophale) SiO2 
 PCOD9254072
Probable space group: C 2/C
;
_chemical_formula_sum "Si O2"
_cell_formula_units_Z 52
_cell_length_a 19.502396
_cell_length_b 8.257502
_cell_length_c 18.637609
_cell_angle_alpha 90.000000
_cell_angle_beta 39.504494
_cell_angle_gamma 90.000000
_cell_volume 1909.319902
_symmetry_space_group_name_H-M "C 2/C"
_symmetry_group_IT_number 15
_symmetry_cell_setting 'monoclinic'
loop_
_space_group_symop_operation_xyz
x,y,z
-x,y,1/2-z
-x,-y,-z
x,-y,1/2+z
1/2+x,1/2+y,z
1/2-x,1/2+y,1/2-z
1/2-x,1/2-y,-z
1/2+x,1/2-y,1/2+z
loop_
_atom_site_type_symbol
_atom_site_label
_atom_site_fract_x
_atom_site_fract_y
_atom_site_fract_z
Si Si1 0.351446 0.349807 0.604838
Si Si2 0.855342 0.586670 0.394285
Si Si3 0.519475 0.790566 0.070311
Si Si4 0.500000 0.808876 0.250000
Si Si5 0.718867 0.614363 0.632933
Si Si6 0.003077 0.845509 0.361194
Si Si7 0.132288 0.408195 0.850397
O O1 0.445667 0.336193 0.586985
O O2 0.307131 0.165551 0.621701
O O3 0.407557 0.416961 0.487326
O O4 0.251293 0.434514 0.723272
O O5 0.776268 0.527487 0.520685
O O6 0.799240 0.704660 0.384262
O O7 0.942714 0.707004 0.362289
O O8 0.901870 0.433808 0.316505
O O9 0.528163 0.745986 0.147116
O O10 0.448785 0.953760 0.112532
O O11 0.624930 0.840357 0.938473
O O12 0.596610 0.555107 0.744174
O O13 0.081577 0.748062 0.350837
#
# Coordination Sequence:
#
# PCOD9254072 Si02
#       7
#     8   8   8   4   8   8   8
#     4   9  18  30  48  72 102 129 166 206 245 297
#     4  10  16  24  42  70 106 127 149 203 253 302
#     4  10  20  31  54  75  99 132 169 206 254 286
#     4  12  18  30  46  76 102 124 168 218 236 288
#     4   9  16  24  41  69 100 135 151 187 260 312
#     4   9  14  27  45  70 100 127 157 197 250 308
#     4   9  17  33  50  75 103 131 165 209 244 300
#
# _framework density 27.234826999999999
#
# number of rings (size 3 to 8) (size 9 to 14) (size 15 to 20)
#    0.000    2.462    3.077    0.923    2.154    0.000 
#    0.000    0.769    0.000    8.308    0.000    0.000 
#    0.000    0.000    0.000    0.000    0.000    0.154 
#
# Total GULP energy -145081.668006 kJ/mol
# GULP energy per Si atom -5580.064154 kJ/mol
# Density = 2.717284 g / cm^3
# Si number density = 27.234827 Si / 1000 Ang^3
#
#
#
# Elastic Constant Matrix: (Units=GPa)
#
#
# Indices 1 2 3 4 5 6 
#
# 1 97.3254 -6.3165 35.6694 0.0000 23.4791 0.0000
# 2 -6.3165 22.3122 10.2548 0.0000 -0.9272 0.0000
# 3 35.6694 10.2548 245.7508 0.0000 8.3608 0.0000
# 4 0.0000 0.0000 0.0000 35.3164 0.0000 0.7206
# 5 23.4791 -0.9272 8.3608 0.0000 53.4319 0.0000
# 6 0.0000 0.0000 0.0000 0.7206 0.0000 21.1174
#
#
#
# Elastic Compliance Matrix: (Units=1/GPa)
#
#
# Indices 1 2 3 4 5 6 
#
# 1 0.012438 0.004138 -0.001804 0.000000 -0.005111 0.000000
# 2 0.004138 0.047135 -0.002547 0.000000 -0.000602 0.000000
# 3 -0.001804 -0.002547 0.004435 0.000000 0.000054 0.000000
# 4 0.000000 0.000000 0.000000 0.028335 0.000000 -0.000967
# 5 -0.005111 -0.000602 0.000054 0.000000 0.020942 0.000000
# 6 0.000000 0.000000 0.000000 -0.000967 0.000000 0.047387
#
#
# Mechanical properties :
#
#
# Convention : Reuss Voigt Hill
#
# Bulk Modulus (GPa) = 15.72772 49.40042 32.56407
# Shear Modulus (GPa) = 27.42822 43.69184 35.56003
#
# Velocity S-wave (km/s) = 3.17693 4.00967 3.61734
# Velocity P-wave (km/s) = 4.38686 6.29402 5.42491
#
# Compressibility (1/GPa) = 0.06358199
#
# Stress axis : x y z
#
# Youngs Moduli (GPa) = 80.40152 21.21544 225.45705
#
# Poissons Ratio (x) = -0.08778 0.40673
# Poissons Ratio (y) = -0.33268 0.57424
# Poissons Ratio (z) = 0.14505 0.05404
#
# Static dielectric constant tensor:
#      x y z
#    x 2.158500 0.000000 0.040500 
#    y 0.000000 2.247000 0.000000 
#    z 0.040500 0.000000 2.258180 
# 
# From -- ./inp_files/172764.got.cif
#   From: 2010.05.17/outbox.cif.g08.bks.cpg/sg15_87_cif.got.tgz:172764.got - 2010.06.03 18:47:42.
