data_PCOD9254358
_publ_section_title
;
Structure prediction by ZEFSAII (Michael W. Deem and Ramdas Pophale) SiO2 
 PCOD9254358
Probable space group: C 2/C
;
_chemical_formula_sum "Si O2"
_cell_formula_units_Z 44
_cell_length_a 26.423453
_cell_length_b 13.410043
_cell_length_c 5.346221
_cell_angle_alpha 90.000000
_cell_angle_beta 95.956045
_cell_angle_gamma 90.000000
_cell_volume 1884.151784
_symmetry_space_group_name_H-M "C 2/C"
_symmetry_group_IT_number 15
_symmetry_cell_setting 'monoclinic'
loop_
_space_group_symop_operation_xyz
x,y,z
-x,y,1/2-z
-x,-y,-z
x,-y,1/2+z
1/2+x,1/2+y,z
1/2-x,1/2+y,1/2-z
1/2-x,1/2-y,-z
1/2+x,1/2-y,1/2+z
loop_
_atom_site_type_symbol
_atom_site_label
_atom_site_fract_x
_atom_site_fract_y
_atom_site_fract_z
Si Si1 0.612646 0.931673 0.779107
Si Si2 0.758437 0.133113 0.968952
Si Si3 0.000000 0.431974 0.750000
Si Si4 0.633696 0.559524 0.634919
Si Si5 0.718227 0.852473 0.948633
Si Si6 0.521196 0.383723 0.010817
O O1 0.659804 0.855015 0.831090
O O2 0.616519 0.990720 0.516219
O O3 0.556234 0.883023 0.770197
O O4 0.749153 0.092370 0.242916
O O5 0.750000 0.250000 0.000000
O O6 0.814911 0.115595 0.902409
O O7 0.720339 0.103100 0.728271
O O8 0.000000 0.500000 0.500000
O O9 0.632895 0.471181 0.425718
O O10 0.581532 0.615198 0.548834
O O11 0.750000 0.750000 0.000000
O O12 0.500000 0.337043 0.250000
O O13 0.500000 0.336031 0.750000
O O14 0.500000 0.500000 0.000000
#
# Coordination Sequence:
#
# PCOD9254358 Si02
#       6
#     8   8   4   8   8   8
#     4  10  19  32  56  85 117 140 179 232 282 333
#     4  10  23  39  52  75 110 153 189 222 281 328
#     4   8  16  30  48  82 114 138 168 218 288 344
#     4  12  21  32  55  85 108 144 184 237 269 328
#     4  10  21  38  55  76 108 155 189 223 274 334
#     4  10  16  30  48  75 115 136 169 217 276 320
#
# _framework density 23.352682999999999
#
# number of rings (size 3 to 8) (size 9 to 14) (size 15 to 20)
#    0.000    1.818    3.636    2.182    0.000    4.364 
#    0.000    0.000    0.000    0.000   28.364    0.000 
#    0.000    0.000    0.000    0.000    0.000    0.000 
#
# Total GULP energy -122724.818183 kJ/mol
# GULP energy per Si atom -5578.400826 kJ/mol
# Density = 2.329953 g / cm^3
# Si number density = 23.352683 Si / 1000 Ang^3
#
#
#
# Elastic Constant Matrix: (Units=GPa)
#
#
# Indices 1 2 3 4 5 6 
#
# 1 203.7731 6.4686 17.3670 0.0000 21.8098 0.0000
# 2 6.4686 51.8995 -9.1936 0.0000 9.6519 0.0000
# 3 17.3670 -9.1936 177.8384 0.0000 -13.9150 0.0000
# 4 0.0000 0.0000 0.0000 -0.4971 0.0000 1.0989
# 5 21.8098 9.6519 -13.9150 0.0000 48.4000 0.0000
# 6 0.0000 0.0000 0.0000 1.0989 0.0000 25.1118
#
#
#
# Elastic Compliance Matrix: (Units=1/GPa)
#
#
# Indices 1 2 3 4 5 6 
#
# 1 0.005248 -0.000316 -0.000725 0.000000 -0.002510 0.000000
# 2 -0.000316 0.020124 0.000786 0.000000 -0.003645 0.000000
# 3 -0.000725 0.000786 0.005880 0.000000 0.001861 0.000000
# 4 0.000000 0.000000 0.000000 -1.834314 0.000000 0.080273
# 5 -0.002510 -0.003645 0.001861 0.000000 0.023054 0.000000
# 6 0.000000 0.000000 0.000000 0.080273 0.000000 0.036309
#
#
# Mechanical properties :
#
#
# Convention : Reuss Voigt Hill
#
# Bulk Modulus (GPa) = 32.52813 51.42167 41.97490
# Shear Modulus (GPa) = -2.88527 42.52755 19.82114
#
# Velocity S-wave (km/s) = -1.11274 4.27206 2.91653
# Velocity P-wave (km/s) = 3.50833 6.81186 5.41802
#
# Compressibility (1/GPa) = 0.03074263
#
# Stress axis : x y z
#
# Youngs Moduli (GPa) = 190.55122 49.69076 170.06449
#
# Poissons Ratio (x) = 0.01569 0.12334
# Poissons Ratio (y) = 0.06016 -0.13367
# Poissons Ratio (z) = 0.13819 -0.03906
#
# Static dielectric constant tensor:
#      x y z
#    x 1.774370 0.000000 0.040490 
#    y 0.000000 1.951830 0.000000 
#    z 0.040490 0.000000 1.922610 
# 
# From -- ./inp_files/12938.got.cif
#   From: 2010.05.17/outbox.cif.g08.bks.cpg/sg15_7_cif.got.tgz:12938.got - 2010.06.03 18:47:42.
