data_PCOD9254398
_publ_section_title
;
Structure prediction by ZEFSAII (Michael W. Deem and Ramdas Pophale) SiO2 
 PCOD9254398
Probable space group: C 2/C
;
_chemical_formula_sum "Si O2"
_cell_formula_units_Z 44
_cell_length_a 28.518845
_cell_length_b 8.590653
_cell_length_c 12.996245
_cell_angle_alpha 90.000000
_cell_angle_beta 27.862735
_cell_angle_gamma 90.000000
_cell_volume 1488.068131
_symmetry_space_group_name_H-M "C 2/C"
_symmetry_group_IT_number 15
_symmetry_cell_setting 'monoclinic'
loop_
_space_group_symop_operation_xyz
x,y,z
-x,y,1/2-z
-x,-y,-z
x,-y,1/2+z
1/2+x,1/2+y,z
1/2-x,1/2+y,1/2-z
1/2-x,1/2-y,-z
1/2+x,1/2-y,1/2+z
loop_
_atom_site_type_symbol
_atom_site_label
_atom_site_fract_x
_atom_site_fract_y
_atom_site_fract_z
Si Si1 0.105017 0.191957 0.238439
Si Si2 0.408759 0.847012 0.813659
Si Si3 0.611997 0.928559 0.409926
Si Si4 0.205391 0.087300 0.857724
Si Si5 0.000000 0.097348 0.750000
Si Si6 0.129612 0.852317 0.291733
O O1 0.128266 0.326105 0.276689
O O2 0.013155 0.799337 0.326674
O O3 0.985860 0.176292 0.445574
O O4 0.132511 0.021419 0.231434
O O5 0.495381 0.980597 0.634140
O O6 0.327767 0.719227 0.494635
O O7 0.356203 0.796391 0.811633
O O8 0.373092 0.853221 0.001674
O O9 0.714453 0.020660 0.235043
O O10 0.207076 0.136075 0.735204
O O11 0.102539 0.991044 0.049731
#
# Coordination Sequence:
#
# PCOD9254398 Si02
#       6
#     8   8   8   8   4   8
#     4  10  18  30  46  74 101 128 156 206 242 287
#     4   9  18  37  49  71  98 138 158 197 240 293
#     4   9  20  29  47  69 109 128 154 197 255 287
#     4  12  18  28  46  81  99 127 157 207 246 287
#     4  10  16  30  52  70 100 120 172 190 238 284
#     4  10  17  28  53  68  98 128 168 194 236 293
#
# _framework density 29.568538
#
# number of rings (size 3 to 8) (size 9 to 14) (size 15 to 20)
#    0.000    2.182    3.636    3.818    0.000    0.727 
#    0.000    0.000    0.000    0.000    0.000   28.000 
#    0.000    0.000    0.000    0.000    0.000    0.000 
#
# Total GULP energy -122587.886480 kJ/mol
# GULP energy per Si atom -5572.176658 kJ/mol
# Density = 2.950124 g / cm^3
# Si number density = 29.568538 Si / 1000 Ang^3
#
#
#
# Elastic Constant Matrix: (Units=GPa)
#
#
# Indices 1 2 3 4 5 6 
#
# 1 221.0930 32.7574 8.0685 0.0000 -14.9840 0.0000
# 2 32.7574 72.5604 -79.5405 0.0000 -1.7190 0.0000
# 3 8.0685 -79.5405 -525.3182 0.0000 15.8422 0.0000
# 4 0.0000 0.0000 0.0000 -3.7506 0.0000 7.8118
# 5 -14.9840 -1.7190 15.8422 0.0000 65.3482 0.0000
# 6 0.0000 0.0000 0.0000 7.8118 0.0000 39.2224
#
#
#
# Elastic Compliance Matrix: (Units=1/GPa)
#
#
# Indices 1 2 3 4 5 6 
#
# 1 0.004835 -0.001755 0.000369 0.000000 0.000973 0.000000
# 2 -0.001755 0.012493 -0.001907 0.000000 0.000388 0.000000
# 3 0.000369 -0.001907 -0.001596 0.000000 0.000422 0.000000
# 4 0.000000 0.000000 0.000000 -0.188452 0.000000 0.037533
# 5 0.000973 0.000388 0.000422 0.000000 0.015434 0.000000
# 6 0.000000 0.000000 0.000000 0.037533 0.000000 0.018020
#
#
# Mechanical properties :
#
#
# Convention : Reuss Voigt Hill
#
# Bulk Modulus (GPa) = 109.32789 -34.34378 37.49205
# Shear Modulus (GPa) = -38.57078 7.30067 -15.63506
#
# Velocity S-wave (km/s) = -3.61564 1.57303 -2.30200
# Velocity P-wave (km/s) = 4.42992 2.88807 2.37521
#
# Compressibility (1/GPa) = 0.00914680
#
# Stress axis : x y z
#
# Youngs Moduli (GPa) = 206.80473 80.04561 -626.37027
#
# Poissons Ratio (x) = 0.14048 0.23135
# Poissons Ratio (y) = 0.36295 -1.19439
# Poissons Ratio (z) = -0.07638 0.15263
#
# Static dielectric constant tensor:
#      x y z
#    x 2.276950 0.000000 0.152200 
#    y 0.000000 2.733890 0.000000 
#    z 0.152200 0.000000 3.336220 
# 
# From -- ./inp_files/177987.got.cif
#   From: 2010.05.17/outbox.cif.g08.bks.cpg/sg15_89_cif.got.tgz:177987.got - 2010.06.03 18:47:42.
