data_PCOD9255117
_publ_section_title
;
Structure prediction by ZEFSAII (Michael W. Deem and Ramdas Pophale) SiO2 
 PCOD9255117
Probable space group: C 2/C
;
_chemical_formula_sum "Si O2"
_cell_formula_units_Z 56
_cell_length_a 27.784418
_cell_length_b 17.593233
_cell_length_c 5.547546
_cell_angle_alpha 90.000000
_cell_angle_beta 63.264905
_cell_angle_gamma 90.000000
_cell_volume 2421.843168
_symmetry_space_group_name_H-M "C 2/C"
_symmetry_group_IT_number 15
_symmetry_cell_setting 'monoclinic'
loop_
_space_group_symop_operation_xyz
x,y,z
-x,y,1/2-z
-x,-y,-z
x,-y,1/2+z
1/2+x,1/2+y,z
1/2-x,1/2+y,1/2-z
1/2-x,1/2-y,-z
1/2+x,1/2-y,1/2+z
loop_
_atom_site_type_symbol
_atom_site_label
_atom_site_fract_x
_atom_site_fract_y
_atom_site_fract_z
Si Si1 0.062415 0.769469 0.101868
Si Si2 0.858413 0.995635 0.067963
Si Si3 0.919167 0.516568 0.846416
Si Si4 0.198928 0.459224 0.405632
Si Si5 0.675263 0.660824 0.360451
Si Si6 0.285002 0.657072 0.728938
Si Si7 0.937288 0.678918 0.897651
O O1 0.070178 0.715403 0.321078
O O2 0.000000 0.795933 0.250000
O O3 0.111048 0.828154 0.015640
O O4 0.069620 0.732296 0.820284
O O5 0.818675 0.068937 0.157152
O O6 0.889808 0.000506 0.247101
O O7 0.824437 0.917931 0.144748
O O8 0.947162 0.510009 0.526606
O O9 0.903046 0.603964 0.923888
O O10 0.865635 0.464904 0.953951
O O11 0.215625 0.500068 0.617849
O O12 0.225208 0.376508 0.349291
O O13 0.702343 0.693580 0.540908
O O14 0.698260 0.695008 0.060494
O O15 0.000000 0.653527 0.750000
#
# Coordination Sequence:
#
# PCOD9255117 Si02
#       7
#     8   8   8   8   8   8   8
#     4  10  21  37  56  78 107 149 193 230 269 316
#     4   8  14  23  39  64  92 121 163 214 260 303
#     4  10  21  35  56  88 114 141 173 218 286 340
#     4  10  18  30  49  80 110 136 171 215 274 332
#     4  10  18  29  49  76 104 138 186 225 264 324
#     4  10  17  28  48  77 105 135 180 229 273 323
#     4  10  21  38  58  81 112 146 185 229 272 326
#
# _framework density 23.122886000000001
#
# number of rings (size 3 to 8) (size 9 to 14) (size 15 to 20)
#    0.000    2.286    0.000    5.143    0.000    0.571 
#    0.000    0.000    0.000    7.714    0.000  106.000 
#    0.000    0.000    0.000    0.000    0.000    0.000 
#
# Total GULP energy -156116.759487 kJ/mol
# GULP energy per Si atom -5575.598553 kJ/mol
# Density = 2.307026 g / cm^3
# Si number density = 23.122886 Si / 1000 Ang^3
#
#
#
# Elastic Constant Matrix: (Units=GPa)
#
#
# Indices 1 2 3 4 5 6 
#
# 1 110.9185 19.4247 61.9608 0.0000 13.4685 0.0000
# 2 19.4247 27.5923 12.3030 0.0000 -2.4713 0.0000
# 3 61.9608 12.3030 190.5010 0.0000 62.1707 0.0000
# 4 0.0000 0.0000 0.0000 8.2428 0.0000 9.1480
# 5 13.4685 -2.4713 62.1707 0.0000 49.3093 0.0000
# 6 0.0000 0.0000 0.0000 9.1480 0.0000 47.1936
#
#
#
# Elastic Compliance Matrix: (Units=1/GPa)
#
#
# Indices 1 2 3 4 5 6 
#
# 1 0.012261 -0.006730 -0.003994 0.000000 0.001349 0.000000
# 2 -0.006730 0.043145 -0.003234 0.000000 0.008078 0.000000
# 3 -0.003994 -0.003234 0.010966 0.000000 -0.012898 0.000000
# 4 0.000000 0.000000 0.000000 0.154569 0.000000 -0.029961
# 5 0.001349 0.008078 -0.012898 0.000000 0.036579 0.000000
# 6 0.000000 0.000000 0.000000 -0.029961 0.000000 0.026997
#
#
# Mechanical properties :
#
#
# Convention : Reuss Voigt Hill
#
# Bulk Modulus (GPa) = 26.00224 57.37651 41.68938
# Shear Modulus (GPa) = 15.37269 36.63736 26.00503
#
# Velocity S-wave (km/s) = 2.58122 3.98485 3.35721
# Velocity P-wave (km/s) = 4.48924 6.78525 5.75295
#
# Compressibility (1/GPa) = 0.03845822
#
# Stress axis : x y z
#
# Youngs Moduli (GPa) = 81.55690 23.17740 91.18790
#
# Poissons Ratio (x) = 0.15599 0.36416
# Poissons Ratio (y) = 0.54891 0.29486
# Poissons Ratio (z) = 0.32570 0.07494
#
# Static dielectric constant tensor:
#      x y z
#    x 1.855990 0.000000 0.059120 
#    y 0.000000 1.900300 0.000000 
#    z 0.059120 0.000000 1.989960 
# 
# From -- ./inp_files/17161.got.cif
#   From: 2010.05.17/outbox.cif.g08.bks.cpg/sg15_9_cif.got.tgz:17161.got - 2010.06.03 18:47:42.
