data_PCOD9255818
_publ_section_title
;
Structure prediction by ZEFSAII (Michael W. Deem and Ramdas Pophale) SiO2 
 PCOD9255818
Probable space group: C 2/C
;
_chemical_formula_sum "Si O2"
_cell_formula_units_Z 64
_cell_length_a 9.323808
_cell_length_b 20.831271
_cell_length_c 22.118125
_cell_angle_alpha 90.000000
_cell_angle_beta 53.310901
_cell_angle_gamma 90.000000
_cell_volume 3444.862049
_symmetry_space_group_name_H-M "C 2/C"
_symmetry_group_IT_number 15
_symmetry_cell_setting 'monoclinic'
loop_
_space_group_symop_operation_xyz
x,y,z
-x,y,1/2-z
-x,-y,-z
x,-y,1/2+z
1/2+x,1/2+y,z
1/2-x,1/2+y,1/2-z
1/2-x,1/2-y,-z
1/2+x,1/2-y,1/2+z
loop_
_atom_site_type_symbol
_atom_site_label
_atom_site_fract_x
_atom_site_fract_y
_atom_site_fract_z
Si Si1 0.844176 0.081292 0.333597
Si Si2 0.750264 0.895625 0.449236
Si Si3 0.895450 0.540707 0.625293
Si Si4 0.458979 0.501501 0.618483
Si Si5 0.989687 0.205489 0.679622
Si Si6 0.606592 0.958889 0.660213
Si Si7 0.003829 0.658558 0.387145
Si Si8 0.186933 0.610261 0.739286
O O1 0.689391 0.134793 0.371797
O O2 0.000000 0.103231 0.250000
O O3 0.753073 0.015382 0.332302
O O4 0.940487 0.053592 0.368662
O O5 0.610080 0.934105 0.441491
O O6 0.649120 0.856389 0.525632
O O7 0.886591 0.949279 0.440974
O O8 0.863070 0.846663 0.379181
O O9 0.850408 0.598495 0.680979
O O10 0.061188 0.507447 0.616659
O O11 0.318562 0.463206 0.613391
O O12 0.319452 0.551380 0.686711
O O13 0.801544 0.174396 0.706629
O O14 0.000000 0.213677 0.750000
O O15 0.006017 0.271241 0.638425
O O16 0.500000 0.974081 0.750000
O O17 0.532023 0.890753 0.658453
O O18 0.000000 0.612023 0.750000
#
# Coordination Sequence:
#
# PCOD9255818 Si02
#       8
#     8   8   8   8   8   8   8   8
#     4  10  19  32  58  84 118 150 184 232 283 355
#     4  10  23  38  60  83 119 154 197 246 290 350
#     4  10  17  32  61  87 115 140 195 236 295 325
#     4  10  18  31  60  89 114 148 192 232 296 335
#     4  11  23  40  65  83 106 157 215 246 277 343
#     4  11  19  34  60  89 123 148 190 248 291 348
#     4  11  25  40  53  84 126 161 186 234 307 357
#     4  11  18  33  62  94 110 138 197 264 281 313
#
# _framework density 18.578392999999998
#
# number of rings (size 3 to 8) (size 9 to 14) (size 15 to 20)
#    0.000    1.500    5.000    1.500    0.000    5.500 
#    0.000    0.000    0.000    0.750    0.000    0.000 
#    0.000    0.000    0.000    0.000    0.000    0.000 
#
# Total GULP energy -178196.442054 kJ/mol
# GULP energy per Si atom -5568.638814 kJ/mol
# Density = 1.853611 g / cm^3
# Si number density = 18.578393 Si / 1000 Ang^3
#
#
#
# Elastic Constant Matrix: (Units=GPa)
#
#
# Indices 1 2 3 4 5 6 
#
# 1 137.4441 29.0672 24.5425 0.0000 -3.6098 -0.0001
# 2 29.0672 66.4144 3.9926 0.0000 -0.9664 0.0000
# 3 24.5425 3.9926 53.4242 0.0000 -3.1494 0.0000
# 4 0.0000 0.0000 0.0000 30.7639 0.0000 22.6785
# 5 -3.6098 -0.9664 -3.1494 0.0000 15.1459 0.0000
# 6 -0.0001 0.0000 0.0000 22.6785 0.0000 50.0188
#
#
#
# Elastic Compliance Matrix: (Units=1/GPa)
#
#
# Indices 1 2 3 4 5 6 
#
# 1 0.008717 -0.003578 -0.003673 0.000000 0.001085 0.000000
# 2 -0.003578 0.016602 0.000420 0.000000 0.000294 0.000000
# 3 -0.003673 0.000420 0.020576 0.000000 0.003430 0.000000
# 4 0.000000 0.000000 0.000000 0.048825 0.000000 -0.022137
# 5 0.001085 0.000294 0.003430 0.000000 0.067015 0.000000
# 6 0.000000 0.000000 0.000000 -0.022137 0.000000 0.030029
#
#
# Mechanical properties :
#
#
# Convention : Reuss Voigt Hill
#
# Bulk Modulus (GPa) = 31.02386 41.38747 36.20567
# Shear Modulus (GPa) = 23.12988 32.49775 27.81381
#
# Velocity S-wave (km/s) = 3.53227 4.18691 3.87344
# Velocity P-wave (km/s) = 5.77677 6.76012 6.28769
#
# Compressibility (1/GPa) = 0.03223325
#
# Stress axis : x y z
#
# Youngs Moduli (GPa) = 114.72047 60.23323 48.59982
#
# Poissons Ratio (x) = 0.21554 0.17851
# Poissons Ratio (y) = 0.41052 -0.02044
# Poissons Ratio (z) = 0.42137 -0.02533
#
# Static dielectric constant tensor:
#      x y z
#    x 1.702420 0.000000 -0.005230 
#    y 0.000000 1.627640 0.000000 
#    z -0.005230 0.000000 1.684580 
# 
# From -- ./inp_files/265925.got.cif
#   From: 2010.05.17/outbox.cif.g08.bks.cpg/sg15_133_cif.got.tgz:265925.got - 2010.06.03 18:47:42.
