data_PCOD9255672
_publ_section_title
;
Structure prediction by ZEFSAII (Michael W. Deem and Ramdas Pophale) SiO2 
 PCOD9255672
Probable space group: C 2/C
;
_chemical_formula_sum "Si O2"
_cell_formula_units_Z 60
_cell_length_a 20.270122
_cell_length_b 7.468702
_cell_length_c 17.472666
_cell_angle_alpha 90.000000
_cell_angle_beta 100.926575
_cell_angle_gamma 90.000000
_cell_volume 2597.257796
_symmetry_space_group_name_H-M "C 2/C"
_symmetry_group_IT_number 15
_symmetry_cell_setting 'monoclinic'
loop_
_space_group_symop_operation_xyz
x,y,z
-x,y,1/2-z
-x,-y,-z
x,-y,1/2+z
1/2+x,1/2+y,z
1/2-x,1/2+y,1/2-z
1/2-x,1/2-y,-z
1/2+x,1/2-y,1/2+z
loop_
_atom_site_type_symbol
_atom_site_label
_atom_site_fract_x
_atom_site_fract_y
_atom_site_fract_z
Si Si1 0.752093 0.063144 0.147075
Si Si2 0.330326 0.097035 0.728734
Si Si3 0.000000 0.046865 0.750000
Si Si4 0.008506 0.396868 0.921535
Si Si5 0.136468 0.211701 0.608289
Si Si6 0.462128 0.221415 0.837988
Si Si7 0.928238 0.895671 0.984165
Si Si8 0.355650 0.703194 0.709073
O O1 0.710957 0.959263 0.204561
O O2 0.792714 0.240568 0.180648
O O3 0.690059 0.146998 0.086218
O O4 0.811431 0.923004 0.144567
O O5 0.337358 0.907556 0.688486
O O6 0.403950 0.164039 0.767992
O O7 0.006605 0.907638 0.681663
O O8 0.065687 0.162737 0.776833
O O9 0.936387 0.301280 0.894220
O O10 0.012976 0.557336 0.861876
O O11 0.000000 0.500000 0.000000
O O12 0.065174 0.245244 0.944858
O O13 0.158052 0.162294 0.701272
O O14 0.126187 0.047635 0.547357
O O15 0.426364 0.269140 0.909477
O O16 0.000000 0.000000 0.000000
#
# Coordination Sequence:
#
# PCOD9255672 Si02
#       8
#     8   8   4   8   8   8   8   8
#     4  11  19  32  54  81 114 151 181 235 291 348
#     4  11  20  33  55  80 118 149 186 235 288 351
#     4  12  24  36  54  74 126 168 186 222 278 364
#     4   9  18  31  51  80 111 138 188 239 287 331
#     4  10  17  32  52  80 113 142 182 239 289 336
#     4  11  20  35  52  83 117 153 189 230 288 347
#     4   9  18  32  54  78 112 145 190 245 292 330
#     4  11  22  35  51  80 117 159 186 218 287 351
#
# _framework density 23.101289000000001
#
# number of rings (size 3 to 8) (size 9 to 14) (size 15 to 20)
#    0.000    1.600    8.000    0.000    0.000    0.533 
#    0.000    0.000    0.000    0.000    0.000    9.333 
#    0.000    0.267    0.000    0.000    0.000    0.000 
#
# Total GULP energy -167288.745240 kJ/mol
# GULP energy per Si atom -5576.291508 kJ/mol
# Density = 2.304871 g / cm^3
# Si number density = 23.101289 Si / 1000 Ang^3
#
#
#
# Elastic Constant Matrix: (Units=GPa)
#
#
# Indices 1 2 3 4 5 6 
#
# 1 52.4075 13.0591 11.1780 0.0000 3.3799 0.0000
# 2 13.0591 103.9252 11.5653 0.0000 6.1444 0.0000
# 3 11.1780 11.5653 49.9517 0.0000 10.7711 0.0000
# 4 0.0000 0.0000 0.0000 37.7693 0.0000 9.9087
# 5 3.3799 6.1444 10.7711 0.0000 12.1810 0.0000
# 6 0.0000 0.0000 0.0000 9.9087 0.0000 31.5756
#
#
#
# Elastic Compliance Matrix: (Units=1/GPa)
#
#
# Indices 1 2 3 4 5 6 
#
# 1 0.020497 -0.002075 -0.003837 0.000000 -0.001248 0.000000
# 2 -0.002075 0.010220 -0.001130 0.000000 -0.003581 0.000000
# 3 -0.003837 -0.001130 0.025684 0.000000 -0.021077 0.000000
# 4 0.000000 0.000000 0.000000 0.028852 0.000000 -0.009054
# 5 -0.001248 -0.003581 -0.021077 0.000000 0.102884 0.000000
# 6 0.000000 0.000000 0.000000 -0.009054 0.000000 0.034511
#
#
# Mechanical properties :
#
#
# Convention : Reuss Voigt Hill
#
# Bulk Modulus (GPa) = 23.63075 30.87659 27.25367
# Shear Modulus (GPa) = 19.93305 27.67066 23.80186
#
# Velocity S-wave (km/s) = 2.94063 3.46468 3.21335
# Velocity P-wave (km/s) = 4.66702 5.42218 5.05871
#
# Compressibility (1/GPa) = 0.04231774
#
# Stress axis : x y z
#
# Youngs Moduli (GPa) = 48.78719 97.84290 38.93412
#
# Poissons Ratio (x) = 0.20301 0.14940
# Poissons Ratio (y) = 0.10123 0.04399
# Poissons Ratio (z) = 0.18721 0.11056
#
# Static dielectric constant tensor:
#      x y z
#    x 1.912550 0.000000 -0.048740 
#    y 0.000000 1.918230 0.000000 
#    z -0.048740 0.000000 1.946790 
# 
# From -- ./inp_files/251615.got.cif
#   From: 2010.05.17/outbox.cif.g08.bks.cpg/sg15_126_cif.got.tgz:251615.got - 2010.06.03 18:47:42.
