data_PCOD9255580
_publ_section_title
;
Structure prediction by ZEFSAII (Michael W. Deem and Ramdas Pophale) SiO2 
 PCOD9255580
Probable space group: C 2/C
;
_chemical_formula_sum "Si O2"
_cell_formula_units_Z 56
_cell_length_a 11.193483
_cell_length_b 14.113573
_cell_length_c 21.188736
_cell_angle_alpha 90.000000
_cell_angle_beta 77.718687
_cell_angle_gamma 90.000000
_cell_volume 3270.792168
_symmetry_space_group_name_H-M "C 2/C"
_symmetry_group_IT_number 15
_symmetry_cell_setting 'monoclinic'
loop_
_space_group_symop_operation_xyz
x,y,z
-x,y,1/2-z
-x,-y,-z
x,-y,1/2+z
1/2+x,1/2+y,z
1/2-x,1/2+y,1/2-z
1/2-x,1/2-y,-z
1/2+x,1/2-y,1/2+z
loop_
_atom_site_type_symbol
_atom_site_label
_atom_site_fract_x
_atom_site_fract_y
_atom_site_fract_z
Si Si1 0.902623 0.563091 0.095044
Si Si2 0.805867 0.560822 0.422909
Si Si3 0.717737 0.650147 0.919501
Si Si4 0.693635 0.136252 0.939610
Si Si5 0.842946 0.267768 0.833910
Si Si6 0.863278 0.728603 0.187829
Si Si7 0.571485 0.215323 0.518237
O O1 0.839951 0.464495 0.087252
O O2 0.845939 0.624674 0.158251
O O3 0.047222 0.543559 0.088302
O O4 0.894304 0.631573 0.035124
O O5 0.737482 0.462012 0.420785
O O6 0.770430 0.613529 0.492168
O O7 0.792942 0.633346 0.366912
O O8 0.686010 0.692733 0.854913
O O9 0.843041 0.698120 0.931124
O O10 0.612777 0.688660 0.978876
O O11 0.791673 0.187647 0.885602
O O12 0.571254 0.200905 0.953984
O O13 0.812047 0.259151 0.763716
O O14 0.989528 0.265371 0.824264
#
# Coordination Sequence:
#
# PCOD9255580 Si02
#       7
#     8   8   8   8   8   8   8
#     4   9  16  32  57  79 102 130 174 214 252 302
#     4  10  18  32  55  83 101 132 175 215 250 304
#     4  10  17  31  57  78 107 132 168 211 255 315
#     4  11  18  33  55  83 105 132 165 219 264 299
#     4  10  22  37  51  69 107 140 177 213 247 308
#     4   9  21  38  52  71  98 146 177 207 258 301
#     4   9  17  30  53  86 109 127 159 214 271 302
#
# _framework density 17.121234000000001
#
# number of rings (size 3 to 8) (size 9 to 14) (size 15 to 20)
#    0.000    2.286    2.857    2.143    0.000    1.143 
#    0.000    3.571    0.000    0.000    0.000    0.000 
#    0.000    0.000    0.000    0.000    0.000    0.000 
#
# Total GULP energy -156140.980271 kJ/mol
# GULP energy per Si atom -5576.463581 kJ/mol
# Density = 1.708227 g / cm^3
# Si number density = 17.121234 Si / 1000 Ang^3
#
#
#
# Elastic Constant Matrix: (Units=GPa)
#
#
# Indices 1 2 3 4 5 6 
#
# 1 32.8254 29.3769 34.0210 0.0000 10.1595 0.0000
# 2 29.3769 89.9255 51.2152 0.0000 -6.6060 0.0000
# 3 34.0210 51.2152 128.7153 0.0000 12.5615 0.0000
# 4 0.0000 0.0000 0.0000 14.2620 0.0000 5.3193
# 5 10.1595 -6.6060 12.5615 0.0000 25.1438 0.0000
# 6 0.0000 0.0000 0.0000 5.3193 0.0000 24.5586
#
#
#
# Elastic Compliance Matrix: (Units=1/GPa)
#
#
# Indices 1 2 3 4 5 6 
#
# 1 0.061977 -0.018577 -0.006381 0.000000 -0.026735 0.000000
# 2 -0.018577 0.021213 -0.005053 0.000000 0.015604 0.000000
# 3 -0.006381 -0.005053 0.011926 0.000000 -0.004708 0.000000
# 4 0.000000 0.000000 0.000000 0.076279 0.000000 -0.016522
# 5 -0.026735 0.015604 -0.004708 0.000000 0.057025 0.000000
# 6 0.000000 0.000000 0.000000 -0.016522 0.000000 0.044298
#
#
# Mechanical properties :
#
#
# Convention : Reuss Voigt Hill
#
# Bulk Modulus (GPa) = 28.49456 53.41027 40.95242
# Shear Modulus (GPa) = 14.51648 21.91642 18.21645
#
# Velocity S-wave (km/s) = 2.91497 3.58169 3.26539
# Velocity P-wave (km/s) = 5.29229 6.95469 6.17965
#
# Compressibility (1/GPa) = 0.03509442
#
# Stress axis : x y z
#
# Youngs Moduli (GPa) = 16.13511 47.14022 83.85254
#
# Poissons Ratio (x) = 0.87571 0.53502
# Poissons Ratio (y) = 0.29974 0.42375
# Poissons Ratio (z) = 0.10295 0.23822
#
# Static dielectric constant tensor:
#      x y z
#    x 1.588700 0.000000 0.010320 
#    y 0.000000 1.577590 0.000000 
#    z 0.010320 0.000000 1.583270 
# 
# From -- ./inp_files/238331.got.cif
#   From: 2010.05.17/outbox.cif.g08.bks.cpg/sg15_120_cif.got.tgz:238331.got - 2010.06.03 18:47:42.
