data_PCOD9255451
_publ_section_title
;
Structure prediction by ZEFSAII (Michael W. Deem and Ramdas Pophale) SiO2 
 PCOD9255451
Probable space group: C 2/C
;
_chemical_formula_sum "Si O2"
_cell_formula_units_Z 56
_cell_length_a 11.567309
_cell_length_b 28.221650
_cell_length_c 9.000235
_cell_angle_alpha 90.000000
_cell_angle_beta 83.911428
_cell_angle_gamma 90.000000
_cell_volume 2921.540082
_symmetry_space_group_name_H-M "C 2/C"
_symmetry_group_IT_number 15
_symmetry_cell_setting 'monoclinic'
loop_
_space_group_symop_operation_xyz
x,y,z
-x,y,1/2-z
-x,-y,-z
x,-y,1/2+z
1/2+x,1/2+y,z
1/2-x,1/2+y,1/2-z
1/2-x,1/2-y,-z
1/2+x,1/2-y,1/2+z
loop_
_atom_site_type_symbol
_atom_site_label
_atom_site_fract_x
_atom_site_fract_y
_atom_site_fract_z
Si Si1 0.556498 0.391628 0.027602
Si Si2 0.000000 0.758814 0.750000
Si Si3 0.341617 0.207698 0.528131
Si Si4 0.410633 0.301463 0.036619
Si Si5 0.000000 0.723534 0.250000
Si Si6 0.866146 0.041170 0.221433
Si Si7 0.233112 0.870746 0.247795
Si Si8 0.309870 0.552289 0.552921
O O1 0.625497 0.411054 0.876553
O O2 0.521745 0.336612 0.025841
O O3 0.630638 0.395809 0.166065
O O4 0.437057 0.421667 0.042729
O O5 0.070798 0.729463 0.861694
O O6 0.092925 0.787126 0.635041
O O7 0.250000 0.250000 0.500000
O O8 0.410320 0.196450 0.367123
O O9 0.294874 0.160552 0.613927
O O10 0.431952 0.258031 0.144725
O O11 0.309704 0.332244 0.124654
O O12 0.791428 0.047189 0.379992
O O13 0.000000 0.029370 0.250000
O O14 0.821616 0.998721 0.125559
O O15 0.277624 0.913961 0.343261
#
# Coordination Sequence:
#
# PCOD9255451 Si02
#       8
#     8   4   8   8   4   8   8   8
#     4  10  18  28  47  74 108 148 184 221 267 337
#     4  10  24  34  56  78 111 147 192 240 280 342
#     4  11  22  41  57  82 108 150 191 241 291 336
#     4  10  17  31  48  74 104 142 183 226 265 329
#     4  10  18  38  54  76 107 143 188 226 290 330
#     4  10  18  29  43  71 110 151 184 215 272 334
#     4  11  19  32  51  72 104 143 185 227 272 321
#     4  10  19  29  46  71 109 150 183 223 269 340
#
# _framework density 19.167971999999999
#
# number of rings (size 3 to 8) (size 9 to 14) (size 15 to 20)
#    0.000    1.714    2.857    5.571    5.000    0.571 
#    0.000    0.000    0.000    0.000    0.000    0.000 
#    0.000   13.714    0.000    0.000    0.000    0.000 
#
# Total GULP energy -155963.042114 kJ/mol
# GULP energy per Si atom -5570.108647 kJ/mol
# Density = 1.912435 g / cm^3
# Si number density = 19.167972 Si / 1000 Ang^3
#
#
#
# Elastic Constant Matrix: (Units=GPa)
#
#
# Indices 1 2 3 4 5 6 
#
# 1 18.4525 4.0714 16.9274 0.0000 -4.8615 0.0000
# 2 4.0714 46.6427 47.7865 0.0000 -19.5615 0.0000
# 3 16.9274 47.7865 171.8920 0.0000 -24.4022 0.0000
# 4 0.0000 0.0000 0.0000 38.5461 0.0000 -5.9802
# 5 -4.8615 -19.5615 -24.4022 0.0000 27.6067 0.0000
# 6 0.0000 0.0000 0.0000 -5.9802 0.0000 6.9938
#
#
#
# Elastic Compliance Matrix: (Units=1/GPa)
#
#
# Indices 1 2 3 4 5 6 
#
# 1 0.060997 0.004439 -0.006026 0.000000 0.008561 0.000000
# 2 0.004439 0.037924 -0.008067 0.000000 0.020524 0.000000
# 3 -0.006026 -0.008067 0.008795 0.000000 0.000997 0.000000
# 4 0.000000 0.000000 0.000000 0.029911 0.000000 0.025576
# 5 0.008561 0.020524 0.000997 0.000000 0.053155 0.000000
# 6 0.000000 0.000000 0.000000 0.025576 0.000000 0.164854
#
#
# Mechanical properties :
#
#
# Convention : Reuss Voigt Hill
#
# Bulk Modulus (GPa) = 11.31094 41.61754 26.46424
# Shear Modulus (GPa) = 12.36368 25.84278 19.10323
#
# Velocity S-wave (km/s) = 2.54247 3.67580 3.16036
# Velocity P-wave (km/s) = 3.81217 6.30671 5.21091
#
# Compressibility (1/GPa) = 0.08841001
#
# Stress axis : x y z
#
# Youngs Moduli (GPa) = 16.39432 26.36870 113.69978
#
# Poissons Ratio (x) = -0.11706 0.68511
# Poissons Ratio (y) = -0.07278 0.91716
# Poissons Ratio (z) = 0.09879 0.21270
#
# Static dielectric constant tensor:
#      x y z
#    x 1.685260 0.000000 -0.042540 
#    y 0.000000 1.720940 0.000000 
#    z -0.042540 0.000000 1.729230 
# 
# From -- ./inp_files/44109.got.cif
#   From: 2010.05.17/outbox.cif.g08.bks.cpg/sg15_23_cif.got.tgz:44109.got - 2010.06.03 18:47:42.
