data_PCOD9255834
_publ_section_title
;
Structure prediction by ZEFSAII (Michael W. Deem and Ramdas Pophale) SiO2 
 PCOD9255834
Probable space group: C 2/C
;
_chemical_formula_sum "Si O2"
_cell_formula_units_Z 48
_cell_length_a 26.749832
_cell_length_b 14.996900
_cell_length_c 9.040336
_cell_angle_alpha 90.000000
_cell_angle_beta 58.942212
_cell_angle_gamma 90.000000
_cell_volume 3106.770900
_symmetry_space_group_name_H-M "C 2/C"
_symmetry_group_IT_number 15
_symmetry_cell_setting 'monoclinic'
loop_
_space_group_symop_operation_xyz
x,y,z
-x,y,1/2-z
-x,-y,-z
x,-y,1/2+z
1/2+x,1/2+y,z
1/2-x,1/2+y,1/2-z
1/2-x,1/2-y,-z
1/2+x,1/2-y,1/2+z
loop_
_atom_site_type_symbol
_atom_site_label
_atom_site_fract_x
_atom_site_fract_y
_atom_site_fract_z
Si Si1 0.185564 0.940614 0.555553
Si Si2 0.740781 0.818797 0.880073
Si Si3 0.421869 0.422209 0.548416
Si Si4 0.327108 0.645733 0.993162
Si Si5 0.966133 0.876506 0.952440
Si Si6 0.345268 0.293860 0.141557
O O1 0.240593 0.911183 0.571852
O O2 0.127146 0.925932 0.745902
O O3 0.178314 0.875799 0.425133
O O4 0.191680 0.042682 0.500387
O O5 0.787659 0.807510 0.676876
O O6 0.679207 0.794679 0.899953
O O7 0.750000 0.750000 0.000000
O O8 0.392043 0.368769 0.460367
O O9 0.483242 0.380383 0.502696
O O10 0.436373 0.525245 0.490972
O O11 0.323931 0.693935 0.841492
O O12 0.000000 0.861578 0.750000
O O13 0.914579 0.806091 0.045200
#
# Coordination Sequence:
#
# PCOD9255834 Si02
#       6
#     8   8   8   8   8   8
#     4  10  17  33  47  67  92 130 168 201 233 280
#     4   9  21  33  47  64  95 129 157 202 249 285
#     4  10  19  28  42  69  97 133 170 198 216 269
#     4  11  18  31  49  68  92 127 168 200 237 284
#     4  11  19  27  44  65 101 136 169 191 226 275
#     4  11  19  30  43  66  96 133 162 200 241 274
#
# _framework density 15.450124000000001
#
# number of rings (size 3 to 8) (size 9 to 14) (size 15 to 20)
#    0.000    1.667    5.000    1.500    2.333    0.000 
#    0.000    0.000    0.000    0.000    0.000    0.000 
#    0.000    1.333    0.667    0.167    0.000    0.000 
#
# Total GULP energy -133698.950692 kJ/mol
# GULP energy per Si atom -5570.789612 kJ/mol
# Density = 1.541496 g / cm^3
# Si number density = 15.450124 Si / 1000 Ang^3
#
#
#
# Elastic Constant Matrix: (Units=GPa)
#
#
# Indices 1 2 3 4 5 6 
#
# 1 114.2861 33.7076 23.4873 0.0000 -4.5135 0.0000
# 2 33.7076 22.8359 17.3575 0.0000 -6.6483 0.0000
# 3 23.4873 17.3575 81.2023 0.0000 10.5591 0.0000
# 4 0.0000 0.0000 0.0000 20.8833 0.0000 -0.7492
# 5 -4.5135 -6.6483 10.5591 0.0000 27.2787 0.0000
# 6 0.0000 0.0000 0.0000 -0.7492 0.0000 28.2897
#
#
#
# Elastic Compliance Matrix: (Units=1/GPa)
#
#
# Indices 1 2 3 4 5 6 
#
# 1 0.015892 -0.025806 0.001469 0.000000 -0.004229 0.000000
# 2 -0.025806 0.104155 -0.018475 0.000000 0.028266 0.000000
# 3 0.001469 -0.018475 0.017262 0.000000 -0.010941 0.000000
# 4 0.000000 0.000000 0.000000 0.047931 0.000000 0.001269
# 5 -0.004229 0.028266 -0.010941 0.000000 0.047083 0.000000
# 6 0.000000 0.000000 0.000000 0.001269 0.000000 0.035382
#
#
# Mechanical properties :
#
#
# Convention : Reuss Voigt Hill
#
# Bulk Modulus (GPa) = 19.34790 40.82546 30.08668
# Shear Modulus (GPa) = 13.49319 24.87511 19.18415
#
# Velocity S-wave (km/s) = 2.95844 4.01687 3.52757
# Velocity P-wave (km/s) = 4.92136 6.92784 6.00894
#
# Compressibility (1/GPa) = 0.05168519
#
# Stress axis : x y z
#
# Youngs Moduli (GPa) = 62.92337 9.60109 57.93146
#
# Poissons Ratio (x) = 0.24777 -0.08512
# Poissons Ratio (y) = 1.62382 1.07028
# Poissons Ratio (z) = -0.09246 0.17738
#
# Static dielectric constant tensor:
#      x y z
#    x 1.570450 0.000000 0.019000 
#    y 0.000000 1.507060 0.000000 
#    z 0.019000 0.000000 1.543170 
# 
# From -- ./inp_files/47972.got.cif
#   From: 2010.05.17/outbox.cif.g08.bks.cpg/sg15_24_cif.got.tgz:47972.got - 2010.06.03 18:47:42.
