data_PCOD9255619
_publ_section_title
;
Structure prediction by ZEFSAII (Michael W. Deem and Ramdas Pophale) SiO2 
 PCOD9255619
Probable space group: C 2/C
;
_chemical_formula_sum "Si O2"
_cell_formula_units_Z 52
_cell_length_a 16.097235
_cell_length_b 19.616384
_cell_length_c 9.001678
_cell_angle_alpha 90.000000
_cell_angle_beta 121.255240
_cell_angle_gamma 90.000000
_cell_volume 2429.914293
_symmetry_space_group_name_H-M "C 2/C"
_symmetry_group_IT_number 15
_symmetry_cell_setting 'monoclinic'
loop_
_space_group_symop_operation_xyz
x,y,z
-x,y,1/2-z
-x,-y,-z
x,-y,1/2+z
1/2+x,1/2+y,z
1/2-x,1/2+y,1/2-z
1/2-x,1/2-y,-z
1/2+x,1/2-y,1/2+z
loop_
_atom_site_type_symbol
_atom_site_label
_atom_site_fract_x
_atom_site_fract_y
_atom_site_fract_z
Si Si1 0.000000 0.645048 0.250000
Si Si2 0.500000 0.681640 0.250000
Si Si3 0.703696 0.354353 0.031179
Si Si4 0.202023 0.523683 0.030506
Si Si5 0.215047 0.721428 0.185624
Si Si6 0.297886 0.096062 0.156390
Si Si7 0.500000 0.921683 0.250000
Si Si8 0.518482 0.798641 0.057372
O O1 0.915150 0.603073 0.250004
O O2 0.051340 0.691880 0.420686
O O3 0.413238 0.641525 0.091321
O O4 0.550630 0.733166 0.179015
O O5 0.742345 0.314775 0.920658
O O6 0.749358 0.427863 0.049500
O O7 0.732653 0.302462 0.190795
O O8 0.231770 0.447068 0.015370
O O9 0.086661 0.534992 0.899499
O O10 0.224429 0.552429 0.214920
O O11 0.241372 0.672312 0.347888
O O12 0.098391 0.711960 0.057924
O O13 0.540558 0.868054 0.165769
#
# Coordination Sequence:
#
# PCOD9255619 Si02
#       8
#     4   4   8   8   8   8   4   8
#     4  10  17  32  47  70 118 139 163 198 247 310
#     4   9  18  30  57  80  94 121 191 216 266 291
#     4   9  16  32  54  76  97 131 170 227 247 302
#     4  11  22  33  51  73 110 137 176 206 254 301
#     4   8  15  32  47  69 101 127 158 214 251 286
#     4  10  21  33  46  76 104 147 168 204 244 312
#     4  11  17  30  46  80 100 142 172 194 237 323
#     4   9  17  28  48  77 103 135 165 205 249 309
#
# _framework density 21.399932
#
# number of rings (size 3 to 8) (size 9 to 14) (size 15 to 20)
#    0.000    2.462    4.615    0.462    4.308    1.231 
#    0.000    0.000    0.000   24.000    0.000    0.000 
#    0.000    0.000    0.000    0.000    0.000    6.923 
#
# Total GULP energy -144845.047167 kJ/mol
# GULP energy per Si atom -5570.963353 kJ/mol
# Density = 2.135122 g / cm^3
# Si number density = 21.399932 Si / 1000 Ang^3
#
#
#
# Elastic Constant Matrix: (Units=GPa)
#
#
# Indices 1 2 3 4 5 6 
#
# 1 37.7346 29.6757 8.0240 0.0000 -7.4905 0.0000
# 2 29.6757 70.4291 8.8035 0.0000 -10.7463 0.0000
# 3 8.0240 8.8035 47.1047 0.0000 -17.5317 0.0000
# 4 0.0000 0.0000 0.0000 18.9297 0.0000 -11.8390
# 5 -7.4905 -10.7463 -17.5317 0.0000 27.4034 0.0000
# 6 0.0000 0.0000 0.0000 -11.8390 0.0000 7.6740
#
#
#
# Elastic Compliance Matrix: (Units=1/GPa)
#
#
# Indices 1 2 3 4 5 6 
#
# 1 0.040450 -0.016253 -0.002769 0.000000 0.002911 0.000000
# 2 -0.016253 0.021657 0.000300 0.000000 0.004242 0.000000
# 3 -0.002769 0.000300 0.028097 0.000000 0.017336 0.000000
# 4 0.000000 0.000000 0.000000 1.503314 0.000000 2.319230
# 5 0.002911 0.004242 0.017336 0.000000 0.050042 0.000000
# 6 0.000000 0.000000 0.000000 2.319230 0.000000 3.708291
#
#
# Mechanical properties :
#
#
# Convention : Reuss Voigt Hill
#
# Bulk Modulus (GPa) = 18.95425 27.58609 23.27017
# Shear Modulus (GPa) = 0.92475 18.05244 9.48859
#
# Velocity S-wave (km/s) = 0.65808 2.90759 2.10798
# Velocity P-wave (km/s) = 3.07470 4.91841 4.10150
#
# Compressibility (1/GPa) = 0.05275861
#
# Stress axis : x y z
#
# Youngs Moduli (GPa) = 24.72193 46.17455 35.59064
#
# Poissons Ratio (x) = 0.75050 0.09856
# Poissons Ratio (y) = 0.40182 -0.01068
# Poissons Ratio (z) = 0.06846 -0.01385
#
# Static dielectric constant tensor:
#      x y z
#    x 1.811400 0.000000 -0.012890 
#    y 0.000000 1.837460 0.000000 
#    z -0.012890 0.000000 1.810110 
# 
# From -- ./inp_files/49848.got.cif
#   From: 2010.05.17/outbox.cif.g08.bks.cpg/sg15_25_cif.got.tgz:49848.got - 2010.06.03 18:47:42.
