data_PCOD9255510
_publ_section_title
;
Structure prediction by ZEFSAII (Michael W. Deem and Ramdas Pophale) SiO2 
 PCOD9255510
Probable space group: C 2/C
;
_chemical_formula_sum "Si O2"
_cell_formula_units_Z 56
_cell_length_a 11.475433
_cell_length_b 17.310349
_cell_length_c 13.700215
_cell_angle_alpha 90.000000
_cell_angle_beta 126.294490
_cell_angle_gamma 90.000000
_cell_volume 2193.458193
_symmetry_space_group_name_H-M "C 2/C"
_symmetry_group_IT_number 15
_symmetry_cell_setting 'monoclinic'
loop_
_space_group_symop_operation_xyz
x,y,z
-x,y,1/2-z
-x,-y,-z
x,-y,1/2+z
1/2+x,1/2+y,z
1/2-x,1/2+y,1/2-z
1/2-x,1/2-y,-z
1/2+x,1/2-y,1/2+z
loop_
_atom_site_type_symbol
_atom_site_label
_atom_site_fract_x
_atom_site_fract_y
_atom_site_fract_z
Si Si1 0.174797 0.330943 0.736740
Si Si2 0.226369 0.161608 0.507300
Si Si3 0.764091 0.841408 0.253805
Si Si4 0.008815 0.443507 0.372507
Si Si5 0.614813 0.116766 0.430173
Si Si6 0.561480 0.587051 0.908788
Si Si7 0.056714 0.081889 0.143552
O O1 0.254944 0.248509 0.781917
O O2 0.142828 0.362822 0.829575
O O3 0.285732 0.391915 0.744278
O O4 0.016807 0.325540 0.607346
O O5 0.250000 0.250000 0.500000
O O6 0.232323 0.151203 0.626897
O O7 0.353019 0.107324 0.530717
O O8 0.069109 0.140209 0.391159
O O9 0.635993 0.900818 0.161312
O O10 0.928057 0.861840 0.308240
O O11 0.043257 0.532612 0.412326
O O12 0.000000 0.442769 0.250000
O O13 0.780530 0.113669 0.549217
O O14 0.507468 0.500575 0.859450
O O15 0.568305 0.585083 0.030804
#
# Coordination Sequence:
#
# PCOD9255510 Si02
#       7
#     8   8   8   8   8   8   8
#     4  10  19  30  49  79 109 132 166 220 268 306
#     4  10  19  31  51  76 108 138 172 218 267 312
#     4  10  21  31  47  79 112 132 167 221 272 304
#     4  10  17  31  52  80 100 131 181 221 252 304
#     4  10  18  32  55  77  99 136 179 216 258 311
#     4   9  17  29  49  75 100 130 174 215 251 303
#     4   9  16  29  49  74 101 130 171 216 255 299
#
# _framework density 25.530460999999999
#
# number of rings (size 3 to 8) (size 9 to 14) (size 15 to 20)
#    0.000    2.286    2.857    1.714    4.000    0.571 
#    0.000    0.000    0.000    0.857   14.857    0.000 
#    0.000    0.000    0.000    0.000    0.000    0.000 
#
# Total GULP energy -156571.214717 kJ/mol
# GULP energy per Si atom -5591.829097 kJ/mol
# Density = 2.547235 g / cm^3
# Si number density = 25.530461 Si / 1000 Ang^3
#
#
#
# Elastic Constant Matrix: (Units=GPa)
#
#
# Indices 1 2 3 4 5 6 
#
# 1 127.8856 17.0035 62.6268 0.0000 23.5671 0.0000
# 2 17.0035 100.6697 22.8963 0.0000 27.1314 0.0000
# 3 62.6268 22.8963 129.0139 0.0000 26.7679 0.0000
# 4 0.0000 0.0000 0.0000 89.3961 0.0000 -6.1612
# 5 23.5671 27.1314 26.7679 0.0000 58.3900 0.0000
# 6 0.0000 0.0000 0.0000 -6.1612 0.0000 49.6484
#
#
#
# Elastic Compliance Matrix: (Units=1/GPa)
#
#
# Indices 1 2 3 4 5 6 
#
# 1 0.010488 -0.000170 -0.004641 0.000000 -0.002027 0.000000
# 2 -0.000170 0.011480 -0.000953 0.000000 -0.004829 0.000000
# 3 -0.004641 -0.000953 0.010711 0.000000 -0.002595 0.000000
# 4 0.000000 0.000000 0.000000 0.011283 0.000000 0.001400
# 5 -0.002027 -0.004829 -0.002595 0.000000 0.021378 0.000000
# 6 0.000000 0.000000 0.000000 0.001400 0.000000 0.020315
#
#
# Mechanical properties :
#
#
# Convention : Reuss Voigt Hill
#
# Bulk Modulus (GPa) = 47.27492 62.51361 54.89426
# Shear Modulus (GPa) = 47.96941 56.48973 52.22957
#
# Velocity S-wave (km/s) = 4.33934 4.70897 4.52793
# Velocity P-wave (km/s) = 6.60786 7.35561 6.99174
#
# Compressibility (1/GPa) = 0.02115287
#
# Stress axis : x y z
#
# Youngs Moduli (GPa) = 95.34609 87.10506 93.36016
#
# Poissons Ratio (x) = 0.01479 0.43324
# Poissons Ratio (y) = 0.01619 0.08898
# Poissons Ratio (z) = 0.44246 0.08302
#
# Static dielectric constant tensor:
#      x y z
#    x 1.985580 0.000000 -0.057480 
#    y 0.000000 1.779300 0.000000 
#    z -0.057480 0.000000 1.986620 
# 
# From -- ./inp_files/199559.got.cif
#   From: 2010.05.17/outbox.cif.g08.bks.cpg/sg15_100_cif.got.tgz:199559.got - 2010.06.03 18:47:42.
