data_PCOD9255546
_publ_section_title
;
Structure prediction by ZEFSAII (Michael W. Deem and Ramdas Pophale) SiO2 
 PCOD9255546
Probable space group: C 2/C
;
_chemical_formula_sum "Si O2"
_cell_formula_units_Z 64
_cell_length_a 17.417374
_cell_length_b 18.497192
_cell_length_c 20.167395
_cell_angle_alpha 90.000000
_cell_angle_beta 32.565604
_cell_angle_gamma 90.000000
_cell_volume 3497.312037
_symmetry_space_group_name_H-M "C 2/C"
_symmetry_group_IT_number 15
_symmetry_cell_setting 'monoclinic'
loop_
_space_group_symop_operation_xyz
x,y,z
-x,y,1/2-z
-x,-y,-z
x,-y,1/2+z
1/2+x,1/2+y,z
1/2-x,1/2+y,1/2-z
1/2-x,1/2-y,-z
1/2+x,1/2-y,1/2+z
loop_
_atom_site_type_symbol
_atom_site_label
_atom_site_fract_x
_atom_site_fract_y
_atom_site_fract_z
Si Si1 0.327583 0.314706 0.133410
Si Si2 0.156467 0.709607 0.622959
Si Si3 0.283869 0.961066 0.640248
Si Si4 0.593645 0.886048 0.056051
Si Si5 0.437551 0.901207 0.984629
Si Si6 0.157634 0.014024 0.862197
Si Si7 0.057349 0.526060 0.282695
Si Si8 0.410331 0.224679 0.600513
O O1 0.238960 0.302088 0.130508
O O2 0.318989 0.399099 0.159697
O O3 0.241802 0.267366 0.251407
O O4 0.488324 0.289778 0.997802
O O5 0.250000 0.750000 0.500000
O O6 0.128794 0.634777 0.605120
O O7 0.000000 0.742645 0.750000
O O8 0.270191 0.906077 0.588641
O O9 0.426204 0.929494 0.572040
O O10 0.315700 0.039882 0.587220
O O11 0.177012 0.973773 0.777646
O O12 0.499142 0.957741 0.132435
O O13 0.505178 0.822314 0.084667
O O14 0.490004 0.905921 0.871015
O O15 0.392938 0.826095 0.048955
O O16 0.273797 0.980743 0.828683
O O17 0.000000 0.000000 0.000000
O O18 0.000000 0.523165 0.250000
#
# Coordination Sequence:
#
# PCOD9255546 Si02
#       8
#     8   8   8   8   8   8   8   8
#     4  12  22  35  53  78 112 153 185 227 280 331
#     4  12  21  35  49  75 116 160 191 222 261 325
#     4   8  15  30  51  73  96 139 184 228 274 315
#     4  10  17  31  55  72 105 150 195 220 258 332
#     4   8  15  30  53  73  96 132 184 232 263 317
#     4  11  21  35  54  81 115 143 182 242 290 322
#     4  10  18  33  59  82 106 144 188 225 275 341
#     4  11  20  33  52  76 110 144 192 226 273 325
#
# _framework density 18.299768
#
# number of rings (size 3 to 8) (size 9 to 14) (size 15 to 20)
#    0.000    1.750    5.000    2.625    0.000    3.000 
#    2.250    0.000    0.000    2.250    0.000    3.500 
#    0.000    0.000    0.000    0.000    0.000    0.000 
#
# Total GULP energy -178197.572235 kJ/mol
# GULP energy per Si atom -5568.674132 kJ/mol
# Density = 1.825812 g / cm^3
# Si number density = 18.299768 Si / 1000 Ang^3
#
#
#
# Elastic Constant Matrix: (Units=GPa)
#
#
# Indices 1 2 3 4 5 6 
#
# 1 50.3258 5.3459 35.1183 -0.0005 16.3652 0.0003
# 2 5.3459 12.8999 10.9298 -0.0005 8.7369 0.0006
# 3 35.1183 10.9298 139.5869 -0.0007 14.6765 0.0008
# 4 -0.0005 -0.0005 -0.0007 27.7041 0.0010 8.6053
# 5 16.3652 8.7369 14.6765 0.0010 24.2887 -0.0007
# 6 0.0003 0.0006 0.0008 8.6053 -0.0007 19.2224
#
#
#
# Elastic Compliance Matrix: (Units=1/GPa)
#
#
# Indices 1 2 3 4 5 6 
#
# 1 0.029283 0.005022 -0.005869 0.000002 -0.017990 -0.000002
# 2 0.005022 0.105982 -0.005551 0.000006 -0.038153 -0.000007
# 3 -0.005869 -0.005551 0.009023 0.000000 0.000499 0.000000
# 4 0.000002 0.000006 0.000000 0.041926 -0.000005 -0.018769
# 5 -0.017990 -0.038153 0.000499 -0.000005 0.066715 0.000006
# 6 -0.000002 -0.000007 0.000000 -0.018769 0.000006 0.060425
#
#
# Mechanical properties :
#
#
# Convention : Reuss Voigt Hill
#
# Bulk Modulus (GPa) = 7.60500 33.95563 20.78032
# Shear Modulus (GPa) = 13.51429 24.33761 18.92595
#
# Velocity S-wave (km/s) = 2.72047 3.65079 3.21941
# Velocity P-wave (km/s) = 3.74604 6.03047 5.01993
#
# Compressibility (1/GPa) = 0.13149236
#
# Stress axis : x y z
#
# Youngs Moduli (GPa) = 34.14997 9.43556 110.83187
#
# Poissons Ratio (x) = -0.04738 0.65045
# Poissons Ratio (y) = -0.17150 0.61517
# Poissons Ratio (z) = 0.20042 0.05237
#
# Static dielectric constant tensor:
#      x y z
#    x 1.668840 0.000000 0.000200 
#    y 0.000000 1.709360 0.000000 
#    z 0.000200 0.000000 1.700890 
# 
# From -- ./inp_files/249908.got.cif
#   From: 2010.05.17/outbox.cif.g08.bks.cpg/sg15_125_cif.got.tgz:249908.got - 2010.06.03 18:47:42.
