data_PCOD9255400
_publ_section_title
;
Structure prediction by ZEFSAII (Michael W. Deem and Ramdas Pophale) SiO2 
 PCOD9255400
Probable space group: C 2/C
;
_chemical_formula_sum "Si O2"
_cell_formula_units_Z 64
_cell_length_a 13.861072
_cell_length_b 16.026186
_cell_length_c 23.689960
_cell_angle_alpha 90.000000
_cell_angle_beta 144.021724
_cell_angle_gamma 90.000000
_cell_volume 3091.599857
_symmetry_space_group_name_H-M "C 2/C"
_symmetry_group_IT_number 15
_symmetry_cell_setting 'monoclinic'
loop_
_space_group_symop_operation_xyz
x,y,z
-x,y,1/2-z
-x,-y,-z
x,-y,1/2+z
1/2+x,1/2+y,z
1/2-x,1/2+y,1/2-z
1/2-x,1/2-y,-z
1/2+x,1/2-y,1/2+z
loop_
_atom_site_type_symbol
_atom_site_label
_atom_site_fract_x
_atom_site_fract_y
_atom_site_fract_z
Si Si1 0.684179 0.144656 0.843146
Si Si2 0.536071 0.633135 0.606255
Si Si3 0.321363 0.492779 0.181628
Si Si4 0.207539 0.339205 0.184906
Si Si5 0.265309 0.054976 0.981468
Si Si6 0.111047 0.708661 0.518433
Si Si7 0.845204 0.622586 0.545888
Si Si8 0.755990 0.832181 0.624230
O O1 0.500000 0.109939 0.750000
O O2 0.821189 0.102457 0.868810
O O3 0.733775 0.146420 0.932150
O O4 0.678646 0.243042 0.825637
O O5 0.641448 0.683965 0.703277
O O6 0.417395 0.565177 0.578919
O O7 0.424318 0.698133 0.518637
O O8 0.500000 0.458829 0.250000
O O9 0.239228 0.438135 0.190208
O O10 0.223447 0.476950 0.077800
O O11 0.331197 0.591135 0.194455
O O12 0.213392 0.298277 0.125350
O O13 0.024922 0.334765 0.124406
O O14 0.324381 0.149979 0.001391
O O15 0.357053 0.978678 0.054874
O O16 0.936652 0.669547 0.453457
O O17 0.738155 0.649543 0.440478
#
# Coordination Sequence:
#
# PCOD9255400 Si02
#       8
#     8   8   8   8   8   8   8   8
#     4  11  21  35  54  76 108 148 186 223 272 333
#     4  11  21  36  58  81 113 152 191 225 277 336
#     4  10  17  30  54  84 108 132 177 234 281 322
#     4  10  19  35  58  82 113 146 184 231 286 329
#     4  10  20  35  56  82 108 147 183 228 279 331
#     4   9  20  35  57  84 111 143 183 234 282 329
#     4  10  20  36  57  76 110 146 182 229 286 329
#     4   9  19  33  54  83 106 134 180 233 284 327
#
# _framework density 20.701256000000001
#
# number of rings (size 3 to 8) (size 9 to 14) (size 15 to 20)
#    0.000    2.000    2.500    1.875    0.000    3.500 
#    0.000    0.000    2.750    0.000    0.000    0.000 
#    0.000    0.000    0.000    0.000    0.000    0.000 
#
# Total GULP energy -178224.177467 kJ/mol
# GULP energy per Si atom -5569.505546 kJ/mol
# Density = 2.065414 g / cm^3
# Si number density = 20.701256 Si / 1000 Ang^3
#
#
#
# Elastic Constant Matrix: (Units=GPa)
#
#
# Indices 1 2 3 4 5 6 
#
# 1 96.1285 3.5082 5.2569 0.0000 -0.5385 0.0000
# 2 3.5082 21.8495 -2.4174 0.0000 -10.0063 0.0000
# 3 5.2569 -2.4174 48.8470 0.0000 -5.5248 0.0000
# 4 0.0000 0.0000 0.0000 12.6229 0.0000 3.0653
# 5 -0.5385 -10.0063 -5.5248 0.0000 24.1389 0.0000
# 6 0.0000 0.0000 0.0000 3.0653 0.0000 14.9279
#
#
#
# Elastic Compliance Matrix: (Units=1/GPa)
#
#
# Indices 1 2 3 4 5 6 
#
# 1 0.010557 -0.002323 -0.001369 0.000000 -0.001041 0.000000
# 2 -0.002323 0.058530 0.006041 0.000000 0.025593 0.000000
# 3 -0.001369 0.006041 0.021761 0.000000 0.007454 0.000000
# 4 0.000000 0.000000 0.000000 0.083379 0.000000 -0.017121
# 5 -0.001041 0.025593 0.007454 0.000000 0.053719 0.000000
# 6 0.000000 0.000000 0.000000 -0.017121 0.000000 0.070504
#
#
# Mechanical properties :
#
#
# Convention : Reuss Voigt Hill
#
# Bulk Modulus (GPa) = 10.46609 19.94671 15.20640
# Shear Modulus (GPa) = 15.35626 21.03640 18.19633
#
# Velocity S-wave (km/s) = 2.72656 3.19123 2.96800
# Velocity P-wave (km/s) = 3.87026 4.82027 4.37115
#
# Compressibility (1/GPa) = 0.09554670
#
# Stress axis : x y z
#
# Youngs Moduli (GPa) = 94.72796 17.08535 45.95274
#
# Poissons Ratio (x) = 0.03969 0.06290
# Poissons Ratio (y) = 0.22005 -0.27761
# Poissons Ratio (z) = 0.12966 -0.10322
#
# Static dielectric constant tensor:
#      x y z
#    x 1.780460 0.000000 -0.015220 
#    y 0.000000 1.795860 0.000000 
#    z -0.015220 0.000000 1.801810 
# 
# From -- ./inp_files/154887.got.cif
#   From: 2010.05.17/outbox.cif.g08.bks.cpg/sg15_78_cif.got.tgz:154887.got - 2010.06.03 18:47:42.
