data_PCOD9255800
_publ_section_title
;
Structure prediction by ZEFSAII (Michael W. Deem and Ramdas Pophale) SiO2 
 PCOD9255800
Probable space group: C 2/C
;
_chemical_formula_sum "Si O2"
_cell_formula_units_Z 60
_cell_length_a 27.176244
_cell_length_b 22.434014
_cell_length_c 14.725056
_cell_angle_alpha 90.000000
_cell_angle_beta 160.675459
_cell_angle_gamma 90.000000
_cell_volume 2970.807895
_symmetry_space_group_name_H-M "C 2/C"
_symmetry_group_IT_number 15
_symmetry_cell_setting 'monoclinic'
loop_
_space_group_symop_operation_xyz
x,y,z
-x,y,1/2-z
-x,-y,-z
x,-y,1/2+z
1/2+x,1/2+y,z
1/2-x,1/2+y,1/2-z
1/2-x,1/2-y,-z
1/2+x,1/2-y,1/2+z
loop_
_atom_site_type_symbol
_atom_site_label
_atom_site_fract_x
_atom_site_fract_y
_atom_site_fract_z
Si Si1 0.500000 0.064373 0.750000
Si Si2 0.067138 0.011919 0.968377
Si Si3 0.395968 0.170006 0.990096
Si Si4 0.449297 0.690355 0.069206
Si Si5 0.134183 0.464116 0.086961
Si Si6 0.111351 0.245033 0.189081
Si Si7 0.837577 0.078429 0.102154
Si Si8 0.707519 0.375382 0.784261
O O1 0.359050 0.107585 0.499380
O O2 0.480247 0.018013 0.630725
O O3 0.000000 0.010861 0.750000
O O4 0.086320 0.078909 0.034749
O O5 0.955454 0.972475 0.831817
O O6 0.229289 0.981186 0.243343
O O7 0.223216 0.174544 0.719367
O O8 0.434351 0.100256 0.049723
O O9 0.411905 0.199415 0.918104
O O10 0.500000 0.197054 0.250000
O O11 0.500000 0.723706 0.250000
O O12 0.480461 0.725714 0.030232
O O13 0.558953 0.632010 0.258022
O O14 0.218576 0.452239 0.328904
O O15 0.250000 0.250000 0.500000
O O16 0.150738 0.191344 0.188798
O O17 0.764363 0.106416 0.062438
#
# Coordination Sequence:
#
# PCOD9255800 Si02
#       8
#     4   8   8   8   8   8   8   8
#     4  10  22  38  56  86 130 162 188 258 342 366
#     4   9  17  32  57  83 110 146 190 248 311 364
#     4  12  23  38  63  95 131 169 208 275 320 366
#     4  11  19  38  66  89 119 163 220 263 303 377
#     4  10  18  34  59  88 117 153 204 247 306 380
#     4  11  24  41  64  92 118 171 230 255 305 394
#     4  10  17  32  59  88 109 149 211 249 299 373
#     4  10  22  35  54  83 120 153 200 256 305 374
#
# _framework density 20.196525999999999
#
# number of rings (size 3 to 8) (size 9 to 14) (size 15 to 20)
#    0.000    1.600    4.667    1.600    0.000    2.667 
#    0.000    0.000    0.000    3.200    0.000    0.000 
#    0.000    0.000    0.000    0.000    0.000    0.000 
#
# Total GULP energy -167200.778450 kJ/mol
# GULP energy per Si atom -5573.359282 kJ/mol
# Density = 2.015056 g / cm^3
# Si number density = 20.196526 Si / 1000 Ang^3
#
#
#
# Elastic Constant Matrix: (Units=GPa)
#
#
# Indices 1 2 3 4 5 6 
#
# 1 52.1621 22.6852 9.7635 0.0000 -10.3346 0.0000
# 2 22.6852 85.4704 1.1756 0.0000 -0.6718 0.0000
# 3 9.7635 1.1756 53.1071 0.0000 -13.3822 0.0000
# 4 0.0000 0.0000 0.0000 17.2163 0.0000 -12.5278
# 5 -10.3346 -0.6718 -13.3822 0.0000 24.7965 0.0000
# 6 0.0000 0.0000 0.0000 -12.5278 0.0000 27.9748
#
#
#
# Elastic Compliance Matrix: (Units=1/GPa)
#
#
# Indices 1 2 3 4 5 6 
#
# 1 0.024018 -0.006278 -0.002080 0.000000 0.008717 0.000000
# 2 -0.006278 0.013345 0.000336 0.000000 -0.002073 0.000000
# 3 -0.002080 0.000336 0.021977 0.000000 0.011003 0.000000
# 4 0.000000 0.000000 0.000000 0.086162 0.000000 0.038585
# 5 0.008717 -0.002073 0.011003 0.000000 0.049843 0.000000
# 6 0.000000 0.000000 0.000000 0.038585 0.000000 0.053026
#
#
# Mechanical properties :
#
#
# Convention : Reuss Voigt Hill
#
# Bulk Modulus (GPa) = 23.09587 28.66535 25.88061
# Shear Modulus (GPa) = 17.93105 24.47189 21.20147
#
# Velocity S-wave (km/s) = 2.98288 3.48471 3.24351
# Velocity P-wave (km/s) = 4.82947 5.51497 5.18357
#
# Compressibility (1/GPa) = 0.04329778
#
# Stress axis : x y z
#
# Youngs Moduli (GPa) = 41.63625 74.93341 45.50122
#
# Poissons Ratio (x) = 0.47039 0.09464
# Poissons Ratio (y) = 0.26137 -0.01530
# Poissons Ratio (z) = 0.08660 -0.02519
#
# Static dielectric constant tensor:
#      x y z
#    x 1.768840 0.000000 -0.002570 
#    y 0.000000 1.754510 0.000000 
#    z -0.002570 0.000000 1.720860 
# 
# From -- ./inp_files/179111.got.cif
#   From: 2010.05.17/outbox.cif.g08.bks.cpg/sg15_90_cif.got.tgz:179111.got - 2010.06.03 18:47:42.
