data_PCOD9255169
_publ_section_title
;
Structure prediction by ZEFSAII (Michael W. Deem and Ramdas Pophale) SiO2 
 PCOD9255169
Probable space group: C 2/C
;
_chemical_formula_sum "Si O2"
_cell_formula_units_Z 64
_cell_length_a 13.605899
_cell_length_b 13.993620
_cell_length_c 17.884468
_cell_angle_alpha 90.000000
_cell_angle_beta 72.617729
_cell_angle_gamma 90.000000
_cell_volume 3249.624665
_symmetry_space_group_name_H-M "C 2/C"
_symmetry_group_IT_number 15
_symmetry_cell_setting 'monoclinic'
loop_
_space_group_symop_operation_xyz
x,y,z
-x,y,1/2-z
-x,-y,-z
x,-y,1/2+z
1/2+x,1/2+y,z
1/2-x,1/2+y,1/2-z
1/2-x,1/2-y,-z
1/2+x,1/2-y,1/2+z
loop_
_atom_site_type_symbol
_atom_site_label
_atom_site_fract_x
_atom_site_fract_y
_atom_site_fract_z
Si Si1 0.108229 0.134288 0.358558
Si Si2 0.801279 0.903250 0.516616
Si Si3 0.277731 0.413583 0.358396
Si Si4 0.751171 0.615778 0.929474
Si Si5 0.733954 0.621584 0.177366
Si Si6 0.489454 0.564460 0.877791
Si Si7 0.677169 0.689439 0.797907
Si Si8 0.607373 0.282162 0.570131
O O1 0.191835 0.148661 0.405513
O O2 0.159652 0.129225 0.265941
O O3 0.013112 0.207145 0.387994
O O4 0.055067 0.029719 0.377858
O O5 0.921934 0.910222 0.465676
O O6 0.755167 0.007409 0.544038
O O7 0.754046 0.130690 0.657803
O O8 0.251737 0.374659 0.447643
O O9 0.226173 0.514434 0.347456
O O10 0.397401 0.449089 0.339300
O O11 0.277450 0.335824 0.293502
O O12 0.648686 0.667417 0.985690
O O13 0.847614 0.675318 0.938689
O O14 0.818864 0.700969 0.178109
O O15 0.670411 0.660691 0.120375
O O16 0.563932 0.646728 0.832679
#
# Coordination Sequence:
#
# PCOD9255169 Si02
#       8
#     8   8   8   8   8   8   8   8
#     4  12  18  31  48  76 103 145 170 210 268 315
#     4  10  19  29  50  77 104 141 169 217 268 310
#     4  10  20  33  49  78 103 137 175 215 266 309
#     4  10  17  29  44  73 113 131 167 214 267 307
#     4  11  21  31  49  73 109 143 173 217 265 316
#     4  10  18  28  53  75 108 129 172 217 263 310
#     4  11  21  31  47  77 108 141 173 218 266 313
#     4  10  19  27  45  75 108 136 168 214 260 312
#
# _framework density 19.694582
#
# number of rings (size 3 to 8) (size 9 to 14) (size 15 to 20)
#    0.750    0.750    6.250    1.875    0.000    0.000 
#    0.000    0.625    0.000    0.000    0.000   11.375 
#    0.000    0.000    0.000    0.000    0.000    0.000 
#
# Total GULP energy -178279.212821 kJ/mol
# GULP energy per Si atom -5571.225401 kJ/mol
# Density = 1.964976 g / cm^3
# Si number density = 19.694582 Si / 1000 Ang^3
#
#
#
# Elastic Constant Matrix: (Units=GPa)
#
#
# Indices 1 2 3 4 5 6 
#
# 1 11.1415 11.2565 5.2567 0.0000 6.5984 0.0000
# 2 11.2565 41.2137 0.3884 0.0000 12.7349 0.0000
# 3 5.2567 0.3884 108.7264 0.0000 20.9073 0.0000
# 4 0.0000 0.0000 0.0000 19.3751 0.0000 1.1309
# 5 6.5984 12.7349 20.9073 0.0000 23.8746 0.0000
# 6 0.0000 0.0000 0.0000 1.1309 0.0000 25.1301
#
#
#
# Elastic Compliance Matrix: (Units=1/GPa)
#
#
# Indices 1 2 3 4 5 6 
#
# 1 0.132671 -0.030725 -0.002892 0.000000 -0.017746 0.000000
# 2 -0.030725 0.037291 0.004262 0.000000 -0.015132 0.000000
# 3 -0.002892 0.004262 0.011550 0.000000 -0.011589 0.000000
# 4 0.000000 0.000000 0.000000 0.051748 0.000000 -0.002329
# 5 -0.017746 -0.015132 -0.011589 0.000000 0.065010 0.000000
# 6 0.000000 0.000000 0.000000 -0.002329 0.000000 0.039898
#
#
# Mechanical properties :
#
#
# Convention : Reuss Voigt Hill
#
# Bulk Modulus (GPa) = 8.14318 21.65386 14.89852
# Shear Modulus (GPa) = 11.42039 23.28797 17.35418
#
# Velocity S-wave (km/s) = 2.41067 3.44242 2.97166
# Velocity P-wave (km/s) = 3.44850 5.17871 4.39950
#
# Compressibility (1/GPa) = 0.12280213
#
# Stress axis : x y z
#
# Youngs Moduli (GPa) = 7.53743 26.81609 86.57650
#
# Poissons Ratio (x) = 0.82393 0.25040
# Poissons Ratio (y) = 0.23159 -0.36899
# Poissons Ratio (z) = 0.02180 -0.11429
#
# Static dielectric constant tensor:
#      x y z
#    x 1.688200 0.000000 0.042180 
#    y 0.000000 1.721700 0.000000 
#    z 0.042180 0.000000 1.745410 
# 
# From -- ./inp_files/205078.got.cif
#   From: 2010.05.17/outbox.cif.g08.bks.cpg/sg15_103_cif.got.tgz:205078.got - 2010.06.03 18:47:42.
