data_PCOD9255948
_publ_section_title
;
Structure prediction by ZEFSAII (Michael W. Deem and Ramdas Pophale) SiO2 
 PCOD9255948
Probable space group: C 2/C
;
_chemical_formula_sum "Si O2"
_cell_formula_units_Z 64
_cell_length_a 19.639414
_cell_length_b 8.074534
_cell_length_c 21.424990
_cell_angle_alpha 90.000000
_cell_angle_beta 61.656449
_cell_angle_gamma 90.000000
_cell_volume 2990.245892
_symmetry_space_group_name_H-M "C 2/C"
_symmetry_group_IT_number 15
_symmetry_cell_setting 'monoclinic'
loop_
_space_group_symop_operation_xyz
x,y,z
-x,y,1/2-z
-x,-y,-z
x,-y,1/2+z
1/2+x,1/2+y,z
1/2-x,1/2+y,1/2-z
1/2-x,1/2-y,-z
1/2+x,1/2-y,1/2+z
loop_
_atom_site_type_symbol
_atom_site_label
_atom_site_fract_x
_atom_site_fract_y
_atom_site_fract_z
Si Si1 0.862088 0.811755 0.407163
Si Si2 0.277635 0.263527 0.091807
Si Si3 0.513392 0.171924 0.387855
Si Si4 0.444938 0.655579 0.511395
Si Si5 0.089487 0.677124 0.236347
Si Si6 0.123581 0.294342 0.213396
Si Si7 0.776651 0.514535 0.994225
Si Si8 0.984339 0.290592 0.359892
O O1 0.868059 0.798033 0.329895
O O2 0.821953 0.645696 0.451587
O O3 0.810284 0.961282 0.451494
O O4 0.946804 0.801662 0.398478
O O5 0.211952 0.232040 0.171956
O O6 0.307888 0.098759 0.043457
O O7 0.354663 0.370248 0.069054
O O8 0.228069 0.358176 0.060215
O O9 0.529675 0.196159 0.453016
O O10 0.584475 0.218653 0.311271
O O11 0.489066 0.987078 0.376176
O O12 0.500000 0.500000 0.500000
O O13 0.456795 0.702781 0.434338
O O14 0.124976 0.494874 0.214827
O O15 0.000000 0.667915 0.250000
O O16 0.074092 0.256963 0.172093
O O17 0.068931 0.243234 0.295392
#
# Coordination Sequence:
#
# PCOD9255948 Si02
#       8
#     8   8   8   8   8   8   8   8
#     4  10  17  33  58  91 109 139 191 255 297 343
#     4  11  21  37  55  83 119 163 190 243 298 353
#     4  10  19  36  61  81 110 154 197 233 291 365
#     4  12  26  40  55  81 127 168 197 238 294 361
#     4   9  15  32  61  88 111 141 188 249 296 339
#     4  10  17  36  67  91 110 145 202 255 298 353
#     4  10  20  31  58  86 116 140 191 249 303 343
#     4  10  19  38  66  89 110 154 207 246 298 359
#
# _framework density 21.402920000000002
#
# number of rings (size 3 to 8) (size 9 to 14) (size 15 to 20)
#    0.000    1.750    5.000    3.375    0.000    0.000 
#    2.250    2.500    0.000    0.000    0.000    0.000 
#    0.000    0.000    0.000    0.000    0.000    0.000 
#
# Total GULP energy -178528.448710 kJ/mol
# GULP energy per Si atom -5579.014022 kJ/mol
# Density = 2.135421 g / cm^3
# Si number density = 21.402920 Si / 1000 Ang^3
#
#
#
# Elastic Constant Matrix: (Units=GPa)
#
#
# Indices 1 2 3 4 5 6 
#
# 1 55.1510 4.9077 42.8410 0.0003 -19.0952 0.0003
# 2 4.9077 31.7755 24.7577 0.0007 -3.7427 0.0000
# 3 42.8410 24.7577 144.8189 0.0002 -16.4829 0.0003
# 4 0.0003 0.0007 0.0002 25.9141 0.0000 0.3615
# 5 -19.0952 -3.7427 -16.4829 0.0000 38.9010 0.0001
# 6 0.0003 0.0000 0.0003 0.3615 0.0001 17.3242
#
#
#
# Elastic Compliance Matrix: (Units=1/GPa)
#
#
# Indices 1 2 3 4 5 6 
#
# 1 0.027220 0.002741 -0.007323 0.000000 0.010522 0.000000
# 2 0.002741 0.036613 -0.006846 -0.000001 0.001967 0.000000
# 3 -0.007323 -0.006846 0.010252 0.000000 0.000091 0.000000
# 4 0.000000 -0.000001 0.000000 0.038600 0.000000 -0.000805
# 5 0.010522 0.001967 0.000091 0.000000 0.031099 0.000000
# 6 0.000000 0.000000 0.000000 -0.000805 0.000000 0.057740
#
#
# Mechanical properties :
#
#
# Convention : Reuss Voigt Hill
#
# Bulk Modulus (GPa) = 19.52026 41.86200 30.69113
# Shear Modulus (GPa) = 20.70757 27.04378 23.87567
#
# Velocity S-wave (km/s) = 3.11386 3.55851 3.34358
# Velocity P-wave (km/s) = 4.69769 6.04032 5.41081
#
# Compressibility (1/GPa) = 0.05122883
#
# Stress axis : x y z
#
# Youngs Moduli (GPa) = 36.73773 27.31239 97.53884
#
# Poissons Ratio (x) = -0.07487 0.71431
# Poissons Ratio (y) = -0.10071 0.66778
# Poissons Ratio (z) = 0.26904 0.18699
#
# Static dielectric constant tensor:
#      x y z
#    x 1.799900 0.000000 -0.013600 
#    y 0.000000 1.801480 0.000000 
#    z -0.013600 0.000000 1.831740 
# 
# From -- ./inp_files/251871.got.cif
#   From: 2010.05.17/outbox.cif.g08.bks.cpg/sg15_126_cif.got.tgz:251871.got - 2010.06.03 18:47:42.
