data_PCOD9255144
_publ_section_title
;
Structure prediction by ZEFSAII (Michael W. Deem and Ramdas Pophale) SiO2 
 PCOD9255144
Probable space group: C 2/C
;
_chemical_formula_sum "Si O2"
_cell_formula_units_Z 60
_cell_length_a 11.798043
_cell_length_b 13.779785
_cell_length_c 14.827116
_cell_angle_alpha 90.000000
_cell_angle_beta 87.103613
_cell_angle_gamma 90.000000
_cell_volume 2407.431592
_symmetry_space_group_name_H-M "C 2/C"
_symmetry_group_IT_number 15
_symmetry_cell_setting 'monoclinic'
loop_
_space_group_symop_operation_xyz
x,y,z
-x,y,1/2-z
-x,-y,-z
x,-y,1/2+z
1/2+x,1/2+y,z
1/2-x,1/2+y,1/2-z
1/2-x,1/2-y,-z
1/2+x,1/2-y,1/2+z
loop_
_atom_site_type_symbol
_atom_site_label
_atom_site_fract_x
_atom_site_fract_y
_atom_site_fract_z
Si Si1 0.000000 0.027797 0.250000
Si Si2 0.868867 0.779200 0.944603
Si Si3 0.446333 0.047646 0.151813
Si Si4 0.629503 0.809447 0.586071
Si Si5 0.242106 0.334831 0.211675
Si Si6 0.899460 0.336680 0.100313
Si Si7 0.246166 0.934395 0.771532
Si Si8 0.970326 0.136600 0.612529
O O1 0.006152 0.962536 0.159400
O O2 0.884212 0.083347 0.242789
O O3 0.823408 0.739780 0.849307
O O4 0.996839 0.735206 0.924001
O O5 0.750000 0.750000 0.000000
O O6 0.909693 0.863628 0.016191
O O7 0.500000 0.045081 0.250000
O O8 0.512295 0.127298 0.094037
O O9 0.315895 0.071985 0.175710
O O10 0.454416 0.942635 0.109030
O O11 0.677028 0.829856 0.485523
O O12 0.705599 0.859158 0.658733
O O13 0.581360 0.703349 0.605098
O O14 0.179888 0.324211 0.309911
O O15 0.235340 0.453352 0.194887
O O16 0.375888 0.318624 0.186044
#
# Coordination Sequence:
#
# PCOD9255144 Si02
#       8
#     4   8   8   8   8   8   8   8
#     4  10  20  38  60  88 124 180 218 254 324 406
#     4   9  16  28  48  84 123 165 206 253 305 382
#     4   9  17  29  51  86 121 156 205 256 312 365
#     4  10  19  31  54  97 126 156 211 280 320 364
#     4   9  17  33  53  83 133 174 208 251 325 401
#     4  10  17  28  51  87 128 166 208 263 319 379
#     4   9  19  34  57  87 119 171 219 259 318 392
#     4   9  20  32  55  88 125 165 215 262 318 381
#
# _framework density 24.922825
#
# number of rings (size 3 to 8) (size 9 to 14) (size 15 to 20)
#    0.000    2.667    0.000    3.200    2.800    1.067 
#    0.000    0.000    0.000   36.000   15.600    0.000 
#    0.000    0.133    0.000    0.000    0.000    0.000 
#
# Total GULP energy -167216.579320 kJ/mol
# GULP energy per Si atom -5573.885977 kJ/mol
# Density = 2.486610 g / cm^3
# Si number density = 24.922825 Si / 1000 Ang^3
#
#
#
# Elastic Constant Matrix: (Units=GPa)
#
#
# Indices 1 2 3 4 5 6 
#
# 1 139.7084 22.9245 43.2389 0.0000 -16.8754 0.0000
# 2 22.9245 58.9594 -0.3456 0.0000 -0.4544 0.0000
# 3 43.2389 -0.3456 44.4659 0.0000 -3.2655 0.0000
# 4 0.0000 0.0000 0.0000 18.1926 0.0000 4.2543
# 5 -16.8754 -0.4544 -3.2655 0.0000 28.8015 0.0000
# 6 0.0000 0.0000 0.0000 4.2543 0.0000 33.0508
#
#
#
# Elastic Compliance Matrix: (Units=1/GPa)
#
#
# Indices 1 2 3 4 5 6 
#
# 1 0.012181 -0.004759 -0.011459 0.000000 0.005763 0.000000
# 2 -0.004759 0.018823 0.004630 0.000000 -0.001967 0.000000
# 3 -0.011459 0.004630 0.033459 0.000000 -0.002847 0.000000
# 4 0.000000 0.000000 0.000000 0.056673 0.000000 -0.007295
# 5 0.005763 -0.001967 -0.002847 0.000000 0.037743 0.000000
# 6 0.000000 0.000000 0.000000 -0.007295 0.000000 0.031195
#
#
# Mechanical properties :
#
#
# Convention : Reuss Voigt Hill
#
# Bulk Modulus (GPa) = 24.22099 41.64102 32.93101
# Shear Modulus (GPa) = 22.02509 27.83004 24.92756
#
# Velocity S-wave (km/s) = 2.97599 3.34525 3.16601
# Velocity P-wave (km/s) = 4.64200 5.62719 5.15817
#
# Compressibility (1/GPa) = 0.04128650
#
# Stress axis : x y z
#
# Youngs Moduli (GPa) = 82.09363 53.12597 29.88759
#
# Poissons Ratio (x) = 0.25283 0.34248
# Poissons Ratio (y) = 0.39069 -0.13837
# Poissons Ratio (z) = 0.94070 -0.24595
#
# Static dielectric constant tensor:
#      x y z
#    x 2.033620 0.000000 0.032900 
#    y 0.000000 2.023510 0.000000 
#    z 0.032900 0.000000 2.076750 
# 
# From -- ./inp_files/145637.got.cif
#   From: 2010.05.17/outbox.cif.g08.bks.cpg/sg15_73_cif.got.tgz:145637.got - 2010.06.03 18:47:42.
