data_PCOD9255524
_publ_section_title
;
Structure prediction by ZEFSAII (Michael W. Deem and Ramdas Pophale) SiO2 
 PCOD9255524
Probable space group: C 2/C
;
_chemical_formula_sum "Si O2"
_cell_formula_units_Z 40
_cell_length_a 23.179949
_cell_length_b 6.907141
_cell_length_c 11.948037
_cell_angle_alpha 90.000000
_cell_angle_beta 47.151577
_cell_angle_gamma 90.000000
_cell_volume 1402.501653
_symmetry_space_group_name_H-M "C 2/C"
_symmetry_group_IT_number 15
_symmetry_cell_setting 'monoclinic'
loop_
_space_group_symop_operation_xyz
x,y,z
-x,y,1/2-z
-x,-y,-z
x,-y,1/2+z
1/2+x,1/2+y,z
1/2-x,1/2+y,1/2-z
1/2-x,1/2-y,-z
1/2+x,1/2-y,1/2+z
loop_
_atom_site_type_symbol
_atom_site_label
_atom_site_fract_x
_atom_site_fract_y
_atom_site_fract_z
Si Si1 0.291104 0.868607 0.048605
Si Si2 0.917807 0.677981 0.228169
Si Si3 0.415265 0.365270 0.808124
Si Si4 0.852428 0.862162 0.116777
Si Si5 0.084347 0.239010 0.441669
O O1 0.366479 0.946177 0.881333
O O2 0.250000 0.750000 0.000000
O O3 0.218506 0.952233 0.215751
O O4 0.337660 0.771188 0.089691
O O5 0.877631 0.677989 0.157813
O O6 0.911891 0.901533 0.284357
O O7 0.009978 0.648957 0.089511
O O8 0.500000 0.315040 0.750000
O O9 0.408034 0.252527 0.700821
O O10 0.346338 0.330846 0.992624
O O11 0.926041 0.007943 0.026055
#
# Coordination Sequence:
#
# PCOD9255524 Si02
#       5
#     8   8   8   8   8
#     4  10  21  32  46  76 112 136 169 212 261 311
#     4  10  17  31  53  78 103 135 174 209 250 314
#     4  11  16  28  51  76 105 131 167 216 259 299
#     4  10  19  30  48  81 111 134 163 220 266 294
#     4  11  19  31  54  76 104 138 175 210 260 307
#
# _framework density 28.520465999999999
#
# number of rings (size 3 to 8) (size 9 to 14) (size 15 to 20)
#    0.000    1.600    6.000    1.800    0.000    0.800 
#    0.000    0.000    0.000    0.000    0.000   15.400 
#    0.000    0.000    0.000    0.000    0.000    0.000 
#
# Total GULP energy -111678.223804 kJ/mol
# GULP energy per Si atom -5583.911190 kJ/mol
# Density = 2.845555 g / cm^3
# Si number density = 28.520466 Si / 1000 Ang^3
#
#
#
# Elastic Constant Matrix: (Units=GPa)
#
#
# Indices 1 2 3 4 5 6 
#
# 1 166.3972 27.3328 82.0200 0.0000 27.3652 0.0000
# 2 27.3328 64.5857 60.2099 -0.0001 8.9778 0.0000
# 3 82.0200 60.2099 288.3204 0.0000 20.9164 0.0000
# 4 0.0000 -0.0001 0.0000 44.2787 0.0000 13.4895
# 5 27.3652 8.9778 20.9164 0.0000 55.3391 0.0000
# 6 0.0000 0.0000 0.0000 13.4895 0.0000 22.1842
#
#
#
# Elastic Compliance Matrix: (Units=1/GPa)
#
#
# Indices 1 2 3 4 5 6 
#
# 1 0.007508 -0.001218 -0.001672 0.000000 -0.002883 0.000000
# 2 -0.001218 0.019571 -0.003654 0.000000 -0.001192 0.000000
# 3 -0.001672 -0.003654 0.004734 0.000000 -0.000369 0.000000
# 4 0.000000 0.000000 0.000000 0.027719 0.000000 -0.016855
# 5 -0.002883 -0.001192 -0.000369 0.000000 0.019829 0.000000
# 6 0.000000 0.000000 0.000000 -0.016855 0.000000 0.055326
#
#
# Mechanical properties :
#
#
# Convention : Reuss Voigt Hill
#
# Bulk Modulus (GPa) = 53.40528 95.38097 74.39312
# Shear Modulus (GPa) = 32.46385 47.67644 40.07014
#
# Velocity S-wave (km/s) = 3.37748 4.09303 3.75235
# Velocity P-wave (km/s) = 5.82887 7.47347 6.70181
#
# Compressibility (1/GPa) = 0.01872474
#
# Stress axis : x y z
#
# Youngs Moduli (GPa) = 133.18642 51.09649 211.23585
#
# Poissons Ratio (x) = 0.06221 0.35329
# Poissons Ratio (y) = 0.16216 0.77189
# Poissons Ratio (z) = 0.22275 0.18671
#
# Static dielectric constant tensor:
#      x y z
#    x 2.223730 0.000000 0.030880 
#    y 0.000000 2.407570 0.000000 
#    z 0.030880 0.000000 2.186470 
# 
# From -- ./inp_files/95273.got.cif
#   From: 2010.05.17/outbox.cif.g08.bks.cpg/sg15_48_cif.got.tgz:95273.got - 2010.06.03 18:47:42.
