data_PCOD9255365
_publ_section_title
;
Structure prediction by ZEFSAII (Michael W. Deem and Ramdas Pophale) SiO2 
 PCOD9255365
Probable space group: C 2/C
;
_chemical_formula_sum "Si O2"
_cell_formula_units_Z 48
_cell_length_a 13.926177
_cell_length_b 9.184454
_cell_length_c 16.510841
_cell_angle_alpha 90.000000
_cell_angle_beta 75.592599
_cell_angle_gamma 90.000000
_cell_volume 2045.393899
_symmetry_space_group_name_H-M "C 2/C"
_symmetry_group_IT_number 15
_symmetry_cell_setting 'monoclinic'
loop_
_space_group_symop_operation_xyz
x,y,z
-x,y,1/2-z
-x,-y,-z
x,-y,1/2+z
1/2+x,1/2+y,z
1/2-x,1/2+y,1/2-z
1/2-x,1/2-y,-z
1/2+x,1/2-y,1/2+z
loop_
_atom_site_type_symbol
_atom_site_label
_atom_site_fract_x
_atom_site_fract_y
_atom_site_fract_z
Si Si1 0.670892 0.120406 0.033437
Si Si2 0.172303 0.578601 0.782703
Si Si3 0.193430 0.036654 0.879600
Si Si4 0.299505 0.864306 0.598401
Si Si5 0.920142 0.208819 0.324296
Si Si6 0.567107 0.728211 0.432498
O O1 0.571229 0.198980 0.020364
O O2 0.676737 0.975643 0.977400
O O3 0.750000 0.250000 0.000000
O O4 0.710471 0.055418 0.109301
O O5 0.280666 0.566579 0.719560
O O6 0.149346 0.425598 0.830402
O O7 0.108359 0.651065 0.724559
O O8 0.153063 0.691663 0.860064
O O9 0.182615 0.195156 0.921182
O O10 0.099749 0.939169 0.922229
O O11 0.181289 0.874044 0.638776
O O12 0.000000 0.128657 0.250000
O O13 0.970574 0.249683 0.398378
#
# Coordination Sequence:
#
# PCOD9255365 Si02
#       6
#     8   8   8   8   8   8
#     4   9  19  34  52  74 104 141 174 203 250 310
#     4   9  17  30  51  73  97 133 169 203 252 309
#     4  10  17  30  52  78 101 131 171 211 246 298
#     4  10  19  32  54  78 100 132 174 212 249 301
#     4   9  17  31  53  76 100 131 167 211 256 298
#     4   9  18  33  52  73 102 136 168 208 257 302
#
# _framework density 23.467362000000001
#
# number of rings (size 3 to 8) (size 9 to 14) (size 15 to 20)
#    0.000    2.667    0.000    3.500    0.000    0.000 
#    0.000    6.667    0.000   79.000    0.000    0.000 
#    0.000    0.000    0.000    0.000    0.000    0.000 
#
# Total GULP energy -133621.986452 kJ/mol
# GULP energy per Si atom -5567.582769 kJ/mol
# Density = 2.341395 g / cm^3
# Si number density = 23.467362 Si / 1000 Ang^3
#
#
#
# Elastic Constant Matrix: (Units=GPa)
#
#
# Indices 1 2 3 4 5 6 
#
# 1 31.4236 -1.3844 10.2429 0.0000 9.3860 0.0000
# 2 -1.3844 101.6682 -0.7405 0.0000 -5.1009 0.0000
# 3 10.2429 -0.7405 36.0144 0.0000 12.8151 0.0000
# 4 0.0000 0.0000 0.0000 3.0133 0.0000 3.8042
# 5 9.3860 -5.1009 12.8151 0.0000 45.6510 0.0000
# 6 0.0000 0.0000 0.0000 3.8042 0.0000 5.1258
#
#
#
# Elastic Compliance Matrix: (Units=1/GPa)
#
#
# Indices 1 2 3 4 5 6 
#
# 1 0.036094 0.000178 -0.008475 0.000000 -0.005022 0.000000
# 2 0.000178 0.009894 -0.000253 0.000000 0.001140 0.000000
# 3 -0.008475 -0.000253 0.032842 0.000000 -0.007505 0.000000
# 4 0.000000 0.000000 0.000000 5.265745 0.000000 -3.908123
# 5 -0.005022 0.001140 -0.007505 0.000000 0.025172 0.000000
# 6 0.000000 0.000000 0.000000 -3.908123 0.000000 3.095616
#
#
# Mechanical properties :
#
#
# Convention : Reuss Voigt Hill
#
# Bulk Modulus (GPa) = 16.19950 20.59357 18.39654
# Shear Modulus (GPa) = 0.58803 21.49057 11.03930
#
# Velocity S-wave (km/s) = 0.50111 3.02944 2.17125
# Velocity P-wave (km/s) = 2.69310 4.58597 3.76058
#
# Compressibility (1/GPa) = 0.06173030
#
# Stress axis : x y z
#
# Youngs Moduli (GPa) = 27.70579 101.07456 30.44847
#
# Poissons Ratio (x) = -0.01797 0.25804
# Poissons Ratio (y) = -0.00493 0.00770
# Poissons Ratio (z) = 0.23480 0.02555
#
# Static dielectric constant tensor:
#      x y z
#    x 1.978120 0.000000 0.008100 
#    y 0.000000 1.897340 0.000000 
#    z 0.008100 0.000000 1.995040 
# 
# From -- ./inp_files/246698.got.cif
#   From: 2010.05.17/outbox.cif.g08.bks.cpg/sg15_124_cif.got.tgz:246698.got - 2010.06.03 18:47:42.
