data_PCOD9255154
_publ_section_title
;
Structure prediction by ZEFSAII (Michael W. Deem and Ramdas Pophale) SiO2 
 PCOD9255154
Probable space group: C 2/C
;
_chemical_formula_sum "Si O2"
_cell_formula_units_Z 52
_cell_length_a 9.123784
_cell_length_b 21.459421
_cell_length_c 17.552400
_cell_angle_alpha 90.000000
_cell_angle_beta 135.692513
_cell_angle_gamma 90.000000
_cell_volume 2400.498202
_symmetry_space_group_name_H-M "C 2/C"
_symmetry_group_IT_number 15
_symmetry_cell_setting 'monoclinic'
loop_
_space_group_symop_operation_xyz
x,y,z
-x,y,1/2-z
-x,-y,-z
x,-y,1/2+z
1/2+x,1/2+y,z
1/2-x,1/2+y,1/2-z
1/2-x,1/2-y,-z
1/2+x,1/2-y,1/2+z
loop_
_atom_site_type_symbol
_atom_site_label
_atom_site_fract_x
_atom_site_fract_y
_atom_site_fract_z
Si Si1 0.886491 0.548046 0.370572
Si Si2 0.903788 0.844072 0.316829
Si Si3 0.500000 0.755199 0.750000
Si Si4 0.000000 0.637787 0.750000
Si Si5 0.168537 0.943071 0.628006
Si Si6 0.500000 0.462481 0.250000
Si Si7 0.709081 0.951727 0.436167
Si Si8 0.832875 0.348890 0.560196
O O1 0.803403 0.561979 0.253778
O O2 0.693719 0.509829 0.335107
O O3 0.074589 0.498622 0.436020
O O4 0.997970 0.614263 0.430329
O O5 0.841295 0.795236 0.227488
O O6 0.725921 0.834436 0.314036
O O7 0.935308 0.913973 0.293502
O O8 0.132142 0.828240 0.436775
O O9 0.429864 0.797714 0.653075
O O10 0.052064 0.599105 0.845651
O O11 0.240233 0.898503 0.586764
O O12 0.924933 0.930470 0.553896
O O13 0.209520 0.011686 0.609166
#
# Coordination Sequence:
#
# PCOD9255154 Si02
#       8
#     8   8   4   4   8   4   8   8
#     4  11  21  35  57  93 134 167 197 258 307 388
#     4  11  25  41  68  92 126 170 210 267 314 374
#     4  11  24  47  64  90 123 159 228 272 306 367
#     4  12  18  39  59  89 123 162 210 248 310 382
#     4  10  18  31  57  93 116 161 207 248 300 377
#     4  11  24  40  55 103 144 161 200 256 328 371
#     4  10  17  28  56  85 122 156 197 241 302 380
#     4  11  21  41  68  89 119 172 219 252 319 376
#
# _framework density 21.66217
#
# number of rings (size 3 to 8) (size 9 to 14) (size 15 to 20)
#    0.000    1.231    6.154    1.385    4.308    0.615 
#    0.000    1.538    0.000    0.000    0.000    0.000 
#    0.000    0.000    0.000    0.000    0.000    0.000 
#
# Total GULP energy -144905.139438 kJ/mol
# GULP energy per Si atom -5573.274594 kJ/mol
# Density = 2.161287 g / cm^3
# Si number density = 21.662170 Si / 1000 Ang^3
#
#
#
# Elastic Constant Matrix: (Units=GPa)
#
#
# Indices 1 2 3 4 5 6 
#
# 1 94.8826 38.5909 24.5143 0.0000 21.9381 0.0000
# 2 38.5909 83.0011 16.5254 0.0000 6.6761 0.0000
# 3 24.5143 16.5254 89.9778 0.0000 25.2095 0.0000
# 4 0.0000 0.0000 0.0000 17.1032 0.0000 -7.9755
# 5 21.9381 6.6761 25.2095 0.0000 41.1722 0.0000
# 6 0.0000 0.0000 0.0000 -7.9755 0.0000 1.5342
#
#
#
# Elastic Compliance Matrix: (Units=1/GPa)
#
#
# Indices 1 2 3 4 5 6 
#
# 1 0.014759 -0.006134 -0.001171 0.000000 -0.006153 0.000000
# 2 -0.006134 0.015074 -0.001603 0.000000 0.001806 0.000000
# 3 -0.001171 -0.001603 0.013857 0.000000 -0.007601 0.000000
# 4 0.000000 0.000000 0.000000 -0.041055 0.000000 -0.213425
# 5 -0.006153 0.001806 -0.007601 0.000000 0.031928 0.000000
# 6 0.000000 0.000000 0.000000 -0.213425 0.000000 -0.457682
#
#
# Mechanical properties :
#
#
# Convention : Reuss Voigt Hill
#
# Bulk Modulus (GPa) = 38.64908 47.45809 43.05358
# Shear Modulus (GPa) = -12.60467 24.51064 5.95298
#
# Velocity S-wave (km/s) = -2.41483 3.36742 1.65954
# Velocity P-wave (km/s) = 3.17888 6.08894 4.85698
#
# Compressibility (1/GPa) = 0.02587384
#
# Stress axis : x y z
#
# Youngs Moduli (GPa) = 67.75348 66.33904 72.16696
#
# Poissons Ratio (x) = 0.40694 0.08448
# Poissons Ratio (y) = 0.41562 0.11570
# Poissons Ratio (z) = 0.07932 0.10636
#
# Static dielectric constant tensor:
#      x y z
#    x 1.891810 0.000000 0.016560 
#    y 0.000000 1.842260 0.000000 
#    z 0.016560 0.000000 1.847970 
# 
# From -- ./inp_files/179072.got.cif
#   From: 2010.05.17/outbox.cif.g08.bks.cpg/sg15_90_cif.got.tgz:179072.got - 2010.06.03 18:47:42.
