data_PCOD9255555
_publ_section_title
;
Structure prediction by ZEFSAII (Michael W. Deem and Ramdas Pophale) SiO2 
 PCOD9255555
Probable space group: C 2/C
;
_chemical_formula_sum "Si O2"
_cell_formula_units_Z 60
_cell_length_a 25.150591
_cell_length_b 18.703098
_cell_length_c 5.469613
_cell_angle_alpha 90.000000
_cell_angle_beta 71.510304
_cell_angle_gamma 90.000000
_cell_volume 2440.063071
_symmetry_space_group_name_H-M "C 2/C"
_symmetry_group_IT_number 15
_symmetry_cell_setting 'monoclinic'
loop_
_space_group_symop_operation_xyz
x,y,z
-x,y,1/2-z
-x,-y,-z
x,-y,1/2+z
1/2+x,1/2+y,z
1/2-x,1/2+y,1/2-z
1/2-x,1/2-y,-z
1/2+x,1/2-y,1/2+z
loop_
_atom_site_type_symbol
_atom_site_label
_atom_site_fract_x
_atom_site_fract_y
_atom_site_fract_z
Si Si1 0.000000 0.446893 0.250000
Si Si2 0.222856 0.963195 0.352765
Si Si3 0.882872 0.529996 0.398181
Si Si4 0.370295 0.237629 0.979032
Si Si5 0.454016 0.161115 0.164191
Si Si6 0.349607 0.325209 0.508439
Si Si7 0.260908 0.830973 0.565896
Si Si8 0.903129 0.980617 0.451247
O O1 0.942127 0.487808 0.320069
O O2 0.995187 0.397725 0.491599
O O3 0.244841 0.884484 0.374621
O O4 0.240615 0.992871 0.066963
O O5 0.154663 0.971083 0.456211
O O6 0.855423 0.502630 0.690979
O O7 0.901695 0.614043 0.353121
O O8 0.429001 0.205190 0.975794
O O9 0.354899 0.286711 0.238566
O O10 0.325758 0.172200 0.037092
O O11 0.368189 0.277139 0.718407
O O12 0.500000 0.205752 0.250000
O O13 0.284527 0.344619 0.656557
O O14 0.384069 0.398445 0.465553
O O15 0.250000 0.750000 0.500000
O O16 0.932898 0.003204 0.160903
#
# Coordination Sequence:
#
# PCOD9255555 Si02
#       8
#     4   8   8   8   8   8   8   8
#     4  10  18  34  62  82 108 154 212 240 320 338
#     4  10  20  33  58  85 112 154 214 243 295 342
#     4  10  17  31  55  83  99 146 205 248 295 349
#     4  11  27  37  57  90 121 165 209 236 309 376
#     4  11  21  38  60  81 120 154 206 259 302 353
#     4  11  22  41  59  84 127 160 200 250 293 368
#     4  10  22  40  61  84 126 172 195 247 312 367
#     4  10  18  32  62  85 110 151 203 244 289 334
#
# _framework density 24.589528999999999
#
# number of rings (size 3 to 8) (size 9 to 14) (size 15 to 20)
#    0.000    1.600    4.667    2.000    7.467    2.133 
#    0.000    2.667    0.000    0.000    0.000    0.000 
#    0.000   10.667    0.000    0.000    0.000    0.000 
#
# Total GULP energy -167598.077292 kJ/mol
# GULP energy per Si atom -5586.602576 kJ/mol
# Density = 2.453356 g / cm^3
# Si number density = 24.589529 Si / 1000 Ang^3
#
#
#
# Elastic Constant Matrix: (Units=GPa)
#
#
# Indices 1 2 3 4 5 6 
#
# 1 76.9431 15.9457 28.0217 0.0000 15.1362 0.0000
# 2 15.9457 87.4174 40.2399 0.0000 15.9816 0.0000
# 3 28.0217 40.2399 183.8627 0.0000 25.4501 0.0000
# 4 0.0000 0.0000 0.0000 40.0442 0.0000 18.6000
# 5 15.1362 15.9816 25.4501 0.0000 34.0280 0.0000
# 6 0.0000 0.0000 0.0000 18.6000 0.0000 9.8465
#
#
#
# Elastic Compliance Matrix: (Units=1/GPa)
#
#
# Indices 1 2 3 4 5 6 
#
# 1 0.014697 -0.001169 -0.001288 0.000000 -0.005025 0.000000
# 2 -0.001169 0.013416 -0.002184 0.000000 -0.004148 0.000000
# 3 -0.001288 -0.002184 0.006572 0.000000 -0.003317 0.000000
# 4 0.000000 0.000000 0.000000 0.203722 0.000000 -0.384832
# 5 -0.005025 -0.004148 -0.003317 0.000000 0.036051 0.000000
# 6 0.000000 0.000000 0.000000 -0.384832 0.000000 0.828508
#
#
# Mechanical properties :
#
#
# Convention : Reuss Voigt Hill
#
# Bulk Modulus (GPa) = 39.36701 57.40422 48.38562
# Shear Modulus (GPa) = 4.46143 34.38479 19.42311
#
# Velocity S-wave (km/s) = 1.34844 3.74351 2.81355
# Velocity P-wave (km/s) = 4.29754 6.48697 5.50226
#
# Compressibility (1/GPa) = 0.02540198
#
# Stress axis : x y z
#
# Youngs Moduli (GPa) = 68.04312 74.53672 152.15415
#
# Poissons Ratio (x) = 0.08714 0.19605
# Poissons Ratio (y) = 0.07955 0.33230
# Poissons Ratio (z) = 0.08767 0.16279
#
# Static dielectric constant tensor:
#      x y z
#    x 2.009070 0.000000 0.057410 
#    y 0.000000 1.997560 0.000000 
#    z 0.057410 0.000000 2.113100 
# 
# From -- ./inp_files/17196.got.cif
#   From: 2010.05.17/outbox.cif.g08.bks.cpg/sg15_9_cif.got.tgz:17196.got - 2010.06.03 18:47:42.
