data_PCOD9255687
_publ_section_title
;
Structure prediction by ZEFSAII (Michael W. Deem and Ramdas Pophale) SiO2 
 PCOD9255687
Probable space group: C 2/C
;
_chemical_formula_sum "Si O2"
_cell_formula_units_Z 60
_cell_length_a 20.400439
_cell_length_b 13.382777
_cell_length_c 25.402212
_cell_angle_alpha 90.000000
_cell_angle_beta 150.926607
_cell_angle_gamma 90.000000
_cell_volume 3370.005539
_symmetry_space_group_name_H-M "C 2/C"
_symmetry_group_IT_number 15
_symmetry_cell_setting 'monoclinic'
loop_
_space_group_symop_operation_xyz
x,y,z
-x,y,1/2-z
-x,-y,-z
x,-y,1/2+z
1/2+x,1/2+y,z
1/2-x,1/2+y,1/2-z
1/2-x,1/2-y,-z
1/2+x,1/2-y,1/2+z
loop_
_atom_site_type_symbol
_atom_site_label
_atom_site_fract_x
_atom_site_fract_y
_atom_site_fract_z
Si Si1 0.933628 0.325082 0.654100
Si Si2 0.000000 0.029785 0.250000
Si Si3 0.267643 0.369971 0.072589
Si Si4 0.671149 0.795229 0.743044
Si Si5 0.091526 0.694584 0.070343
Si Si6 0.677717 0.103974 0.627604
Si Si7 0.142394 0.095078 0.246532
Si Si8 0.055789 0.898022 0.565420
O O1 0.839670 0.385893 0.548937
O O2 0.845760 0.233060 0.614849
O O3 0.000000 0.380388 0.750000
O O4 0.056135 0.283138 0.705364
O O5 0.044321 0.085173 0.227648
O O6 0.124831 0.957939 0.351014
O O7 0.198169 0.365154 0.080736
O O8 0.602174 0.824207 0.640220
O O9 0.745526 0.690009 0.786346
O O10 0.788840 0.872666 0.841741
O O11 0.246323 0.679681 0.162336
O O12 0.980543 0.615742 0.970426
O O13 0.032969 0.803759 0.016192
O O14 0.759601 0.002032 0.691228
O O15 0.066181 0.103314 0.136859
O O16 0.000000 0.000000 0.500000
#
# Coordination Sequence:
#
# PCOD9255687 Si02
#       8
#     8   4   8   8   8   8   8   8
#     4  11  18  28  44  77 116 151 178 204 260 324
#     4  10  20  38  54  78 106 142 192 230 282 314
#     4  10  19  28  49  76 112 146 177 211 261 338
#     4  10  19  31  51  79 115 146 176 213 265 330
#     4  10  20  35  54  79 106 140 182 223 277 322
#     4  10  17  32  53  80 111 141 175 218 265 325
#     4  10  21  36  57  81 105 139 187 231 270 329
#     4  10  22  37  56  82 108 144 181 228 279 327
#
# _framework density 17.804124999999999
#
# number of rings (size 3 to 8) (size 9 to 14) (size 15 to 20)
#    0.000    1.867    3.333    2.000    0.000    1.067 
#    0.000    0.667    0.000    0.000    1.733    0.000 
#    0.000    0.000    0.000    0.000    0.000    0.000 
#
# Total GULP energy -167130.636068 kJ/mol
# GULP energy per Si atom -5571.021202 kJ/mol
# Density = 1.776360 g / cm^3
# Si number density = 17.804125 Si / 1000 Ang^3
#
#
#
# Elastic Constant Matrix: (Units=GPa)
#
#
# Indices 1 2 3 4 5 6 
#
# 1 54.8001 -1.7840 19.3526 -0.0007 1.2679 -0.0002
# 2 -1.7840 55.2296 23.7941 -0.0018 5.7023 -0.0006
# 3 19.3526 23.7941 112.3898 -0.0031 2.7361 -0.0012
# 4 -0.0007 -0.0018 -0.0031 19.6578 -0.0011 -4.5162
# 5 1.2679 5.7023 2.7361 -0.0011 19.6653 -0.0003
# 6 -0.0002 -0.0006 -0.0012 -4.5162 -0.0003 16.7391
#
#
#
# Elastic Compliance Matrix: (Units=1/GPa)
#
#
# Indices 1 2 3 4 5 6 
#
# 1 0.019733 0.002460 -0.003883 0.000000 -0.001445 0.000000
# 2 0.002460 0.020776 -0.004687 0.000001 -0.005531 0.000001
# 3 -0.003883 -0.004687 0.010555 0.000001 0.000141 0.000001
# 4 0.000000 0.000001 0.000001 0.054232 0.000003 0.014632
# 5 -0.001445 -0.005531 0.000141 0.000003 0.052528 0.000002
# 6 0.000000 0.000001 0.000001 0.014632 0.000002 0.063688
#
#
# Mechanical properties :
#
#
# Convention : Reuss Voigt Hill
#
# Bulk Modulus (GPa) = 25.74520 33.90498 29.82509
# Shear Modulus (GPa) = 20.26900 23.28291 21.77595
#
# Velocity S-wave (km/s) = 3.37774 3.62017 3.50106
# Velocity P-wave (km/s) = 5.45012 6.04639 5.75598
#
# Compressibility (1/GPa) = 0.03884219
#
# Stress axis : x y z
#
# Youngs Moduli (GPa) = 50.67630 48.13204 94.73968
#
# Poissons Ratio (x) = -0.11839 0.36791
# Poissons Ratio (y) = -0.12465 0.44409
# Poissons Ratio (z) = 0.19680 0.22562
#
# Static dielectric constant tensor:
#      x y z
#    x 1.634230 0.000000 0.009760 
#    y 0.000000 1.626750 0.000000 
#    z 0.009760 0.000000 1.641420 
# 
# From -- ./inp_files/112379.got.cif
#   From: 2010.05.17/outbox.cif.g08.bks.cpg/sg15_57_cif.got.tgz:112379.got - 2010.06.03 18:47:42.
