data_PCOD9255659
_publ_section_title
;
Structure prediction by ZEFSAII (Michael W. Deem and Ramdas Pophale) SiO2 
 PCOD9255659
Probable space group: C 2/C
;
_chemical_formula_sum "Si O2"
_cell_formula_units_Z 56
_cell_length_a 14.876643
_cell_length_b 18.315861
_cell_length_c 15.422910
_cell_angle_alpha 90.000000
_cell_angle_beta 137.902547
_cell_angle_gamma 90.000000
_cell_volume 2817.270104
_symmetry_space_group_name_H-M "C 2/C"
_symmetry_group_IT_number 15
_symmetry_cell_setting 'monoclinic'
loop_
_space_group_symop_operation_xyz
x,y,z
-x,y,1/2-z
-x,-y,-z
x,-y,1/2+z
1/2+x,1/2+y,z
1/2-x,1/2+y,1/2-z
1/2-x,1/2-y,-z
1/2+x,1/2-y,1/2+z
loop_
_atom_site_type_symbol
_atom_site_label
_atom_site_fract_x
_atom_site_fract_y
_atom_site_fract_z
Si Si1 0.091596 0.244660 0.990117
Si Si2 0.765769 0.113248 0.856943
Si Si3 0.522241 0.280831 0.908190
Si Si4 0.228394 0.642842 0.488146
Si Si5 0.500000 0.602409 0.250000
Si Si6 0.136009 0.008995 0.960000
Si Si7 0.000000 0.660781 0.750000
Si Si8 0.104008 0.125865 0.720143
O O1 0.105300 0.321696 0.951088
O O2 0.071985 0.243149 0.079279
O O3 0.221295 0.198132 0.050634
O O4 0.969870 0.198852 0.863401
O O5 0.620809 0.115178 0.795946
O O6 0.774616 0.114975 0.760015
O O7 0.846474 0.182643 0.954701
O O8 0.846793 0.041962 0.945039
O O9 0.462525 0.344778 0.803326
O O10 0.549930 0.213920 0.863552
O O11 0.235465 0.561468 0.456759
O O12 0.341194 0.636363 0.644762
O O13 0.384191 0.548315 0.133052
O O14 0.003831 0.060362 0.868244
#
# Coordination Sequence:
#
# PCOD9255659 Si02
#       8
#     8   8   8   8   4   8   4   8
#     4   9  18  31  50  79 107 135 173 217 265 310
#     4  10  21  32  55  78 105 141 174 223 265 317
#     4   9  19  33  53  77 104 137 180 217 263 309
#     4  10  18  31  54  78 109 140 171 221 267 305
#     4   9  16  30  52  82 105 134 174 230 255 304
#     4  10  17  32  51  80 106 136 177 218 264 311
#     4  11  20  36  52  76 109 138 176 218 271 320
#     4  10  18  33  55  80 103 139 182 218 264 312
#
# _framework density 19.877397999999999
#
# number of rings (size 3 to 8) (size 9 to 14) (size 15 to 20)
#    0.000    2.286    1.429    3.000    0.000    1.143 
#    0.000    0.000    9.429    3.429    0.000    0.000 
#    0.000    0.000    0.000    0.000    0.000    0.000 
#
# Total GULP energy -155992.741290 kJ/mol
# GULP energy per Si atom -5571.169332 kJ/mol
# Density = 1.983216 g / cm^3
# Si number density = 19.877398 Si / 1000 Ang^3
#
#
#
# Elastic Constant Matrix: (Units=GPa)
#
#
# Indices 1 2 3 4 5 6 
#
# 1 139.1166 23.0898 17.0737 -0.0001 -19.9504 -0.0001
# 2 23.0898 47.9263 -3.3954 -0.0001 1.9250 -0.0001
# 3 17.0737 -3.3954 18.6312 -0.0001 -10.3449 -0.0001
# 4 -0.0001 -0.0001 -0.0001 14.8868 -0.0001 5.3228
# 5 -19.9504 1.9250 -10.3449 -0.0001 29.6257 -0.0001
# 6 -0.0001 -0.0001 -0.0001 5.3228 -0.0001 14.6957
#
#
#
# Elastic Compliance Matrix: (Units=1/GPa)
#
#
# Indices 1 2 3 4 5 6 
#
# 1 0.009583 -0.005311 -0.007412 0.000000 0.004210 0.000000
# 2 -0.005311 0.024082 0.007941 0.000000 -0.002369 0.000000
# 3 -0.007412 0.007941 0.073011 0.000000 0.019987 0.000000
# 4 0.000000 0.000000 0.000000 0.077167 0.000000 -0.027950
# 5 0.004210 -0.002369 0.019987 0.000000 0.043723 0.000000
# 6 0.000000 0.000000 0.000000 -0.027950 0.000000 0.078170
#
#
# Mechanical properties :
#
#
# Convention : Reuss Voigt Hill
#
# Bulk Modulus (GPa) = 10.29753 31.02339 20.66046
# Shear Modulus (GPa) = 14.38136 23.10204 18.74170
#
# Velocity S-wave (km/s) = 2.69272 3.41284 3.07394
# Velocity P-wave (km/s) = 3.85479 5.58312 4.79743
#
# Compressibility (1/GPa) = 0.09711065
#
# Stress axis : x y z
#
# Youngs Moduli (GPa) = 104.34875 41.52489 13.69658
#
# Poissons Ratio (x) = 0.22055 0.10152
# Poissons Ratio (y) = 0.55422 -0.10876
# Poissons Ratio (z) = 0.77346 -0.32974
#
# Static dielectric constant tensor:
#      x y z
#    x 1.730900 0.000000 0.006610 
#    y 0.000000 1.730430 0.000000 
#    z 0.006610 0.000000 1.714400 
# 
# From -- ./inp_files/155256.got.cif
#   From: 2010.05.17/outbox.cif.g08.bks.cpg/sg15_78_cif.got.tgz:155256.got - 2010.06.03 18:47:42.
