data_PCOD9255256
_publ_section_title
;
Structure prediction by ZEFSAII (Michael W. Deem and Ramdas Pophale) SiO2 
 PCOD9255256
Probable space group: C 2/C
;
_chemical_formula_sum "Si O2"
_cell_formula_units_Z 40
_cell_length_a 17.761674
_cell_length_b 17.462047
_cell_length_c 8.778803
_cell_angle_alpha 90.000000
_cell_angle_beta 48.139718
_cell_angle_gamma 90.000000
_cell_volume 2027.865011
_symmetry_space_group_name_H-M "C 2/C"
_symmetry_group_IT_number 15
_symmetry_cell_setting 'monoclinic'
loop_
_space_group_symop_operation_xyz
x,y,z
-x,y,1/2-z
-x,-y,-z
x,-y,1/2+z
1/2+x,1/2+y,z
1/2-x,1/2+y,1/2-z
1/2-x,1/2-y,-z
1/2+x,1/2-y,1/2+z
loop_
_atom_site_type_symbol
_atom_site_label
_atom_site_fract_x
_atom_site_fract_y
_atom_site_fract_z
Si Si1 0.693221 0.468058 0.324127
Si Si2 0.000000 0.525084 0.750000
Si Si3 0.500000 0.284421 0.750000
Si Si4 0.153567 0.342860 0.937046
Si Si5 0.825775 0.425144 0.866700
Si Si6 0.634838 0.606113 0.206274
O O1 0.761078 0.520530 0.343012
O O2 0.626558 0.528101 0.315903
O O3 0.640023 0.414981 0.519749
O O4 0.766242 0.424464 0.106816
O O5 0.082541 0.583269 0.569275
O O6 0.067144 0.467197 0.758727
O O7 0.592396 0.230398 0.573936
O O8 0.456001 0.334052 0.668846
O O9 0.167715 0.346721 0.735670
O O10 0.259534 0.356183 0.880723
#
# Coordination Sequence:
#
# PCOD9255256 Si02
#       6
#     8   4   4   8   8   8
#     4   9  18  34  58  83 105 138 178 241 273 293
#     4  11  16  28  56  88 111 132 176 232 277 316
#     4  11  24  36  56  76 115 158 180 202 269 350
#     4  10  21  34  54  82 112 144 178 216 275 329
#     4  10  17  29  53  87 111 132 174 232 282 308
#     4  10  20  39  58  82 107 141 185 231 268 316
#
# _framework density 19.725178
#
# number of rings (size 3 to 8) (size 9 to 14) (size 15 to 20)
#    0.000    2.000    6.000    1.200    0.000    0.800 
#    0.000    1.000    0.000   12.000    0.000    0.000 
#    0.000    0.000    0.000    0.000    0.000    0.000 
#
# Total GULP energy -111399.959197 kJ/mol
# GULP energy per Si atom -5569.997960 kJ/mol
# Density = 1.968028 g / cm^3
# Si number density = 19.725178 Si / 1000 Ang^3
#
#
#
# Elastic Constant Matrix: (Units=GPa)
#
#
# Indices 1 2 3 4 5 6 
#
# 1 106.5457 51.8545 35.4679 0.0000 4.2108 0.0000
# 2 51.8545 50.4702 6.1217 0.0000 -7.1810 0.0000
# 3 35.4679 6.1217 39.2737 0.0000 14.6619 0.0000
# 4 0.0000 0.0000 0.0000 -4.7327 0.0000 -8.0607
# 5 4.2108 -7.1810 14.6619 0.0000 28.0666 0.0000
# 6 0.0000 0.0000 0.0000 -8.0607 0.0000 21.0537
#
#
#
# Elastic Compliance Matrix: (Units=1/GPa)
#
#
# Indices 1 2 3 4 5 6 
#
# 1 0.032080 -0.029962 -0.024402 0.000000 0.000268 0.000000
# 2 -0.029962 0.049938 0.015934 0.000000 0.008948 0.000000
# 3 -0.024402 0.015934 0.052333 0.000000 -0.019601 0.000000
# 4 0.000000 0.000000 0.000000 -0.127896 0.000000 -0.048967
# 5 0.000268 0.008948 -0.019601 0.000000 0.048118 0.000000
# 6 0.000000 0.000000 0.000000 -0.048967 0.000000 0.028750
#
#
# Mechanical properties :
#
#
# Convention : Reuss Voigt Hill
#
# Bulk Modulus (GPa) = 17.39355 42.57530 29.98443
# Shear Modulus (GPa) = 27.87899 15.73391 21.80645
#
# Velocity S-wave (km/s) = 3.76356 2.82734 3.32853
# Velocity P-wave (km/s) = 5.26526 5.68239 5.47780
#
# Compressibility (1/GPa) = 0.05749257
#
# Stress axis : x y z
#
# Youngs Moduli (GPa) = 31.17175 20.02476 19.10838
#
# Poissons Ratio (x) = 0.59999 0.46627
# Poissons Ratio (y) = 0.93398 -0.30448
# Poissons Ratio (z) = 0.76064 -0.31908
#
# Static dielectric constant tensor:
#      x y z
#    x 1.679510 0.000000 0.013510 
#    y 0.000000 1.740040 0.000000 
#    z 0.013510 0.000000 1.790680 
# 
# From -- ./inp_files/38992.got.cif
#   From: 2010.05.17/outbox.cif.g08.bks.cpg/sg15_20_cif.got.tgz:38992.got - 2010.06.03 18:47:42.
