data_PCOD9255740
_publ_section_title
;
Structure prediction by ZEFSAII (Michael W. Deem and Ramdas Pophale) SiO2 
 PCOD9255740
Probable space group: C 2/C
;
_chemical_formula_sum "Si O2"
_cell_formula_units_Z 40
_cell_length_a 18.547793
_cell_length_b 18.798141
_cell_length_c 5.495347
_cell_angle_alpha 90.000000
_cell_angle_beta 104.635679
_cell_angle_gamma 90.000000
_cell_volume 1853.858514
_symmetry_space_group_name_H-M "C 2/C"
_symmetry_group_IT_number 15
_symmetry_cell_setting 'monoclinic'
loop_
_space_group_symop_operation_xyz
x,y,z
-x,y,1/2-z
-x,-y,-z
x,-y,1/2+z
1/2+x,1/2+y,z
1/2-x,1/2+y,1/2-z
1/2-x,1/2-y,-z
1/2+x,1/2-y,1/2+z
loop_
_atom_site_type_symbol
_atom_site_label
_atom_site_fract_x
_atom_site_fract_y
_atom_site_fract_z
Si Si1 0.592926 0.531666 0.919777
Si Si2 0.691079 0.905685 0.397362
Si Si3 0.414083 0.699122 0.671101
Si Si4 0.340577 0.755438 0.106966
Si Si5 0.760890 0.557035 0.062590
O O1 0.566356 0.485881 0.667727
O O2 0.583043 0.613635 0.844812
O O3 0.681846 0.519030 0.999868
O O4 0.636038 0.839388 0.363606
O O5 0.730991 0.896884 0.171483
O O6 0.679077 0.991795 0.385643
O O7 0.733814 0.898290 0.688910
O O8 0.500000 0.725231 0.750000
O O9 0.370549 0.723771 0.388764
O O10 0.375701 0.721123 0.893431
O O11 0.250000 0.750000 0.000000
#
# Coordination Sequence:
#
# PCOD9255740 Si02
#       5
#     8   8   8   8   8
#     4  12  21  37  63  86 125 177 223 265 312 385
#     4  10  18  31  56  89 126 159 198 269 334 366
#     4  12  28  46  64  96 142 185 225 270 334 410
#     4  12  24  42  69  99 129 175 233 283 330 392
#     4  10  17  32  55  93 128 155 204 275 333 377
#
# _framework density 21.576619000000001
#
# number of rings (size 3 to 8) (size 9 to 14) (size 15 to 20)
#    0.000    0.800    4.000    6.000    0.000    0.800 
#    0.000    0.000    0.000    0.000    0.000   56.000 
#    0.000    0.000    0.000    0.000    0.000    0.000 
#
# Total GULP energy -111368.377932 kJ/mol
# GULP energy per Si atom -5568.418897 kJ/mol
# Density = 2.152751 g / cm^3
# Si number density = 21.576619 Si / 1000 Ang^3
#
#
#
# Elastic Constant Matrix: (Units=GPa)
#
#
# Indices 1 2 3 4 5 6 
#
# 1 84.8188 30.1427 73.4069 0.0000 -21.9853 0.0000
# 2 30.1427 107.5741 33.4651 0.0000 -12.4664 0.0000
# 3 73.4069 33.4651 218.5573 0.0000 -53.0821 0.0000
# 4 0.0000 0.0000 0.0000 23.7835 0.0000 -44.4275
# 5 -21.9853 -12.4664 -53.0821 0.0000 40.7092 0.0000
# 6 0.0000 0.0000 0.0000 -44.4275 0.0000 -86.7144
#
#
#
# Elastic Compliance Matrix: (Units=1/GPa)
#
#
# Indices 1 2 3 4 5 6 
#
# 1 0.017772 -0.003188 -0.004957 0.000000 0.002158 0.000000
# 2 -0.003188 0.010398 -0.000243 0.000000 0.001145 0.000000
# 3 -0.004957 -0.000243 0.008209 0.000000 0.007953 0.000000
# 4 0.000000 0.000000 0.000000 0.021484 0.000000 -0.011007
# 5 0.002158 0.001145 0.007953 0.000000 0.036451 0.000000
# 6 0.000000 0.000000 0.000000 -0.011007 0.000000 -0.005893
#
#
# Mechanical properties :
#
#
# Convention : Reuss Voigt Hill
#
# Bulk Modulus (GPa) = 51.01197 76.10885 63.56041
# Shear Modulus (GPa) = 44.75051 13.81802 29.28426
#
# Velocity S-wave (km/s) = 4.55909 2.53339 3.68805
# Velocity P-wave (km/s) = 7.16989 6.62629 6.90344
#
# Compressibility (1/GPa) = 0.01960324
#
# Stress axis : x y z
#
# Youngs Moduli (GPa) = 56.26826 96.17687 121.81725
#
# Poissons Ratio (x) = 0.30658 0.60382
# Poissons Ratio (y) = 0.17936 0.02963
# Poissons Ratio (z) = 0.27891 0.02339
#
# Static dielectric constant tensor:
#      x y z
#    x 1.822970 0.000000 0.014880 
#    y 0.000000 1.824780 0.000000 
#    z 0.014880 0.000000 1.867650 
# 
# From -- ./inp_files/10136.got.cif
#   From: 2010.05.17/outbox.cif.g08.bks.cpg/sg15_6_cif.got.tgz:10136.got - 2010.06.03 18:47:42.
