data_PCOD9255973
_publ_section_title
;
Structure prediction by ZEFSAII (Michael W. Deem and Ramdas Pophale) SiO2 
 PCOD9255973
Probable space group: C 2/C
;
_chemical_formula_sum "Si O2"
_cell_formula_units_Z 56
_cell_length_a 12.005216
_cell_length_b 19.141264
_cell_length_c 14.747017
_cell_angle_alpha 90.000000
_cell_angle_beta 129.752302
_cell_angle_gamma 90.000000
_cell_volume 2605.357142
_symmetry_space_group_name_H-M "C 2/C"
_symmetry_group_IT_number 15
_symmetry_cell_setting 'monoclinic'
loop_
_space_group_symop_operation_xyz
x,y,z
-x,y,1/2-z
-x,-y,-z
x,-y,1/2+z
1/2+x,1/2+y,z
1/2-x,1/2+y,1/2-z
1/2-x,1/2-y,-z
1/2+x,1/2-y,1/2+z
loop_
_atom_site_type_symbol
_atom_site_label
_atom_site_fract_x
_atom_site_fract_y
_atom_site_fract_z
Si Si1 0.641889 0.970137 0.181403
Si Si2 0.940006 0.334752 0.450361
Si Si3 0.627537 0.660702 0.880737
Si Si4 0.904870 0.624557 0.288372
Si Si5 0.378707 0.559582 0.954675
Si Si6 0.853964 0.000832 0.127870
Si Si7 0.403674 0.684125 0.430025
O O1 0.544649 0.903873 0.103054
O O2 0.761595 0.943666 0.314804
O O3 0.575170 0.041067 0.186376
O O4 0.728556 0.994103 0.136302
O O5 0.776363 0.336286 0.404222
O O6 0.946208 0.258394 0.409390
O O7 0.041861 0.340533 0.591104
O O8 0.500000 0.687722 0.750000
O O9 0.603760 0.577566 0.882448
O O10 0.629604 0.695078 0.979996
O O11 0.738913 0.646584 0.184098
O O12 0.000000 0.644278 0.250000
O O13 0.500000 0.500000 0.000000
O O14 0.310315 0.542330 0.016307
O O15 0.462212 0.632021 0.003410
O O16 0.000000 0.030653 0.250000
#
# Coordination Sequence:
#
# PCOD9255973 Si02
#       7
#     8   8   8   8   8   8   8
#     4  11  24  43  64  93 128 166 215 262 316 370
#     4  11  26  38  59  90 136 167 198 260 326 378
#     4  10  19  33  58  89 126 164 199 247 317 376
#     4  12  25  42  64  94 129 169 210 254 320 390
#     4  12  20  38  65  98 121 163 221 264 306 368
#     4  10  17  33  61  94 121 155 207 262 302 353
#     4  12  23  38  60  94 129 165 208 258 318 383
#
# _framework density 21.494174999999998
#
# number of rings (size 3 to 8) (size 9 to 14) (size 15 to 20)
#    0.000    0.857    5.714    2.571    6.000    0.000 
#    0.000    0.000    0.000    3.429    0.000    0.000 
#    0.000    0.000    0.000    0.000    0.000    0.000 
#
# Total GULP energy -156640.763508 kJ/mol
# GULP energy per Si atom -5594.312982 kJ/mol
# Density = 2.144525 g / cm^3
# Si number density = 21.494175 Si / 1000 Ang^3
#
#
#
# Elastic Constant Matrix: (Units=GPa)
#
#
# Indices 1 2 3 4 5 6 
#
# 1 28.6450 10.0787 9.2970 0.0000 -13.0334 0.0000
# 2 10.0787 118.7329 21.4436 0.0000 -9.5799 0.0000
# 3 9.2970 21.4436 110.1912 0.0000 -5.9333 0.0000
# 4 0.0000 0.0000 0.0000 7.4288 0.0000 -8.7040
# 5 -13.0334 -9.5799 -5.9333 0.0000 22.8316 0.0000
# 6 0.0000 0.0000 0.0000 -8.7040 0.0000 11.4270
#
#
#
# Elastic Compliance Matrix: (Units=1/GPa)
#
#
# Indices 1 2 3 4 5 6 
#
# 1 0.048150 -0.001547 -0.002349 0.000000 0.026227 0.000000
# 2 -0.001547 0.009026 -0.001490 0.000000 0.002517 0.000000
# 3 -0.002349 -0.001490 0.009592 0.000000 0.000526 0.000000
# 4 0.000000 0.000000 0.000000 1.251756 0.000000 0.953467
# 5 0.026227 0.002517 0.000526 0.000000 0.059963 0.000000
# 6 0.000000 0.000000 0.000000 0.953467 0.000000 0.813771
#
#
# Mechanical properties :
#
#
# Convention : Reuss Voigt Hill
#
# Bulk Modulus (GPa) = 17.85889 37.68975 27.77432
# Shear Modulus (GPa) = 2.25053 22.78746 12.51900
#
# Velocity S-wave (km/s) = 1.02436 3.25956 2.41599
# Velocity P-wave (km/s) = 3.11863 5.63376 4.55330
#
# Compressibility (1/GPa) = 0.05599453
#
# Stress axis : x y z
#
# Youngs Moduli (GPa) = 20.76840 110.79330 104.25655
#
# Poissons Ratio (x) = 0.17138 0.24493
# Poissons Ratio (y) = 0.03213 0.15539
# Poissons Ratio (z) = 0.04879 0.16513
#
# Static dielectric constant tensor:
#      x y z
#    x 1.762990 0.000000 -0.009090 
#    y 0.000000 1.845100 0.000000 
#    z -0.009090 0.000000 1.773190 
# 
# From -- ./inp_files/155229.got.cif
#   From: 2010.05.17/outbox.cif.g08.bks.cpg/sg15_78_cif.got.tgz:155229.got - 2010.06.03 18:47:42.
