data_PCOD9255266
_publ_section_title
;
Structure prediction by ZEFSAII (Michael W. Deem and Ramdas Pophale) SiO2 
 PCOD9255266
Probable space group: C 2/C
;
_chemical_formula_sum "Si O2"
_cell_formula_units_Z 44
_cell_length_a 17.531607
_cell_length_b 28.827629
_cell_length_c 9.628646
_cell_angle_alpha 90.000000
_cell_angle_beta 153.234865
_cell_angle_gamma 90.000000
_cell_volume 2191.446677
_symmetry_space_group_name_H-M "C 2/C"
_symmetry_group_IT_number 15
_symmetry_cell_setting 'monoclinic'
loop_
_space_group_symop_operation_xyz
x,y,z
-x,y,1/2-z
-x,-y,-z
x,-y,1/2+z
1/2+x,1/2+y,z
1/2-x,1/2+y,1/2-z
1/2-x,1/2-y,-z
1/2+x,1/2-y,1/2+z
loop_
_atom_site_type_symbol
_atom_site_label
_atom_site_fract_x
_atom_site_fract_y
_atom_site_fract_z
Si Si1 0.875760 0.470670 0.426812
Si Si2 0.500000 0.350418 0.750000
Si Si3 0.797854 0.888395 0.192659
Si Si4 0.328938 0.795033 0.200036
Si Si5 0.319636 0.933297 0.765710
Si Si6 0.500000 0.813862 0.750000
Si Si7 0.000000 0.637566 0.750000
O O1 0.776245 0.428646 0.330758
O O2 0.760132 0.514602 0.202899
O O3 0.998123 0.447756 0.509794
O O4 0.000000 0.488897 0.750000
O O5 0.467771 0.375444 0.550115
O O6 0.331741 0.321474 0.499013
O O7 0.798743 0.908786 0.039929
O O8 0.657184 0.847427 0.964449
O O9 0.448498 0.785798 0.528129
O O10 0.423084 0.828891 0.244032
O O11 0.250000 0.750000 0.000000
O O12 0.362984 0.897079 0.956978
#
# Coordination Sequence:
#
# PCOD9255266 Si02
#       7
#     8   4   8   8   8   4   4
#     4   9  16  28  54  86 120 156 208 244 283 344
#     4  10  23  42  64  82 128 166 194 244 329 372
#     4  10  17  36  56  84 116 167 202 233 297 366
#     4  11  24  44  65  93 118 154 204 260 313 373
#     4  10  17  29  54  91 119 152 205 258 281 336
#     4  10  18  39  66  82 116 166 200 231 304 382
#     4  12  21  37  66  96 118 150 216 259 291 348
#
# _framework density 20.078060000000001
#
# number of rings (size 3 to 8) (size 9 to 14) (size 15 to 20)
#    0.000    1.818    5.455    1.636    0.000    0.000 
#    3.273    3.636    0.000    0.000    0.000    0.000 
#    0.000    0.000    0.000    0.000    0.000    0.000 
#
# Total GULP energy -122562.760372 kJ/mol
# GULP energy per Si atom -5571.034562 kJ/mol
# Density = 2.003236 g / cm^3
# Si number density = 20.078060 Si / 1000 Ang^3
#
#
#
# Elastic Constant Matrix: (Units=GPa)
#
#
# Indices 1 2 3 4 5 6 
#
# 1 50.3312 8.4660 12.8772 0.0000 -18.1930 0.0000
# 2 8.4660 75.4778 41.5578 0.0000 -25.1312 0.0000
# 3 12.8772 41.5578 124.2731 0.0000 -38.2649 0.0000
# 4 0.0000 0.0000 0.0000 46.3949 0.0000 -20.4503
# 5 -18.1930 -25.1312 -38.2649 0.0000 30.9413 0.0000
# 6 0.0000 0.0000 0.0000 -20.4503 0.0000 22.4388
#
#
#
# Elastic Compliance Matrix: (Units=1/GPa)
#
#
# Indices 1 2 3 4 5 6 
#
# 1 0.026340 0.002456 0.002959 0.000000 0.021142 0.000000
# 2 0.002456 0.018872 -0.002263 0.000000 0.013974 0.000000
# 3 0.002959 -0.002263 0.013673 0.000000 0.016812 0.000000
# 4 0.000000 0.000000 0.000000 0.036027 0.000000 0.032834
# 5 0.021142 0.013974 0.016812 0.000000 0.076892 0.000000
# 6 0.000000 0.000000 0.000000 0.032834 0.000000 0.074490
#
#
# Mechanical properties :
#
#
# Convention : Reuss Voigt Hill
#
# Bulk Modulus (GPa) = 15.33974 41.76488 28.55231
# Shear Modulus (GPa) = 19.10434 32.43373 25.76904
#
# Velocity S-wave (km/s) = 3.08799 4.02354 3.58640
# Velocity P-wave (km/s) = 4.51341 6.51395 5.60368
#
# Compressibility (1/GPa) = 0.06519017
#
# Stress axis : x y z
#
# Youngs Moduli (GPa) = 37.96464 52.98827 73.13467
#
# Poissons Ratio (x) = -0.13012 -0.21642
# Poissons Ratio (y) = -0.09323 0.16548
# Poissons Ratio (z) = -0.11235 0.11990
#
# Static dielectric constant tensor:
#      x y z
#    x 1.749590 0.000000 -0.008760 
#    y 0.000000 1.789500 0.000000 
#    z -0.008760 0.000000 1.709280 
# 
# From -- ./inp_files/52713.got.cif
#   From: 2010.05.17/outbox.cif.g08.bks.cpg/sg15_27_cif.got.tgz:52713.got - 2010.06.03 18:47:42.
