data_PCOD9255348
_publ_section_title
;
Structure prediction by ZEFSAII (Michael W. Deem and Ramdas Pophale) SiO2 
 PCOD9255348
Probable space group: C 2/C
;
_chemical_formula_sum "Si O2"
_cell_formula_units_Z 60
_cell_length_a 16.813578
_cell_length_b 16.968710
_cell_length_c 14.322387
_cell_angle_alpha 90.000000
_cell_angle_beta 131.176494
_cell_angle_gamma 90.000000
_cell_volume 3075.655442
_symmetry_space_group_name_H-M "C 2/C"
_symmetry_group_IT_number 15
_symmetry_cell_setting 'monoclinic'
loop_
_space_group_symop_operation_xyz
x,y,z
-x,y,1/2-z
-x,-y,-z
x,-y,1/2+z
1/2+x,1/2+y,z
1/2-x,1/2+y,1/2-z
1/2-x,1/2-y,-z
1/2+x,1/2-y,1/2+z
loop_
_atom_site_type_symbol
_atom_site_label
_atom_site_fract_x
_atom_site_fract_y
_atom_site_fract_z
Si Si1 0.299591 0.682406 0.937188
Si Si2 0.000000 0.965905 0.250000
Si Si3 0.382098 0.296440 0.698703
Si Si4 0.126796 0.725166 0.493242
Si Si5 0.853761 0.823473 0.177899
Si Si6 0.897978 0.981665 0.484090
Si Si7 0.193628 0.869302 0.678336
Si Si8 0.903767 0.707508 0.385257
O O1 0.183590 0.717194 0.822395
O O2 0.338729 0.600745 0.923442
O O3 0.381298 0.750196 0.965986
O O4 0.311954 0.673379 0.057578
O O5 0.086251 0.905716 0.274075
O O6 0.059601 0.012704 0.377080
O O7 0.500000 0.285672 0.750000
O O8 0.374720 0.356741 0.779912
O O9 0.109688 0.767800 0.380315
O O10 0.228223 0.669193 0.566279
O O11 0.158381 0.796774 0.585832
O O12 0.022867 0.685255 0.454324
O O13 0.876933 0.776096 0.289673
O O14 0.823020 0.053154 0.395014
O O15 0.000000 0.000000 0.500000
O O16 0.315251 0.858038 0.801204
#
# Coordination Sequence:
#
# PCOD9255348 Si02
#       8
#     8   4   8   8   8   8   8   8
#     4  10  23  37  58  89 112 148 200 239 287 343
#     4  12  22  36  54  80 120 150 176 234 296 342
#     4  10  20  39  64  86 111 152 200 245 283 332
#     4  10  17  30  51  79 113 145 191 229 272 333
#     4  10  18  29  50  77 109 150 185 219 278 336
#     4  12  24  37  56  84 120 148 185 240 298 350
#     4  10  21  34  58  87 114 147 190 236 289 347
#     4  10  18  35  55  82 112 150 187 238 275 328
#
# _framework density 19.508037000000002
#
# number of rings (size 3 to 8) (size 9 to 14) (size 15 to 20)
#    0.000    1.600    2.667    3.200    2.800    0.000 
#    0.000    0.000    2.933    0.000    0.000    6.533 
#    0.000    0.000    0.000    0.000    0.000    0.000 
#
# Total GULP energy -167426.668994 kJ/mol
# GULP energy per Si atom -5580.888966 kJ/mol
# Density = 1.946364 g / cm^3
# Si number density = 19.508037 Si / 1000 Ang^3
#
#
#
# Elastic Constant Matrix: (Units=GPa)
#
#
# Indices 1 2 3 4 5 6 
#
# 1 111.4151 24.9947 19.3796 0.0000 23.6853 0.0000
# 2 24.9947 70.4261 21.8508 0.0000 18.1678 0.0000
# 3 19.3796 21.8508 64.9269 0.0000 -2.4033 0.0000
# 4 0.0000 0.0000 0.0000 19.4673 0.0000 5.3111
# 5 23.6853 18.1678 -2.4033 0.0000 49.9766 0.0000
# 6 0.0000 0.0000 0.0000 5.3111 0.0000 23.9798
#
#
#
# Elastic Compliance Matrix: (Units=1/GPa)
#
#
# Indices 1 2 3 4 5 6 
#
# 1 0.010848 -0.001785 -0.002809 0.000000 -0.004627 0.000000
# 2 -0.001785 0.018198 -0.005815 0.000000 -0.006049 0.000000
# 3 -0.002809 -0.005815 0.018358 0.000000 0.004328 0.000000
# 4 0.000000 0.000000 0.000000 0.054672 0.000000 -0.012109
# 5 -0.004627 -0.006049 0.004328 0.000000 0.024610 0.000000
# 6 0.000000 0.000000 0.000000 -0.012109 0.000000 0.044384
#
#
# Mechanical properties :
#
#
# Convention : Reuss Voigt Hill
#
# Bulk Modulus (GPa) = 37.61460 42.13537 39.87499
# Shear Modulus (GPa) = 24.90686 30.72093 27.81390
#
# Velocity S-wave (km/s) = 3.57704 3.97266 3.78003
# Velocity P-wave (km/s) = 6.03189 6.53365 6.28778
#
# Compressibility (1/GPa) = 0.02658542
#
# Stress axis : x y z
#
# Youngs Moduli (GPa) = 92.18195 54.95242 54.47340
#
# Poissons Ratio (x) = 0.09809 0.15299
# Poissons Ratio (y) = 0.16454 0.31679
# Poissons Ratio (z) = 0.25890 0.31957
#
# Static dielectric constant tensor:
#      x y z
#    x 1.764480 0.000000 -0.001330 
#    y 0.000000 1.670640 0.000000 
#    z -0.001330 0.000000 1.723010 
# 
# From -- ./inp_files/162957.got.cif
#   From: 2010.05.17/outbox.cif.g08.bks.cpg/sg15_82_cif.got.tgz:162957.got - 2010.06.03 18:47:42.
