data_PCOD9255264
_publ_section_title
;
Structure prediction by ZEFSAII (Michael W. Deem and Ramdas Pophale) SiO2 
 PCOD9255264
Probable space group: C 2/C
;
_chemical_formula_sum "Si O2"
_cell_formula_units_Z 64
_cell_length_a 25.626955
_cell_length_b 8.992710
_cell_length_c 21.702100
_cell_angle_alpha 90.000000
_cell_angle_beta 133.577973
_cell_angle_gamma 90.000000
_cell_volume 3623.180206
_symmetry_space_group_name_H-M "C 2/C"
_symmetry_group_IT_number 15
_symmetry_cell_setting 'monoclinic'
loop_
_space_group_symop_operation_xyz
x,y,z
-x,y,1/2-z
-x,-y,-z
x,-y,1/2+z
1/2+x,1/2+y,z
1/2-x,1/2+y,1/2-z
1/2-x,1/2-y,-z
1/2+x,1/2-y,1/2+z
loop_
_atom_site_type_symbol
_atom_site_label
_atom_site_fract_x
_atom_site_fract_y
_atom_site_fract_z
Si Si1 0.306693 0.716239 0.949293
Si Si2 0.405662 0.146709 0.737125
Si Si3 0.837993 0.329099 0.508452
Si Si4 0.326244 0.436670 0.686650
Si Si5 0.698129 0.537726 0.959621
Si Si6 0.240802 0.671173 0.684456
Si Si7 0.776677 0.516335 0.705176
Si Si8 0.928161 0.399711 0.110151
O O1 0.247231 0.843458 0.888241
O O2 0.292244 0.599305 0.882135
O O3 0.290793 0.616000 0.996188
O O4 0.382125 0.796198 0.025822
O O5 0.383679 0.308991 0.744777
O O6 0.486315 0.113818 0.823904
O O7 0.405588 0.141562 0.662308
O O8 0.343656 0.038151 0.712973
O O9 0.774792 0.397862 0.500197
O O10 0.840813 0.157157 0.529034
O O11 0.811942 0.340785 0.417051
O O12 0.905637 0.431230 0.577562
O O13 0.345703 0.516517 0.638716
O O14 0.306919 0.560112 0.721072
O O15 0.207740 0.606816 0.719867
O O16 0.263109 0.843351 0.707311
#
# Coordination Sequence:
#
# PCOD9255264 Si02
#       8
#     8   8   8   8   8   8   8   8
#     4  11  18  32  58  83 111 144 190 231 282 334
#     4  10  23  37  57  84 122 157 185 231 283 357
#     4  10  20  32  56  84 113 142 191 239 284 335
#     4  10  19  33  59  83 113 146 187 240 281 332
#     4  10  17  29  54  88 107 140 182 243 278 328
#     4  11  22  37  60  87 109 142 198 244 284 333
#     4  11  23  37  60  84 113 149 194 242 288 330
#     4  11  21  37  57  86 122 154 189 222 295 344
#
# _framework density 17.664038999999999
#
# number of rings (size 3 to 8) (size 9 to 14) (size 15 to 20)
#    0.000    1.500    5.000    3.375    3.500    0.000 
#    0.000    1.875    0.000    1.500    0.000    0.000 
#    0.000    0.000    0.000    0.000    0.000    0.000 
#
# Total GULP energy -178379.511995 kJ/mol
# GULP energy per Si atom -5574.359750 kJ/mol
# Density = 1.762384 g / cm^3
# Si number density = 17.664039 Si / 1000 Ang^3
#
#
#
# Elastic Constant Matrix: (Units=GPa)
#
#
# Indices 1 2 3 4 5 6 
#
# 1 49.1930 28.5190 33.1491 0.0000 1.7156 0.0000
# 2 28.5190 114.9883 29.7023 0.0000 11.1859 0.0000
# 3 33.1491 29.7023 68.0523 0.0000 18.5024 0.0000
# 4 0.0000 0.0000 0.0000 23.7207 0.0000 -7.4714
# 5 1.7156 11.1859 18.5024 0.0000 24.8015 0.0000
# 6 0.0000 0.0000 0.0000 -7.4714 0.0000 26.9579
#
#
#
# Elastic Compliance Matrix: (Units=1/GPa)
#
#
# Indices 1 2 3 4 5 6 
#
# 1 0.035616 -0.005331 -0.018824 0.000000 0.013984 0.000000
# 2 -0.005331 0.010647 -0.001060 0.000000 -0.003643 0.000000
# 3 -0.018824 -0.001060 0.029909 0.000000 -0.020533 0.000000
# 4 0.000000 0.000000 0.000000 0.046189 0.000000 0.012801
# 5 0.013984 -0.003643 -0.020533 0.000000 0.056314 0.000000
# 6 0.000000 0.000000 0.000000 0.012801 0.000000 0.040643
#
#
# Mechanical properties :
#
#
# Convention : Reuss Voigt Hill
#
# Bulk Modulus (GPa) = 38.84731 46.10825 42.47778
# Shear Modulus (GPa) = 17.96440 24.48691 21.22565
#
# Velocity S-wave (km/s) = 3.19251 3.72729 3.47022
# Velocity P-wave (km/s) = 5.96905 6.68454 6.33690
#
# Compressibility (1/GPa) = 0.02574181
#
# Stress axis : x y z
#
# Youngs Moduli (GPa) = 28.07729 93.92455 33.43463
#
# Poissons Ratio (x) = 0.50074 0.62938
# Poissons Ratio (y) = 0.14969 0.03543
# Poissons Ratio (z) = 0.52853 0.09953
#
# Static dielectric constant tensor:
#      x y z
#    x 1.601930 0.000000 -0.026360 
#    y 0.000000 1.640290 0.000000 
#    z -0.026360 0.000000 1.610610 
# 
# From -- ./inp_files/255061.got.cif
#   From: 2010.05.17/outbox.cif.g08.bks.cpg/sg15_128_cif.got.tgz:255061.got - 2010.06.03 18:47:42.
