data_PCOD9255467
_publ_section_title
;
Structure prediction by ZEFSAII (Michael W. Deem and Ramdas Pophale) SiO2 
 PCOD9255467
Probable space group: C 2/C
;
_chemical_formula_sum "Si O2"
_cell_formula_units_Z 64
_cell_length_a 5.988652
_cell_length_b 20.005629
_cell_length_c 26.738284
_cell_angle_alpha 90.000000
_cell_angle_beta 82.778767
_cell_angle_gamma 90.000000
_cell_volume 3178.017925
_symmetry_space_group_name_H-M "C 2/C"
_symmetry_group_IT_number 15
_symmetry_cell_setting 'monoclinic'
loop_
_space_group_symop_operation_xyz
x,y,z
-x,y,1/2-z
-x,-y,-z
x,-y,1/2+z
1/2+x,1/2+y,z
1/2-x,1/2+y,1/2-z
1/2-x,1/2-y,-z
1/2+x,1/2-y,1/2+z
loop_
_atom_site_type_symbol
_atom_site_label
_atom_site_fract_x
_atom_site_fract_y
_atom_site_fract_z
Si Si1 0.823477 0.505419 0.960362
Si Si2 0.161402 0.717866 0.875414
Si Si3 0.261483 0.365012 0.226166
Si Si4 0.240348 0.822403 0.604223
Si Si5 0.930672 0.278305 0.698425
Si Si6 0.000167 0.794870 0.448286
Si Si7 0.830496 0.393478 0.376291
Si Si8 0.012507 0.103984 0.031252
O O1 0.892508 0.543049 0.907897
O O2 0.720773 0.432933 0.951574
O O3 0.636183 0.555298 0.988827
O O4 0.000000 0.500000 0.000000
O O5 0.356353 0.742935 0.833728
O O6 0.263378 0.701592 0.926849
O O7 0.979479 0.775999 0.884246
O O8 0.050838 0.650305 0.859216
O O9 0.500000 0.375795 0.250000
O O10 0.267235 0.284771 0.214106
O O11 0.288134 0.404766 0.173104
O O12 0.000000 0.380073 0.250000
O O13 0.337912 0.826351 0.657454
O O14 0.408777 0.779672 0.563912
O O15 0.161534 0.886989 0.576443
O O16 0.000000 0.308100 0.750000
O O17 0.170709 0.842793 0.412379
O O18 0.988385 0.825052 0.503800
#
# Coordination Sequence:
#
# PCOD9255467 Si02
#       8
#     8   8   8   8   8   8   8   8
#     4  10  22  38  57  78 101 150 191 245 291 336
#     4  10  17  31  49  80 110 150 176 216 292 347
#     4  11  21  33  56  89 120 153 188 236 298 360
#     4  10  20  31  51  79 111 148 179 227 285 347
#     4  10  20  31  50  81 116 146 180 224 281 356
#     4   9  18  31  50  76 115 145 172 226 282 349
#     4  10  18  33  52  80 113 140 188 235 289 345
#     4  10  21  37  51  79 107 140 196 232 283 347
#
# _framework density 20.138338000000001
#
# number of rings (size 3 to 8) (size 9 to 14) (size 15 to 20)
#    0.000    2.000    3.750    2.625    0.000    2.500 
#    0.000    0.000    0.000    0.000    6.500    0.000 
#    0.000    0.000    0.000    0.000    0.000    0.000 
#
# Total GULP energy -178332.203172 kJ/mol
# GULP energy per Si atom -5572.881349 kJ/mol
# Density = 2.009250 g / cm^3
# Si number density = 20.138338 Si / 1000 Ang^3
#
#
#
# Elastic Constant Matrix: (Units=GPa)
#
#
# Indices 1 2 3 4 5 6 
#
# 1 72.1653 9.4103 31.9526 0.0000 17.7042 0.0000
# 2 9.4103 28.5576 29.6038 0.0000 11.1331 0.0000
# 3 31.9526 29.6038 119.6815 0.0000 32.7087 0.0000
# 4 0.0000 0.0000 0.0000 24.0381 0.0000 13.1334
# 5 17.7042 11.1331 32.7087 0.0000 35.7225 0.0000
# 6 0.0000 0.0000 0.0000 13.1334 0.0000 17.2750
#
#
#
# Elastic Compliance Matrix: (Units=1/GPa)
#
#
# Indices 1 2 3 4 5 6 
#
# 1 0.016497 -0.000385 -0.002811 0.000000 -0.005482 0.000000
# 2 -0.000385 0.047880 -0.010289 0.000000 -0.005310 0.000000
# 3 -0.002811 -0.010289 0.013863 0.000000 -0.008094 0.000000
# 4 0.000000 0.000000 0.000000 0.071157 0.000000 -0.054098
# 5 -0.005482 -0.005310 -0.008094 0.000000 0.039776 0.000000
# 6 0.000000 0.000000 0.000000 -0.054098 0.000000 0.099015
#
#
# Mechanical properties :
#
#
# Convention : Reuss Voigt Hill
#
# Bulk Modulus (GPa) = 19.50469 40.25976 29.88222
# Shear Modulus (GPa) = 15.04894 25.36962 20.20928
#
# Velocity S-wave (km/s) = 2.73660 3.55317 3.17128
# Velocity P-wave (km/s) = 4.43753 6.07193 5.31790
#
# Compressibility (1/GPa) = 0.05126972
#
# Stress axis : x y z
#
# Youngs Moduli (GPa) = 60.61794 20.88540 72.13418
#
# Poissons Ratio (x) = 0.00804 0.20276
# Poissons Ratio (y) = 0.02334 0.74222
# Poissons Ratio (z) = 0.17039 0.21490
#
# Static dielectric constant tensor:
#      x y z
#    x 1.778880 0.000000 0.006440 
#    y 0.000000 1.713650 0.000000 
#    z 0.006440 0.000000 1.776700 
# 
# From -- ./inp_files/286387.got.cif
#   From: 2010.05.17/outbox.cif.g08.bks.cpg/sg15_144_cif.got.tgz:286387.got - 2010.06.03 18:47:42.
