data_PCOD9255205
_publ_section_title
;
Structure prediction by ZEFSAII (Michael W. Deem and Ramdas Pophale) SiO2 
 PCOD9255205
Probable space group: C 2/C
;
_chemical_formula_sum "Si O2"
_cell_formula_units_Z 56
_cell_length_a 16.535809
_cell_length_b 7.835301
_cell_length_c 28.113922
_cell_angle_alpha 90.000000
_cell_angle_beta 36.918766
_cell_angle_gamma 90.000000
_cell_volume 2187.999746
_symmetry_space_group_name_H-M "C 2/C"
_symmetry_group_IT_number 15
_symmetry_cell_setting 'monoclinic'
loop_
_space_group_symop_operation_xyz
x,y,z
-x,y,1/2-z
-x,-y,-z
x,-y,1/2+z
1/2+x,1/2+y,z
1/2-x,1/2+y,1/2-z
1/2-x,1/2-y,-z
1/2+x,1/2-y,1/2+z
loop_
_atom_site_type_symbol
_atom_site_label
_atom_site_fract_x
_atom_site_fract_y
_atom_site_fract_z
Si Si1 0.082583 0.967617 0.619379
Si Si2 0.782887 0.400971 0.174133
Si Si3 0.508077 0.799057 0.798107
Si Si4 0.398986 0.574006 0.615986
Si Si5 0.214185 0.574470 0.043696
Si Si6 0.638380 0.758901 0.266016
Si Si7 0.604561 0.711824 0.458813
O O1 0.081816 0.123544 0.657106
O O2 0.219305 0.944010 0.524988
O O3 0.977341 0.038430 0.628335
O O4 0.012099 0.803912 0.675978
O O5 0.656523 0.270439 0.234886
O O6 0.726723 0.586465 0.214507
O O7 0.870961 0.324764 0.175483
O O8 0.844660 0.379330 0.092416
O O9 0.500000 0.878499 0.750000
O O10 0.441987 0.919210 0.868913
O O11 0.239933 0.604815 0.694977
O O12 0.476292 0.729333 0.553419
O O13 0.427308 0.412356 0.569902
O O14 0.291378 0.602405 0.057428
O O15 0.250000 0.750000 0.000000
#
# Coordination Sequence:
#
# PCOD9255205 Si02
#       7
#     8   8   8   8   8   8   8
#     4   9  18  31  51  77 110 142 179 230 289 322
#     4  11  20  32  54  83 110 146 184 236 286 335
#     4  10  17  29  49  81 106 137 191 235 269 320
#     4  10  19  33  53  80 113 142 179 233 285 342
#     4   9  18  31  51  81 109 140 181 239 276 318
#     4  11  19  34  53  81 113 142 187 228 287 337
#     4  10  19  33  53  82 113 142 180 230 292 328
#
# _framework density 25.594152999999999
#
# number of rings (size 3 to 8) (size 9 to 14) (size 15 to 20)
#    0.000    2.000    5.714    0.000    0.000    0.571 
#    0.000    0.000    0.000    0.000   29.714    5.000 
#    0.000    0.000    0.000    0.000    0.000    0.000 
#
# Total GULP energy -156172.764449 kJ/mol
# GULP energy per Si atom -5577.598730 kJ/mol
# Density = 2.553590 g / cm^3
# Si number density = 25.594153 Si / 1000 Ang^3
#
#
#
# Elastic Constant Matrix: (Units=GPa)
#
#
# Indices 1 2 3 4 5 6 
#
# 1 43.7086 3.0348 11.4383 0.0025 3.0369 -0.0018
# 2 3.0348 78.5933 -1.8029 0.0033 2.1065 0.0014
# 3 11.4383 -1.8029 133.6305 -0.0003 13.5625 -0.0005
# 4 0.0025 0.0033 -0.0003 25.5513 0.0002 -5.1711
# 5 3.0369 2.1065 13.5625 0.0002 29.4453 0.0000
# 6 -0.0018 0.0014 -0.0005 -5.1711 0.0000 16.7177
#
#
#
# Elastic Compliance Matrix: (Units=1/GPa)
#
#
# Indices 1 2 3 4 5 6 
#
# 1 0.023537 -0.000912 -0.001875 -0.000002 -0.001499 0.000002
# 2 -0.000912 0.012793 0.000350 -0.000002 -0.000983 -0.000002
# 3 -0.001875 0.000350 0.008006 0.000000 -0.003519 0.000000
# 4 -0.000002 -0.000002 0.000000 0.041750 0.000000 0.012914
# 5 -0.001499 -0.000983 -0.003519 0.000000 0.035807 0.000000
# 6 0.000002 -0.000002 0.000000 0.012914 0.000000 0.063812
#
#
# Mechanical properties :
#
#
# Convention : Reuss Voigt Hill
#
# Bulk Modulus (GPa) = 25.33986 31.25251 28.29619
# Shear Modulus (GPa) = 24.54208 30.56034 27.55121
#
# Velocity S-wave (km/s) = 3.09996 3.45923 3.28451
# Velocity P-wave (km/s) = 4.76814 5.30965 5.04616
#
# Compressibility (1/GPa) = 0.03946352
#
# Stress axis : x y z
#
# Youngs Moduli (GPa) = 42.48655 78.16582 124.91107
#
# Poissons Ratio (x) = 0.07126 0.23419
# Poissons Ratio (y) = 0.03873 -0.04376
# Poissons Ratio (z) = 0.07966 -0.02739
#
# Static dielectric constant tensor:
#      x y z
#    x 2.031940 0.000000 -0.049800 
#    y 0.000000 2.101720 0.000000 
#    z -0.049800 0.000000 2.123900 
# 
# From -- ./inp_files/315485.got.cif
#   From: 2010.05.17/outbox.cif.g08.bks.cpg/sg15_158_cif.got.tgz:315485.got - 2010.06.03 18:47:42.
