data_PCOD9255374
_publ_section_title
;
Structure prediction by ZEFSAII (Michael W. Deem and Ramdas Pophale) SiO2 
 PCOD9255374
Probable space group: C 2/C
;
_chemical_formula_sum "Si O2"
_cell_formula_units_Z 60
_cell_length_a 15.402431
_cell_length_b 9.518715
_cell_length_c 17.465288
_cell_angle_alpha 90.000000
_cell_angle_beta 96.666888
_cell_angle_gamma 90.000000
_cell_volume 2543.294396
_symmetry_space_group_name_H-M "C 2/C"
_symmetry_group_IT_number 15
_symmetry_cell_setting 'monoclinic'
loop_
_space_group_symop_operation_xyz
x,y,z
-x,y,1/2-z
-x,-y,-z
x,-y,1/2+z
1/2+x,1/2+y,z
1/2-x,1/2+y,1/2-z
1/2-x,1/2-y,-z
1/2+x,1/2-y,1/2+z
loop_
_atom_site_type_symbol
_atom_site_label
_atom_site_fract_x
_atom_site_fract_y
_atom_site_fract_z
Si Si1 0.146220 0.419956 0.482085
Si Si2 0.646246 0.607803 0.467413
Si Si3 0.000000 0.350219 0.250000
Si Si4 0.604469 0.910823 0.129022
Si Si5 0.334132 0.175718 0.106811
Si Si6 0.839577 0.139909 0.204781
Si Si7 0.784093 0.147069 0.737716
Si Si8 0.871523 0.842701 0.959206
O O1 0.250694 0.403285 0.502236
O O2 0.111551 0.264129 0.472064
O O3 0.110577 0.494883 0.554429
O O4 0.132929 0.518832 0.407058
O O5 0.645755 0.574100 0.377350
O O6 0.602093 0.500768 0.521473
O O7 0.034500 0.447078 0.185210
O O8 0.080303 0.244320 0.273211
O O9 0.699478 0.902897 0.178979
O O10 0.581246 0.753907 0.097121
O O11 0.341653 0.252629 0.188500
O O12 0.229887 0.166604 0.078182
O O13 0.373262 0.268970 0.042443
O O14 0.755932 0.246605 0.202797
O O15 0.828026 0.004401 0.259890
#
# Coordination Sequence:
#
# PCOD9255374 Si02
#       8
#     8   8   4   8   8   8   8   8
#     4   9  17  28  55  86 117 138 181 243 298 326
#     4  10  17  30  52  92 117 134 185 252 287 323
#     4  10  24  40  58  76 120 160 196 224 282 352
#     4   9  17  37  56  79 108 156 185 225 286 354
#     4   8  13  26  47  78 107 140 177 229 277 329
#     4  11  22  37  57  86 113 155 192 240 278 342
#     4  10  19  33  56  81 113 147 201 233 278 335
#     4   8  13  26  52  75 107 140 175 226 282 332
#
# _framework density 23.591449000000001
#
# number of rings (size 3 to 8) (size 9 to 14) (size 15 to 20)
#    0.000    2.667    2.667    1.600    1.867    0.000 
#    2.400    1.333    0.000    7.200    0.000    0.000 
#    0.000    0.000    0.000    0.000    0.000    0.000 
#
# Total GULP energy -167442.720919 kJ/mol
# GULP energy per Si atom -5581.424031 kJ/mol
# Density = 2.353775 g / cm^3
# Si number density = 23.591449 Si / 1000 Ang^3
#
#
#
# Elastic Constant Matrix: (Units=GPa)
#
#
# Indices 1 2 3 4 5 6 
#
# 1 45.6201 3.4692 11.8418 0.0000 -2.7338 0.0000
# 2 3.4692 120.8017 10.0823 0.0000 -17.4453 0.0000
# 3 11.8418 10.0823 53.1392 0.0000 -27.0837 0.0000
# 4 0.0000 0.0000 0.0000 22.4848 0.0000 9.9432
# 5 -2.7338 -17.4453 -27.0837 0.0000 29.0194 0.0000
# 6 0.0000 0.0000 0.0000 9.9432 0.0000 -2.9406
#
#
#
# Elastic Compliance Matrix: (Units=1/GPa)
#
#
# Indices 1 2 3 4 5 6 
#
# 1 0.023739 -0.000848 -0.008104 0.000000 -0.005837 0.000000
# 2 -0.000848 0.009210 0.002332 0.000000 0.007633 0.000000
# 3 -0.008104 0.002332 0.039112 0.000000 0.037142 0.000000
# 4 0.000000 0.000000 0.000000 0.017823 0.000000 0.060267
# 5 -0.005837 0.007633 0.037142 0.000000 0.073163 0.000000
# 6 0.000000 0.000000 0.000000 0.060267 0.000000 -0.136284
#
#
# Mechanical properties :
#
#
# Convention : Reuss Voigt Hill
#
# Bulk Modulus (GPa) = 17.00101 30.03863 23.51982
# Shear Modulus (GPa) = 83.87810 22.65724 53.26767
#
# Velocity S-wave (km/s) = 5.96922 3.10239 4.75692
# Velocity P-wave (km/s) = 7.39804 5.05901 6.33737
#
# Compressibility (1/GPa) = 0.05882002
#
# Stress axis : x y z
#
# Youngs Moduli (GPa) = 42.12565 108.57648 25.56753
#
# Poissons Ratio (x) = 0.09211 0.20720
# Poissons Ratio (y) = 0.03574 -0.05963
# Poissons Ratio (z) = 0.34139 -0.25321
#
# Static dielectric constant tensor:
#      x y z
#    x 1.900480 0.000000 0.003570 
#    y 0.000000 1.937710 0.000000 
#    z 0.003570 0.000000 1.897020 
# 
# From -- ./inp_files/247448.got.cif
#   From: 2010.05.17/outbox.cif.g08.bks.cpg/sg15_124_cif.got.tgz:247448.got - 2010.06.03 18:47:42.
