data_PCOD9255289
_publ_section_title
;
Structure prediction by ZEFSAII (Michael W. Deem and Ramdas Pophale) SiO2 
 PCOD9255289
Probable space group: C 2/C
;
_chemical_formula_sum "Si O2"
_cell_formula_units_Z 56
_cell_length_a 19.764947
_cell_length_b 20.390206
_cell_length_c 7.293217
_cell_angle_alpha 90.000000
_cell_angle_beta 118.799108
_cell_angle_gamma 90.000000
_cell_volume 2575.705720
_symmetry_space_group_name_H-M "C 2/C"
_symmetry_group_IT_number 15
_symmetry_cell_setting 'monoclinic'
loop_
_space_group_symop_operation_xyz
x,y,z
-x,y,1/2-z
-x,-y,-z
x,-y,1/2+z
1/2+x,1/2+y,z
1/2-x,1/2+y,1/2-z
1/2-x,1/2-y,-z
1/2+x,1/2-y,1/2+z
loop_
_atom_site_type_symbol
_atom_site_label
_atom_site_fract_x
_atom_site_fract_y
_atom_site_fract_z
Si Si1 0.308582 0.463730 0.705921
Si Si2 0.555320 0.695697 0.505861
Si Si3 0.361855 0.053418 0.461357
Si Si4 0.625760 0.094462 0.598090
Si Si5 0.474399 0.573381 0.431108
Si Si6 0.701751 0.395012 0.201332
Si Si7 0.476100 0.840814 0.001084
O O1 0.228655 0.451157 0.707298
O O2 0.385365 0.427905 0.871485
O O3 0.298510 0.431807 0.494246
O O4 0.322834 0.542107 0.707573
O O5 0.500000 0.703208 0.250000
O O6 0.513936 0.637573 0.563470
O O7 0.641710 0.664838 0.601986
O O8 0.556346 0.768949 0.584117
O O9 0.366042 0.080937 0.672603
O O10 0.412814 0.101359 0.403827
O O11 0.389875 0.978311 0.500019
O O12 0.708835 0.121081 0.639677
O O13 0.552939 0.141810 0.488503
O O14 0.500000 0.578831 0.250000
O O15 0.500000 0.500000 0.500000
O O16 0.500000 0.841793 0.250000
#
# Coordination Sequence:
#
# PCOD9255289 Si02
#       7
#     8   8   8   8   8   8   8
#     4  10  17  30  46  75  96 119 164 196 240 279
#     4  10  18  30  46  67 100 131 153 191 241 278
#     4   9  18  31  52  74  95 122 156 206 239 283
#     4   9  18  32  52  76  96 121 161 199 243 282
#     4  11  18  29  48  67  93 127 159 196 233 277
#     4  10  18  30  49  75  97 124 156 202 240 282
#     4   9  18  33  46  71  99 127 158 196 240 288
#
# _framework density 21.741613000000001
#
# number of rings (size 3 to 8) (size 9 to 14) (size 15 to 20)
#    0.000    2.286    4.286    0.429    0.000    0.000 
#    2.571    2.857    0.000    1.714    0.000    4.000 
#    0.000    0.000    0.000    0.000    0.000    0.000 
#
# Total GULP energy -155954.413786 kJ/mol
# GULP energy per Si atom -5569.800492 kJ/mol
# Density = 2.169213 g / cm^3
# Si number density = 21.741613 Si / 1000 Ang^3
#
#
#
# Elastic Constant Matrix: (Units=GPa)
#
#
# Indices 1 2 3 4 5 6 
#
# 1 102.1558 74.4071 36.9687 0.0000 36.6378 0.0000
# 2 74.4071 170.8691 46.1635 0.0000 44.9430 0.0000
# 3 36.9687 46.1635 49.8591 0.0000 25.4628 0.0000
# 4 0.0000 0.0000 0.0000 14.4929 0.0000 -20.2853
# 5 36.6378 44.9430 25.4628 0.0000 37.0428 0.0000
# 6 0.0000 0.0000 0.0000 -20.2853 0.0000 -62.4971
#
#
#
# Elastic Compliance Matrix: (Units=1/GPa)
#
#
# Indices 1 2 3 4 5 6 
#
# 1 0.017802 -0.003979 -0.004606 0.000000 -0.009614 0.000000
# 2 -0.003979 0.010052 -0.003295 0.000000 -0.005996 0.000000
# 3 -0.004606 -0.003295 0.034138 0.000000 -0.014913 0.000000
# 4 0.000000 0.000000 0.000000 0.047445 0.000000 -0.015400
# 5 -0.009614 -0.005996 -0.014913 0.000000 0.054030 0.000000
# 6 0.000000 0.000000 0.000000 -0.015400 0.000000 -0.011002
#
#
# Mechanical properties :
#
#
# Convention : Reuss Voigt Hill
#
# Bulk Modulus (GPa) = 26.15519 70.88473 48.51996
# Shear Modulus (GPa) = 26.45938 8.83071 17.64504
#
# Velocity S-wave (km/s) = 3.49233 2.01754 2.85191
# Velocity P-wave (km/s) = 5.32146 6.17263 5.76278
#
# Compressibility (1/GPa) = 0.03823333
#
# Stress axis : x y z
#
# Youngs Moduli (GPa) = 56.17413 99.47841 29.29262
#
# Poissons Ratio (x) = 0.39583 0.13491
# Poissons Ratio (y) = 0.22352 0.09652
# Poissons Ratio (z) = 0.25871 0.32777
#
# Static dielectric constant tensor:
#      x y z
#    x 1.717070 0.000000 0.017720 
#    y 0.000000 1.805480 0.000000 
#    z 0.017720 0.000000 1.909400 
# 
# From -- ./inp_files/113177.got.cif
#   From: 2010.05.17/outbox.cif.g08.bks.cpg/sg15_57_cif.got.tgz:113177.got - 2010.06.03 18:47:42.
