data_PCOD9255666
_publ_section_title
;
Structure prediction by ZEFSAII (Michael W. Deem and Ramdas Pophale) SiO2 
 PCOD9255666
Probable space group: C 2/C
;
_chemical_formula_sum "Si O2"
_cell_formula_units_Z 56
_cell_length_a 24.803667
_cell_length_b 12.067623
_cell_length_c 18.743586
_cell_angle_alpha 90.000000
_cell_angle_beta 149.375656
_cell_angle_gamma 90.000000
_cell_volume 2857.954365
_symmetry_space_group_name_H-M "C 2/C"
_symmetry_group_IT_number 15
_symmetry_cell_setting 'monoclinic'
loop_
_space_group_symop_operation_xyz
x,y,z
-x,y,1/2-z
-x,-y,-z
x,-y,1/2+z
1/2+x,1/2+y,z
1/2-x,1/2+y,1/2-z
1/2-x,1/2-y,-z
1/2+x,1/2-y,1/2+z
loop_
_atom_site_type_symbol
_atom_site_label
_atom_site_fract_x
_atom_site_fract_y
_atom_site_fract_z
Si Si1 0.814217 0.815402 0.011319
Si Si2 0.618709 0.183971 0.203575
Si Si3 0.583783 0.582163 0.743044
Si Si4 0.615474 0.863756 0.022716
Si Si5 0.793214 0.224294 0.834001
Si Si6 0.092868 0.002580 0.045988
Si Si7 0.739748 0.568969 0.336230
O O1 0.721673 0.870119 0.857800
O O2 0.871677 0.723536 0.027735
O O3 0.750000 0.750000 0.000000
O O4 0.887832 0.891720 0.143748
O O5 0.615085 0.310233 0.230713
O O6 0.638458 0.200502 0.142875
O O7 0.506622 0.130654 0.094073
O O8 0.462423 0.560972 0.583400
O O9 0.655545 0.480576 0.796298
O O10 0.689560 0.816916 0.171481
O O11 0.664273 0.981492 0.055291
O O12 0.863194 0.115985 0.926698
O O13 0.767894 0.302061 0.872245
O O14 0.184688 0.061148 0.195181
O O15 0.000000 0.000000 0.000000
#
# Coordination Sequence:
#
# PCOD9255666 Si02
#       7
#     8   8   8   8   8   8   8
#     4   9  17  32  47  77 109 136 186 226 277 334
#     4  10  18  31  50  76 114 143 176 230 282 334
#     4  10  17  32  52  74 110 147 188 230 278 328
#     4  10  19  32  50  79 117 142 177 241 282 326
#     4  10  19  30  50  80 113 146 191 220 274 355
#     4   9  16  31  50  75 105 153 185 224 279 329
#     4  10  18  31  48  75 113 148 179 227 288 330
#
# _framework density 19.594435000000001
#
# number of rings (size 3 to 8) (size 9 to 14) (size 15 to 20)
#    0.000    2.286    7.143    0.857    2.000    2.857 
#    0.000    0.000    0.000    0.000    0.000    1.000 
#   21.429    0.143    0.000    0.000    0.000    0.000 
#
# Total GULP energy -156130.581794 kJ/mol
# GULP energy per Si atom -5576.092207 kJ/mol
# Density = 1.954984 g / cm^3
# Si number density = 19.594435 Si / 1000 Ang^3
#
#
#
# Elastic Constant Matrix: (Units=GPa)
#
#
# Indices 1 2 3 4 5 6 
#
# 1 43.0847 11.1847 27.2255 0.0000 -2.0030 0.0000
# 2 11.1847 82.8048 27.0941 0.0000 -4.5692 0.0000
# 3 27.2255 27.0941 107.1339 0.0000 1.1613 0.0000
# 4 0.0000 0.0000 0.0000 31.3487 0.0000 -0.8561
# 5 -2.0030 -4.5692 1.1613 0.0000 30.4398 0.0000
# 6 0.0000 0.0000 0.0000 -0.8561 0.0000 26.7328
#
#
#
# Elastic Compliance Matrix: (Units=1/GPa)
#
#
# Indices 1 2 3 4 5 6 
#
# 1 0.027943 -0.001462 -0.006752 0.000000 0.001877 0.000000
# 2 -0.001462 0.013379 -0.003034 0.000000 0.002028 0.000000
# 3 -0.006752 -0.003034 0.011832 0.000000 -0.001351 0.000000
# 4 0.000000 0.000000 0.000000 0.031927 0.000000 0.001022
# 5 0.001877 0.002028 -0.001351 0.000000 0.033331 0.000000
# 6 0.000000 0.000000 0.000000 0.001022 0.000000 0.037440
#
#
# Mechanical properties :
#
#
# Convention : Reuss Voigt Hill
#
# Bulk Modulus (GPa) = 32.61689 40.44801 36.53245
# Shear Modulus (GPa) = 26.51583 28.87221 27.69402
#
# Velocity S-wave (km/s) = 3.68262 3.84277 3.76355
# Velocity P-wave (km/s) = 5.89614 6.35426 6.12948
#
# Compressibility (1/GPa) = 0.03065896
#
# Stress axis : x y z
#
# Youngs Moduli (GPa) = 35.78678 74.74596 84.51742
#
# Poissons Ratio (x) = 0.10925 0.57065
# Poissons Ratio (y) = 0.05231 0.25643
# Poissons Ratio (z) = 0.24163 0.22678
#
# Static dielectric constant tensor:
#      x y z
#    x 1.726840 0.000000 0.026990 
#    y 0.000000 1.731680 0.000000 
#    z 0.026990 0.000000 1.738820 
# 
# From -- ./inp_files/257419.got.cif
#   From: 2010.05.17/outbox.cif.g08.bks.cpg/sg15_129_cif.got.tgz:257419.got - 2010.06.03 18:47:42.
