data_PCOD9255817
_publ_section_title
;
Structure prediction by ZEFSAII (Michael W. Deem and Ramdas Pophale) SiO2 
 PCOD9255817
Probable space group: C 2/C
;
_chemical_formula_sum "Si O2"
_cell_formula_units_Z 56
_cell_length_a 11.691377
_cell_length_b 16.769410
_cell_length_c 15.148814
_cell_angle_alpha 90.000000
_cell_angle_beta 117.529281
_cell_angle_gamma 90.000000
_cell_volume 2633.755135
_symmetry_space_group_name_H-M "C 2/C"
_symmetry_group_IT_number 15
_symmetry_cell_setting 'monoclinic'
loop_
_space_group_symop_operation_xyz
x,y,z
-x,y,1/2-z
-x,-y,-z
x,-y,1/2+z
1/2+x,1/2+y,z
1/2-x,1/2+y,1/2-z
1/2-x,1/2-y,-z
1/2+x,1/2-y,1/2+z
loop_
_atom_site_type_symbol
_atom_site_label
_atom_site_fract_x
_atom_site_fract_y
_atom_site_fract_z
Si Si1 0.432137 0.752703 0.133811
Si Si2 0.530658 0.853259 0.598712
Si Si3 0.363929 0.536367 0.918585
Si Si4 0.593019 0.319169 0.202495
Si Si5 0.890290 0.508087 0.775597
Si Si6 0.759022 0.373534 0.980359
Si Si7 0.359225 0.157313 0.891213
O O1 0.500000 0.764430 0.250000
O O2 0.369955 0.666483 0.103362
O O3 0.536411 0.775438 0.098162
O O4 0.315612 0.813991 0.075544
O O5 0.557573 0.766764 0.649273
O O6 0.553453 0.923953 0.674406
O O7 0.634657 0.874934 0.558033
O O8 0.388425 0.854746 0.504457
O O9 0.398735 0.616062 0.873613
O O10 0.253083 0.496964 0.816575
O O11 0.500000 0.500000 0.000000
O O12 0.283406 0.550573 0.980213
O O13 0.500000 0.343824 0.250000
O O14 0.728359 0.313361 0.301746
O O15 0.883873 0.572518 0.852125
O O16 0.000000 0.543080 0.750000
#
# Coordination Sequence:
#
# PCOD9255817 Si02
#       7
#     8   8   8   8   8   8   8
#     4  10  17  32  61  87 113 148 193 250 302 353
#     4  11  23  39  64  92 121 162 209 252 306 371
#     4  11  25  42  63  91 126 165 205 255 315 369
#     4  11  25  43  61  90 129 163 199 250 313 373
#     4  11  23  40  62  89 122 162 211 258 305 366
#     4  10  21  37  59  90 120 151 202 252 300 361
#     4  10  21  38  61  87 117 156 204 255 303 355
#
# _framework density 21.262416999999999
#
# number of rings (size 3 to 8) (size 9 to 14) (size 15 to 20)
#    0.000    1.429    0.000    8.143    0.000    7.429 
#    0.000    0.000    0.000    0.000    0.000    0.000 
#    0.000    0.000    0.000    0.000    0.000    0.000 
#
# Total GULP energy -156192.374995 kJ/mol
# GULP energy per Si atom -5578.299107 kJ/mol
# Density = 2.121402 g / cm^3
# Si number density = 21.262417 Si / 1000 Ang^3
#
#
#
# Elastic Constant Matrix: (Units=GPa)
#
#
# Indices 1 2 3 4 5 6 
#
# 1 48.1255 -11.1203 25.2900 0.0000 4.9680 0.0000
# 2 -11.1203 39.8481 48.0202 0.0000 7.2276 0.0000
# 3 25.2900 48.0202 138.2055 0.0000 27.9731 0.0000
# 4 0.0000 0.0000 0.0000 9.3041 0.0000 -2.6521
# 5 4.9680 7.2276 27.9731 0.0000 40.8569 0.0000
# 6 0.0000 0.0000 0.0000 -2.6521 0.0000 20.4902
#
#
#
# Elastic Compliance Matrix: (Units=1/GPa)
#
#
# Indices 1 2 3 4 5 6 
#
# 1 0.038113 0.033025 -0.018955 0.000000 0.002501 0.000000
# 2 0.033025 0.072119 -0.032163 0.000000 0.005247 0.000000
# 3 -0.018955 -0.032163 0.023521 0.000000 -0.008109 0.000000
# 4 0.000000 0.000000 0.000000 0.111597 0.000000 0.014444
# 5 0.002501 0.005247 -0.008109 0.000000 0.028795 0.000000
# 6 0.000000 0.000000 0.000000 0.014444 0.000000 0.050673
#
#
# Mechanical properties :
#
#
# Convention : Reuss Voigt Hill
#
# Bulk Modulus (GPa) = 10.24957 38.95098 24.60028
# Shear Modulus (GPa) = 12.70561 25.06286 18.88424
#
# Velocity S-wave (km/s) = 2.44716 3.43700 2.98342
# Velocity P-wave (km/s) = 3.57991 5.84034 4.84383
#
# Compressibility (1/GPa) = 0.09756503
#
# Stress axis : x y z
#
# Youngs Moduli (GPa) = 26.23799 13.86599 42.51567
#
# Poissons Ratio (x) = -0.45792 0.80589
# Poissons Ratio (y) = -0.86650 1.36744
# Poissons Ratio (z) = 0.49734 0.44598
#
# Static dielectric constant tensor:
#      x y z
#    x 2.212010 0.000000 0.005680 
#    y 0.000000 1.778340 0.000000 
#    z 0.005680 0.000000 1.846380 
# 
# From -- ./inp_files/146173.got.cif
#   From: 2010.05.17/outbox.cif.g08.bks.cpg/sg15_74_cif.got.tgz:146173.got - 2010.06.03 18:47:42.
