data_PCOD9255173
_publ_section_title
;
Structure prediction by ZEFSAII (Michael W. Deem and Ramdas Pophale) SiO2 
 PCOD9255173
Probable space group: C 2/C
;
_chemical_formula_sum "Si O2"
_cell_formula_units_Z 44
_cell_length_a 14.685338
_cell_length_b 34.713566
_cell_length_c 5.381309
_cell_angle_alpha 90.000000
_cell_angle_beta 107.730872
_cell_angle_gamma 90.000000
_cell_volume 2612.973241
_symmetry_space_group_name_H-M "C 2/C"
_symmetry_group_IT_number 15
_symmetry_cell_setting 'monoclinic'
loop_
_space_group_symop_operation_xyz
x,y,z
-x,y,1/2-z
-x,-y,-z
x,-y,1/2+z
1/2+x,1/2+y,z
1/2-x,1/2+y,1/2-z
1/2-x,1/2-y,-z
1/2+x,1/2-y,1/2+z
loop_
_atom_site_type_symbol
_atom_site_label
_atom_site_fract_x
_atom_site_fract_y
_atom_site_fract_z
Si Si1 0.694247 0.326791 0.462952
Si Si2 0.682526 0.512826 0.932819
Si Si3 0.786961 0.294553 0.038475
Si Si4 0.500000 0.228133 0.750000
Si Si5 0.396937 0.591596 0.555154
Si Si6 0.500000 0.461635 0.750000
Si Si7 0.500000 0.278720 0.250000
O O1 0.741126 0.317301 0.234183
O O2 0.668312 0.371072 0.499370
O O3 0.593891 0.304186 0.368123
O O4 0.756251 0.311394 0.745969
O O5 0.732132 0.492396 0.741406
O O6 0.658581 0.557087 0.852115
O O7 0.581302 0.491207 0.915998
O O8 0.900681 0.294695 0.173832
O O9 0.750000 0.250000 0.000000
O O10 0.491876 0.253576 0.493097
O O11 0.500000 0.603044 0.750000
O O12 0.432769 0.568252 0.343540
#
# Coordination Sequence:
#
# PCOD9255173 Si02
#       7
#     8   8   8   4   8   4   4
#     4  12  25  35  55  85 116 134 183 230 283 311
#     4  10  17  29  45  68  98 148 202 199 231 312
#     4  12  24  43  58  80 102 140 181 239 275 348
#     4  12  24  39  66  70 100 135 186 221 286 322
#     4  11  20  30  48  73 111 150 185 218 258 309
#     4  10  18  30  48  70 106 160 200 194 246 326
#     4  12  20  35  58  86  98 143 164 227 276 332
#
# _framework density 16.839054999999998
#
# number of rings (size 3 to 8) (size 9 to 14) (size 15 to 20)
#    0.000    0.727    7.273    2.727    2.545    0.727 
#    0.000    0.000    0.000    0.000    0.000    0.000 
#    0.000    0.000    0.000   65.455    0.000    0.000 
#
# Total GULP energy -122472.455962 kJ/mol
# GULP energy per Si atom -5566.929816 kJ/mol
# Density = 1.680073 g / cm^3
# Si number density = 16.839055 Si / 1000 Ang^3
#
#
#
# Elastic Constant Matrix: (Units=GPa)
#
#
# Indices 1 2 3 4 5 6 
#
# 1 69.0677 23.5736 21.0009 0.0000 5.2173 0.0000
# 2 23.5736 101.3507 33.8183 0.0000 0.5449 0.0000
# 3 21.0009 33.8183 94.1827 0.0000 -9.4468 0.0000
# 4 0.0000 0.0000 0.0000 -901.4466 0.0000 -888.3118
# 5 5.2173 0.5449 -9.4468 0.0000 31.3019 0.0000
# 6 0.0000 0.0000 0.0000 -888.3118 0.0000 -834.4174
#
#
#
# Elastic Compliance Matrix: (Units=1/GPa)
#
#
# Indices 1 2 3 4 5 6 
#
# 1 0.016652 -0.002832 -0.003062 0.000000 -0.003650 0.000000
# 2 -0.002832 0.011756 -0.003674 0.000000 -0.000842 0.000000
# 3 -0.003062 -0.003674 0.013073 0.000000 0.004520 0.000000
# 4 0.000000 0.000000 0.000000 0.022604 0.000000 -0.024064
# 5 -0.003650 -0.000842 0.004520 0.000000 0.033934 0.000000
# 6 0.000000 0.000000 0.000000 -0.024064 0.000000 0.024419
#
#
# Mechanical properties :
#
#
# Convention : Reuss Voigt Hill
#
# Bulk Modulus (GPa) = 44.75391 46.82072 45.78732
# Shear Modulus (GPa) = 33.55188 -328.49854 -147.47333
#
# Velocity S-wave (km/s) = 4.46859 -13.98230 -9.36847
# Velocity P-wave (km/s) = 7.29791 15.25804 9.47492
#
# Compressibility (1/GPa) = 0.02234441
#
# Stress axis : x y z
#
# Youngs Moduli (GPa) = 60.05301 85.06380 76.49247
#
# Poissons Ratio (x) = 0.24087 0.23425
# Poissons Ratio (y) = 0.17005 0.28105
# Poissons Ratio (z) = 0.18391 0.31254
#
# Static dielectric constant tensor:
#      x y z
#    x 1.574680 0.000000 -0.064610 
#    y 0.000000 1.571590 0.000000 
#    z -0.064610 0.000000 1.691570 
# 
# From -- ./inp_files/8623.got.cif
#   From: 2010.05.17/outbox.cif.g08.bks.cpg/sg15_5_cif.got.tgz:8623.got - 2010.06.03 18:47:42.
