data_PCOD9255868
_publ_section_title
;
Structure prediction by ZEFSAII (Michael W. Deem and Ramdas Pophale) SiO2 
 PCOD9255868
Probable space group: C 2/C
;
_chemical_formula_sum "Si O2"
_cell_formula_units_Z 64
_cell_length_a 9.822836
_cell_length_b 20.398329
_cell_length_c 18.000742
_cell_angle_alpha 90.000000
_cell_angle_beta 131.579083
_cell_angle_gamma 90.000000
_cell_volume 2698.031143
_symmetry_space_group_name_H-M "C 2/C"
_symmetry_group_IT_number 15
_symmetry_cell_setting 'monoclinic'
loop_
_space_group_symop_operation_xyz
x,y,z
-x,y,1/2-z
-x,-y,-z
x,-y,1/2+z
1/2+x,1/2+y,z
1/2-x,1/2+y,1/2-z
1/2-x,1/2-y,-z
1/2+x,1/2-y,1/2+z
loop_
_atom_site_type_symbol
_atom_site_label
_atom_site_fract_x
_atom_site_fract_y
_atom_site_fract_z
Si Si1 0.290352 0.712805 0.149154
Si Si2 0.682689 0.768910 0.853859
Si Si3 0.132725 0.853343 0.116071
Si Si4 0.217434 0.656032 0.517513
Si Si5 0.207930 0.989170 0.163099
Si Si6 0.723092 0.619839 0.233439
Si Si7 0.737905 0.485955 0.501943
Si Si8 0.321719 0.377218 0.541311
O O1 0.500000 0.718569 0.250000
O O2 0.211710 0.781413 0.145199
O O3 0.211595 0.652519 0.167953
O O4 0.253242 0.690181 0.051759
O O5 0.500000 0.742438 0.750000
O O6 0.807049 0.706678 0.922759
O O7 0.747111 0.825707 0.820375
O O8 0.648460 0.807506 0.918293
O O9 0.253052 0.912884 0.192934
O O10 0.936357 0.847542 0.082175
O O11 0.121479 0.871603 0.024290
O O12 0.175551 0.578644 0.502850
O O13 0.985330 0.986402 0.087528
O O14 0.290328 0.046445 0.243233
O O15 0.259378 0.012631 0.098860
O O16 0.505331 0.611747 0.154737
O O17 0.797584 0.557394 0.494899
#
# Coordination Sequence:
#
# PCOD9255868 Si02
#       8
#     8   8   8   8   8   8   8   8
#     4  10  21  31  48  76 106 135 164 211 264 304
#     4  11  21  32  49  78 108 136 170 210 261 313
#     4  10  17  33  54  75  99 133 175 210 248 307
#     4  10  19  33  54  78 102 136 174 212 261 307
#     4   8  14  26  52  72  90 128 170 207 246 294
#     4  10  17  34  48  72 105 129 167 214 255 304
#     4   8  13  28  51  75  93 119 170 216 245 295
#     4   9  17  31  54  75  94 129 175 212 250 300
#
# _framework density 23.721
#
# number of rings (size 3 to 8) (size 9 to 14) (size 15 to 20)
#    0.000    2.500    2.500    2.625    0.000    0.000 
#    0.000    6.250    0.000    0.000    0.000    4.375 
#    0.000    0.000    0.000    0.000    0.000    0.000 
#
# Total GULP energy -178412.643263 kJ/mol
# GULP energy per Si atom -5575.395102 kJ/mol
# Density = 2.366701 g / cm^3
# Si number density = 23.721000 Si / 1000 Ang^3
#
#
#
# Elastic Constant Matrix: (Units=GPa)
#
#
# Indices 1 2 3 4 5 6 
#
# 1 37.2957 25.2456 -3.3222 0.0000 4.0349 0.0000
# 2 25.2456 183.4163 21.4442 0.0000 -14.0735 0.0000
# 3 -3.3222 21.4442 16.3380 0.0000 -7.5496 0.0000
# 4 0.0000 0.0000 0.0000 7.4980 0.0000 5.6894
# 5 4.0349 -14.0735 -7.5496 0.0000 18.5066 0.0000
# 6 0.0000 0.0000 0.0000 5.6894 0.0000 17.6764
#
#
#
# Elastic Compliance Matrix: (Units=1/GPa)
#
#
# Indices 1 2 3 4 5 6 
#
# 1 0.033061 -0.006500 0.011878 0.000000 -0.007305 0.000000
# 2 -0.006500 0.007767 -0.010020 0.000000 0.003235 0.000000
# 3 0.011878 -0.010020 0.088795 0.000000 0.026013 0.000000
# 4 0.000000 0.000000 0.000000 0.176466 0.000000 -0.056798
# 5 -0.007305 0.003235 0.026013 0.000000 0.068700 0.000000
# 6 0.000000 0.000000 0.000000 -0.056798 0.000000 0.074853
#
#
# Mechanical properties :
#
#
# Convention : Reuss Voigt Hill
#
# Bulk Modulus (GPa) = 8.30991 35.97613 22.14302
# Shear Modulus (GPa) = 10.01927 21.64838 15.83382
#
# Velocity S-wave (km/s) = 2.05742 3.02425 2.58641
# Velocity P-wave (km/s) = 3.02568 5.23393 4.27486
#
# Compressibility (1/GPa) = 0.12033818
#
# Stress axis : x y z
#
# Youngs Moduli (GPa) = 30.24721 128.75786 11.26191
#
# Poissons Ratio (x) = 0.83690 -0.13377
# Poissons Ratio (y) = 0.19660 0.11285
# Poissons Ratio (z) = -0.35928 1.29021
#
# Static dielectric constant tensor:
#      x y z
#    x 2.001760 0.000000 0.037110 
#    y 0.000000 2.012030 0.000000 
#    z 0.037110 0.000000 1.902710 
# 
# From -- ./inp_files/240259.got.cif
#   From: 2010.05.17/outbox.cif.g08.bks.cpg/sg15_121_cif.got.tgz:240259.got - 2010.06.03 18:47:42.
