data_PCOD9255933
_publ_section_title
;
Structure prediction by ZEFSAII (Michael W. Deem and Ramdas Pophale) SiO2 
 PCOD9255933
Probable space group: C 2/C
;
_chemical_formula_sum "Si O2"
_cell_formula_units_Z 60
_cell_length_a 15.567904
_cell_length_b 19.085750
_cell_length_c 10.072526
_cell_angle_alpha 90.000000
_cell_angle_beta 96.837414
_cell_angle_gamma 90.000000
_cell_volume 2971.515674
_symmetry_space_group_name_H-M "C 2/C"
_symmetry_group_IT_number 15
_symmetry_cell_setting 'monoclinic'
loop_
_space_group_symop_operation_xyz
x,y,z
-x,y,1/2-z
-x,-y,-z
x,-y,1/2+z
1/2+x,1/2+y,z
1/2-x,1/2+y,1/2-z
1/2-x,1/2-y,-z
1/2+x,1/2-y,1/2+z
loop_
_atom_site_type_symbol
_atom_site_label
_atom_site_fract_x
_atom_site_fract_y
_atom_site_fract_z
Si Si1 0.500000 0.025303 0.750000
Si Si2 0.578259 0.177935 0.158188
Si Si3 0.903561 0.939525 0.191538
Si Si4 0.143998 0.778200 0.612302
Si Si5 0.556025 0.145777 0.576144
Si Si6 0.828880 0.206009 0.690109
Si Si7 0.349825 0.559118 0.382855
Si Si8 0.848883 0.575816 0.138793
O O1 0.550910 0.077275 0.663364
O O2 0.571222 0.978209 0.837975
O O3 0.500000 0.173959 0.250000
O O4 0.618882 0.253798 0.185890
O O5 0.645101 0.120402 0.224174
O O6 0.535486 0.157413 0.013084
O O7 0.835477 0.877013 0.210536
O O8 0.000000 0.915248 0.250000
O O9 0.882135 0.007357 0.275068
O O10 0.897058 0.952954 0.032657
O O11 0.079115 0.718564 0.650393
O O12 0.130590 0.782122 0.449434
O O13 0.236843 0.744147 0.662149
O O14 0.138647 0.858827 0.654447
O O15 0.628997 0.127947 0.478559
O O16 0.247319 0.547269 0.390532
#
# Coordination Sequence:
#
# PCOD9255933 Si02
#       8
#     4   8   8   8   8   8   8   8
#     4  12  26  36  58  94 140 168 188 244 326 396
#     4  10  17  33  57  90 115 150 202 255 298 346
#     4  11  25  43  66  92 126 162 215 266 325 366
#     4  10  19  37  62  88 122 154 214 254 305 356
#     4  11  22  38  59  91 124 169 205 250 309 376
#     4  10  18  35  64  94 109 155 213 271 290 355
#     4  11  25  42  67  94 124 171 209 268 312 374
#     4  11  21  38  63  90 128 158 209 250 306 369
#
# _framework density 20.191714999999999
#
# number of rings (size 3 to 8) (size 9 to 14) (size 15 to 20)
#    0.000    1.333    6.000    2.800    5.600    0.000 
#    1.200    0.000    0.000    1.600    0.000    0.000 
#    0.000    0.000    0.000    0.000    0.000    0.000 
#
# Total GULP energy -167378.387292 kJ/mol
# GULP energy per Si atom -5579.279576 kJ/mol
# Density = 2.014576 g / cm^3
# Si number density = 20.191715 Si / 1000 Ang^3
#
#
#
# Elastic Constant Matrix: (Units=GPa)
#
#
# Indices 1 2 3 4 5 6 
#
# 1 42.1956 14.3201 19.9650 0.0000 16.9364 0.0000
# 2 14.3201 154.3193 40.2835 0.0000 -2.6523 0.0000
# 3 19.9650 40.2835 35.8615 0.0000 13.6005 0.0000
# 4 0.0000 0.0000 0.0000 -46.0591 0.0000 86.1031
# 5 16.9364 -2.6523 13.6005 0.0000 20.1617 0.0000
# 6 0.0000 0.0000 0.0000 86.1031 0.0000 -62.5686
#
#
#
# Elastic Compliance Matrix: (Units=1/GPa)
#
#
# Indices 1 2 3 4 5 6 
#
# 1 0.039798 -0.001401 -0.010528 0.000000 -0.026514 0.000000
# 2 -0.001401 0.011459 -0.017618 0.000000 0.014568 0.000000
# 3 -0.010528 -0.017618 0.068615 0.000000 -0.039760 0.000000
# 4 0.000000 0.000000 0.000000 0.013806 0.000000 0.018999
# 5 -0.026514 0.014568 -0.039760 0.000000 0.100609 0.000000
# 6 0.000000 0.000000 0.000000 0.018999 0.000000 0.010163
#
#
# Mechanical properties :
#
#
# Convention : Reuss Voigt Hill
#
# Bulk Modulus (GPa) = 16.45270 42.39040 29.42155
# Shear Modulus (GPa) = 15.44147 -7.17269 4.13439
#
# Velocity S-wave (km/s) = 2.76840 -1.88680 1.43249
# Velocity P-wave (km/s) = 4.28773 4.03644 4.16398
#
# Compressibility (1/GPa) = 0.06078030
#
# Stress axis : x y z
#
# Youngs Moduli (GPa) = 25.12701 87.26467 14.57398
#
# Poissons Ratio (x) = 0.12222 0.15343
# Poissons Ratio (y) = 0.03519 0.25676
# Poissons Ratio (z) = 0.26453 1.53741
#
# Static dielectric constant tensor:
#      x y z
#    x 1.759320 0.000000 0.014350 
#    y 0.000000 1.752950 0.000000 
#    z 0.014350 0.000000 1.725530 
# 
# From -- ./inp_files/98348.got.cif
#   From: 2010.05.17/outbox.cif.g08.bks.cpg/sg15_50_cif.got.tgz:98348.got - 2010.06.03 18:47:42.
