data_PCOD9255904
_publ_section_title
;
Structure prediction by ZEFSAII (Michael W. Deem and Ramdas Pophale) SiO2 
 PCOD9255904
Probable space group: C 2/C
;
_chemical_formula_sum "Si O2"
_cell_formula_units_Z 56
_cell_length_a 16.232505
_cell_length_b 10.285794
_cell_length_c 17.317581
_cell_angle_alpha 90.000000
_cell_angle_beta 113.655320
_cell_angle_gamma 90.000000
_cell_volume 2648.467058
_symmetry_space_group_name_H-M "C 2/C"
_symmetry_group_IT_number 15
_symmetry_cell_setting 'monoclinic'
loop_
_space_group_symop_operation_xyz
x,y,z
-x,y,1/2-z
-x,-y,-z
x,-y,1/2+z
1/2+x,1/2+y,z
1/2-x,1/2+y,1/2-z
1/2-x,1/2-y,-z
1/2+x,1/2-y,1/2+z
loop_
_atom_site_type_symbol
_atom_site_label
_atom_site_fract_x
_atom_site_fract_y
_atom_site_fract_z
Si Si1 0.795411 0.223318 0.703325
Si Si2 0.695073 0.997455 0.372280
Si Si3 0.867533 0.333163 0.884717
Si Si4 0.835508 0.838373 0.506760
Si Si5 0.509921 0.001241 0.845258
Si Si6 0.832743 0.052974 0.165327
Si Si7 0.620085 0.213164 0.719918
O O1 0.803898 0.363829 0.668060
O O2 0.838981 0.236927 0.804442
O O3 0.689409 0.200510 0.676041
O O4 0.838921 0.100889 0.677560
O O5 0.614590 0.005259 0.404134
O O6 0.789425 0.955960 0.442421
O O7 0.662991 0.882976 0.301874
O O8 0.891892 0.249487 0.969222
O O9 0.945590 0.421467 0.877740
O O10 0.774298 0.410424 0.867805
O O11 0.750000 0.750000 0.500000
O O12 0.872096 0.896055 0.599551
O O13 0.500000 0.957517 0.750000
O O14 0.474923 0.148927 0.832703
O O15 0.878096 0.140772 0.248573
#
# Coordination Sequence:
#
# PCOD9255904 Si02
#       7
#     8   8   8   8   8   8   8
#     4  11  18  31  57  88 108 138 196 240 279 314
#     4  11  20  33  60  84 113 144 188 239 280 333
#     4  10  18  33  56  82 110 151 183 238 278 340
#     4  10  20  36  56  81 117 154 191 224 286 343
#     4  10  19  33  57  87 114 137 190 242 283 324
#     4  10  20  33  58  83 112 148 195 230 277 340
#     4  10  17  33  56  81 113 143 186 234 275 334
#
# _framework density 21.144306
#
# number of rings (size 3 to 8) (size 9 to 14) (size 15 to 20)
#    0.000    1.714    8.571    0.857    0.000    0.571 
#    0.000    2.857    9.429    0.857    0.000    0.000 
#    0.000    0.000    0.000    0.000    0.000    0.000 
#
# Total GULP energy -156236.294538 kJ/mol
# GULP energy per Si atom -5579.867662 kJ/mol
# Density = 2.109618 g / cm^3
# Si number density = 21.144306 Si / 1000 Ang^3
#
#
#
# Elastic Constant Matrix: (Units=GPa)
#
#
# Indices 1 2 3 4 5 6 
#
# 1 80.4595 13.5170 7.7073 0.0000 -15.0532 0.0000
# 2 13.5170 102.6678 30.1107 0.0000 -19.2562 0.0000
# 3 7.7073 30.1107 44.5495 0.0000 -13.8526 0.0000
# 4 0.0000 0.0000 0.0000 10.0152 0.0000 -4.5377
# 5 -15.0532 -19.2562 -13.8526 0.0000 14.3589 0.0000
# 6 0.0000 0.0000 0.0000 -4.5377 0.0000 27.4961
#
#
#
# Elastic Compliance Matrix: (Units=1/GPa)
#
#
# Indices 1 2 3 4 5 6 
#
# 1 0.015885 0.000908 0.003136 0.000000 0.020897 0.000000
# 2 0.000908 0.013830 -0.004916 0.000000 0.014756 0.000000
# 3 0.003136 -0.004916 0.034570 0.000000 0.030045 0.000000
# 4 0.000000 0.000000 0.000000 0.107917 0.000000 0.017810
# 5 0.020897 0.014756 0.030045 0.000000 0.140326 0.000000
# 6 0.000000 0.000000 0.000000 0.017810 0.000000 0.039308
#
#
# Mechanical properties :
#
#
# Convention : Reuss Voigt Hill
#
# Bulk Modulus (GPa) = 15.98965 36.70521 26.34743
# Shear Modulus (GPa) = 13.35371 22.13016 17.74193
#
# Velocity S-wave (km/s) = 2.51579 3.23867 2.89984
# Velocity P-wave (km/s) = 4.00219 5.60200 4.86826
#
# Compressibility (1/GPa) = 0.06254047
#
# Stress axis : x y z
#
# Youngs Moduli (GPa) = 62.95165 72.30597 28.92680
#
# Poissons Ratio (x) = -0.06567 -0.09070
# Poissons Ratio (y) = -0.05718 0.14222
# Poissons Ratio (z) = -0.19740 0.35548
#
# Static dielectric constant tensor:
#      x y z
#    x 1.812690 0.000000 0.009990 
#    y 0.000000 1.768340 0.000000 
#    z 0.009990 0.000000 1.860140 
# 
# From -- ./inp_files/209647.got.cif
#   From: 2010.05.17/outbox.cif.g08.bks.cpg/sg15_105_cif.got.tgz:209647.got - 2010.06.03 18:47:42.
