data_PCOD9255384
_publ_section_title
;
Structure prediction by ZEFSAII (Michael W. Deem and Ramdas Pophale) SiO2 
 PCOD9255384
Probable space group: C 2/C
;
_chemical_formula_sum "Si O2"
_cell_formula_units_Z 56
_cell_length_a 6.072845
_cell_length_b 17.677896
_cell_length_c 25.172154
_cell_angle_alpha 90.000000
_cell_angle_beta 60.074692
_cell_angle_gamma 90.000000
_cell_volume 2342.071564
_symmetry_space_group_name_H-M "C 2/C"
_symmetry_group_IT_number 15
_symmetry_cell_setting 'monoclinic'
loop_
_space_group_symop_operation_xyz
x,y,z
-x,y,1/2-z
-x,-y,-z
x,-y,1/2+z
1/2+x,1/2+y,z
1/2-x,1/2+y,1/2-z
1/2-x,1/2-y,-z
1/2+x,1/2-y,1/2+z
loop_
_atom_site_type_symbol
_atom_site_label
_atom_site_fract_x
_atom_site_fract_y
_atom_site_fract_z
Si Si1 0.136947 0.844188 0.574762
Si Si2 0.309903 0.712832 0.720914
Si Si3 0.462077 0.031164 0.095663
Si Si4 0.003583 0.043767 0.811468
Si Si5 0.380747 0.375068 0.504506
Si Si6 0.501065 0.258914 0.415047
Si Si7 0.833667 0.590047 0.319987
O O1 0.295004 0.910922 0.582444
O O2 0.271117 0.766450 0.573287
O O3 0.114664 0.867712 0.516336
O O4 0.868481 0.848504 0.636653
O O5 0.500000 0.727177 0.750000
O O6 0.357691 0.623753 0.705874
O O7 0.423387 0.751119 0.654662
O O8 0.000000 0.726906 0.750000
O O9 0.733611 0.046133 0.033442
O O10 0.505613 0.065631 0.148654
O O11 0.282652 0.959029 0.129001
O O12 0.000000 0.019193 0.750000
O O13 0.173466 0.983694 0.822242
O O14 0.435573 0.345562 0.438814
O O15 0.212485 0.303260 0.545820
O O16 0.000000 0.612339 0.250000
#
# Coordination Sequence:
#
# PCOD9255384 Si02
#       7
#     8   8   8   8   8   8   8
#     4   9  19  33  53  88 118 154 204 255 314 378
#     4  11  27  46  63  94 128 173 218 255 312 384
#     4   9  18  33  54  92 116 145 204 259 317 371
#     4  10  19  34  61  82 119 164 202 256 316 383
#     4   9  19  38  64  88 116 160 212 258 324 373
#     4  10  21  41  61  84 121 170 209 260 308 384
#     4  10  17  30  53  84 118 152 197 262 317 377
#
# _framework density 23.910457999999998
#
# number of rings (size 3 to 8) (size 9 to 14) (size 15 to 20)
#    0.000    2.286    1.429    0.857    4.000    0.000 
#    7.714    0.714    0.000    7.714    0.000    0.000 
#    0.000    0.000    0.000    0.000    0.000    0.000 
#
# Total GULP energy -156008.768631 kJ/mol
# GULP energy per Si atom -5571.741737 kJ/mol
# Density = 2.385604 g / cm^3
# Si number density = 23.910458 Si / 1000 Ang^3
#
#
#
# Elastic Constant Matrix: (Units=GPa)
#
#
# Indices 1 2 3 4 5 6 
#
# 1 131.1173 24.1824 41.2971 0.0000 18.0986 0.0000
# 2 24.1824 48.6568 7.2262 0.0000 0.3331 0.0000
# 3 41.2971 7.2262 65.1852 0.0000 6.3322 0.0000
# 4 0.0000 0.0000 0.0000 -26.0318 0.0000 2.7193
# 5 18.0986 0.3331 6.3322 0.0000 20.6489 0.0000
# 6 0.0000 0.0000 0.0000 2.7193 0.0000 21.9758
#
#
#
# Elastic Compliance Matrix: (Units=1/GPa)
#
#
# Indices 1 2 3 4 5 6 
#
# 1 0.011520 -0.004782 -0.005973 0.000000 -0.008189 0.000000
# 2 -0.004782 0.022884 0.000125 0.000000 0.003784 0.000000
# 3 -0.005973 0.000125 0.019174 0.000000 -0.000647 0.000000
# 4 0.000000 0.000000 0.000000 -0.037924 0.000000 0.004693
# 5 -0.008189 0.003784 -0.000647 0.000000 0.055743 0.000000
# 6 0.000000 0.000000 0.000000 0.004693 0.000000 0.044924
#
#
# Mechanical properties :
#
#
# Convention : Reuss Voigt Hill
#
# Bulk Modulus (GPa) = 30.94184 43.37449 37.15816
# Shear Modulus (GPa) = 33.70299 14.80214 24.25257
#
# Velocity S-wave (km/s) = 3.75847 2.49080 3.18828
# Velocity P-wave (km/s) = 5.63947 5.14314 5.39701
#
# Compressibility (1/GPa) = 0.03231870
#
# Stress axis : x y z
#
# Youngs Moduli (GPa) = 86.80265 43.69772 52.15426
#
# Poissons Ratio (x) = 0.20898 0.31151
# Poissons Ratio (y) = 0.41513 -0.00654
# Poissons Ratio (z) = 0.51847 -0.00548
#
# Static dielectric constant tensor:
#      x y z
#    x 2.027770 0.000000 -0.078310 
#    y 0.000000 1.896340 0.000000 
#    z -0.078310 0.000000 2.037170 
# 
# From -- ./inp_files/286328.got.cif
#   From: 2010.05.17/outbox.cif.g08.bks.cpg/sg15_144_cif.got.tgz:286328.got - 2010.06.03 18:47:42.
