data_PCOD9255204
_publ_section_title
;
Structure prediction by ZEFSAII (Michael W. Deem and Ramdas Pophale) SiO2 
 PCOD9255204
Probable space group: C 2/C
;
_chemical_formula_sum "Si O2"
_cell_formula_units_Z 56
_cell_length_a 5.506097
_cell_length_b 21.276208
_cell_length_c 22.160724
_cell_angle_alpha 90.000000
_cell_angle_beta 106.862772
_cell_angle_gamma 90.000000
_cell_volume 2484.477091
_symmetry_space_group_name_H-M "C 2/C"
_symmetry_group_IT_number 15
_symmetry_cell_setting 'monoclinic'
loop_
_space_group_symop_operation_xyz
x,y,z
-x,y,1/2-z
-x,-y,-z
x,-y,1/2+z
1/2+x,1/2+y,z
1/2-x,1/2+y,1/2-z
1/2-x,1/2-y,-z
1/2+x,1/2-y,1/2+z
loop_
_atom_site_type_symbol
_atom_site_label
_atom_site_fract_x
_atom_site_fract_y
_atom_site_fract_z
Si Si1 0.500000 0.373647 0.250000
Si Si2 0.191362 0.192064 0.452464
Si Si3 0.385711 0.678504 0.179978
Si Si4 0.114437 0.397894 0.821184
Si Si5 0.500000 0.882405 0.250000
Si Si6 0.157701 0.917037 0.392208
Si Si7 0.245646 0.674526 0.500666
Si Si8 0.641199 0.030975 0.877317
O O1 0.241724 0.340892 0.249933
O O2 0.574283 0.411733 0.315846
O O3 0.250000 0.250000 0.500000
O O4 0.455696 0.154342 0.467514
O O5 0.133195 0.218958 0.381889
O O6 0.953057 0.156296 0.465046
O O7 0.500000 0.704257 0.250000
O O8 0.603592 0.627874 0.174473
O O9 0.102870 0.651598 0.173266
O O10 0.119544 0.457477 0.864360
O O11 0.000000 0.422539 0.750000
O O12 0.429827 0.927575 0.188311
O O13 0.177170 0.851014 0.428277
O O14 0.434123 0.947777 0.410947
O O15 0.934026 0.953355 0.409910
O O16 0.250000 0.750000 0.500000
#
# Coordination Sequence:
#
# PCOD9255204 Si02
#       8
#     4   8   8   8   4   8   8   8
#     4   8  16  26  44  72 108 137 178 233 280 312
#     4  10  21  40  66  84 111 154 200 243 305 370
#     4  10  21  36  60  92 119 149 197 254 295 339
#     4  10  19  32  54  88 127 160 194 239 300 350
#     4   8  14  24  40  68 102 149 178 219 268 334
#     4  10  19  31  53  81 114 156 194 245 281 350
#     4  10  21  38  62  82 108 151 210 239 300 368
#     4  10  17  29  49  79 120 154 196 229 290 344
#
# _framework density 22.539954999999999
#
# number of rings (size 3 to 8) (size 9 to 14) (size 15 to 20)
#    0.000    2.286    0.714    2.571    0.000    0.000 
#    0.000    0.000   12.571   17.143    0.000    0.000 
#    0.000    0.000    0.000    0.000    0.000    0.000 
#
# Total GULP energy -155910.934607 kJ/mol
# GULP energy per Si atom -5568.247665 kJ/mol
# Density = 2.248865 g / cm^3
# Si number density = 22.539955 Si / 1000 Ang^3
#
#
#
# Elastic Constant Matrix: (Units=GPa)
#
#
# Indices 1 2 3 4 5 6 
#
# 1 232.7321 3.6314 1.8809 0.0000 -10.3892 0.0000
# 2 3.6314 35.2313 8.2524 0.0000 -7.1369 0.0000
# 3 1.8809 8.2524 89.6672 0.0000 -11.0915 0.0000
# 4 0.0000 0.0000 0.0000 51.2755 0.0000 -12.6926
# 5 -10.3892 -7.1369 -11.0915 0.0000 11.9882 0.0000
# 6 0.0000 0.0000 0.0000 -12.6926 0.0000 9.8654
#
#
#
# Elastic Compliance Matrix: (Units=1/GPa)
#
#
# Indices 1 2 3 4 5 6 
#
# 1 0.004489 0.000347 0.000430 0.000000 0.004494 0.000000
# 2 0.000347 0.032339 -0.000638 0.000000 0.018963 0.000000
# 3 0.000430 -0.000638 0.012649 0.000000 0.011695 0.000000
# 4 0.000000 0.000000 0.000000 0.028616 0.000000 0.036817
# 5 0.004494 0.018963 0.011695 0.000000 0.109420 0.000000
# 6 0.000000 0.000000 0.000000 0.036817 0.000000 0.148732
#
#
# Mechanical properties :
#
#
# Convention : Reuss Voigt Hill
#
# Bulk Modulus (GPa) = 20.09893 42.79557 31.44725
# Shear Modulus (GPa) = 14.18238 37.55022 25.86630
#
# Velocity S-wave (km/s) = 2.51113 4.08602 3.39126
# Velocity P-wave (km/s) = 4.16462 6.42561 5.41445
#
# Compressibility (1/GPa) = 0.04975390
#
# Stress axis : x y z
#
# Youngs Moduli (GPa) = 222.79092 30.92261 79.05943
#
# Poissons Ratio (x) = -0.01073 -0.03398
# Poissons Ratio (y) = -0.07732 0.05043
# Poissons Ratio (z) = -0.09576 0.01973
#
# Static dielectric constant tensor:
#      x y z
#    x 1.933050 0.000000 0.007700 
#    y 0.000000 1.731720 0.000000 
#    z 0.007700 0.000000 1.839320 
# 
# From -- ./inp_files/228181.got.cif
#   From: 2010.05.17/outbox.cif.g08.bks.cpg/sg15_115_cif.got.tgz:228181.got - 2010.06.03 18:47:42.
