data_PCOD9255155
_publ_section_title
;
Structure prediction by ZEFSAII (Michael W. Deem and Ramdas Pophale) SiO2 
 PCOD9255155
Probable space group: C 2/C
;
_chemical_formula_sum "Si O2"
_cell_formula_units_Z 56
_cell_length_a 25.563710
_cell_length_b 17.199448
_cell_length_c 6.805928
_cell_angle_alpha 90.000000
_cell_angle_beta 108.164024
_cell_angle_gamma 90.000000
_cell_volume 2843.322567
_symmetry_space_group_name_H-M "C 2/C"
_symmetry_group_IT_number 15
_symmetry_cell_setting 'monoclinic'
loop_
_space_group_symop_operation_xyz
x,y,z
-x,y,1/2-z
-x,-y,-z
x,-y,1/2+z
1/2+x,1/2+y,z
1/2-x,1/2+y,1/2-z
1/2-x,1/2-y,-z
1/2+x,1/2-y,1/2+z
loop_
_atom_site_type_symbol
_atom_site_label
_atom_site_fract_x
_atom_site_fract_y
_atom_site_fract_z
Si Si1 0.451062 0.686666 0.389151
Si Si2 0.820374 0.178965 0.607617
Si Si3 0.675404 0.490313 0.542764
Si Si4 0.837750 0.742520 0.736782
Si Si5 0.912378 0.011045 0.305375
Si Si6 0.740932 0.646305 0.601044
Si Si7 0.941102 0.843881 0.342558
O O1 0.402012 0.743619 0.263272
O O2 0.434094 0.599018 0.310538
O O3 0.517434 0.697405 0.458420
O O4 0.446237 0.684065 0.624178
O O5 0.833627 0.244580 0.466384
O O6 0.773125 0.189400 0.709529
O O7 0.875831 0.163417 0.802016
O O8 0.808889 0.099673 0.474312
O O9 0.659388 0.509019 0.274301
O O10 0.603724 0.493491 0.460998
O O11 0.722244 0.557581 0.605099
O O12 0.804656 0.665368 0.633654
O O13 0.800235 0.810489 0.596728
O O14 0.952680 0.935997 0.363689
#
# Coordination Sequence:
#
# PCOD9255155 Si02
#       7
#     8   8   8   8   8   8   8
#     4  10  17  29  40  60  92 120 158 191 227 270
#     4  10  19  34  48  66  93 123 158 197 236 274
#     4  11  17  28  46  62  88 118 160 193 229 269
#     4  10  21  33  46  66  90 124 167 193 234 279
#     4  11  16  28  40  60  88 116 154 191 222 260
#     4  11  20  32  49  65  89 128 161 197 234 276
#     4   9  18  26  42  62  86 124 152 193 227 266
#
# _framework density 19.695269
#
# number of rings (size 3 to 8) (size 9 to 14) (size 15 to 20)
#    0.000    1.714    8.571    0.857    0.000    0.000 
#    0.000    2.143    0.000    0.000    0.000    0.000 
#    0.000    0.000    0.000   32.143    1.143    3.429 
#
# Total GULP energy -155931.936509 kJ/mol
# GULP energy per Si atom -5568.997732 kJ/mol
# Density = 1.965044 g / cm^3
# Si number density = 19.695269 Si / 1000 Ang^3
#
#
#
# Elastic Constant Matrix: (Units=GPa)
#
#
# Indices 1 2 3 4 5 6 
#
# 1 91.9935 31.8747 23.8877 0.0000 26.6733 0.0000
# 2 31.8747 34.4083 14.7642 0.0000 21.8930 0.0000
# 3 23.8877 14.7642 84.5029 0.0000 -4.8071 0.0000
# 4 0.0000 0.0000 0.0000 15.4501 0.0000 5.7938
# 5 26.6733 21.8930 -4.8071 0.0000 42.4599 0.0000
# 6 0.0000 0.0000 0.0000 5.7938 0.0000 25.8938
#
#
#
# Elastic Compliance Matrix: (Units=1/GPa)
#
#
# Indices 1 2 3 4 5 6 
#
# 1 0.017091 -0.010995 -0.003219 0.000000 -0.005432 0.000000
# 2 -0.010995 0.058149 -0.008419 0.000000 -0.024029 0.000000
# 3 -0.003219 -0.008419 0.014671 0.000000 0.008024 0.000000
# 4 0.000000 0.000000 0.000000 0.070653 0.000000 -0.015809
# 5 -0.005432 -0.024029 0.008024 0.000000 0.040262 0.000000
# 6 0.000000 0.000000 0.000000 -0.015809 0.000000 0.042157
#
#
# Mechanical properties :
#
#
# Convention : Reuss Voigt Hill
#
# Bulk Modulus (GPa) = 22.39859 39.10644 30.75252
# Shear Modulus (GPa) = 16.49460 26.11929 21.30695
#
# Velocity S-wave (km/s) = 2.89708 3.64561 3.29269
# Velocity P-wave (km/s) = 4.75269 6.13348 5.48669
#
# Compressibility (1/GPa) = 0.04464566
#
# Stress axis : x y z
#
# Youngs Moduli (GPa) = 58.51100 17.19720 68.16021
#
# Poissons Ratio (x) = 0.18908 0.21943
# Poissons Ratio (y) = 0.64332 0.57381
# Poissons Ratio (z) = 0.18836 0.14478
#
# Static dielectric constant tensor:
#      x y z
#    x 1.838440 0.000000 -0.073720 
#    y 0.000000 1.619730 0.000000 
#    z -0.073720 0.000000 1.895090 
# 
# From -- ./inp_files/66749.got.cif
#   From: 2010.05.17/outbox.cif.g08.bks.cpg/sg15_34_cif.got.tgz:66749.got - 2010.06.03 18:47:42.
