data_PCOD9255178
_publ_section_title
;
Structure prediction by ZEFSAII (Michael W. Deem and Ramdas Pophale) SiO2 
 PCOD9255178
Probable space group: C 2/C
;
_chemical_formula_sum "Si O2"
_cell_formula_units_Z 60
_cell_length_a 20.600037
_cell_length_b 24.328907
_cell_length_c 8.829657
_cell_angle_alpha 90.000000
_cell_angle_beta 122.719879
_cell_angle_gamma 90.000000
_cell_volume 3723.036935
_symmetry_space_group_name_H-M "C 2/C"
_symmetry_group_IT_number 15
_symmetry_cell_setting 'monoclinic'
loop_
_space_group_symop_operation_xyz
x,y,z
-x,y,1/2-z
-x,-y,-z
x,-y,1/2+z
1/2+x,1/2+y,z
1/2-x,1/2+y,1/2-z
1/2-x,1/2-y,-z
1/2+x,1/2-y,1/2+z
loop_
_atom_site_type_symbol
_atom_site_label
_atom_site_fract_x
_atom_site_fract_y
_atom_site_fract_z
Si Si1 0.053092 0.078028 0.066418
Si Si2 0.388346 0.210375 0.995658
Si Si3 0.447632 0.783792 0.911883
Si Si4 0.695196 0.809073 0.598986
Si Si5 0.000000 0.005635 0.250000
Si Si6 0.660700 0.336348 0.552978
Si Si7 0.095502 0.844290 0.133577
Si Si8 0.241113 0.179803 0.644078
O O1 0.120356 0.120130 0.111936
O O2 0.044790 0.033409 0.922696
O O3 0.056669 0.044383 0.225642
O O4 0.973564 0.112887 0.968415
O O5 0.370002 0.275086 0.950149
O O6 0.312503 0.177574 0.850852
O O7 0.463545 0.198985 0.988460
O O8 0.410801 0.204307 0.199725
O O9 0.394251 0.812252 0.970065
O O10 0.439660 0.717566 0.922999
O O11 0.748605 0.833321 0.799604
O O12 0.724709 0.833065 0.477585
O O13 0.713974 0.743799 0.612316
O O14 0.634051 0.348307 0.348567
O O15 0.164715 0.851579 0.101266
#
# Coordination Sequence:
#
# PCOD9255178 Si02
#       8
#     8   8   8   8   4   8   8   8
#     4  11  20  36  48  68  88 120 152 194 234 279
#     4   9  16  27  43  63  86 119 155 185 215 256
#     4   9  16  27  43  63  86 119 155 185 215 256
#     4   9  18  28  38  61  89 113 148 189 221 253
#     4  10  24  34  48  66  92 110 150 202 248 262
#     4  10  17  29  47  62  83 118 157 184 217 273
#     4  10  17  29  47  62  83 118 157 184 217 273
#     4   9  18  28  38  61  89 113 148 189 221 253
#
# _framework density 16.115876
#
# number of rings (size 3 to 8) (size 9 to 14) (size 15 to 20)
#    0.000    2.400    2.667    0.800    1.867    3.733 
#    0.000    0.000    0.000    0.000    0.000    0.000 
#    0.000    0.000    0.000    7.200    0.000    0.533 
#
# Total GULP energy -167193.718630 kJ/mol
# GULP energy per Si atom -5573.123954 kJ/mol
# Density = 1.607920 g / cm^3
# Si number density = 16.115876 Si / 1000 Ang^3
#
#
#
# Elastic Constant Matrix: (Units=GPa)
#
#
# Indices 1 2 3 4 5 6 
#
# 1 105.0687 18.4216 11.9066 0.0000 -3.5783 0.0000
# 2 18.4216 30.7740 8.5402 0.0000 -3.3322 0.0000
# 3 11.9066 8.5402 17.7178 0.0000 0.6356 0.0000
# 4 0.0000 0.0000 0.0000 10.0483 0.0000 -7.5755
# 5 -3.5783 -3.3322 0.6356 0.0000 17.9735 0.0000
# 6 0.0000 0.0000 0.0000 -7.5755 0.0000 17.8288
#
#
#
# Elastic Compliance Matrix: (Units=1/GPa)
#
#
# Indices 1 2 3 4 5 6 
#
# 1 0.011021 -0.005047 -0.005025 0.000000 0.001436 0.000000
# 2 -0.005047 0.040892 -0.016575 0.000000 0.007162 0.000000
# 3 -0.005025 -0.016575 0.068039 0.000000 -0.006479 0.000000
# 4 0.000000 0.000000 0.000000 0.146424 0.000000 0.062216
# 5 0.001436 0.007162 -0.006479 0.000000 0.057480 0.000000
# 6 0.000000 0.000000 0.000000 0.062216 0.000000 0.082525
#
#
# Mechanical properties :
#
#
# Convention : Reuss Voigt Hill
#
# Bulk Modulus (GPa) = 15.00225 25.69969 20.35097
# Shear Modulus (GPa) = 10.37571 16.81626 13.59599
#
# Velocity S-wave (km/s) = 2.54011 3.23377 2.90770
# Velocity P-wave (km/s) = 4.23463 5.47032 4.89165
#
# Compressibility (1/GPa) = 0.06665667
#
# Stress axis : x y z
#
# Youngs Moduli (GPa) = 90.73726 24.45484 14.69743
#
# Poissons Ratio (x) = 0.12343 0.07385
# Poissons Ratio (y) = 0.45797 0.24362
# Poissons Ratio (z) = 0.45594 0.40535
#
# Static dielectric constant tensor:
#      x y z
#    x 1.564260 0.000000 -0.025450 
#    y 0.000000 1.508570 0.000000 
#    z -0.025450 0.000000 1.569400 
# 
# From -- ./inp_files/50185.got.cif
#   From: 2010.05.17/outbox.cif.g08.bks.cpg/sg15_26_cif.got.tgz:50185.got - 2010.06.03 18:47:42.
