data_PCOD9255811
_publ_section_title
;
Structure prediction by ZEFSAII (Michael W. Deem and Ramdas Pophale) SiO2 
 PCOD9255811
Probable space group: C 2/C
;
_chemical_formula_sum "Si O2"
_cell_formula_units_Z 64
_cell_length_a 17.633106
_cell_length_b 14.662144
_cell_length_c 14.605423
_cell_angle_alpha 90.000000
_cell_angle_beta 129.258869
_cell_angle_gamma 90.000000
_cell_volume 2923.793678
_symmetry_space_group_name_H-M "C 2/C"
_symmetry_group_IT_number 15
_symmetry_cell_setting 'monoclinic'
loop_
_space_group_symop_operation_xyz
x,y,z
-x,y,1/2-z
-x,-y,-z
x,-y,1/2+z
1/2+x,1/2+y,z
1/2-x,1/2+y,1/2-z
1/2-x,1/2-y,-z
1/2+x,1/2-y,1/2+z
loop_
_atom_site_type_symbol
_atom_site_label
_atom_site_fract_x
_atom_site_fract_y
_atom_site_fract_z
Si Si1 0.976764 0.397390 0.830033
Si Si2 0.888583 0.764619 0.456242
Si Si3 0.143711 0.448670 0.608701
Si Si4 0.759889 0.621346 0.154282
Si Si5 0.178788 0.332095 0.282447
Si Si6 0.716582 0.970562 0.473118
Si Si7 0.890052 0.839275 0.658113
Si Si8 0.407697 0.229716 0.959586
O O1 0.127360 0.344087 0.763548
O O2 0.251062 0.442656 0.942013
O O3 0.943157 0.466018 0.884285
O O4 0.057609 0.327235 0.926322
O O5 0.872514 0.657452 0.430450
O O6 0.794437 0.820326 0.349597
O O7 0.889072 0.782361 0.563922
O O8 0.994694 0.784609 0.496135
O O9 0.237007 0.441811 0.750391
O O10 0.156323 0.494310 0.519412
O O11 0.681579 0.701033 0.097418
O O12 0.000000 0.559757 0.250000
O O13 0.168492 0.404286 0.357923
O O14 0.140793 0.233705 0.289186
O O15 0.121993 0.341844 0.143613
O O16 0.808641 0.915646 0.583961
O O17 0.000000 0.875405 0.750000
#
# Coordination Sequence:
#
# PCOD9255811 Si02
#       8
#     8   8   8   8   8   8   8   8
#     4   9  22  43  64  91 125 167 229 273 313 393
#     4  10  17  32  60  96 120 165 213 270 314 376
#     4   9  18  39  64  84 127 168 204 270 326 386
#     4  10  23  41  64  93 136 174 206 285 337 388
#     4  11  19  35  62 100 129 166 225 275 326 394
#     4  11  21  39  61  94 138 170 214 274 347 389
#     4  11  19  30  63  94 132 166 216 275 329 388
#     4  11  19  37  68  89 124 175 226 259 325 394
#
# _framework density 21.889371000000001
#
# number of rings (size 3 to 8) (size 9 to 14) (size 15 to 20)
#    0.750    1.000    5.000    0.750    0.000    0.500 
#    2.250    7.500    5.500    0.000    0.000    0.000 
#    0.000    0.000    0.000    0.000    0.000    0.000 
#
# Total GULP energy -178471.552680 kJ/mol
# GULP energy per Si atom -5577.236021 kJ/mol
# Density = 2.183955 g / cm^3
# Si number density = 21.889371 Si / 1000 Ang^3
#
#
#
# Elastic Constant Matrix: (Units=GPa)
#
#
# Indices 1 2 3 4 5 6 
#
# 1 130.1750 50.4166 65.9417 0.0000 -10.2846 0.0000
# 2 50.4166 58.0533 33.3239 0.0000 -5.6719 0.0000
# 3 65.9417 33.3239 118.8403 0.0000 -13.0075 0.0000
# 4 0.0000 0.0000 0.0000 25.6001 0.0000 -1.6933
# 5 -10.2846 -5.6719 -13.0075 0.0000 49.2320 0.0000
# 6 0.0000 0.0000 0.0000 -1.6933 0.0000 25.3190
#
#
#
# Elastic Compliance Matrix: (Units=1/GPa)
#
#
# Indices 1 2 3 4 5 6 
#
# 1 0.013775 -0.009008 -0.005062 0.000000 0.000502 0.000000
# 2 -0.009008 0.026457 -0.002361 0.000000 0.000542 0.000000
# 3 -0.005062 -0.002361 0.012090 0.000000 0.001865 0.000000
# 4 0.000000 0.000000 0.000000 0.039236 0.000000 0.002624
# 5 0.000502 0.000542 0.001865 0.000000 0.020972 0.000000
# 6 0.000000 0.000000 0.000000 0.002624 0.000000 0.039672
#
#
# Mechanical properties :
#
#
# Convention : Reuss Voigt Hill
#
# Bulk Modulus (GPa) = 51.39098 67.38144 59.38621
# Shear Modulus (GPa) = 26.10286 30.52264 28.31275
#
# Velocity S-wave (km/s) = 3.45699 3.73822 3.60035
# Velocity P-wave (km/s) = 6.28195 7.03434 6.66877
#
# Compressibility (1/GPa) = 0.01945867
#
# Stress axis : x y z
#
# Youngs Moduli (GPa) = 72.59639 37.79761 82.71374
#
# Poissons Ratio (x) = 0.34047 0.41874
# Poissons Ratio (y) = 0.65393 0.19530
# Poissons Ratio (z) = 0.36752 0.08925
#
# Static dielectric constant tensor:
#      x y z
#    x 1.882640 0.000000 0.006090 
#    y 0.000000 1.774030 0.000000 
#    z 0.006090 0.000000 1.878120 
# 
# From -- ./inp_files/155206.got.cif
#   From: 2010.05.17/outbox.cif.g08.bks.cpg/sg15_78_cif.got.tgz:155206.got - 2010.06.03 18:47:42.
