data_PCOD9255426
_publ_section_title
;
Structure prediction by ZEFSAII (Michael W. Deem and Ramdas Pophale) SiO2 
 PCOD9255426
Probable space group: C 2/C
;
_chemical_formula_sum "Si O2"
_cell_formula_units_Z 48
_cell_length_a 7.397614
_cell_length_b 15.772997
_cell_length_c 18.999487
_cell_angle_alpha 90.000000
_cell_angle_beta 124.583911
_cell_angle_gamma 90.000000
_cell_volume 1825.171408
_symmetry_space_group_name_H-M "C 2/C"
_symmetry_group_IT_number 15
_symmetry_cell_setting 'monoclinic'
loop_
_space_group_symop_operation_xyz
x,y,z
-x,y,1/2-z
-x,-y,-z
x,-y,1/2+z
1/2+x,1/2+y,z
1/2-x,1/2+y,1/2-z
1/2-x,1/2-y,-z
1/2+x,1/2-y,1/2+z
loop_
_atom_site_type_symbol
_atom_site_label
_atom_site_fract_x
_atom_site_fract_y
_atom_site_fract_z
Si Si1 0.554758 0.417036 0.100509
Si Si2 0.069678 0.411414 0.048777
Si Si3 0.249236 0.535344 0.726347
Si Si4 0.919221 0.886287 0.929391
Si Si5 0.445259 0.191463 0.072336
Si Si6 0.208442 0.836410 0.746464
O O1 0.324686 0.392675 0.086187
O O2 0.742152 0.412980 0.199641
O O3 0.529112 0.518720 0.083048
O O4 0.583429 0.370915 0.031702
O O5 0.080291 0.424732 0.134018
O O6 0.936850 0.343306 0.972256
O O7 0.000000 0.500000 0.000000
O O8 0.500000 0.537061 0.750000
O O9 0.212605 0.435312 0.732726
O O10 0.689652 0.884915 0.920572
O O11 0.871371 0.825996 0.852043
O O12 0.605470 0.217977 0.171406
O O13 0.250000 0.250000 0.000000
O O14 0.000000 0.829919 0.750000
#
# Coordination Sequence:
#
# PCOD9255426 Si02
#       6
#     8   8   8   8   8   8
#     4   8  16  30  53  84 117 152 188 257 315 349
#     4  10  17  30  56  87 118 152 202 254 307 367
#     4   8  14  27  50  84 111 144 195 250 300 347
#     4   9  18  34  56  82 117 151 194 251 308 362
#     4  11  23  37  54  90 123 162 204 251 310 376
#     4  10  19  35  61  84 112 153 210 252 300 374
#
# _framework density 26.298898000000001
#
# number of rings (size 3 to 8) (size 9 to 14) (size 15 to 20)
#    0.000    2.667    1.667    1.500    0.000    0.000 
#    0.000    9.167    0.000    0.000    0.000    0.000 
#    0.000    0.000    0.000    0.000    0.000    0.000 
#
# Total GULP energy -133727.929486 kJ/mol
# GULP energy per Si atom -5571.997062 kJ/mol
# Density = 2.623904 g / cm^3
# Si number density = 26.298898 Si / 1000 Ang^3
#
#
#
# Elastic Constant Matrix: (Units=GPa)
#
#
# Indices 1 2 3 4 5 6 
#
# 1 49.3829 5.5863 36.6255 0.0000 8.3689 0.0000
# 2 5.5863 66.1222 19.5807 0.0000 9.5429 0.0000
# 3 36.6255 19.5807 303.7923 0.0000 -13.4410 0.0000
# 4 0.0000 0.0000 0.0000 26.0933 0.0000 13.2198
# 5 8.3689 9.5429 -13.4410 0.0000 40.4040 0.0000
# 6 0.0000 0.0000 0.0000 13.2198 0.0000 19.9468
#
#
#
# Elastic Compliance Matrix: (Units=1/GPa)
#
#
# Indices 1 2 3 4 5 6 
#
# 1 0.023555 -0.000233 -0.003084 0.000000 -0.005850 0.000000
# 2 -0.000233 0.016095 -0.001193 0.000000 -0.004150 0.000000
# 3 -0.003084 -0.001193 0.003838 0.000000 0.002197 0.000000
# 4 0.000000 0.000000 0.000000 0.057697 0.000000 -0.038239
# 5 -0.005850 -0.004150 0.002197 0.000000 0.027673 0.000000
# 6 0.000000 0.000000 0.000000 -0.038239 0.000000 0.075476
#
#
# Mechanical properties :
#
#
# Convention : Reuss Voigt Hill
#
# Bulk Modulus (GPa) = 29.01138 60.32023 44.66580
# Shear Modulus (GPa) = 22.23787 41.12249 31.68018
#
# Velocity S-wave (km/s) = 2.91104 3.95860 3.47453
# Velocity P-wave (km/s) = 4.72803 6.62422 5.75476
#
# Compressibility (1/GPa) = 0.03446924
#
# Stress axis : x y z
#
# Youngs Moduli (GPa) = 42.45457 62.12945 260.58053
#
# Poissons Ratio (x) = 0.01445 0.80352
# Poissons Ratio (y) = 0.00987 0.31087
# Poissons Ratio (z) = 0.13091 0.07412
#
# Static dielectric constant tensor:
#      x y z
#    x 2.078250 0.000000 -0.039130 
#    y 0.000000 2.108230 0.000000 
#    z -0.039130 0.000000 2.205250 
# 
# From -- ./inp_files/191773.got.cif
#   From: 2010.05.17/outbox.cif.g08.bks.cpg/sg15_96_cif.got.tgz:191773.got - 2010.06.03 18:47:42.
