data_PCOD9255060
_publ_section_title
;
Structure prediction by ZEFSAII (Michael W. Deem and Ramdas Pophale) SiO2 
 PCOD9255060
Probable space group: C 2/C
;
_chemical_formula_sum "Si O2"
_cell_formula_units_Z 48
_cell_length_a 15.429186
_cell_length_b 20.756001
_cell_length_c 16.796971
_cell_angle_alpha 90.000000
_cell_angle_beta 31.834720
_cell_angle_gamma 90.000000
_cell_volume 2837.370329
_symmetry_space_group_name_H-M "C 2/C"
_symmetry_group_IT_number 15
_symmetry_cell_setting 'monoclinic'
loop_
_space_group_symop_operation_xyz
x,y,z
-x,y,1/2-z
-x,-y,-z
x,-y,1/2+z
1/2+x,1/2+y,z
1/2-x,1/2+y,1/2-z
1/2-x,1/2-y,-z
1/2+x,1/2-y,1/2+z
loop_
_atom_site_type_symbol
_atom_site_label
_atom_site_fract_x
_atom_site_fract_y
_atom_site_fract_z
Si Si1 0.678717 0.430776 0.918194
Si Si2 0.000000 0.232071 0.750000
Si Si3 0.920456 0.355857 0.992936
Si Si4 0.843973 0.210599 0.031078
Si Si5 0.886050 0.952767 0.261641
Si Si6 0.000000 0.600058 0.250000
Si Si7 0.842746 0.453938 0.628029
O O1 0.654769 0.353978 0.919584
O O2 0.743293 0.463010 0.787835
O O3 0.830052 0.436205 0.862483
O O4 0.512573 0.453084 0.089129
O O5 0.056116 0.194894 0.627729
O O6 0.158526 0.273677 0.649187
O O7 0.904351 0.279119 0.016871
O O8 0.750714 0.395531 0.139136
O O9 0.961000 0.368629 0.867734
O O10 0.067181 0.384986 0.932238
O O11 0.000000 0.945775 0.250000
O O12 0.781043 0.019548 0.342264
O O13 0.000000 0.500000 0.500000
#
# Coordination Sequence:
#
# PCOD9255060 Si02
#       7
#     8   4   8   8   8   4   8
#     4  11  20  30  49  71 102 131 167 201 242 289
#     4  10  19  24  38  66 112 132 160 184 217 282
#     4  10  19  31  47  69 104 134 166 198 243 288
#     4  11  19  27  43  71 101 137 159 193 235 291
#     4  11  21  32  50  72  93 130 177 211 242 283
#     4  10  17  28  42  70 102 144 160 184 229 288
#     4   9  21  38  48  64  97 135 168 210 245 280
#
# _framework density 16.917072999999998
#
# number of rings (size 3 to 8) (size 9 to 14) (size 15 to 20)
#    0.000    1.667    1.667    6.500    2.333    0.000 
#    0.000    0.000    0.000    0.000    0.000    1.167 
#    0.000    0.000    0.000    0.333    0.000    0.000 
#
# Total GULP energy -133605.316575 kJ/mol
# GULP energy per Si atom -5566.888191 kJ/mol
# Density = 1.687857 g / cm^3
# Si number density = 16.917073 Si / 1000 Ang^3
#
#
#
# Elastic Constant Matrix: (Units=GPa)
#
#
# Indices 1 2 3 4 5 6 
#
# 1 46.9072 37.9423 13.9737 0.0023 -19.2005 -0.0009
# 2 37.9423 72.4819 25.2332 0.0019 -11.8738 -0.0014
# 3 13.9737 25.2332 129.9925 0.0066 -8.6326 -0.0039
# 4 0.0023 0.0019 0.0066 29.3355 -0.0028 -5.2530
# 5 -19.2005 -11.8738 -8.6326 -0.0028 28.8781 0.0022
# 6 -0.0009 -0.0014 -0.0039 -5.2530 0.0022 24.6819
#
#
#
# Elastic Compliance Matrix: (Units=1/GPa)
#
#
# Indices 1 2 3 4 5 6 
#
# 1 0.048149 -0.021582 0.000561 -0.000001 0.023307 -0.000002
# 2 -0.021582 0.025321 -0.002915 0.000000 -0.004810 0.000001
# 3 0.000561 -0.002915 0.008308 -0.000001 0.001658 0.000001
# 4 -0.000001 0.000000 -0.000001 0.035439 0.000002 0.007542
# 5 0.023307 -0.004810 0.001658 0.000002 0.048643 -0.000003
# 6 -0.000002 0.000001 0.000001 0.007542 -0.000003 0.042121
#
#
# Mechanical properties :
#
#
# Convention : Reuss Voigt Hill
#
# Bulk Modulus (GPa) = 29.49166 44.85333 37.17249
# Shear Modulus (GPa) = 18.71577 28.06126 23.38851
#
# Velocity S-wave (km/s) = 3.32975 4.07720 3.72228
# Velocity P-wave (km/s) = 5.67925 6.98111 6.36356
#
# Compressibility (1/GPa) = 0.03390790
#
# Stress axis : x y z
#
# Youngs Moduli (GPa) = 20.76879 39.49310 120.36170
#
# Poissons Ratio (x) = 0.85234 -0.06756
# Poissons Ratio (y) = 0.44823 0.35080
# Poissons Ratio (z) = -0.01166 0.11510
#
# Static dielectric constant tensor:
#      x y z
#    x 1.581640 0.000000 -0.020020 
#    y 0.000000 1.677790 0.000010 
#    z -0.020020 0.000010 1.624430 
# 
# From -- ./inp_files/49476.got.cif
#   From: 2010.05.17/outbox.cif.g08.bks.cpg/sg15_25_cif.got.tgz:49476.got - 2010.06.03 18:47:42.
