data_PCOD9255564
_publ_section_title
;
Structure prediction by ZEFSAII (Michael W. Deem and Ramdas Pophale) SiO2 
 PCOD9255564
Probable space group: C 2/C
;
_chemical_formula_sum "Si O2"
_cell_formula_units_Z 56
_cell_length_a 14.990469
_cell_length_b 12.942819
_cell_length_c 19.944723
_cell_angle_alpha 90.000000
_cell_angle_beta 144.691635
_cell_angle_gamma 90.000000
_cell_volume 2236.569985
_symmetry_space_group_name_H-M "C 2/C"
_symmetry_group_IT_number 15
_symmetry_cell_setting 'monoclinic'
loop_
_space_group_symop_operation_xyz
x,y,z
-x,y,1/2-z
-x,-y,-z
x,-y,1/2+z
1/2+x,1/2+y,z
1/2-x,1/2+y,1/2-z
1/2-x,1/2-y,-z
1/2+x,1/2-y,1/2+z
loop_
_atom_site_type_symbol
_atom_site_label
_atom_site_fract_x
_atom_site_fract_y
_atom_site_fract_z
Si Si1 0.524548 0.902981 0.925758
Si Si2 0.353284 0.701298 0.505540
Si Si3 0.989645 0.869066 0.671667
Si Si4 0.290047 0.579870 0.844623
Si Si5 0.216796 0.481137 0.440759
Si Si6 0.244005 0.468880 0.175440
Si Si7 0.904003 0.156192 0.402095
O O1 0.570147 0.971078 0.889061
O O2 0.671711 0.920414 0.064532
O O3 0.506172 0.782093 0.900120
O O4 0.379343 0.944300 0.876949
O O5 0.250000 0.750000 0.500000
O O6 0.337600 0.578432 0.506989
O O7 0.300898 0.709396 0.395406
O O8 0.061962 0.809436 0.652332
O O9 0.000000 0.815977 0.750000
O O10 0.096728 0.972482 0.743149
O O11 0.815204 0.899773 0.544827
O O12 0.243253 0.606428 0.739962
O O13 0.349610 0.462692 0.866160
O O14 0.189047 0.565406 0.849912
O O15 0.431513 0.647825 0.958582
#
# Coordination Sequence:
#
# PCOD9255564 Si02
#       7
#     8   8   8   8   8   8   8
#     4  10  20  31  47  74 110 136 157 203 262 315
#     4   9  17  31  50  72 110 139 155 196 262 323
#     4  10  17  31  56  75  93 128 184 224 243 290
#     4   8  15  29  50  69  97 127 172 211 238 290
#     4   9  17  33  53  77  99 131 169 207 254 307
#     4  10  19  31  47  73  99 135 172 208 251 298
#     4   8  15  29  49  74  95 128 168 212 249 292
#
# _framework density 25.038340000000002
#
# number of rings (size 3 to 8) (size 9 to 14) (size 15 to 20)
#    0.000    2.857    1.429    2.571    0.000    0.571 
#    0.000    8.571    0.000    0.857    7.429    0.000 
#    0.000    0.000    0.000    0.000    0.000    0.000 
#
# Total GULP energy -155941.331978 kJ/mol
# GULP energy per Si atom -5569.333285 kJ/mol
# Density = 2.498135 g / cm^3
# Si number density = 25.038340 Si / 1000 Ang^3
#
#
#
# Elastic Constant Matrix: (Units=GPa)
#
#
# Indices 1 2 3 4 5 6 
#
# 1 154.1469 18.9688 18.5948 0.0001 -50.4816 0.0000
# 2 18.9688 38.6919 -3.1886 0.0003 5.4366 0.0001
# 3 18.5948 -3.1886 90.5663 0.0009 -33.4047 0.0004
# 4 0.0001 0.0003 0.0009 -1.5634 0.0003 -7.1575
# 5 -50.4816 5.4366 -33.4047 0.0003 51.5390 0.0001
# 6 0.0000 0.0001 0.0004 -7.1575 0.0001 24.9815
#
#
#
# Elastic Compliance Matrix: (Units=1/GPa)
#
#
# Indices 1 2 3 4 5 6 
#
# 1 0.011596 -0.007412 0.002413 0.000002 0.013704 0.000000
# 2 -0.007412 0.030972 -0.001670 0.000001 -0.011609 0.000000
# 3 0.002413 -0.001670 0.015013 0.000005 0.012270 0.000001
# 4 0.000002 0.000001 0.000005 -0.276697 0.000006 -0.079277
# 5 0.013704 -0.011609 0.012270 0.000006 0.042003 0.000002
# 6 0.000000 0.000000 0.000001 -0.079277 0.000002 0.017316
#
#
# Mechanical properties :
#
#
# Convention : Reuss Voigt Hill
#
# Bulk Modulus (GPa) = 22.60174 39.12836 30.86505
# Shear Modulus (GPa) = -37.96211 31.59343 -3.18434
#
# Velocity S-wave (km/s) = -3.89801 3.55604 -1.12896
# Velocity P-wave (km/s) = 3.34857 5.70279 3.26412
#
# Compressibility (1/GPa) = 0.04424438
#
# Stress axis : x y z
#
# Youngs Moduli (GPa) = 86.23449 32.28675 66.60800
#
# Poissons Ratio (x) = 0.23930 -0.16071
# Poissons Ratio (y) = 0.63916 0.11122
# Poissons Ratio (z) = -0.20806 0.05391
#
# Static dielectric constant tensor:
#      x y z
#    x 2.059320 0.000000 0.001870 
#    y 0.000000 2.026900 0.000000 
#    z 0.001870 0.000000 2.045210 
# 
# From -- ./inp_files/244555.got.cif
#   From: 2010.05.17/outbox.cif.g08.bks.cpg/sg15_123_cif.got.tgz:244555.got - 2010.06.03 18:47:42.
