data_PCOD9255424
_publ_section_title
;
Structure prediction by ZEFSAII (Michael W. Deem and Ramdas Pophale) SiO2 
 PCOD9255424
Probable space group: C 2/C
;
_chemical_formula_sum "Si O2"
_cell_formula_units_Z 56
_cell_length_a 9.203320
_cell_length_b 20.115069
_cell_length_c 18.416472
_cell_angle_alpha 90.000000
_cell_angle_beta 56.750553
_cell_angle_gamma 90.000000
_cell_volume 2851.216148
_symmetry_space_group_name_H-M "C 2/C"
_symmetry_group_IT_number 15
_symmetry_cell_setting 'monoclinic'
loop_
_space_group_symop_operation_xyz
x,y,z
-x,y,1/2-z
-x,-y,-z
x,-y,1/2+z
1/2+x,1/2+y,z
1/2-x,1/2+y,1/2-z
1/2-x,1/2-y,-z
1/2+x,1/2-y,1/2+z
loop_
_atom_site_type_symbol
_atom_site_label
_atom_site_fract_x
_atom_site_fract_y
_atom_site_fract_z
Si Si1 0.450353 0.804663 0.131502
Si Si2 0.139448 0.631449 0.274594
Si Si3 0.581126 0.940932 0.557238
Si Si4 0.393423 0.282080 0.202787
Si Si5 0.725573 0.319477 0.044770
Si Si6 0.482176 0.344685 0.843223
Si Si7 0.664658 0.916528 0.010645
O O1 0.297181 0.811769 0.232935
O O2 0.341859 0.811245 0.085858
O O3 0.526013 0.730935 0.124578
O O4 0.596691 0.860763 0.085187
O O5 0.129852 0.704928 0.315073
O O6 0.329437 0.625869 0.188405
O O7 0.000000 0.632963 0.250000
O O8 0.077194 0.573401 0.344651
O O9 0.711129 0.878838 0.523104
O O10 0.491916 0.931490 0.503030
O O11 0.680848 0.010093 0.540233
O O12 0.500000 0.278621 0.250000
O O13 0.521840 0.324296 0.118466
O O14 0.750000 0.250000 0.000000
O O15 0.500000 0.344598 0.750000
O O16 0.325932 0.387225 0.920399
#
# Coordination Sequence:
#
# PCOD9255424 Si02
#       7
#     8   8   8   8   8   8   8
#     4   9  20  33  55  79 112 147 185 244 281 336
#     4  10  19  35  59  82 113 145 188 238 285 334
#     4  10  20  35  57  80 117 156 184 232 286 344
#     4   8  15  29  48  80 106 135 182 235 283 320
#     4  10  17  30  56  84 110 143 192 242 285 329
#     4  11  21  37  61  87 109 151 198 233 286 349
#     4  10  21  39  52  83 118 154 191 226 287 346
#
# _framework density 19.640741999999999
#
# number of rings (size 3 to 8) (size 9 to 14) (size 15 to 20)
#    0.000    2.286    2.857    1.286    0.000    0.000 
#    2.571    2.143    0.000    0.000    0.000    0.000 
#    0.000    0.000    0.000    0.000    0.000    0.000 
#
# Total GULP energy -155910.547658 kJ/mol
# GULP energy per Si atom -5568.233845 kJ/mol
# Density = 1.959604 g / cm^3
# Si number density = 19.640742 Si / 1000 Ang^3
#
#
#
# Elastic Constant Matrix: (Units=GPa)
#
#
# Indices 1 2 3 4 5 6 
#
# 1 38.9581 25.3081 14.2593 0.0000 -19.2091 0.0000
# 2 25.3081 148.5012 78.8541 0.0000 -32.5145 0.0000
# 3 14.2593 78.8541 80.0602 0.0000 -31.2323 0.0000
# 4 0.0000 0.0000 0.0000 -31.2853 0.0000 10.6350
# 5 -19.2091 -32.5145 -31.2323 0.0000 29.5371 0.0000
# 6 0.0000 0.0000 0.0000 10.6350 0.0000 13.0784
#
#
#
# Elastic Compliance Matrix: (Units=1/GPa)
#
#
# Indices 1 2 3 4 5 6 
#
# 1 0.041145 -0.005756 0.010737 0.000000 0.031775 0.000000
# 2 -0.005756 0.014958 -0.014884 0.000000 -0.003016 0.000000
# 3 0.010737 -0.014884 0.036715 0.000000 0.029421 0.000000
# 4 0.000000 0.000000 0.000000 -0.025042 0.000000 0.020363
# 5 0.031775 -0.003016 0.029421 0.000000 0.082310 0.000000
# 6 0.000000 0.000000 0.000000 0.020363 0.000000 0.059903
#
#
# Mechanical properties :
#
#
# Convention : Reuss Voigt Hill
#
# Bulk Modulus (GPa) = 13.69629 56.04027 34.86828
# Shear Modulus (GPa) = 19.67466 12.20591 15.94029
#
# Velocity S-wave (km/s) = 3.16844 2.49561 2.85194
# Velocity P-wave (km/s) = 4.51375 6.07443 5.35129
#
# Compressibility (1/GPa) = 0.07301246
#
# Stress axis : x y z
#
# Youngs Moduli (GPa) = 24.30401 66.85387 27.23652
#
# Poissons Ratio (x) = 0.38484 -0.29244
# Poissons Ratio (y) = 0.13990 0.40539
# Poissons Ratio (z) = -0.26096 0.99505
#
# Static dielectric constant tensor:
#      x y z
#    x 1.752530 0.000000 0.010370 
#    y 0.000000 1.710540 0.000000 
#    z 0.010370 0.000000 1.732120 
# 
# From -- ./inp_files/146791.got.cif
#   From: 2010.05.17/outbox.cif.g08.bks.cpg/sg15_74_cif.got.tgz:146791.got - 2010.06.03 18:47:42.
