data_PCOD9255565
_publ_section_title
;
Structure prediction by ZEFSAII (Michael W. Deem and Ramdas Pophale) SiO2 
 PCOD9255565
Probable space group: C 2/C
;
_chemical_formula_sum "Si O2"
_cell_formula_units_Z 56
_cell_length_a 10.494864
_cell_length_b 20.342474
_cell_length_c 17.061120
_cell_angle_alpha 90.000000
_cell_angle_beta 54.183274
_cell_angle_gamma 90.000000
_cell_volume 2953.600039
_symmetry_space_group_name_H-M "C 2/C"
_symmetry_group_IT_number 15
_symmetry_cell_setting 'monoclinic'
loop_
_space_group_symop_operation_xyz
x,y,z
-x,y,1/2-z
-x,-y,-z
x,-y,1/2+z
1/2+x,1/2+y,z
1/2-x,1/2+y,1/2-z
1/2-x,1/2-y,-z
1/2+x,1/2-y,1/2+z
loop_
_atom_site_type_symbol
_atom_site_label
_atom_site_fract_x
_atom_site_fract_y
_atom_site_fract_z
Si Si1 0.945565 0.678958 0.963852
Si Si2 0.443134 0.936389 0.970424
Si Si3 0.662663 0.984650 0.776181
Si Si4 0.546247 0.552887 0.417883
Si Si5 0.143876 0.825812 0.460177
Si Si6 0.135489 0.978001 0.150071
Si Si7 0.644174 0.140532 0.753670
O O1 0.794045 0.661342 0.964015
O O2 0.099407 0.672390 0.852738
O O3 0.912707 0.751671 0.006723
O O4 0.972959 0.626735 0.022783
O O5 0.501093 0.951063 0.861519
O O6 0.256979 0.934985 0.055489
O O7 0.500000 0.000000 0.000000
O O8 0.771892 0.952322 0.671584
O O9 0.766475 0.984653 0.818309
O O10 0.640199 0.061622 0.765065
O O11 0.500000 0.500000 0.500000
O O12 0.489421 0.623199 0.467176
O O13 0.446568 0.529285 0.378209
O O14 0.202803 0.839293 0.350349
O O15 0.000000 0.941767 0.250000
O O16 0.500000 0.160590 0.750000
#
# Coordination Sequence:
#
# PCOD9255565 Si02
#       7
#     8   8   8   8   8   8   8
#     4  10  20  35  54  80 113 149 178 223 282 351
#     4  10  17  31  56  78 105 139 188 225 266 324
#     4  10  19  32  53  81 108 143 187 231 275 326
#     4  11  21  34  52  82 113 142 184 236 280 321
#     4  10  21  34  52  80 118 146 176 224 288 341
#     4   9  19  32  52  81 105 140 184 235 273 320
#     4  10  19  32  53  81 110 144 184 222 284 342
#
# _framework density 18.959913
#
# number of rings (size 3 to 8) (size 9 to 14) (size 15 to 20)
#    0.000    2.000    4.286    1.714    2.000    1.143 
#    0.000    6.429    0.000    0.857    0.000    1.000 
#    0.000    0.000    0.000    0.000    0.000    0.000 
#
# Total GULP energy -156040.475584 kJ/mol
# GULP energy per Si atom -5572.874128 kJ/mol
# Density = 1.891676 g / cm^3
# Si number density = 18.959913 Si / 1000 Ang^3
#
#
#
# Elastic Constant Matrix: (Units=GPa)
#
#
# Indices 1 2 3 4 5 6 
#
# 1 34.4759 5.8293 14.3101 0.0000 -6.5431 0.0000
# 2 5.8293 92.2273 61.4919 0.0000 -12.6842 0.0000
# 3 14.3101 61.4919 196.1164 0.0000 -34.6264 0.0000
# 4 0.0000 0.0000 0.0000 24.1854 0.0000 -1.4947
# 5 -6.5431 -12.6842 -34.6264 0.0000 26.5278 0.0000
# 6 0.0000 0.0000 0.0000 -1.4947 0.0000 23.2493
#
#
#
# Elastic Compliance Matrix: (Units=1/GPa)
#
#
# Indices 1 2 3 4 5 6 
#
# 1 0.030648 -0.000414 -0.001048 0.000000 0.005993 0.000000
# 2 -0.000414 0.013745 -0.004077 0.000000 0.001149 0.000000
# 3 -0.001048 -0.004077 0.007880 0.000000 0.008078 0.000000
# 4 0.000000 0.000000 0.000000 0.041512 0.000000 0.002669
# 5 0.005993 0.001149 0.008078 0.000000 0.050268 0.000000
# 6 0.000000 0.000000 0.000000 0.002669 0.000000 0.043184
#
#
# Mechanical properties :
#
#
# Convention : Reuss Voigt Hill
#
# Bulk Modulus (GPa) = 24.27460 54.00913 39.14187
# Shear Modulus (GPa) = 23.57972 30.87172 27.22572
#
# Velocity S-wave (km/s) = 3.53038 4.03955 3.79352
# Velocity P-wave (km/s) = 5.42670 7.09261 6.31483
#
# Compressibility (1/GPa) = 0.04119533
#
# Stress axis : x y z
#
# Youngs Moduli (GPa) = 32.62822 72.75353 126.90411
#
# Poissons Ratio (x) = 0.03011 0.13305
# Poissons Ratio (y) = 0.01351 0.51735
# Poissons Ratio (z) = 0.03421 0.29659
#
# Static dielectric constant tensor:
#      x y z
#    x 1.704110 0.000000 -0.017720 
#    y 0.000000 1.601550 0.000000 
#    z -0.017720 0.000000 1.726790 
# 
# From -- ./inp_files/199444.got.cif
#   From: 2010.05.17/outbox.cif.g08.bks.cpg/sg15_100_cif.got.tgz:199444.got - 2010.06.03 18:47:42.
