data_PCOD9255499
_publ_section_title
;
Structure prediction by ZEFSAII (Michael W. Deem and Ramdas Pophale) SiO2 
 PCOD9255499
Probable space group: C 2/C
;
_chemical_formula_sum "Si O2"
_cell_formula_units_Z 48
_cell_length_a 16.028506
_cell_length_b 9.289783
_cell_length_c 24.178852
_cell_angle_alpha 90.000000
_cell_angle_beta 144.208449
_cell_angle_gamma 90.000000
_cell_volume 2105.571160
_symmetry_space_group_name_H-M "C 2/C"
_symmetry_group_IT_number 15
_symmetry_cell_setting 'monoclinic'
loop_
_space_group_symop_operation_xyz
x,y,z
-x,y,1/2-z
-x,-y,-z
x,-y,1/2+z
1/2+x,1/2+y,z
1/2-x,1/2+y,1/2-z
1/2-x,1/2-y,-z
1/2+x,1/2-y,1/2+z
loop_
_atom_site_type_symbol
_atom_site_label
_atom_site_fract_x
_atom_site_fract_y
_atom_site_fract_z
Si Si1 0.779889 0.996252 0.768528
Si Si2 0.531848 0.921696 0.711376
Si Si3 0.333170 0.501280 0.173863
Si Si4 0.064619 0.174458 0.441645
Si Si5 0.750782 0.333395 0.146065
Si Si6 0.184139 0.523886 0.987991
O O1 0.782088 0.049320 0.706656
O O2 0.912694 0.890165 0.847778
O O3 0.644036 0.909504 0.720408
O O4 0.803153 0.131786 0.821747
O O5 0.500000 0.829371 0.750000
O O6 0.617625 0.056223 0.786051
O O7 0.384546 0.936862 0.598907
O O8 0.500000 0.482926 0.250000
O O9 0.304188 0.673710 0.162614
O O10 0.231985 0.446460 0.069781
O O11 0.128975 0.135459 0.535847
O O12 0.072158 0.346715 0.439440
O O13 0.173822 0.104894 0.456513
#
# Coordination Sequence:
#
# PCOD9255499 Si02
#       6
#     8   8   8   8   8   8
#     4  10  21  31  53  80 113 141 181 218 276 322
#     4  10  19  32  48  76 108 142 176 225 262 317
#     4  11  20  34  54  81 112 142 179 227 276 317
#     4  10  17  31  51  85 104 142 171 235 266 324
#     4   9  20  30  53  77 111 134 181 224 265 315
#     4  10  19  29  54  78 114 136 177 220 284 309
#
# _framework density 22.796665000000001
#
# number of rings (size 3 to 8) (size 9 to 14) (size 15 to 20)
#    1.000    1.000    3.333    2.000    2.333    0.667 
#    0.000    0.000    0.000    1.000    0.000    3.500 
#    0.000    0.000    0.000    0.000    0.000    0.000 
#
# Total GULP energy -133728.180917 kJ/mol
# GULP energy per Si atom -5572.007538 kJ/mol
# Density = 2.274478 g / cm^3
# Si number density = 22.796665 Si / 1000 Ang^3
#
#
#
# Elastic Constant Matrix: (Units=GPa)
#
#
# Indices 1 2 3 4 5 6 
#
# 1 165.6502 3.4840 62.1507 0.0000 -34.2531 0.0000
# 2 3.4840 24.8767 14.9413 0.0000 -6.6764 0.0000
# 3 62.1507 14.9413 119.8350 0.0000 -34.3636 0.0000
# 4 0.0000 0.0000 0.0000 0.0393 0.0000 -6.8501
# 5 -34.2531 -6.6764 -34.3636 0.0000 57.4464 0.0000
# 6 0.0000 0.0000 0.0000 -6.8501 0.0000 21.8113
#
#
#
# Elastic Compliance Matrix: (Units=1/GPa)
#
#
# Indices 1 2 3 4 5 6 
#
# 1 0.007898 0.001756 -0.003508 0.000000 0.002815 0.000000
# 2 0.001756 0.044071 -0.005597 0.000000 0.002821 0.000000
# 3 -0.003508 -0.005597 0.012162 0.000000 0.004533 0.000000
# 4 0.000000 0.000000 0.000000 -0.473465 0.000000 -0.148697
# 5 0.002815 0.002821 0.004533 0.000000 0.022125 0.000000
# 6 0.000000 0.000000 0.000000 -0.148697 0.000000 -0.000852
#
#
# Mechanical properties :
#
#
# Convention : Reuss Voigt Hill
#
# Bulk Modulus (GPa) = 20.22896 52.39043 36.30970
# Shear Modulus (GPa) = -14.01010 31.17844 8.58417
#
# Velocity S-wave (km/s) = -2.48174 3.70222 1.94260
# Velocity P-wave (km/s) = 0.82516 6.42703 4.58190
#
# Compressibility (1/GPa) = 0.04943408
#
# Stress axis : x y z
#
# Youngs Moduli (GPa) = 126.61185 22.69070 82.22429
#
# Poissons Ratio (x) = -0.03985 0.28844
# Poissons Ratio (y) = -0.22237 0.46019
# Poissons Ratio (z) = 0.44416 0.12699
#
# Static dielectric constant tensor:
#      x y z
#    x 1.984510 0.000000 -0.024120 
#    y 0.000000 1.884780 0.000000 
#    z -0.024120 0.000000 1.818210 
# 
# From -- ./inp_files/274369.got.cif
#   From: 2010.05.17/outbox.cif.g08.bks.cpg/sg15_138_cif.got.tgz:274369.got - 2010.06.03 18:47:42.
