data_PCOD9255263
_publ_section_title
;
Structure prediction by ZEFSAII (Michael W. Deem and Ramdas Pophale) SiO2 
 PCOD9255263
Probable space group: C 2/C
;
_chemical_formula_sum "Si O2"
_cell_formula_units_Z 40
_cell_length_a 9.997432
_cell_length_b 22.671359
_cell_length_c 14.093674
_cell_angle_alpha 90.000000
_cell_angle_beta 37.555179
_cell_angle_gamma 90.000000
_cell_volume 1947.071468
_symmetry_space_group_name_H-M "C 2/C"
_symmetry_group_IT_number 15
_symmetry_cell_setting 'monoclinic'
loop_
_space_group_symop_operation_xyz
x,y,z
-x,y,1/2-z
-x,-y,-z
x,-y,1/2+z
1/2+x,1/2+y,z
1/2-x,1/2+y,1/2-z
1/2-x,1/2-y,-z
1/2+x,1/2-y,1/2+z
loop_
_atom_site_type_symbol
_atom_site_label
_atom_site_fract_x
_atom_site_fract_y
_atom_site_fract_z
Si Si1 0.177612 0.105427 0.068024
Si Si2 0.385832 0.182817 0.642844
Si Si3 0.476567 0.004967 0.368512
Si Si4 0.272253 0.566792 0.833800
Si Si5 0.858634 0.213562 0.528281
O O1 0.075678 0.149210 0.046779
O O2 0.000000 0.097387 0.250000
O O3 0.393076 0.142742 0.978554
O O4 0.283829 0.044622 0.973704
O O5 0.216385 0.135580 0.697583
O O6 0.445040 0.242511 0.554433
O O7 0.303545 0.202717 0.793104
O O8 0.500000 0.028649 0.250000
O O9 0.690375 0.970938 0.289236
O O10 0.409684 0.053027 0.483702
O O11 0.500000 0.546860 0.750000
O O12 0.750000 0.250000 0.500000
#
# Coordination Sequence:
#
# PCOD9255263 Si02
#       5
#     8   8   8   8   8
#     4  10  17  29  54  87 118 147 192 257 311 344
#     4  10  20  34  53  82 121 158 195 249 309 364
#     4  10  21  39  64  91 120 159 212 263 305 361
#     4  10  22  41  60  87 128 166 201 250 314 380
#     4  10  17  31  55  84 117 153 202 257 301 344
#
# _framework density 20.543673999999999
#
# number of rings (size 3 to 8) (size 9 to 14) (size 15 to 20)
#    0.000    2.000    0.000    7.800    0.000    0.800 
#    0.000    9.000    0.000    0.000    0.000    0.000 
#    0.000    0.000    0.000    0.000    0.000    0.000 
#
# Total GULP energy -111457.751338 kJ/mol
# GULP energy per Si atom -5572.887567 kJ/mol
# Density = 2.049692 g / cm^3
# Si number density = 20.543674 Si / 1000 Ang^3
#
#
#
# Elastic Constant Matrix: (Units=GPa)
#
#
# Indices 1 2 3 4 5 6 
#
# 1 73.6718 18.1697 26.3339 -0.0001 8.0004 0.0000
# 2 18.1697 80.8771 15.8347 -0.0001 11.9005 0.0000
# 3 26.3339 15.8347 83.8114 -0.0004 13.0476 0.0001
# 4 -0.0001 -0.0001 -0.0004 7.2942 0.0002 20.4487
# 5 8.0004 11.9005 13.0476 0.0002 24.7524 0.0000
# 6 0.0000 0.0000 0.0001 20.4487 0.0000 11.5009
#
#
#
# Elastic Compliance Matrix: (Units=1/GPa)
#
#
# Indices 1 2 3 4 5 6 
#
# 1 0.015894 -0.002487 -0.004260 0.000000 -0.001696 0.000000
# 2 -0.002487 0.013909 -0.001014 0.000000 -0.005349 0.000000
# 3 -0.004260 -0.001014 0.014349 0.000000 -0.005699 0.000000
# 4 0.000000 0.000000 0.000000 -0.034407 0.000001 0.061176
# 5 -0.001696 -0.005349 -0.005699 0.000001 0.046524 -0.000001
# 6 0.000000 0.000000 0.000000 0.061176 -0.000001 -0.021822
#
#
# Mechanical properties :
#
#
# Convention : Reuss Voigt Hill
#
# Bulk Modulus (GPa) = 34.92846 39.89299 37.41073
# Shear Modulus (GPa) = 84.01722 20.57763 52.29742
#
# Velocity S-wave (km/s) = 6.40200 3.16832 5.05094
# Velocity P-wave (km/s) = 8.46679 5.73107 7.22951
#
# Compressibility (1/GPa) = 0.02862995
#
# Stress axis : x y z
#
# Youngs Moduli (GPa) = 62.91668 71.89744 69.69195
#
# Poissons Ratio (x) = 0.17882 0.29689
# Poissons Ratio (y) = 0.15648 0.07064
# Poissons Ratio (z) = 0.26803 0.07288
#
# Static dielectric constant tensor:
#      x y z
#    x 1.799100 0.000000 -0.041320 
#    y 0.000000 1.793910 0.000000 
#    z -0.041320 0.000000 1.745250 
# 
# From -- ./inp_files/147982.got.cif
#   From: 2010.05.17/outbox.cif.g08.bks.cpg/sg15_74_cif.got.tgz:147982.got - 2010.06.03 18:47:42.
