data_PCOD9255833
_publ_section_title
;
Structure prediction by ZEFSAII (Michael W. Deem and Ramdas Pophale) SiO2 
 PCOD9255833
Probable space group: C 2/C
;
_chemical_formula_sum "Si O2"
_cell_formula_units_Z 48
_cell_length_a 21.778970
_cell_length_b 14.331372
_cell_length_c 25.626452
_cell_angle_alpha 90.000000
_cell_angle_beta 158.247511
_cell_angle_gamma 90.000000
_cell_volume 2964.260781
_symmetry_space_group_name_H-M "C 2/C"
_symmetry_group_IT_number 15
_symmetry_cell_setting 'monoclinic'
loop_
_space_group_symop_operation_xyz
x,y,z
-x,y,1/2-z
-x,-y,-z
x,-y,1/2+z
1/2+x,1/2+y,z
1/2-x,1/2+y,1/2-z
1/2-x,1/2-y,-z
1/2+x,1/2-y,1/2+z
loop_
_atom_site_type_symbol
_atom_site_label
_atom_site_fract_x
_atom_site_fract_y
_atom_site_fract_z
Si Si1 0.077382 0.537627 0.506161
Si Si2 0.887231 0.603963 0.796831
Si Si3 0.056528 0.732991 0.851101
Si Si4 0.027154 0.297500 0.030575
Si Si5 0.019344 0.908203 0.980580
Si Si6 0.672370 0.613602 0.278160
O O1 0.082591 0.646804 0.522582
O O2 0.247658 0.480227 0.634417
O O3 0.000000 0.500000 0.500000
O O4 0.952530 0.498439 0.364199
O O5 0.873995 0.660842 0.841191
O O6 0.716726 0.603685 0.631227
O O7 0.020040 0.658714 0.867439
O O8 0.000000 0.698861 0.750000
O O9 0.948438 0.824392 0.781565
O O10 0.250000 0.750000 0.000000
O O11 0.044021 0.186892 0.042331
O O12 0.834520 0.324136 0.891035
O O13 0.924977 0.913306 0.851256
O O14 0.000000 0.000000 0.000000
#
# Coordination Sequence:
#
# PCOD9255833 Si02
#       6
#     8   8   8   8   8   8
#     4   8  17  31  48  61  87 133 164 175 230 297
#     4  10  19  32  44  65  97 126 154 199 228 279
#     4  12  21  31  48  68  96 134 164 196 246 285
#     4  10  17  33  47  64  95 133 155 182 237 295
#     4  12  19  27  47  73  98 124 153 194 245 286
#     4  10  19  32  44  65  97 126 157 199 228 281
#
# _framework density 16.192907999999999
#
# number of rings (size 3 to 8) (size 9 to 14) (size 15 to 20)
#    0.000    2.000    3.333    6.000    0.000    0.000 
#    0.000    0.000    0.000    0.000    0.000    0.000 
#    0.000   26.667    0.000    0.000    0.000    0.000 
#
# Total GULP energy -133709.147807 kJ/mol
# GULP energy per Si atom -5571.214492 kJ/mol
# Density = 1.615605 g / cm^3
# Si number density = 16.192908 Si / 1000 Ang^3
#
#
#
# Elastic Constant Matrix: (Units=GPa)
#
#
# Indices 1 2 3 4 5 6 
#
# 1 28.6529 11.5952 -8.7391 0.0000 0.6689 0.0004
# 2 11.5952 86.0554 -6.9194 -0.0005 3.5451 0.0004
# 3 -8.7391 -6.9194 67.3924 0.0011 -3.0321 0.0005
# 4 0.0000 -0.0005 0.0011 15.9554 -0.0002 -3.6754
# 5 0.6689 3.5451 -3.0321 -0.0002 31.3438 0.0001
# 6 0.0004 0.0004 0.0005 -3.6754 0.0001 18.7084
#
#
#
# Elastic Compliance Matrix: (Units=1/GPa)
#
#
# Indices 1 2 3 4 5 6 
#
# 1 0.038200 -0.004794 0.004468 -0.000001 0.000159 -0.000001
# 2 -0.004794 0.012365 0.000592 0.000000 -0.001239 0.000000
# 3 0.004468 0.000592 0.015539 -0.000001 0.001341 -0.000001
# 4 -0.000001 0.000000 -0.000001 0.065646 0.000000 0.012896
# 5 0.000159 -0.001239 0.001341 0.000000 0.032171 0.000000
# 6 -0.000001 0.000000 -0.000001 0.012896 0.000000 0.055986
#
#
# Mechanical properties :
#
#
# Convention : Reuss Voigt Hill
#
# Bulk Modulus (GPa) = 15.00683 19.33045 17.16864
# Shear Modulus (GPa) = 20.69663 25.61244 23.15454
#
# Velocity S-wave (km/s) = 3.57897 3.98138 3.78553
# Velocity P-wave (km/s) = 5.13482 5.75315 5.45276
#
# Compressibility (1/GPa) = 0.06663634
#
# Stress axis : x y z
#
# Youngs Moduli (GPa) = 26.17819 80.87298 64.35399
#
# Poissons Ratio (x) = 0.38773 -0.28756
# Poissons Ratio (y) = 0.12551 -0.03811
# Poissons Ratio (z) = -0.11698 -0.04789
#
# Static dielectric constant tensor:
#      x y z
#    x 1.520580 0.000000 -0.012660 
#    y 0.000000 1.617460 0.000000 
#    z -0.012660 0.000000 1.630260 
# 
# From -- ./inp_files/283591.got.cif
#   From: 2010.05.17/outbox.cif.g08.bks.cpg/sg15_142_cif.got.tgz:283591.got - 2010.06.03 18:47:42.
