data_PCOD9255903
_publ_section_title
;
Structure prediction by ZEFSAII (Michael W. Deem and Ramdas Pophale) SiO2 
 PCOD9255903
Probable space group: C 2/C
;
_chemical_formula_sum "Si O2"
_cell_formula_units_Z 60
_cell_length_a 17.419016
_cell_length_b 9.399988
_cell_length_c 20.296946
_cell_angle_alpha 90.000000
_cell_angle_beta 125.708575
_cell_angle_gamma 90.000000
_cell_volume 2698.581891
_symmetry_space_group_name_H-M "C 2/C"
_symmetry_group_IT_number 15
_symmetry_cell_setting 'monoclinic'
loop_
_space_group_symop_operation_xyz
x,y,z
-x,y,1/2-z
-x,-y,-z
x,-y,1/2+z
1/2+x,1/2+y,z
1/2-x,1/2+y,1/2-z
1/2-x,1/2-y,-z
1/2+x,1/2-y,1/2+z
loop_
_atom_site_type_symbol
_atom_site_label
_atom_site_fract_x
_atom_site_fract_y
_atom_site_fract_z
Si Si1 0.500000 0.300341 0.750000
Si Si2 0.294786 0.451194 0.402838
Si Si3 0.698130 0.671371 0.316376
Si Si4 0.234768 0.507126 0.019931
Si Si5 0.967127 0.380909 0.113406
Si Si6 0.528370 0.733385 0.522425
Si Si7 0.140760 0.480928 0.655029
Si Si8 0.815784 0.262494 0.421446
O O1 0.411587 0.371322 0.742344
O O2 0.550793 0.205345 0.829942
O O3 0.224678 0.337709 0.334011
O O4 0.286861 0.449221 0.478974
O O5 0.399270 0.397377 0.434121
O O6 0.271982 0.614618 0.376713
O O7 0.736023 0.608962 0.405155
O O8 0.760583 0.601602 0.289797
O O9 0.123560 0.525923 0.949523
O O10 0.243772 0.348358 0.053750
O O11 0.064260 0.468626 0.169665
O O12 0.979321 0.272627 0.058589
O O13 0.422674 0.720131 0.497269
O O14 0.578055 0.871458 0.579659
O O15 0.168526 0.621694 0.627900
#
# Coordination Sequence:
#
# PCOD9255903 Si02
#       8
#     4   8   8   8   8   8   8   8
#     4  12  24  34  56  90 112 148 198 246 276 342
#     4  11  19  28  50  87 118 132 179 237 284 319
#     4  10  21  36  57  84 107 150 194 236 276 333
#     4  11  18  35  57  80 114 147 184 234 282 337
#     4  11  18  35  59  85 110 144 194 227 290 337
#     4  10  17  33  56  81 111 142 182 236 271 334
#     4   9  18  36  62  80 110 148 188 226 282 346
#     4  10  18  29  51  89 111 137 176 234 291 329
#
# _framework density 22.233899999999998
#
# number of rings (size 3 to 8) (size 9 to 14) (size 15 to 20)
#    0.000    1.600    6.667    2.800    0.000    0.000 
#    0.000    2.667    0.000    4.800    6.933    0.000 
#    0.000    0.000    0.000    0.000    0.000    0.000 
#
# Total GULP energy -167352.471580 kJ/mol
# GULP energy per Si atom -5578.415719 kJ/mol
# Density = 2.218329 g / cm^3
# Si number density = 22.233900 Si / 1000 Ang^3
#
#
#
# Elastic Constant Matrix: (Units=GPa)
#
#
# Indices 1 2 3 4 5 6 
#
# 1 69.4676 1.9282 2.8467 0.0000 35.9216 0.0000
# 2 1.9282 109.2542 7.0076 0.0000 15.6719 0.0000
# 3 2.8467 7.0076 42.0288 0.0000 7.5522 0.0000
# 4 0.0000 0.0000 0.0000 -5.6777 0.0000 1.7225
# 5 35.9216 15.6719 7.5522 0.0000 32.2343 0.0000
# 6 0.0000 0.0000 0.0000 1.7225 0.0000 31.1981
#
#
#
# Elastic Compliance Matrix: (Units=1/GPa)
#
#
# Indices 1 2 3 4 5 6 
#
# 1 0.037844 0.005628 0.004769 0.000000 -0.046027 0.000000
# 2 0.005628 0.010703 -0.000108 0.000000 -0.011451 0.000000
# 3 0.004769 -0.000108 0.025508 0.000000 -0.011238 0.000000
# 4 0.000000 0.000000 0.000000 -0.173227 0.000000 0.009564
# 5 -0.046027 -0.011451 -0.011238 0.000000 0.090515 0.000000
# 6 0.000000 0.000000 0.000000 0.009564 0.000000 0.031525
#
#
# Mechanical properties :
#
#
# Convention : Reuss Voigt Hill
#
# Bulk Modulus (GPa) = 10.56716 27.14618 18.85667
# Shear Modulus (GPa) = 147.78582 25.48216 86.63399
#
# Velocity S-wave (km/s) = 8.16168 3.38907 6.24895
# Velocity P-wave (km/s) = 9.67369 5.24884 7.78237
#
# Compressibility (1/GPa) = 0.09463284
#
# Stress axis : x y z
#
# Youngs Moduli (GPa) = 26.42440 93.43072 39.20397
#
# Poissons Ratio (x) = -0.52587 -0.18696
# Poissons Ratio (y) = -0.14873 0.00424
# Poissons Ratio (z) = -0.12601 0.01011
#
# Static dielectric constant tensor:
#      x y z
#    x 1.872580 0.000000 0.043020 
#    y 0.000000 1.844650 0.000000 
#    z 0.043020 0.000000 1.855600 
# 
# From -- ./inp_files/252133.got.cif
#   From: 2010.05.17/outbox.cif.g08.bks.cpg/sg15_127_cif.got.tgz:252133.got - 2010.06.03 18:47:42.
