data_PCOD9255814
_publ_section_title
;
Structure prediction by ZEFSAII (Michael W. Deem and Ramdas Pophale) SiO2 
 PCOD9255814
Probable space group: C 2/C
;
_chemical_formula_sum "Si O2"
_cell_formula_units_Z 56
_cell_length_a 14.888402
_cell_length_b 22.337907
_cell_length_c 14.612292
_cell_angle_alpha 90.000000
_cell_angle_beta 146.521141
_cell_angle_gamma 90.000000
_cell_volume 2680.749305
_symmetry_space_group_name_H-M "C 2/C"
_symmetry_group_IT_number 15
_symmetry_cell_setting 'monoclinic'
loop_
_space_group_symop_operation_xyz
x,y,z
-x,y,1/2-z
-x,-y,-z
x,-y,1/2+z
1/2+x,1/2+y,z
1/2-x,1/2+y,1/2-z
1/2-x,1/2-y,-z
1/2+x,1/2-y,1/2+z
loop_
_atom_site_type_symbol
_atom_site_label
_atom_site_fract_x
_atom_site_fract_y
_atom_site_fract_z
Si Si1 0.811134 0.078133 0.574567
Si Si2 0.180449 0.567084 0.786392
Si Si3 0.260133 0.555571 0.250146
Si Si4 0.945122 0.263640 0.810969
Si Si5 0.131937 0.160543 0.040084
Si Si6 0.912864 0.625617 0.963302
Si Si7 0.301892 0.953772 0.010135
O O1 0.793821 0.130243 0.487401
O O2 0.720229 0.093179 0.589053
O O3 0.000000 0.067575 0.750000
O O4 0.729126 0.018115 0.471058
O O5 0.258599 0.509711 0.798388
O O6 0.158566 0.622530 0.698937
O O7 0.247313 0.585577 0.943479
O O8 0.991215 0.550542 0.645794
O O9 0.377394 0.605238 0.397143
O O10 0.288308 0.550755 0.164416
O O11 0.079914 0.585877 0.108542
O O12 0.000000 0.263093 0.750000
O O13 0.765571 0.289197 0.676235
O O14 0.974136 0.197499 0.875736
O O15 0.050564 0.311992 0.957019
#
# Coordination Sequence:
#
# PCOD9255814 Si02
#       7
#     8   8   8   8   8   8   8
#     4  12  22  32  52  80 120 152 182 217 281 348
#     4  10  17  32  61  82 106 142 192 234 279 324
#     4  10  18  34  58  82 108 141 191 236 281 325
#     4  11  22  36  55  78 114 145 190 231 280 330
#     4  11  24  36  55  82 113 152 185 232 279 335
#     4  10  20  34  52  81 111 148 190 231 272 330
#     4  10  19  33  55  85 111 142 185 234 278 332
#
# _framework density 20.889683000000002
#
# number of rings (size 3 to 8) (size 9 to 14) (size 15 to 20)
#    0.000    1.429    5.714    1.714    2.000    0.000 
#    0.000    2.857    0.000    0.857    0.000    0.000 
#    0.000    0.000    0.000    0.000    0.000    0.000 
#
# Total GULP energy -156137.716382 kJ/mol
# GULP energy per Si atom -5576.347014 kJ/mol
# Density = 2.084214 g / cm^3
# Si number density = 20.889683 Si / 1000 Ang^3
#
#
#
# Elastic Constant Matrix: (Units=GPa)
#
#
# Indices 1 2 3 4 5 6 
#
# 1 17.5102 22.6677 52.6058 0.0000 -39.9684 0.0000
# 2 22.6677 75.6660 30.9767 0.0000 -13.7067 0.0000
# 3 52.6058 30.9767 43.4092 0.0000 -30.4474 0.0000
# 4 0.0000 0.0000 0.0000 43.5638 0.0000 -9.0895
# 5 -39.9684 -13.7067 -30.4474 0.0000 42.3551 0.0000
# 6 0.0000 0.0000 0.0000 -9.0895 0.0000 26.3108
#
#
#
# Elastic Compliance Matrix: (Units=1/GPa)
#
#
# Indices 1 2 3 4 5 6 
#
# 1 -0.019839 -0.005382 0.027290 0.000000 -0.000845 0.000000
# 2 -0.005382 0.018343 -0.012033 0.000000 -0.007793 0.000000
# 3 0.027290 -0.012033 0.028003 0.000000 0.041988 0.000000
# 4 0.000000 0.000000 0.000000 0.024738 0.000000 0.008546
# 5 -0.000845 -0.007793 0.041988 0.000000 0.050474 0.000000
# 6 0.000000 0.000000 0.000000 0.008546 0.000000 0.040960
#
#
# Mechanical properties :
#
#
# Convention : Reuss Voigt Hill
#
# Bulk Modulus (GPa) = 21.61894 38.78730 30.20312
# Shear Modulus (GPa) = 36.14082 24.46828 30.30455
#
# Velocity S-wave (km/s) = 4.16394 3.42615 3.81293
# Velocity P-wave (km/s) = 5.78700 5.85315 5.82017
#
# Compressibility (1/GPa) = 0.04625574
#
# Stress axis : x y z
#
# Youngs Moduli (GPa) = -50.40577 54.51706 35.71075
#
# Poissons Ratio (x) = 0.29340 -0.97454
# Poissons Ratio (y) = -0.27128 0.42972
# Poissons Ratio (z) = 1.37556 0.65602
#
# Static dielectric constant tensor:
#      x y z
#    x 1.761940 0.000000 -0.042030 
#    y 0.000000 1.765140 0.000000 
#    z -0.042030 0.000000 1.874060 
# 
# From -- ./inp_files/156239.got.cif
#   From: 2010.05.17/outbox.cif.g08.bks.cpg/sg15_79_cif.got.tgz:156239.got - 2010.06.03 18:47:42.
