data_PCOD9255528
_publ_section_title
;
Structure prediction by ZEFSAII (Michael W. Deem and Ramdas Pophale) SiO2 
 PCOD9255528
Probable space group: C 2/C
;
_chemical_formula_sum "Si O2"
_cell_formula_units_Z 56
_cell_length_a 12.311810
_cell_length_b 12.988533
_cell_length_c 28.391836
_cell_angle_alpha 90.000000
_cell_angle_beta 148.696720
_cell_angle_gamma 90.000000
_cell_volume 2358.945469
_symmetry_space_group_name_H-M "C 2/C"
_symmetry_group_IT_number 15
_symmetry_cell_setting 'monoclinic'
loop_
_space_group_symop_operation_xyz
x,y,z
-x,y,1/2-z
-x,-y,-z
x,-y,1/2+z
1/2+x,1/2+y,z
1/2-x,1/2+y,1/2-z
1/2-x,1/2-y,-z
1/2+x,1/2-y,1/2+z
loop_
_atom_site_type_symbol
_atom_site_label
_atom_site_fract_x
_atom_site_fract_y
_atom_site_fract_z
Si Si1 0.026607 0.038263 0.316125
Si Si2 0.127778 0.511597 0.732138
Si Si3 0.350848 0.187444 0.154983
Si Si4 0.506650 0.765825 0.887476
Si Si5 0.761404 0.927281 0.025859
Si Si6 0.461848 0.458775 0.933616
Si Si7 0.027997 0.734597 0.704490
O O1 0.082419 0.157878 0.349085
O O2 0.000000 0.028249 0.250000
O O3 0.804244 0.009093 0.258098
O O4 0.192090 0.964934 0.404174
O O5 0.269787 0.510309 0.832530
O O6 0.006508 0.618175 0.678369
O O7 0.970230 0.417045 0.681306
O O8 0.500000 0.234368 0.250000
O O9 0.350527 0.245918 0.106283
O O10 0.128471 0.156481 0.093391
O O11 0.576424 0.658630 0.936184
O O12 0.270393 0.759499 0.784593
O O13 0.549998 0.867728 0.934051
O O14 0.830123 0.024548 0.019702
O O15 0.500000 0.500000 0.000000
O O16 0.000000 0.725227 0.750000
#
# Coordination Sequence:
#
# PCOD9255528 Si02
#       7
#     8   8   8   8   8   8   8
#     4  10  21  38  59  84 113 154 192 241 289 335
#     4  10  20  36  58  83 116 147 194 239 280 344
#     4  10  20  32  56  89 113 146 191 243 287 331
#     4  11  20  36  58  86 116 153 191 234 291 355
#     4  10  22  37  56  85 122 151 189 237 293 351
#     4  10  17  31  53  84 116 146 179 232 287 333
#     4  11  21  37  60  84 111 156 195 231 285 350
#
# _framework density 23.739422999999999
#
# number of rings (size 3 to 8) (size 9 to 14) (size 15 to 20)
#    0.000    1.714    5.714    1.286    0.000    0.571 
#    0.000    2.857    0.000    0.857    0.000    0.000 
#    0.000    0.000    0.000    0.000    0.000    0.000 
#
# Total GULP energy -156014.091012 kJ/mol
# GULP energy per Si atom -5571.931822 kJ/mol
# Density = 2.368539 g / cm^3
# Si number density = 23.739423 Si / 1000 Ang^3
#
#
#
# Elastic Constant Matrix: (Units=GPa)
#
#
# Indices 1 2 3 4 5 6 
#
# 1 79.6511 7.4296 -3.3938 0.0000 -27.2536 0.0000
# 2 7.4296 90.7094 9.1201 0.0000 -3.1455 0.0000
# 3 -3.3938 9.1201 61.8835 0.0002 -25.1432 0.0002
# 4 0.0000 0.0000 0.0002 36.7175 0.0000 15.1601
# 5 -27.2536 -3.1455 -25.1432 0.0000 29.8553 0.0000
# 6 0.0000 0.0000 0.0002 15.1601 0.0000 41.1746
#
#
#
# Elastic Compliance Matrix: (Units=1/GPa)
#
#
# Indices 1 2 3 4 5 6 
#
# 1 0.027125 -0.002655 0.017977 0.000000 0.039622 0.000000
# 2 -0.002655 0.011452 -0.003539 0.000000 -0.004198 0.000000
# 3 0.017977 -0.003539 0.036762 0.000000 0.046997 0.000000
# 4 0.000000 0.000000 0.000000 0.032117 0.000000 -0.011825
# 5 0.039622 -0.004198 0.046997 0.000000 0.108801 0.000000
# 6 0.000000 0.000000 0.000000 -0.011825 0.000000 0.028641
#
#
# Mechanical properties :
#
#
# Convention : Reuss Voigt Hill
#
# Bulk Modulus (GPa) = 10.11068 28.72839 19.41954
# Shear Modulus (GPa) = 19.66177 36.15536 27.90856
#
# Velocity S-wave (km/s) = 2.88103 3.90681 3.43245
# Velocity P-wave (km/s) = 3.91604 5.69901 4.88948
#
# Compressibility (1/GPa) = 0.09890533
#
# Stress axis : x y z
#
# Youngs Moduli (GPa) = 36.86576 87.32150 27.20219
#
# Poissons Ratio (x) = 0.23186 -0.48902
# Poissons Ratio (y) = 0.09789 0.09626
# Poissons Ratio (z) = -0.66274 0.30901
#
# Static dielectric constant tensor:
#      x y z
#    x 1.979430 0.000000 0.016900 
#    y 0.000000 2.001850 0.000000 
#    z 0.016900 0.000000 2.005230 
# 
# From -- ./inp_files/292877.got.cif
#   From: 2010.05.17/outbox.cif.g08.bks.cpg/sg15_147_cif.got.tgz:292877.got - 2010.06.03 18:47:42.
