data_PCOD9255277
_publ_section_title
;
Structure prediction by ZEFSAII (Michael W. Deem and Ramdas Pophale) SiO2 
 PCOD9255277
Probable space group: C 2/C
;
_chemical_formula_sum "Si O2"
_cell_formula_units_Z 40
_cell_length_a 8.762032
_cell_length_b 28.465803
_cell_length_c 9.360447
_cell_angle_alpha 90.000000
_cell_angle_beta 127.065336
_cell_angle_gamma 90.000000
_cell_volume 1862.944204
_symmetry_space_group_name_H-M "C 2/C"
_symmetry_group_IT_number 15
_symmetry_cell_setting 'monoclinic'
loop_
_space_group_symop_operation_xyz
x,y,z
-x,y,1/2-z
-x,-y,-z
x,-y,1/2+z
1/2+x,1/2+y,z
1/2-x,1/2+y,1/2-z
1/2-x,1/2-y,-z
1/2+x,1/2-y,1/2+z
loop_
_atom_site_type_symbol
_atom_site_label
_atom_site_fract_x
_atom_site_fract_y
_atom_site_fract_z
Si Si1 0.670567 0.464303 0.150035
Si Si2 0.203241 0.195932 0.448454
Si Si3 0.955091 0.141246 0.883799
Si Si4 0.843016 0.364113 0.781510
Si Si5 0.767868 0.045099 0.120906
O O1 0.604783 0.413290 0.162971
O O2 0.758860 0.494056 0.326831
O O3 0.500000 0.500000 0.000000
O O4 0.790733 0.455632 0.075824
O O5 0.250000 0.250000 0.500000
O O6 0.347667 0.170809 0.419420
O O7 0.000000 0.192577 0.250000
O O8 0.189105 0.169432 0.593319
O O9 0.000000 0.159917 0.750000
O O10 0.147434 0.141815 0.084389
O O11 0.837108 0.416065 0.845500
O O12 0.000000 0.357386 0.750000
O O13 0.000000 0.057330 0.250000
#
# Coordination Sequence:
#
# PCOD9255277 Si02
#       5
#     8   8   8   8   8
#     4  10  17  29  61  86 116 153 215 235 288 353
#     4  10  23  44  68  87 118 160 205 256 310 363
#     4  11  21  38  64  93 118 158 208 253 297 369
#     4  11  22  39  60  89 126 160 196 252 311 361
#     4  10  17  33  57  84 117 164 205 242 285 362
#
# _framework density 21.471391000000001
#
# number of rings (size 3 to 8) (size 9 to 14) (size 15 to 20)
#    0.000    1.600    6.000    2.400    0.000    2.400 
#    0.000    5.000    0.000    0.000    0.000    0.000 
#    0.000    0.000    0.000    0.000    0.000    0.000 
#
# Total GULP energy -111691.106670 kJ/mol
# GULP energy per Si atom -5584.555333 kJ/mol
# Density = 2.142252 g / cm^3
# Si number density = 21.471391 Si / 1000 Ang^3
#
#
#
# Elastic Constant Matrix: (Units=GPa)
#
#
# Indices 1 2 3 4 5 6 
#
# 1 98.9502 65.0842 51.4917 0.0000 -53.0853 0.0000
# 2 65.0842 149.7383 43.4430 0.0000 -40.4609 0.0000
# 3 51.4917 43.4430 106.8271 0.0000 -54.3748 0.0000
# 4 0.0000 0.0000 0.0000 38.5511 0.0000 -4.6814
# 5 -53.0853 -40.4609 -54.3748 0.0000 53.8328 0.0000
# 6 0.0000 0.0000 0.0000 -4.6814 0.0000 26.2052
#
#
#
# Elastic Compliance Matrix: (Units=1/GPa)
#
#
# Indices 1 2 3 4 5 6 
#
# 1 0.024302 -0.005156 0.001252 0.000000 0.021354 0.000000
# 2 -0.005156 0.009483 -0.000682 0.000000 0.001354 0.000000
# 3 0.001252 -0.000682 0.019351 0.000000 0.020268 0.000000
# 4 0.000000 0.000000 0.000000 0.026515 0.000000 0.004737
# 5 0.021354 0.001354 0.020268 0.000000 0.061124 0.000000
# 6 0.000000 0.000000 0.000000 0.004737 0.000000 0.039007
#
#
# Mechanical properties :
#
#
# Convention : Reuss Voigt Hill
#
# Bulk Modulus (GPa) = 22.74547 75.06149 48.90348
# Shear Modulus (GPa) = 24.55697 36.75093 30.65395
#
# Velocity S-wave (km/s) = 3.38554 4.14167 3.78254
# Velocity P-wave (km/s) = 5.08910 7.60959 6.47321
#
# Compressibility (1/GPa) = 0.04396480
#
# Stress axis : x y z
#
# Youngs Moduli (GPa) = 41.14886 105.44923 51.67644
#
# Poissons Ratio (x) = 0.54371 -0.06471
# Poissons Ratio (y) = 0.21217 0.03523
# Poissons Ratio (z) = -0.05152 0.07190
#
# Static dielectric constant tensor:
#      x y z
#    x 1.871270 0.000000 0.032230 
#    y 0.000000 1.775590 0.000000 
#    z 0.032230 0.000000 1.803280 
# 
# From -- ./inp_files/23727.got.cif
#   From: 2010.05.17/outbox.cif.g08.bks.cpg/sg15_12_cif.got.tgz:23727.got - 2010.06.03 18:47:42.
