data_PCOD9255755
_publ_section_title
;
Structure prediction by ZEFSAII (Michael W. Deem and Ramdas Pophale) SiO2 
 PCOD9255755
Probable space group: C 2/C
;
_chemical_formula_sum "Si O2"
_cell_formula_units_Z 56
_cell_length_a 11.338663
_cell_length_b 22.290553
_cell_length_c 17.215414
_cell_angle_alpha 90.000000
_cell_angle_beta 131.407686
_cell_angle_gamma 90.000000
_cell_volume 3263.430493
_symmetry_space_group_name_H-M "C 2/C"
_symmetry_group_IT_number 15
_symmetry_cell_setting 'monoclinic'
loop_
_space_group_symop_operation_xyz
x,y,z
-x,y,1/2-z
-x,-y,-z
x,-y,1/2+z
1/2+x,1/2+y,z
1/2-x,1/2+y,1/2-z
1/2-x,1/2-y,-z
1/2+x,1/2-y,1/2+z
loop_
_atom_site_type_symbol
_atom_site_label
_atom_site_fract_x
_atom_site_fract_y
_atom_site_fract_z
Si Si1 0.827588 0.432867 0.940043
Si Si2 0.313117 0.066056 0.895691
Si Si3 0.739453 0.308934 0.845262
Si Si4 0.135639 0.818771 0.370359
Si Si5 0.504018 0.113105 0.844969
Si Si6 0.950864 0.241169 0.514634
Si Si7 0.029032 0.756697 0.880246
O O1 0.764091 0.497976 0.890415
O O2 0.735351 0.379368 0.859335
O O3 0.854171 0.418340 0.043815
O O4 0.010400 0.429572 0.990972
O O5 0.197273 0.114572 0.880871
O O6 0.351780 0.084929 0.823046
O O7 0.681597 0.278006 0.899999
O O8 0.618124 0.284471 0.730083
O O9 0.915053 0.288301 0.901367
O O10 0.071887 0.807676 0.428975
O O11 0.286922 0.775355 0.428362
O O12 0.000000 0.803533 0.250000
O O13 0.500000 0.105855 0.750000
O O14 0.512677 0.184210 0.868978
O O15 0.013352 0.218526 0.459771
#
# Coordination Sequence:
#
# PCOD9255755 Si02
#       7
#     8   8   8   8   8   8   8
#     4   9  19  36  60  74 112 152 188 228 282 345
#     4   9  19  39  55  76 108 151 196 225 276 339
#     4  11  20  35  58  82 121 146 185 239 301 331
#     4  11  22  37  56  81 115 160 193 231 282 350
#     4  10  17  32  56  89 107 136 191 238 282 339
#     4  11  21  34  56  83 119 145 192 239 289 340
#     4  11  21  32  55  94 118 144 185 244 299 342
#
# _framework density 17.159856999999999
#
# number of rings (size 3 to 8) (size 9 to 14) (size 15 to 20)
#    0.857    0.857    5.714    1.286    0.000    0.000 
#    2.571    1.429    0.000    0.857    0.000    0.000 
#    0.000    0.000    0.000    0.000    0.000    0.000 
#
# Total GULP energy -155877.215880 kJ/mol
# GULP energy per Si atom -5567.043424 kJ/mol
# Density = 1.712080 g / cm^3
# Si number density = 17.159857 Si / 1000 Ang^3
#
#
#
# Elastic Constant Matrix: (Units=GPa)
#
#
# Indices 1 2 3 4 5 6 
#
# 1 90.1388 46.0834 45.4196 0.0000 -18.9797 0.0000
# 2 46.0834 117.3376 45.6136 0.0000 -18.1815 0.0000
# 3 45.4196 45.6136 73.5267 0.0000 -6.2968 0.0000
# 4 0.0000 0.0000 0.0000 14.3262 0.0000 1.8910
# 5 -18.9797 -18.1815 -6.2968 0.0000 32.4834 0.0000
# 6 0.0000 0.0000 0.0000 1.8910 0.0000 20.3092
#
#
#
# Elastic Compliance Matrix: (Units=1/GPa)
#
#
# Indices 1 2 3 4 5 6 
#
# 1 0.018711 -0.002527 -0.009330 0.000000 0.007709 0.000000
# 2 -0.002527 0.012439 -0.005782 0.000000 0.004365 0.000000
# 3 -0.009330 -0.005782 0.022582 0.000000 -0.004310 0.000000
# 4 0.000000 0.000000 0.000000 0.070671 0.000000 -0.006580
# 5 0.007709 0.004365 -0.004310 0.000000 0.036897 0.000000
# 6 0.000000 0.000000 0.000000 -0.006580 0.000000 0.049851
#
#
# Mechanical properties :
#
#
# Convention : Reuss Voigt Hill
#
# Bulk Modulus (GPa) = 54.19112 61.69290 57.94201
# Shear Modulus (GPa) = 19.79571 23.01617 21.40594
#
# Velocity S-wave (km/s) = 3.40016 3.66632 3.53575
# Velocity P-wave (km/s) = 6.86029 7.34524 7.10690
#
# Compressibility (1/GPa) = 0.01845321
#
# Stress axis : x y z
#
# Youngs Moduli (GPa) = 53.44583 80.39351 44.28331
#
# Poissons Ratio (x) = 0.20314 0.41318
# Poissons Ratio (y) = 0.13505 0.25604
# Poissons Ratio (z) = 0.49866 0.46483
#
# Static dielectric constant tensor:
#      x y z
#    x 1.600390 0.000000 0.011370 
#    y 0.000000 1.570160 0.000000 
#    z 0.011370 0.000000 1.621120 
# 
# From -- ./inp_files/200212.got.cif
#   From: 2010.05.17/outbox.cif.g08.bks.cpg/sg15_101_cif.got.tgz:200212.got - 2010.06.03 18:47:42.
