data_PCOD9255066
_publ_section_title
;
Structure prediction by ZEFSAII (Michael W. Deem and Ramdas Pophale) SiO2 
 PCOD9255066
Probable space group: C 2/C
;
_chemical_formula_sum "Si O2"
_cell_formula_units_Z 52
_cell_length_a 10.460242
_cell_length_b 19.152838
_cell_length_c 14.217919
_cell_angle_alpha 90.000000
_cell_angle_beta 72.122800
_cell_angle_gamma 90.000000
_cell_volume 2710.931627
_symmetry_space_group_name_H-M "C 2/C"
_symmetry_group_IT_number 15
_symmetry_cell_setting 'monoclinic'
loop_
_space_group_symop_operation_xyz
x,y,z
-x,y,1/2-z
-x,-y,-z
x,-y,1/2+z
1/2+x,1/2+y,z
1/2-x,1/2+y,1/2-z
1/2-x,1/2-y,-z
1/2+x,1/2-y,1/2+z
loop_
_atom_site_type_symbol
_atom_site_label
_atom_site_fract_x
_atom_site_fract_y
_atom_site_fract_z
Si Si1 0.000000 0.280497 0.250000
Si Si2 0.886944 0.169563 0.950100
Si Si3 0.919064 0.049638 0.674742
Si Si4 0.929573 0.284496 0.672687
Si Si5 0.763545 0.338309 0.198217
Si Si6 0.929360 0.099837 0.123269
Si Si7 0.324341 0.345042 0.846098
O O1 0.912711 0.323634 0.196979
O O2 0.897553 0.230314 0.329134
O O3 0.960852 0.242366 0.912757
O O4 0.763367 0.162433 0.906761
O O5 0.989487 0.107883 0.895449
O O6 0.864045 0.152058 0.063106
O O7 0.898434 0.981529 0.616647
O O8 0.000000 0.026128 0.750000
O O9 0.790119 0.090542 0.742628
O O10 0.832792 0.223720 0.739171
O O11 0.834218 0.332122 0.628771
O O12 0.000000 0.317091 0.750000
O O13 0.866837 0.120498 0.237584
O O14 0.091313 0.112936 0.094257
#
# Coordination Sequence:
#
# PCOD9255066 Si02
#       7
#     4   8   8   8   8   8   8
#     4   8  14  30  46  64  82 114 158 178 216 272
#     4   9  17  26  47  71  88 113 153 198 221 252
#     4   9  15  28  45  65  89 119 149 184 226 267
#     4   8  15  31  46  64  89 116 152 186 224 267
#     4   8  15  27  48  66  84 115 151 192 222 259
#     4  10  17  28  43  68  94 118 150 186 229 266
#     4   9  18  29  46  64  93 127 144 181 230 279
#
# _framework density 19.181598000000001
#
# number of rings (size 3 to 8) (size 9 to 14) (size 15 to 20)
#    0.000    3.385    1.538    2.308    0.000    0.615 
#    0.000   12.308    1.692    0.923    0.000    0.000 
#    0.000    0.000    0.000    0.000    0.000    0.000 
#
# Total GULP energy -144780.184851 kJ/mol
# GULP energy per Si atom -5568.468648 kJ/mol
# Density = 1.913794 g / cm^3
# Si number density = 19.181598 Si / 1000 Ang^3
#
#
#
# Elastic Constant Matrix: (Units=GPa)
#
#
# Indices 1 2 3 4 5 6 
#
# 1 86.5242 33.2630 15.8912 0.0000 30.3610 0.0000
# 2 33.2630 54.6298 7.2828 0.0000 8.1779 0.0000
# 3 15.8912 7.2828 45.7812 0.0000 15.1704 0.0000
# 4 0.0000 0.0000 0.0000 15.3333 0.0000 5.8324
# 5 30.3610 8.1779 15.1704 0.0000 20.9387 0.0000
# 6 0.0000 0.0000 0.0000 5.8324 0.0000 10.1987
#
#
#
# Elastic Compliance Matrix: (Units=1/GPa)
#
#
# Indices 1 2 3 4 5 6 
#
# 1 0.030948 -0.013036 0.005940 0.000000 -0.044086 0.000000
# 2 -0.013036 0.024953 -0.003262 0.000000 0.011519 0.000000
# 3 0.005940 -0.003262 0.029914 0.000000 -0.029012 0.000000
# 4 0.000000 0.000000 0.000000 0.083348 0.000000 -0.047665
# 5 -0.044086 0.011519 -0.029012 0.000000 0.128204 0.000000
# 6 0.000000 0.000000 0.000000 -0.047665 0.000000 0.125310
#
#
# Mechanical properties :
#
#
# Convention : Reuss Voigt Hill
#
# Bulk Modulus (GPa) = 15.36112 33.31212 24.33662
# Shear Modulus (GPa) = 10.75061 17.99403 14.37232
#
# Velocity S-wave (km/s) = 2.36998 3.06614 2.74026
# Velocity P-wave (km/s) = 3.93887 5.47169 4.76729
#
# Compressibility (1/GPa) = 0.06509942
#
# Stress axis : x y z
#
# Youngs Moduli (GPa) = 32.31275 40.07598 33.42960
#
# Poissons Ratio (x) = 0.52242 -0.19858
# Poissons Ratio (y) = 0.42122 0.10904
# Poissons Ratio (z) = -0.19194 0.13071
#
# Static dielectric constant tensor:
#      x y z
#    x 1.696920 0.000000 0.009730 
#    y 0.000000 1.692910 0.000000 
#    z 0.009730 0.000000 1.739140 
# 
# From -- ./inp_files/146448.got.cif
#   From: 2010.05.17/outbox.cif.g08.bks.cpg/sg15_74_cif.got.tgz:146448.got - 2010.06.03 18:47:42.
