data_PCOD9255705
_publ_section_title
;
Structure prediction by ZEFSAII (Michael W. Deem and Ramdas Pophale) SiO2 
 PCOD9255705
Probable space group: C 2/C
;
_chemical_formula_sum "Si O2"
_cell_formula_units_Z 48
_cell_length_a 13.379578
_cell_length_b 18.369610
_cell_length_c 11.657031
_cell_angle_alpha 90.000000
_cell_angle_beta 54.780945
_cell_angle_gamma 90.000000
_cell_volume 2340.601363
_symmetry_space_group_name_H-M "C 2/C"
_symmetry_group_IT_number 15
_symmetry_cell_setting 'monoclinic'
loop_
_space_group_symop_operation_xyz
x,y,z
-x,y,1/2-z
-x,-y,-z
x,-y,1/2+z
1/2+x,1/2+y,z
1/2-x,1/2+y,1/2-z
1/2-x,1/2-y,-z
1/2+x,1/2-y,1/2+z
loop_
_atom_site_type_symbol
_atom_site_label
_atom_site_fract_x
_atom_site_fract_y
_atom_site_fract_z
Si Si1 0.914107 0.186773 0.051130
Si Si2 0.500000 0.073884 0.750000
Si Si3 0.937649 0.545783 0.440820
Si Si4 0.339281 0.847904 0.168846
Si Si5 0.339645 0.275886 0.041827
Si Si6 0.849842 0.337927 0.730732
Si Si7 0.500000 0.719655 0.750000
O O1 0.870976 0.270715 0.091858
O O2 0.791520 0.141179 0.156705
O O3 0.964886 0.176947 0.888576
O O4 0.027964 0.187196 0.065202
O O5 0.557999 0.122802 0.810486
O O6 0.594956 0.015870 0.630548
O O7 0.047538 0.600295 0.331444
O O8 0.000000 0.500000 0.500000
O O9 0.832927 0.594272 0.569397
O O10 0.227873 0.831272 0.327070
O O11 0.359940 0.202176 0.101759
O O12 0.250000 0.250000 0.000000
O O13 0.889221 0.274623 0.793139
#
# Coordination Sequence:
#
# PCOD9255705 Si02
#       7
#     8   4   8   8   8   8   4
#     4  10  20  34  54  87 118 146 181 241 299 349
#     4  10  21  34  56  76 108 154 193 240 274 322
#     4  10  20  34  53  79 109 147 193 233 272 338
#     4  10  19  33  53  81 111 140 193 233 280 345
#     4  10  20  33  57  81 118 152 180 239 298 353
#     4  10  20  34  53  83 115 145 191 235 293 344
#     4  10  17  32  54  80 114 152 177 232 292 350
#
# _framework density 20.507550999999999
#
# number of rings (size 3 to 8) (size 9 to 14) (size 15 to 20)
#    0.000    2.000    3.333    2.000    2.333    2.000 
#    0.000    0.000    0.000    4.000    0.000    7.000 
#    0.000    0.000    0.000    0.000    0.000    0.000 
#
# Total GULP energy -133624.750147 kJ/mol
# GULP energy per Si atom -5567.697923 kJ/mol
# Density = 2.046087 g / cm^3
# Si number density = 20.507551 Si / 1000 Ang^3
#
#
#
# Elastic Constant Matrix: (Units=GPa)
#
#
# Indices 1 2 3 4 5 6 
#
# 1 106.2410 5.0569 35.4467 0.0000 -3.5977 0.0000
# 2 5.0569 51.0775 16.9017 0.0000 2.1866 0.0000
# 3 35.4467 16.9017 77.0924 0.0000 -13.4293 0.0000
# 4 0.0000 0.0000 0.0000 21.1758 0.0000 8.7608
# 5 -3.5977 2.1866 -13.4293 0.0000 38.0005 0.0000
# 6 0.0000 0.0000 0.0000 8.7608 0.0000 17.0921
#
#
#
# Elastic Compliance Matrix: (Units=1/GPa)
#
#
# Indices 1 2 3 4 5 6 
#
# 1 0.011167 0.000739 -0.005455 0.000000 -0.000913 0.000000
# 2 0.000739 0.021493 -0.005600 0.000000 -0.003146 0.000000
# 3 -0.005455 -0.005600 0.017767 0.000000 0.006085 0.000000
# 4 0.000000 0.000000 0.000000 0.059933 0.000000 -0.030720
# 5 -0.000913 -0.003146 0.006085 0.000000 0.028560 0.000000
# 6 0.000000 0.000000 0.000000 -0.030720 0.000000 0.074252
#
#
# Mechanical properties :
#
#
# Convention : Reuss Voigt Hill
#
# Bulk Modulus (GPa) = 33.56383 38.80240 36.18311
# Shear Modulus (GPa) = 20.51400 27.05407 23.78403
#
# Velocity S-wave (km/s) = 3.16621 3.63605 3.40923
# Velocity P-wave (km/s) = 5.45606 6.04896 5.76014
#
# Compressibility (1/GPa) = 0.02979398
#
# Stress axis : x y z
#
# Youngs Moduli (GPa) = 89.55237 46.52772 56.28268
#
# Poissons Ratio (x) = -0.03437 0.30705
# Poissons Ratio (y) = -0.06616 0.31517
# Poissons Ratio (z) = 0.48855 0.26054
#
# Static dielectric constant tensor:
#      x y z
#    x 1.844720 0.000000 0.015590 
#    y 0.000000 1.731270 0.000000 
#    z 0.015590 0.000000 1.910960 
# 
# From -- ./inp_files/88585.got.cif
#   From: 2010.05.17/outbox.cif.g08.bks.cpg/sg15_45_cif.got.tgz:88585.got - 2010.06.03 18:47:42.
