data_PCOD9255713
_publ_section_title
;
Structure prediction by ZEFSAII (Michael W. Deem and Ramdas Pophale) SiO2 
 PCOD9255713
Probable space group: C 2/C
;
_chemical_formula_sum "Si O2"
_cell_formula_units_Z 52
_cell_length_a 23.705433
_cell_length_b 15.949941
_cell_length_c 8.913156
_cell_angle_alpha 90.000000
_cell_angle_beta 34.080477
_cell_angle_gamma 90.000000
_cell_volume 1888.439753
_symmetry_space_group_name_H-M "C 2/C"
_symmetry_group_IT_number 15
_symmetry_cell_setting 'monoclinic'
loop_
_space_group_symop_operation_xyz
x,y,z
-x,y,1/2-z
-x,-y,-z
x,-y,1/2+z
1/2+x,1/2+y,z
1/2-x,1/2+y,1/2-z
1/2-x,1/2-y,-z
1/2+x,1/2-y,1/2+z
loop_
_atom_site_type_symbol
_atom_site_label
_atom_site_fract_x
_atom_site_fract_y
_atom_site_fract_z
Si Si1 0.369949 0.522335 0.639619
Si Si2 0.834518 0.550466 0.825201
Si Si3 0.114700 0.877013 0.100742
Si Si4 0.299626 0.659328 0.600614
Si Si5 0.891657 0.306713 0.788632
Si Si6 0.351711 0.833918 0.538075
Si Si7 0.000000 0.445700 0.750000
O O1 0.405451 0.430996 0.505957
O O2 0.376393 0.589323 0.490864
O O3 0.249532 0.511312 0.928714
O O4 0.407907 0.563674 0.707599
O O5 0.770068 0.619256 0.873595
O O6 0.913460 0.510919 0.537505
O O7 0.889758 0.595887 0.839827
O O8 0.236207 0.863274 0.823142
O O9 0.073902 0.784154 0.224133
O O10 0.350580 0.746560 0.447935
O O11 0.225286 0.684995 0.901613
O O12 0.900233 0.313713 0.591083
O O13 0.946221 0.382423 0.752226
#
# Coordination Sequence:
#
# PCOD9255713 Si02
#       7
#     8   8   8   8   8   8   4
#     4  11  18  31  56  87 116 138 176 234 301 329
#     4  10  22  34  53  81 119 151 187 224 279 342
#     4  10  19  32  55  88 113 144 174 242 293 335
#     4  10  17  32  54  85 115 137 176 246 291 329
#     4  10  19  36  57  76 112 151 198 222 274 332
#     4  10  18  32  59  83 106 143 195 240 281 322
#     4  10  24  42  52  76 118 164 196 228 256 330
#
# _framework density 27.535959999999999
#
# number of rings (size 3 to 8) (size 9 to 14) (size 15 to 20)
#    0.000    1.846    4.615    1.385    0.000    1.846 
#    0.000    3.077    0.000    0.923    0.000    0.000 
#    0.000    0.000    0.000    0.000    0.000    0.000 
#
# Total GULP energy -145750.472518 kJ/mol
# GULP energy per Si atom -5605.787405 kJ/mol
# Density = 2.747329 g / cm^3
# Si number density = 27.535960 Si / 1000 Ang^3
#
#
#
# Elastic Constant Matrix: (Units=GPa)
#
#
# Indices 1 2 3 4 5 6 
#
# 1 119.9718 34.2520 20.9303 0.0000 20.0226 0.0000
# 2 34.2520 139.4988 32.6456 0.0000 22.8956 0.0000
# 3 20.9303 32.6456 111.3446 0.0000 2.2504 0.0000
# 4 0.0000 0.0000 0.0000 25.8880 0.0000 18.3402
# 5 20.0226 22.8956 2.2504 0.0000 41.7750 0.0000
# 6 0.0000 0.0000 0.0000 18.3402 0.0000 41.1555
#
#
#
# Elastic Compliance Matrix: (Units=1/GPa)
#
#
# Indices 1 2 3 4 5 6 
#
# 1 0.009598 -0.001436 -0.001307 0.000000 -0.003743 0.000000
# 2 -0.001436 0.008684 -0.002196 0.000000 -0.003953 0.000000
# 3 -0.001307 -0.002196 0.009845 0.000000 0.001300 0.000000
# 4 0.000000 0.000000 0.000000 0.056449 0.000000 -0.025156
# 5 -0.003743 -0.003953 0.001300 0.000000 0.027828 0.000000
# 6 0.000000 0.000000 0.000000 -0.025156 0.000000 0.035508
#
#
# Mechanical properties :
#
#
# Convention : Reuss Voigt Hill
#
# Bulk Modulus (GPa) = 54.80518 60.71901 57.76210
# Shear Modulus (GPa) = 30.51122 40.62951 35.57037
#
# Velocity S-wave (km/s) = 3.33235 3.84540 3.59803
# Velocity P-wave (km/s) = 5.89512 6.46644 6.18738
#
# Compressibility (1/GPa) = 0.01824645
#
# Stress axis : x y z
#
# Youngs Moduli (GPa) = 104.18714 115.15571 101.57931
#
# Poissons Ratio (x) = 0.16542 0.13281
# Poissons Ratio (y) = 0.14966 0.22308
# Poissons Ratio (z) = 0.13622 0.25290
#
# Static dielectric constant tensor:
#      x y z
#    x 2.154450 0.000000 -0.053750 
#    y 0.000000 2.098220 0.000000 
#    z -0.053750 0.000000 2.125850 
# 
# From -- ./inp_files/48608.got.cif
#   From: 2010.05.17/outbox.cif.g08.bks.cpg/sg15_25_cif.got.tgz:48608.got - 2010.06.03 18:47:42.
