data_PCOD9255699
_publ_section_title
;
Structure prediction by ZEFSAII (Michael W. Deem and Ramdas Pophale) SiO2 
 PCOD9255699
Probable space group: C 2/C
;
_chemical_formula_sum "Si O2"
_cell_formula_units_Z 40
_cell_length_a 37.183470
_cell_length_b 4.978309
_cell_length_c 22.110403
_cell_angle_alpha 90.000000
_cell_angle_beta 145.938592
_cell_angle_gamma 90.000000
_cell_volume 2292.341718
_symmetry_space_group_name_H-M "C 2/C"
_symmetry_group_IT_number 15
_symmetry_cell_setting 'monoclinic'
loop_
_space_group_symop_operation_xyz
x,y,z
-x,y,1/2-z
-x,-y,-z
x,-y,1/2+z
1/2+x,1/2+y,z
1/2-x,1/2+y,1/2-z
1/2-x,1/2-y,-z
1/2+x,1/2-y,1/2+z
loop_
_atom_site_type_symbol
_atom_site_label
_atom_site_fract_x
_atom_site_fract_y
_atom_site_fract_z
Si Si1 0.940206 0.759206 0.859483
Si Si2 0.669694 0.009286 0.359900
Si Si3 0.275869 0.657046 0.752183
Si Si4 0.741199 0.486484 0.907333
Si Si5 0.581326 0.238522 0.087060
O O1 0.899782 0.623396 0.748967
O O2 0.922582 0.556962 0.889831
O O3 0.923497 0.050309 0.863776
O O4 0.016815 0.766189 0.957703
O O5 0.714302 0.810143 0.382077
O O6 0.694320 0.004737 0.463014
O O7 0.689475 0.304013 0.363938
O O8 0.259504 0.427449 0.777404
O O9 0.253156 0.555450 0.654731
O O10 0.351872 0.711925 0.852783
#
# Coordination Sequence:
#
# PCOD9255699 Si02
#       5
#     8   8   8   8   8
#     4  10  17  32  54  74 105 126 165 237 263 306
#     4  10  17  32  54  74 105 126 165 237 263 306
#     4  12  22  34  50  72 114 146 173 212 251 336
#     4  10  20  31  49  79 101 134 176 206 274 310
#     4  10  20  31  49  79 101 134 176 206 274 310
#
# _framework density 17.449404999999999
#
# number of rings (size 3 to 8) (size 9 to 14) (size 15 to 20)
#    0.000    1.600    4.000    2.400    0.000    0.000 
#    0.000    0.000    0.000    1.200    0.000    2.800 
#    0.000    0.000    0.000    0.000    0.000    0.000 
#
# Total GULP energy -111455.821989 kJ/mol
# GULP energy per Si atom -5572.791099 kJ/mol
# Density = 1.740969 g / cm^3
# Si number density = 17.449405 Si / 1000 Ang^3
#
#
#
# Elastic Constant Matrix: (Units=GPa)
#
#
# Indices 1 2 3 4 5 6 
#
# 1 56.8875 -0.3097 44.7720 -0.0027 17.4137 -0.0038
# 2 -0.3097 52.6526 4.2910 -0.0091 6.3589 -0.0050
# 3 44.7720 4.2910 165.0817 -0.0016 -0.4594 -0.0008
# 4 -0.0027 -0.0091 -0.0016 28.0521 0.0017 -0.8405
# 5 17.4137 6.3589 -0.4594 0.0017 16.0242 0.0014
# 6 -0.0038 -0.0050 -0.0008 -0.8405 0.0014 14.7576
#
#
#
# Elastic Compliance Matrix: (Units=1/GPa)
#
#
# Indices 1 2 3 4 5 6 
#
# 1 0.041457 0.007003 -0.011560 0.000009 -0.048162 0.000018
# 2 0.007003 0.021180 -0.002494 0.000009 -0.016086 0.000011
# 3 -0.011560 -0.002494 0.009296 -0.000002 0.013818 -0.000005
# 4 0.000009 0.000009 -0.000002 0.035709 -0.000017 0.002034
# 5 -0.048162 -0.016086 0.013818 -0.000017 0.121523 -0.000030
# 6 0.000018 0.000011 -0.000005 0.002034 -0.000030 0.067877
#
#
# Mechanical properties :
#
#
# Convention : Reuss Voigt Hill
#
# Bulk Modulus (GPa) = 17.29218 41.34759 29.31989
# Shear Modulus (GPa) = 15.13216 26.82468 20.97842
#
# Velocity S-wave (km/s) = 2.94802 3.92507 3.47110
# Velocity P-wave (km/s) = 4.63888 6.65498 5.73620
#
# Compressibility (1/GPa) = 0.05782959
#
# Stress axis : x y z
#
# Youngs Moduli (GPa) = 24.12125 47.21521 107.57283
#
# Poissons Ratio (x) = -0.33063 1.24351
# Poissons Ratio (y) = -0.16891 0.26834
# Poissons Ratio (z) = 0.27883 0.11778
#
# Static dielectric constant tensor:
#      x y z
#    x 1.539300 0.000000 -0.014560 
#    y 0.000000 1.603370 0.000000 
#    z -0.014560 0.000000 1.679810 
# 
# From -- ./inp_files/129648.got.cif
#   From: 2010.05.17/outbox.cif.g08.bks.cpg/sg15_65_cif.got.tgz:129648.got - 2010.06.03 18:47:42.
