data_PCOD9255360
_publ_section_title
;
Structure prediction by ZEFSAII (Michael W. Deem and Ramdas Pophale) SiO2 
 PCOD9255360
Probable space group: C 2/C
;
_chemical_formula_sum "Si O2"
_cell_formula_units_Z 48
_cell_length_a 5.063733
_cell_length_b 28.740129
_cell_length_c 20.800455
_cell_angle_alpha 90.000000
_cell_angle_beta 63.497609
_cell_angle_gamma 90.000000
_cell_volume 2709.034234
_symmetry_space_group_name_H-M "C 2/C"
_symmetry_group_IT_number 15
_symmetry_cell_setting 'monoclinic'
loop_
_space_group_symop_operation_xyz
x,y,z
-x,y,1/2-z
-x,-y,-z
x,-y,1/2+z
1/2+x,1/2+y,z
1/2-x,1/2+y,1/2-z
1/2-x,1/2-y,-z
1/2+x,1/2-y,1/2+z
loop_
_atom_site_type_symbol
_atom_site_label
_atom_site_fract_x
_atom_site_fract_y
_atom_site_fract_z
Si Si1 0.656491 0.994340 0.551616
Si Si2 0.119327 0.405319 0.077071
Si Si3 0.614400 0.201957 0.437998
Si Si4 0.307648 0.894113 0.975055
Si Si5 0.321113 0.754319 0.097259
Si Si6 0.167920 0.667443 0.797688
O O1 0.607570 0.940467 0.574611
O O2 0.500000 0.000000 0.500000
O O3 0.589914 0.040248 0.600378
O O4 0.000000 0.000000 0.500000
O O5 0.451140 0.392146 0.017272
O O6 0.910209 0.400287 0.037819
O O7 0.019538 0.370606 0.142994
O O8 0.485242 0.151579 0.434839
O O9 0.469639 0.217039 0.522091
O O10 0.486529 0.236723 0.397982
O O11 0.959958 0.211450 0.410098
O O12 0.299854 0.787645 0.160254
O O13 0.500000 0.649705 0.750000
O O14 0.000000 0.678054 0.750000
#
# Coordination Sequence:
#
# PCOD9255360 Si02
#       6
#     8   8   8   8   8   8
#     4   8  16  28  46  72 101 128 151 190 251 301
#     4  10  19  32  48  72 105 131 166 205 244 311
#     4  10  19  31  53  73 103 130 160 212 271 309
#     4  10  17  30  52  77 102 130 156 201 268 319
#     4  10  21  33  47  74 100 133 170 211 256 302
#     4  12  24  36  51  71 101 144 179 207 244 301
#
# _framework density 17.718491
#
# number of rings (size 3 to 8) (size 9 to 14) (size 15 to 20)
#    0.000    2.000    1.667    3.000    4.667    0.000 
#    0.000    0.000    0.000    0.000    0.000    7.000 
#    0.000    0.000    0.000    0.000    0.000    0.000 
#
# Total GULP energy -133693.967262 kJ/mol
# GULP energy per Si atom -5570.581969 kJ/mol
# Density = 1.767816 g / cm^3
# Si number density = 17.718491 Si / 1000 Ang^3
#
#
#
# Elastic Constant Matrix: (Units=GPa)
#
#
# Indices 1 2 3 4 5 6 
#
# 1 83.8874 -10.8277 5.2450 0.0000 8.5942 0.0000
# 2 -10.8277 101.5742 19.7716 0.0000 3.9016 0.0000
# 3 5.2450 19.7716 36.6345 0.0000 14.3922 0.0000
# 4 0.0000 0.0000 0.0000 6.5027 0.0000 -2.4180
# 5 8.5942 3.9016 14.3922 0.0000 25.3807 0.0000
# 6 0.0000 0.0000 0.0000 -2.4180 0.0000 25.5121
#
#
#
# Elastic Compliance Matrix: (Units=1/GPa)
#
#
# Indices 1 2 3 4 5 6 
#
# 1 0.012615 0.001732 -0.001233 0.000000 -0.003839 0.000000
# 2 0.001732 0.011331 -0.007010 0.000000 0.001647 0.000000
# 3 -0.001233 -0.007010 0.039460 0.000000 -0.020881 0.000000
# 4 0.000000 0.000000 0.000000 0.159400 0.000000 0.015108
# 5 -0.003839 0.001647 -0.020881 0.000000 0.052287 0.000000
# 6 0.000000 0.000000 0.000000 0.015108 0.000000 0.040629
#
#
# Mechanical properties :
#
#
# Convention : Reuss Voigt Hill
#
# Bulk Modulus (GPa) = 19.84775 27.83042 23.83909
# Shear Modulus (GPa) = 14.47019 25.33960 19.90489
#
# Velocity S-wave (km/s) = 2.86085 3.78580 3.35535
# Velocity P-wave (km/s) = 4.70517 5.90345 5.33804
#
# Compressibility (1/GPa) = 0.05038354
#
# Stress axis : x y z
#
# Youngs Moduli (GPa) = 79.27283 88.25371 25.34220
#
# Poissons Ratio (x) = -0.15287 0.03124
# Poissons Ratio (y) = -0.13731 0.17766
# Poissons Ratio (z) = 0.09773 0.61869
#
# Static dielectric constant tensor:
#      x y z
#    x 1.603040 0.000000 -0.010140 
#    y 0.000000 1.697200 0.000000 
#    z -0.010140 0.000000 1.561600 
# 
# From -- ./inp_files/185212.got.cif
#   From: 2010.05.17/outbox.cif.g08.bks.cpg/sg15_93_cif.got.tgz:185212.got - 2010.06.03 18:47:42.
