data_PCOD9255016
_publ_section_title
;
Structure prediction by ZEFSAII (Michael W. Deem and Ramdas Pophale) SiO2 
 PCOD9255016
Probable space group: C 2/C
;
_chemical_formula_sum "Si O2"
_cell_formula_units_Z 60
_cell_length_a 5.588580
_cell_length_b 28.669171
_cell_length_c 17.873999
_cell_angle_alpha 90.000000
_cell_angle_beta 95.476471
_cell_angle_gamma 90.000000
_cell_volume 2850.699570
_symmetry_space_group_name_H-M "C 2/C"
_symmetry_group_IT_number 15
_symmetry_cell_setting 'monoclinic'
loop_
_space_group_symop_operation_xyz
x,y,z
-x,y,1/2-z
-x,-y,-z
x,-y,1/2+z
1/2+x,1/2+y,z
1/2-x,1/2+y,1/2-z
1/2-x,1/2-y,-z
1/2+x,1/2-y,1/2+z
loop_
_atom_site_type_symbol
_atom_site_label
_atom_site_fract_x
_atom_site_fract_y
_atom_site_fract_z
Si Si1 0.199882 0.332173 0.858906
Si Si2 0.754654 0.601537 0.513939
Si Si3 0.672336 0.756312 0.620522
Si Si4 0.186679 0.558983 0.349704
Si Si5 0.196676 0.963030 0.872411
Si Si6 0.000000 0.770507 0.750000
Si Si7 0.030937 0.803511 0.995294
Si Si8 0.257903 0.556732 0.531218
O O1 0.180223 0.385658 0.835890
O O2 0.362041 0.303896 0.804578
O O3 0.952305 0.304312 0.858373
O O4 0.315526 0.329035 0.945596
O O5 0.721826 0.582595 0.427503
O O6 0.731013 0.657018 0.514754
O O7 0.516075 0.581954 0.548355
O O8 0.013602 0.583193 0.548726
O O9 0.869586 0.767370 0.563084
O O10 0.486152 0.722916 0.571851
O O11 0.810625 0.739815 0.697942
O O12 0.435468 0.538338 0.328207
O O13 0.220415 0.550482 0.440919
O O14 0.925110 0.538672 0.325375
O O15 0.223721 0.007330 0.927440
#
# Coordination Sequence:
#
# PCOD9255016 Si02
#       8
#     8   8   8   8   8   4   8   8
#     4  11  20  36  55  76 109 149 188 235 286 343
#     4  10  17  28  43  73 105 148 175 220 262 331
#     4  10  21  37  55  77 106 148 184 232 292 342
#     4  10  18  27  48  70 105 143 186 214 266 328
#     4  10  17  28  43  74 108 154 174 213 265 333
#     4  10  24  38  54  78 102 150 188 242 280 342
#     4  10  20  33  54  81 109 142 191 228 287 348
#     4  10  17  27  45  69 114 150 176 208 274 330
#
# _framework density 21.047463
#
# number of rings (size 3 to 8) (size 9 to 14) (size 15 to 20)
#    0.000    1.867    2.667    6.400    1.867    0.000 
#    0.000    0.000    0.000    0.000    0.000    0.000 
#    0.000    6.400    0.000    0.000    0.000    0.000 
#
# Total GULP energy -167409.702970 kJ/mol
# GULP energy per Si atom -5580.323432 kJ/mol
# Density = 2.099956 g / cm^3
# Si number density = 21.047463 Si / 1000 Ang^3
#
#
#
# Elastic Constant Matrix: (Units=GPa)
#
#
# Indices 1 2 3 4 5 6 
#
# 1 146.7741 5.8619 27.2564 0.0000 7.4257 0.0000
# 2 5.8619 45.5876 23.3929 0.0000 1.2524 0.0000
# 3 27.2564 23.3929 71.4441 0.0000 5.0382 0.0000
# 4 0.0000 0.0000 0.0000 3.1398 0.0000 -1.2374
# 5 7.4257 1.2524 5.0382 0.0000 20.9780 0.0000
# 6 0.0000 0.0000 0.0000 -1.2374 0.0000 24.5595
#
#
#
# Elastic Compliance Matrix: (Units=1/GPa)
#
#
# Indices 1 2 3 4 5 6 
#
# 1 0.007425 0.000579 -0.002883 0.000000 -0.001970 0.000000
# 2 0.000579 0.026416 -0.008895 0.000000 0.000354 0.000000
# 3 -0.002883 -0.008895 0.018209 0.000000 -0.002821 0.000000
# 4 0.000000 0.000000 0.000000 0.324947 0.000000 0.016372
# 5 -0.001970 0.000354 -0.002821 0.000000 0.049023 0.000000
# 6 0.000000 0.000000 0.000000 0.016372 0.000000 0.041542
#
#
# Mechanical properties :
#
#
# Convention : Reuss Voigt Hill
#
# Bulk Modulus (GPa) = 33.72629 41.86978 37.79804
# Shear Modulus (GPa) = 10.00310 23.55510 16.77910
#
# Velocity S-wave (km/s) = 2.18242 3.34899 2.82654
# Velocity P-wave (km/s) = 4.73385 5.90682 5.35256
#
# Compressibility (1/GPa) = 0.02965046
#
# Stress axis : x y z
#
# Youngs Moduli (GPa) = 134.67640 37.85562 54.91934
#
# Poissons Ratio (x) = -0.02192 0.15835
# Poissons Ratio (y) = -0.07797 0.48852
# Poissons Ratio (z) = 0.38832 0.33674
#
# Static dielectric constant tensor:
#      x y z
#    x 1.887470 0.000000 0.031200 
#    y 0.000000 1.758950 0.000000 
#    z 0.031200 0.000000 1.794910 
# 
# From -- ./inp_files/186173.got.cif
#   From: 2010.05.17/outbox.cif.g08.bks.cpg/sg15_94_cif.got.tgz:186173.got - 2010.06.03 18:47:42.
