data_PCOD9255302
_publ_section_title
;
Structure prediction by ZEFSAII (Michael W. Deem and Ramdas Pophale) SiO2 
 PCOD9255302
Probable space group: C 2/C
;
_chemical_formula_sum "Si O2"
_cell_formula_units_Z 64
_cell_length_a 11.327969
_cell_length_b 26.324826
_cell_length_c 10.893607
_cell_angle_alpha 90.000000
_cell_angle_beta 80.745491
_cell_angle_gamma 90.000000
_cell_volume 3206.263795
_symmetry_space_group_name_H-M "C 2/C"
_symmetry_group_IT_number 15
_symmetry_cell_setting 'monoclinic'
loop_
_space_group_symop_operation_xyz
x,y,z
-x,y,1/2-z
-x,-y,-z
x,-y,1/2+z
1/2+x,1/2+y,z
1/2-x,1/2+y,1/2-z
1/2-x,1/2-y,-z
1/2+x,1/2-y,1/2+z
loop_
_atom_site_type_symbol
_atom_site_label
_atom_site_fract_x
_atom_site_fract_y
_atom_site_fract_z
Si Si1 0.306525 0.745197 0.801759
Si Si2 0.829142 0.142803 0.700426
Si Si3 0.589303 0.177365 0.619789
Si Si4 0.058848 0.891851 0.544981
Si Si5 0.877557 0.681145 0.488672
Si Si6 0.688878 0.401490 0.024776
Si Si7 0.124818 0.211103 0.155893
Si Si8 0.923593 0.001014 0.386326
O O1 0.366928 0.701834 0.708659
O O2 0.203917 0.713106 0.896663
O O3 0.233628 0.784880 0.731720
O O4 0.387046 0.777334 0.880017
O O5 0.700443 0.145456 0.653070
O O6 0.906925 0.106260 0.603653
O O7 0.834264 0.122937 0.837504
O O8 0.500000 0.179140 0.750000
O O9 0.503644 0.163287 0.522244
O O10 0.629455 0.235074 0.585752
O O11 0.116816 0.839500 0.579171
O O12 0.107164 0.939124 0.614147
O O13 0.914807 0.890991 0.558836
O O14 0.804278 0.630607 0.464661
O O15 0.681293 0.461131 0.062581
O O16 0.000000 0.210912 0.250000
O O17 0.000000 0.989181 0.250000
O O18 0.000000 0.000000 0.500000
#
# Coordination Sequence:
#
# PCOD9255302 Si02
#       8
#     8   8   8   8   8   8   8   8
#     4   9  18  28  48  72 105 135 186 223 264 337
#     4  10  20  34  51  76 110 149 184 235 283 349
#     4  10  17  32  50  76 107 141 186 231 270 341
#     4  11  22  32  52  78 111 147 183 229 294 345
#     4  10  17  31  52  78 102 143 182 236 273 337
#     4  10  19  33  55  78 108 140 187 236 289 335
#     4  10  17  30  48  71 101 137 174 217 267 332
#     4  10  21  38  56  83 118 147 190 244 296 350
#
# _framework density 19.960926000000001
#
# number of rings (size 3 to 8) (size 9 to 14) (size 15 to 20)
#    0.000    2.000    5.000    3.000    3.500    3.000 
#    0.000    0.000    0.000    0.750    0.000    0.000 
#    0.000    0.000    0.000    0.000    0.000    0.000 
#
# Total GULP energy -178175.167337 kJ/mol
# GULP energy per Si atom -5567.973979 kJ/mol
# Density = 1.991549 g / cm^3
# Si number density = 19.960926 Si / 1000 Ang^3
#
#
#
# Elastic Constant Matrix: (Units=GPa)
#
#
# Indices 1 2 3 4 5 6 
#
# 1 64.4130 30.0458 10.3845 0.0000 22.7711 0.0000
# 2 30.0458 87.8628 18.4062 0.0000 14.8951 0.0000
# 3 10.3845 18.4062 46.3655 0.0000 7.3244 0.0000
# 4 0.0000 0.0000 0.0000 32.0312 0.0000 5.1093
# 5 22.7711 14.8951 7.3244 0.0000 31.9463 0.0000
# 6 0.0000 0.0000 0.0000 5.1093 0.0000 17.3765
#
#
#
# Elastic Compliance Matrix: (Units=1/GPa)
#
#
# Indices 1 2 3 4 5 6 
#
# 1 0.023010 -0.005366 -0.000859 0.000000 -0.013703 0.000000
# 2 -0.005366 0.014428 -0.004220 0.000000 -0.001935 0.000000
# 3 -0.000859 -0.004220 0.023893 0.000000 -0.002898 0.000000
# 4 0.000000 0.000000 0.000000 0.032756 0.000000 -0.009631
# 5 -0.013703 -0.001935 -0.002898 0.000000 0.042637 0.000000
# 6 0.000000 0.000000 0.000000 -0.009631 0.000000 0.060381
#
#
# Mechanical properties :
#
#
# Convention : Reuss Voigt Hill
#
# Bulk Modulus (GPa) = 24.72662 35.14602 29.93632
# Shear Modulus (GPa) = 21.60049 25.59113 23.59581
#
# Velocity S-wave (km/s) = 3.29316 3.58447 3.44190
# Velocity P-wave (km/s) = 5.18404 5.89719 5.55208
#
# Compressibility (1/GPa) = 0.04044224
#
# Stress axis : x y z
#
# Youngs Moduli (GPa) = 43.45856 69.30765 41.85269
#
# Poissons Ratio (x) = 0.37189 0.03595
# Poissons Ratio (y) = 0.23319 0.17663
# Poissons Ratio (z) = 0.03732 0.29250
#
# Static dielectric constant tensor:
#      x y z
#    x 1.750560 0.000000 -0.034880 
#    y 0.000000 1.767130 0.000000 
#    z -0.034880 0.000000 1.799700 
# 
# From -- ./inp_files/91800.got.cif
#   From: 2010.05.17/outbox.cif.g08.bks.cpg/sg15_46_cif.got.tgz:91800.got - 2010.06.03 18:47:42.
