data_PCOD9255410
_publ_section_title
;
Structure prediction by ZEFSAII (Michael W. Deem and Ramdas Pophale) SiO2 
 PCOD9255410
Probable space group: C 2/C
;
_chemical_formula_sum "Si O2"
_cell_formula_units_Z 48
_cell_length_a 12.451835
_cell_length_b 10.276309
_cell_length_c 15.362515
_cell_angle_alpha 90.000000
_cell_angle_beta 106.460385
_cell_angle_gamma 90.000000
_cell_volume 1885.205201
_symmetry_space_group_name_H-M "C 2/C"
_symmetry_group_IT_number 15
_symmetry_cell_setting 'monoclinic'
loop_
_space_group_symop_operation_xyz
x,y,z
-x,y,1/2-z
-x,-y,-z
x,-y,1/2+z
1/2+x,1/2+y,z
1/2-x,1/2+y,1/2-z
1/2-x,1/2-y,-z
1/2+x,1/2-y,1/2+z
loop_
_atom_site_type_symbol
_atom_site_label
_atom_site_fract_x
_atom_site_fract_y
_atom_site_fract_z
Si Si1 0.738411 0.138345 0.830418
Si Si2 0.560276 0.941339 0.404289
Si Si3 0.621932 0.228295 0.421488
Si Si4 0.868972 0.937166 0.198816
Si Si5 0.872946 0.985059 0.003703
Si Si6 0.610315 0.855264 0.604263
O O1 0.609681 0.118968 0.828174
O O2 0.788997 0.053248 0.763415
O O3 0.776972 0.288686 0.837517
O O4 0.986042 0.259377 0.881578
O O5 0.587467 0.856175 0.495051
O O6 0.628578 0.076324 0.437000
O O7 0.434001 0.000671 0.376912
O O8 0.339896 0.289474 0.159668
O O9 0.655164 0.328542 0.505317
O O10 0.854682 0.010468 0.102608
O O11 0.000000 0.955499 0.250000
O O12 0.802392 0.081243 0.929425
O O13 0.000000 0.000000 0.000000
#
# Coordination Sequence:
#
# PCOD9255410 Si02
#       6
#     8   8   8   8   8   8
#     4  12  19  33  59  88 109 160 202 237 308 363
#     4   9  19  33  53  81 109 143 191 252 285 357
#     4   8  17  33  52  75 110 150 184 237 301 347
#     4  10  17  31  55  77 109 155 192 244 304 349
#     4  10  17  30  55  81 111 145 202 240 286 370
#     4   9  17  34  54  79 108 143 195 241 298 352
#
# _framework density 25.461417999999998
#
# number of rings (size 3 to 8) (size 9 to 14) (size 15 to 20)
#    2.000    0.333    5.000    0.500    0.000    0.667 
#    0.000    3.333    0.000    0.000    4.333    5.833 
#    0.000    0.000    0.000    0.000    0.000    0.000 
#
# Total GULP energy -133633.940280 kJ/mol
# GULP energy per Si atom -5568.080845 kJ/mol
# Density = 2.540347 g / cm^3
# Si number density = 25.461418 Si / 1000 Ang^3
#
#
#
# Elastic Constant Matrix: (Units=GPa)
#
#
# Indices 1 2 3 4 5 6 
#
# 1 100.9503 19.2886 56.6041 0.0000 -21.6714 0.0000
# 2 19.2886 73.4834 25.6022 0.0000 -2.8682 0.0000
# 3 56.6041 25.6022 150.1555 0.0000 -31.1100 0.0000
# 4 0.0000 0.0000 0.0000 33.1295 0.0000 -3.8799
# 5 -21.6714 -2.8682 -31.1100 0.0000 52.4785 0.0000
# 6 0.0000 0.0000 0.0000 -3.8799 0.0000 35.3481
#
#
#
# Elastic Compliance Matrix: (Units=1/GPa)
#
#
# Indices 1 2 3 4 5 6 
#
# 1 0.013164 -0.001939 -0.004021 0.000000 0.002946 0.000000
# 2 -0.001939 0.014781 -0.002038 0.000000 -0.001201 0.000000
# 3 -0.004021 -0.002038 0.009298 0.000000 0.003740 0.000000
# 4 0.000000 0.000000 0.000000 0.030578 0.000000 0.003356
# 5 0.002946 -0.001201 0.003740 0.000000 0.022424 0.000000
# 6 0.000000 0.000000 0.000000 0.003356 0.000000 0.028658
#
#
# Mechanical properties :
#
#
# Convention : Reuss Voigt Hill
#
# Bulk Modulus (GPa) = 47.06915 58.61989 52.84452
# Shear Modulus (GPa) = 35.21603 39.06418 37.14010
#
# Velocity S-wave (km/s) = 3.72306 3.92120 3.82341
# Velocity P-wave (km/s) = 6.08343 6.60107 6.34753
#
# Compressibility (1/GPa) = 0.02124534
#
# Stress axis : x y z
#
# Youngs Moduli (GPa) = 75.96690 67.65563 107.54993
#
# Poissons Ratio (x) = 0.13120 0.43248
# Poissons Ratio (y) = 0.14732 0.21919
# Poissons Ratio (z) = 0.30548 0.13788
#
# Static dielectric constant tensor:
#      x y z
#    x 2.286090 0.000000 0.052910 
#    y 0.000000 2.032150 0.000000 
#    z 0.052910 0.000000 1.988410 
# 
# From -- ./inp_files/236575.got.cif
#   From: 2010.05.17/outbox.cif.g08.bks.cpg/sg15_119_cif.got.tgz:236575.got - 2010.06.03 18:47:42.
