data_PCOD9255319
_publ_section_title
;
Structure prediction by ZEFSAII (Michael W. Deem and Ramdas Pophale) SiO2 
 PCOD9255319
Probable space group: C 2/C
;
_chemical_formula_sum "Si O2"
_cell_formula_units_Z 64
_cell_length_a 14.496649
_cell_length_b 19.184766
_cell_length_c 28.824439
_cell_angle_alpha 90.000000
_cell_angle_beta 152.921730
_cell_angle_gamma 90.000000
_cell_volume 3649.170591
_symmetry_space_group_name_H-M "C 2/C"
_symmetry_group_IT_number 15
_symmetry_cell_setting 'monoclinic'
loop_
_space_group_symop_operation_xyz
x,y,z
-x,y,1/2-z
-x,-y,-z
x,-y,1/2+z
1/2+x,1/2+y,z
1/2-x,1/2+y,1/2-z
1/2-x,1/2-y,-z
1/2+x,1/2-y,1/2+z
loop_
_atom_site_type_symbol
_atom_site_label
_atom_site_fract_x
_atom_site_fract_y
_atom_site_fract_z
Si Si1 0.682211 0.621614 0.268616
Si Si2 0.363905 0.018046 0.810161
Si Si3 0.600560 0.162207 0.631932
Si Si4 0.755129 0.337062 0.903685
Si Si5 0.222880 0.958126 0.651285
Si Si6 0.679296 0.689082 0.169310
Si Si7 0.740736 0.965255 0.424912
Si Si8 0.785636 0.686984 0.573663
O O1 0.779222 0.547181 0.300456
O O2 0.438445 0.618425 0.165839
O O3 0.771764 0.650948 0.356465
O O4 0.716819 0.671013 0.239799
O O5 0.290935 0.006111 0.724635
O O6 0.302571 0.090765 0.806365
O O7 0.607153 0.018789 0.910623
O O8 0.456357 0.147477 0.523240
O O9 0.735744 0.230980 0.683475
O O10 0.449363 0.185340 0.606016
O O11 0.699877 0.256601 0.889978
O O12 0.271356 0.876982 0.683144
O O13 0.979045 0.966286 0.541479
O O14 0.299094 0.983287 0.635524
O O15 0.438501 0.685498 0.049437
O O16 0.689819 0.885511 0.388276
#
# Coordination Sequence:
#
# PCOD9255319 Si02
#       8
#     8   8   8   8   8   8   8   8
#     4  10  19  30  44  75  99 134 161 197 249 306
#     4  10  21  30  48  75 102 129 172 201 248 300
#     4  10  17  30  49  74  98 126 161 213 252 292
#     4  10  18  30  50  71 103 130 163 204 257 300
#     4   9  18  32  50  76 104 135 159 201 264 303
#     4   9  15  29  49  69  98 126 159 191 253 308
#     4   9  18  32  51  77 108 126 158 210 255 304
#     4   9  15  28  49  76  97 122 152 206 270 299
#
# _framework density 17.538232000000001
#
# number of rings (size 3 to 8) (size 9 to 14) (size 15 to 20)
#    0.000    2.500    2.500    1.125    1.750    1.500 
#    2.250    0.000    0.000    0.000   13.000   26.250 
#    0.000    0.000    0.000    0.000    0.000    0.000 
#
# Total GULP energy -178223.325478 kJ/mol
# GULP energy per Si atom -5569.478921 kJ/mol
# Density = 1.749831 g / cm^3
# Si number density = 17.538232 Si / 1000 Ang^3
#
#
#
# Elastic Constant Matrix: (Units=GPa)
#
#
# Indices 1 2 3 4 5 6 
#
# 1 62.6708 48.5954 20.3539 0.0000 -19.1419 0.0001
# 2 48.5954 140.3161 42.7004 0.0002 -15.3099 0.0000
# 3 20.3539 42.7004 36.3158 -0.0003 -13.1086 -0.0006
# 4 0.0000 0.0002 -0.0003 22.7191 -0.0005 1.7919
# 5 -19.1419 -15.3099 -13.1086 -0.0005 25.2028 0.0000
# 6 0.0001 0.0000 -0.0006 1.7919 0.0000 23.4166
#
#
#
# Elastic Compliance Matrix: (Units=1/GPa)
#
#
# Indices 1 2 3 4 5 6 
#
# 1 0.026536 -0.007281 -0.000780 0.000000 0.015326 0.000000
# 2 -0.007281 0.013095 -0.012855 0.000000 -0.004261 0.000000
# 3 -0.000780 -0.012855 0.049314 0.000001 0.017248 0.000001
# 4 0.000000 0.000000 0.000001 0.044283 0.000001 -0.003389
# 5 0.015326 -0.004261 0.017248 0.000001 0.057701 0.000000
# 6 0.000000 0.000000 0.000001 -0.003389 0.000000 0.042964
#
#
# Mechanical properties :
#
#
# Convention : Reuss Voigt Hill
#
# Bulk Modulus (GPa) = 21.22481 51.40021 36.31251
# Shear Modulus (GPa) = 17.15674 22.77792 19.96733
#
# Velocity S-wave (km/s) = 3.13109 3.60774 3.37783
# Velocity P-wave (km/s) = 5.01995 6.83561 5.99689
#
# Compressibility (1/GPa) = 0.04711468
#
# Stress axis : x y z
#
# Youngs Moduli (GPa) = 37.68411 76.36300 20.27810
#
# Poissons Ratio (x) = 0.55598 0.01582
# Poissons Ratio (y) = 0.27437 0.26068
# Poissons Ratio (z) = 0.02939 0.98165
#
# Static dielectric constant tensor:
#      x y z
#    x 1.596630 0.000000 0.011860 
#    y 0.000000 1.642230 0.000000 
#    z 0.011860 0.000000 1.617310 
# 
# From -- ./inp_files/314297.got.cif
#   From: 2010.05.17/outbox.cif.g08.bks.cpg/sg15_158_cif.got.tgz:314297.got - 2010.06.03 18:47:42.
