data_PCOD9255901
_publ_section_title
;
Structure prediction by ZEFSAII (Michael W. Deem and Ramdas Pophale) SiO2 
 PCOD9255901
Probable space group: C 2/C
;
_chemical_formula_sum "Si O2"
_cell_formula_units_Z 60
_cell_length_a 15.952607
_cell_length_b 30.887061
_cell_length_c 5.337946
_cell_angle_alpha 90.000000
_cell_angle_beta 84.717770
_cell_angle_gamma 90.000000
_cell_volume 2618.992060
_symmetry_space_group_name_H-M "C 2/C"
_symmetry_group_IT_number 15
_symmetry_cell_setting 'monoclinic'
loop_
_space_group_symop_operation_xyz
x,y,z
-x,y,1/2-z
-x,-y,-z
x,-y,1/2+z
1/2+x,1/2+y,z
1/2-x,1/2+y,1/2-z
1/2-x,1/2-y,-z
1/2+x,1/2-y,1/2+z
loop_
_atom_site_type_symbol
_atom_site_label
_atom_site_fract_x
_atom_site_fract_y
_atom_site_fract_z
Si Si1 0.834867 0.017583 0.848378
Si Si2 0.089803 0.650381 0.351758
Si Si3 0.900556 0.526566 0.786345
Si Si4 0.816329 0.264628 0.691174
Si Si5 0.698066 0.320731 0.091492
Si Si6 0.086248 0.102516 0.584717
Si Si7 0.500000 0.536088 0.250000
Si Si8 0.165517 0.616197 0.820338
O O1 0.854043 0.067926 0.783972
O O2 0.793517 0.992325 0.628159
O O3 0.927469 0.995069 0.880842
O O4 0.113362 0.700575 0.391532
O O5 0.099913 0.630095 0.622297
O O6 0.000000 0.647061 0.250000
O O7 0.146138 0.626948 0.118432
O O8 0.890685 0.490393 0.572206
O O9 0.837208 0.564922 0.722262
O O10 0.000000 0.540685 0.750000
O O11 0.750000 0.250000 0.500000
O O12 0.852565 0.218526 0.768732
O O13 0.761307 0.292712 0.904073
O O14 0.636476 0.355490 0.985340
O O15 0.754992 0.351764 0.253290
O O16 0.057085 0.070997 0.376494
O O17 0.000000 0.114083 0.750000
#
# Coordination Sequence:
#
# PCOD9255901 Si02
#       8
#     8   8   8   8   8   8   4   8
#     4  10  17  33  56  80 119 169 205 260 311 360
#     4  11  22  38  71 100 120 160 217 268 303 382
#     4  10  20  35  59  88 127 167 198 253 321 371
#     4  10  21  45  64  84 126 171 197 255 346 391
#     4  10  24  40  64  89 122 174 209 259 332 393
#     4  11  20  36  58  90 123 160 222 269 302 376
#     4  10  18  34  56  86 122 168 212 264 316 360
#     4  11  22  42  62  96 132 163 215 257 313 389
#
# _framework density 22.909576000000001
#
# number of rings (size 3 to 8) (size 9 to 14) (size 15 to 20)
#    0.000    1.600    3.333    2.800    0.000    2.667 
#    0.000    2.667    0.000    0.000    0.000    0.000 
#    0.000    0.000    0.000    0.000    0.000    0.000 
#
# Total GULP energy -167097.228262 kJ/mol
# GULP energy per Si atom -5569.907609 kJ/mol
# Density = 2.285743 g / cm^3
# Si number density = 22.909576 Si / 1000 Ang^3
#
#
#
# Elastic Constant Matrix: (Units=GPa)
#
#
# Indices 1 2 3 4 5 6 
#
# 1 51.2299 29.4706 3.2297 0.0000 6.4604 0.0000
# 2 29.4706 163.0677 21.3659 0.0000 0.4131 0.0000
# 3 3.2297 21.3659 71.0687 0.0000 14.4234 0.0000
# 4 0.0000 0.0000 0.0000 25.0519 0.0000 9.3116
# 5 6.4604 0.4131 14.4234 0.0000 24.2825 0.0000
# 6 0.0000 0.0000 0.0000 9.3116 0.0000 38.4967
#
#
#
# Elastic Compliance Matrix: (Units=1/GPa)
#
#
# Indices 1 2 3 4 5 6 
#
# 1 0.022780 -0.004319 0.001681 0.000000 -0.006986 0.000000
# 2 -0.004319 0.007232 -0.002486 0.000000 0.002503 0.000000
# 3 0.001681 -0.002486 0.016856 0.000000 -0.010417 0.000000
# 4 0.000000 0.000000 0.000000 0.043860 0.000000 -0.010609
# 5 -0.006986 0.002503 -0.010417 0.000000 0.049186 0.000000
# 6 0.000000 0.000000 0.000000 -0.010609 0.000000 0.028542
#
#
# Mechanical properties :
#
#
# Convention : Reuss Voigt Hill
#
# Bulk Modulus (GPa) = 27.30789 43.72207 35.51498
# Shear Modulus (GPa) = 26.19015 32.98622 29.58819
#
# Velocity S-wave (km/s) = 3.38479 3.79864 3.59767
# Velocity P-wave (km/s) = 5.21742 6.19400 5.72657
#
# Compressibility (1/GPa) = 0.03661945
#
# Stress axis : x y z
#
# Youngs Moduli (GPa) = 43.89894 138.26587 59.32593
#
# Poissons Ratio (x) = 0.59723 -0.09973
# Poissons Ratio (y) = 0.18962 0.14748
# Poissons Ratio (z) = -0.07380 0.34373
#
# Static dielectric constant tensor:
#      x y z
#    x 2.013290 0.000000 0.010710 
#    y 0.000000 1.883700 0.000000 
#    z 0.010710 0.000000 2.049640 
# 
# From -- ./inp_files/11565.got.cif
#   From: 2010.05.17/outbox.cif.g08.bks.cpg/sg15_6_cif.got.tgz:11565.got - 2010.06.03 18:47:42.
