data_PCOD9255497
_publ_section_title
;
Structure prediction by ZEFSAII (Michael W. Deem and Ramdas Pophale) SiO2 
 PCOD9255497
Probable space group: C 2/C
;
_chemical_formula_sum "Si O2"
_cell_formula_units_Z 56
_cell_length_a 8.746524
_cell_length_b 16.346176
_cell_length_c 22.133427
_cell_angle_alpha 90.000000
_cell_angle_beta 94.887125
_cell_angle_gamma 90.000000
_cell_volume 3152.960686
_symmetry_space_group_name_H-M "C 2/C"
_symmetry_group_IT_number 15
_symmetry_cell_setting 'monoclinic'
loop_
_space_group_symop_operation_xyz
x,y,z
-x,y,1/2-z
-x,-y,-z
x,-y,1/2+z
1/2+x,1/2+y,z
1/2-x,1/2+y,1/2-z
1/2-x,1/2-y,-z
1/2+x,1/2-y,1/2+z
loop_
_atom_site_type_symbol
_atom_site_label
_atom_site_fract_x
_atom_site_fract_y
_atom_site_fract_z
Si Si1 0.779642 0.450051 0.607102
Si Si2 0.490943 0.932552 0.320483
Si Si3 0.062174 0.592973 0.500950
Si Si4 0.128030 0.698123 0.917852
Si Si5 0.414030 0.395703 0.439450
Si Si6 0.464302 0.384099 0.580967
Si Si7 0.702884 0.454006 0.390458
O O1 0.898069 0.491171 0.657506
O O2 0.875013 0.394539 0.563830
O O3 0.704823 0.528059 0.569176
O O4 0.625362 0.402566 0.620084
O O5 0.500000 0.918182 0.250000
O O6 0.556242 0.856119 0.361321
O O7 0.316735 0.948089 0.337563
O O8 0.200751 0.588207 0.552856
O O9 0.000000 0.500000 0.500000
O O10 0.942839 0.657766 0.523475
O O11 0.309396 0.682990 0.926379
O O12 0.086970 0.792088 0.910618
O O13 0.484297 0.395645 0.508972
O O14 0.538531 0.409635 0.391124
O O15 0.339818 0.451838 0.596585
#
# Coordination Sequence:
#
# PCOD9255497 Si02
#       7
#     8   8   8   8   8   8   8
#     4  10  18  32  56  76 109 141 186 219 269 328
#     4  10  22  41  57  71  99 149 202 233 262 324
#     4  11  15  31  51  77 109 144 177 217 263 337
#     4  10  22  32  52  83 117 147 169 220 290 325
#     4  10  17  31  51  83 118 144 167 208 274 352
#     4  11  19  32  52  91 117 136 166 227 288 338
#     4  10  18  32  57  77 106 144 180 223 270 326
#
# _framework density 17.761084
#
# number of rings (size 3 to 8) (size 9 to 14) (size 15 to 20)
#    0.000    1.714    7.143    1.286    0.000    0.571 
#    0.000    7.857    0.000    0.000    0.000    0.000 
#    0.000    0.000    0.000    0.000    0.000    0.000 
#
# Total GULP energy -156005.745609 kJ/mol
# GULP energy per Si atom -5571.633772 kJ/mol
# Density = 1.772066 g / cm^3
# Si number density = 17.761084 Si / 1000 Ang^3
#
#
#
# Elastic Constant Matrix: (Units=GPa)
#
#
# Indices 1 2 3 4 5 6 
#
# 1 98.3940 35.7868 28.6285 0.0000 -19.2179 0.0000
# 2 35.7868 90.5586 12.4218 0.0000 -8.5682 0.0000
# 3 28.6285 12.4218 80.0301 0.0000 -9.5793 0.0000
# 4 0.0000 0.0000 0.0000 8.2857 0.0000 1.5132
# 5 -19.2179 -8.5682 -9.5793 0.0000 18.0315 0.0000
# 6 0.0000 0.0000 0.0000 1.5132 0.0000 18.7658
#
#
#
# Elastic Compliance Matrix: (Units=1/GPa)
#
#
# Indices 1 2 3 4 5 6 
#
# 1 0.015094 -0.004356 -0.003252 0.000000 0.012290 0.000000
# 2 -0.004356 0.012931 -0.000287 0.000000 0.001349 0.000000
# 3 -0.003252 -0.000287 0.014173 0.000000 0.003927 0.000000
# 4 0.000000 0.000000 0.000000 0.122494 0.000000 -0.009877
# 5 0.012290 0.001349 0.003927 0.000000 0.071284 0.000000
# 6 0.000000 0.000000 0.000000 -0.009877 0.000000 0.054085
#
#
# Mechanical properties :
#
#
# Convention : Reuss Voigt Hill
#
# Bulk Modulus (GPa) = 37.86852 46.96187 42.41520
# Shear Modulus (GPa) = 15.89044 21.82632 18.85838
#
# Velocity S-wave (km/s) = 2.99436 3.50935 3.26203
# Velocity P-wave (km/s) = 5.77255 6.55126 6.17419
#
# Compressibility (1/GPa) = 0.02640716
#
# Stress axis : x y z
#
# Youngs Moduli (GPa) = 66.25063 77.33331 70.55493
#
# Poissons Ratio (x) = 0.33686 0.22947
# Poissons Ratio (y) = 0.28859 0.02027
# Poissons Ratio (z) = 0.21547 0.02222
#
# Static dielectric constant tensor:
#      x y z
#    x 1.708420 0.000000 -0.017180 
#    y 0.000000 1.618050 0.000000 
#    z -0.017180 0.000000 1.601280 
# 
# From -- ./inp_files/232123.got.cif
#   From: 2010.05.17/outbox.cif.g08.bks.cpg/sg15_117_cif.got.tgz:232123.got - 2010.06.03 18:47:42.
