data_PCOD9255660
_publ_section_title
;
Structure prediction by ZEFSAII (Michael W. Deem and Ramdas Pophale) SiO2 
 PCOD9255660
Probable space group: C 2/C
;
_chemical_formula_sum "Si O2"
_cell_formula_units_Z 48
_cell_length_a 23.740486
_cell_length_b 17.069325
_cell_length_c 8.645724
_cell_angle_alpha 90.000000
_cell_angle_beta 142.356132
_cell_angle_gamma 90.000000
_cell_volume 2139.793823
_symmetry_space_group_name_H-M "C 2/C"
_symmetry_group_IT_number 15
_symmetry_cell_setting 'monoclinic'
loop_
_space_group_symop_operation_xyz
x,y,z
-x,y,1/2-z
-x,-y,-z
x,-y,1/2+z
1/2+x,1/2+y,z
1/2-x,1/2+y,1/2-z
1/2-x,1/2-y,-z
1/2+x,1/2-y,1/2+z
loop_
_atom_site_type_symbol
_atom_site_label
_atom_site_fract_x
_atom_site_fract_y
_atom_site_fract_z
Si Si1 0.946698 0.930733 0.470648
Si Si2 0.620463 0.970870 0.560451
Si Si3 0.410671 0.889005 0.312769
Si Si4 0.731327 0.671930 0.554033
Si Si5 0.263509 0.079101 0.906525
Si Si6 0.474491 0.278259 0.874619
O O1 0.838486 0.944361 0.260800
O O2 0.000000 0.925254 0.750000
O O3 0.953833 0.843596 0.410813
O O4 0.000000 0.000000 0.500000
O O5 0.578198 0.916421 0.337447
O O6 0.561757 0.040789 0.513030
O O7 0.699939 0.015278 0.635785
O O8 0.665622 0.921228 0.797456
O O9 0.458542 0.803897 0.429337
O O10 0.300662 0.883421 0.109357
O O11 0.750000 0.750000 0.500000
O O12 0.760286 0.658297 0.795938
O O13 0.621122 0.672107 0.321205
O O14 0.500000 0.260383 0.750000
#
# Coordination Sequence:
#
# PCOD9255660 Si02
#       6
#     8   8   8   8   8   8
#     4  11  21  32  54  79 115 150 185 218 280 344
#     4   9  19  32  57  83 113 138 194 237 275 326
#     4   9  19  35  58  83 107 150 187 234 284 329
#     4   9  17  32  53  76 105 148 185 219 278 323
#     4  10  17  32  51  83 108 141 184 232 275 333
#     4  10  19  35  55  78 114 151 186 222 284 342
#
# _framework density 22.432067
#
# number of rings (size 3 to 8) (size 9 to 14) (size 15 to 20)
#    0.000    2.333    3.333    1.000    4.667    0.000 
#    0.000    4.167    0.000    8.000    0.000    0.000 
#    0.000    0.000    0.000    0.000    0.000    0.000 
#
# Total GULP energy -133653.093537 kJ/mol
# GULP energy per Si atom -5568.878897 kJ/mol
# Density = 2.238101 g / cm^3
# Si number density = 22.432067 Si / 1000 Ang^3
#
#
#
# Elastic Constant Matrix: (Units=GPa)
#
#
# Indices 1 2 3 4 5 6 
#
# 1 163.7870 48.4627 25.8661 0.0000 8.5456 0.0000
# 2 48.4627 124.9311 36.4498 0.0000 -13.7348 0.0000
# 3 25.8661 36.4498 65.9012 0.0000 -23.2149 0.0000
# 4 0.0000 0.0000 0.0000 17.0460 0.0000 7.9229
# 5 8.5456 -13.7348 -23.2149 0.0000 34.1690 0.0000
# 6 0.0000 0.0000 0.0000 7.9229 0.0000 31.6268
#
#
#
# Elastic Compliance Matrix: (Units=1/GPa)
#
#
# Indices 1 2 3 4 5 6 
#
# 1 0.007686 -0.002551 -0.003476 0.000000 -0.005310 0.000000
# 2 -0.002551 0.010394 -0.004011 0.000000 0.002091 0.000000
# 3 -0.003476 -0.004011 0.024315 0.000000 0.015777 0.000000
# 4 0.000000 0.000000 0.000000 0.066396 0.000000 -0.016633
# 5 -0.005310 0.002091 0.015777 0.000000 0.042154 0.000000
# 6 0.000000 0.000000 0.000000 -0.016633 0.000000 0.035786
#
#
# Mechanical properties :
#
#
# Convention : Reuss Voigt Hill
#
# Bulk Modulus (GPa) = 44.80603 64.01963 54.41283
# Shear Modulus (GPa) = 23.33752 32.82442 28.08097
#
# Velocity S-wave (km/s) = 3.22897 3.82944 3.54195
# Velocity P-wave (km/s) = 5.82401 6.93931 6.40598
#
# Compressibility (1/GPa) = 0.02231843
#
# Stress axis : x y z
#
# Youngs Moduli (GPa) = 130.10034 96.20751 41.12698
#
# Poissons Ratio (x) = 0.24544 0.14297
# Poissons Ratio (y) = 0.33191 0.16496
# Poissons Ratio (z) = 0.45226 0.38590
#
# Static dielectric constant tensor:
#      x y z
#    x 1.899670 0.000000 0.058730 
#    y 0.000000 2.757050 0.000000 
#    z 0.058730 0.000000 1.942390 
# 
# From -- ./inp_files/62589.got.cif
#   From: 2010.05.17/outbox.cif.g08.bks.cpg/sg15_32_cif.got.tgz:62589.got - 2010.06.03 18:47:42.
