data_PCOD9255112
_publ_section_title
;
Structure prediction by ZEFSAII (Michael W. Deem and Ramdas Pophale) SiO2 
 PCOD9255112
Probable space group: C 2/C
;
_chemical_formula_sum "Si O2"
_cell_formula_units_Z 64
_cell_length_a 27.876378
_cell_length_b 9.825604
_cell_length_c 20.464587
_cell_angle_alpha 90.000000
_cell_angle_beta 29.709091
_cell_angle_gamma 90.000000
_cell_volume 2777.965224
_symmetry_space_group_name_H-M "C 2/C"
_symmetry_group_IT_number 15
_symmetry_cell_setting 'monoclinic'
loop_
_space_group_symop_operation_xyz
x,y,z
-x,y,1/2-z
-x,-y,-z
x,-y,1/2+z
1/2+x,1/2+y,z
1/2-x,1/2+y,1/2-z
1/2-x,1/2-y,-z
1/2+x,1/2-y,1/2+z
loop_
_atom_site_type_symbol
_atom_site_label
_atom_site_fract_x
_atom_site_fract_y
_atom_site_fract_z
Si Si1 0.644264 0.565376 0.732560
Si Si2 0.480908 0.722922 0.990845
Si Si3 0.138327 0.541898 0.798570
Si Si4 0.840127 0.496241 0.959877
Si Si5 0.979689 0.485277 0.174040
Si Si6 0.216843 0.907545 0.773277
Si Si7 0.004522 0.835351 0.613322
Si Si8 0.700388 0.282914 0.432995
O O1 0.741496 0.588688 0.576260
O O2 0.689872 0.512608 0.747398
O O3 0.583177 0.440131 0.773358
O O4 0.567875 0.682003 0.839739
O O5 0.425727 0.858259 0.081606
O O6 0.386617 0.639282 0.077372
O O7 0.515890 0.666679 0.021136
O O8 0.064655 0.461003 0.840404
O O9 0.209880 0.459856 0.759628
O O10 0.206856 0.623680 0.666455
O O11 0.907179 0.480829 0.817977
O O12 0.912903 0.465458 0.934480
O O13 0.813255 0.656925 0.001761
O O14 0.986143 0.321042 0.157193
O O15 0.271656 0.787106 0.669566
O O16 0.102804 0.866668 0.536096
#
# Coordination Sequence:
#
# PCOD9255112 Si02
#       8
#     8   8   8   8   8   8   8   8
#     4  10  17  28  48  68  95 132 166 200 240 298
#     4   9  17  28  45  68  93 130 166 196 244 299
#     4  10  18  29  48  70 100 131 159 205 248 293
#     4   9  18  31  45  64  94 130 170 201 233 293
#     4   9  18  31  45  65  96 133 167 199 242 293
#     4   9  17  29  46  68  96 127 161 199 246 298
#     4   9  16  28  46  68  98 128 156 192 235 294
#     4   9  17  28  45  71 100 130 159 194 241 295
#
# _framework density 23.038444999999999
#
# number of rings (size 3 to 8) (size 9 to 14) (size 15 to 20)
#    0.000    2.750    0.000    5.250    0.000    2.000 
#    0.000   10.000    0.000    2.250    0.000    0.000 
#    0.000  116.000    0.000    1.750    0.000    5.375 
#
# Total GULP energy -178565.967781 kJ/mol
# GULP energy per Si atom -5580.186493 kJ/mol
# Density = 2.298601 g / cm^3
# Si number density = 23.038445 Si / 1000 Ang^3
#
#
#
# Elastic Constant Matrix: (Units=GPa)
#
#
# Indices 1 2 3 4 5 6 
#
# 1 56.4715 11.7376 22.5856 -0.0003 -31.5377 0.0000
# 2 11.7376 43.8704 23.5871 -0.0004 -13.5140 0.0004
# 3 22.5856 23.5871 162.6784 0.0003 -31.0251 0.0002
# 4 -0.0003 -0.0004 0.0003 -1.3311 0.0000 13.3185
# 5 -31.5377 -13.5140 -31.0251 0.0000 27.7924 0.0000
# 6 0.0000 0.0004 0.0002 13.3185 0.0000 8.4325
#
#
#
# Elastic Compliance Matrix: (Units=1/GPa)
#
#
# Indices 1 2 3 4 5 6 
#
# 1 0.051995 0.003906 0.004866 -0.000001 0.066333 0.000001
# 2 0.003906 0.027516 -0.001442 -0.000001 0.016203 0.000001
# 3 0.004866 -0.001442 0.008385 0.000000 0.014181 0.000000
# 4 -0.000001 -0.000001 0.000000 -0.044709 -0.000001 0.070615
# 5 0.066333 0.016203 0.014181 -0.000001 0.134962 0.000001
# 6 0.000001 0.000001 0.000000 0.070615 0.000001 0.007057
#
#
# Mechanical properties :
#
#
# Convention : Reuss Voigt Hill
#
# Bulk Modulus (GPa) = 9.75077 42.09340 25.92209
# Shear Modulus (GPa) = 24.42220 20.65276 22.53748
#
# Velocity S-wave (km/s) = 3.25939 2.99732 3.13110
# Velocity P-wave (km/s) = 4.29027 5.50356 4.93435
#
# Compressibility (1/GPa) = 0.10255598
#
# Stress axis : x y z
#
# Youngs Moduli (GPa) = 19.23246 36.34299 119.25945
#
# Poissons Ratio (x) = -0.14196 -0.58026
# Poissons Ratio (y) = -0.07513 0.17195
# Poissons Ratio (z) = -0.09358 0.05240
#
# Static dielectric constant tensor:
#      x y z
#    x 1.877080 0.000000 -0.010600 
#    y 0.000000 1.984390 0.000000 
#    z -0.010600 0.000000 1.897230 
# 
# From -- ./inp_files/257501.got.cif
#   From: 2010.05.17/outbox.cif.g08.bks.cpg/sg15_129_cif.got.tgz:257501.got - 2010.06.03 18:47:42.
