data_PCOD9255471
_publ_section_title
;
Structure prediction by ZEFSAII (Michael W. Deem and Ramdas Pophale) SiO2 
 PCOD9255471
Probable space group: C 2/C
;
_chemical_formula_sum "Si O2"
_cell_formula_units_Z 48
_cell_length_a 19.964755
_cell_length_b 27.126730
_cell_length_c 5.217245
_cell_angle_alpha 90.000000
_cell_angle_beta 89.355251
_cell_angle_gamma 90.000000
_cell_volume 2825.368920
_symmetry_space_group_name_H-M "C 2/C"
_symmetry_group_IT_number 15
_symmetry_cell_setting 'monoclinic'
loop_
_space_group_symop_operation_xyz
x,y,z
-x,y,1/2-z
-x,-y,-z
x,-y,1/2+z
1/2+x,1/2+y,z
1/2-x,1/2+y,1/2-z
1/2-x,1/2-y,-z
1/2+x,1/2-y,1/2+z
loop_
_atom_site_type_symbol
_atom_site_label
_atom_site_fract_x
_atom_site_fract_y
_atom_site_fract_z
Si Si1 0.827632 0.195734 0.048188
Si Si2 0.042775 0.133813 0.490535
Si Si3 0.103138 0.970453 0.815908
Si Si4 0.765115 0.470150 0.804015
Si Si5 0.806555 0.699056 0.723950
Si Si6 0.706924 0.858324 0.766286
O O1 0.895014 0.169954 0.960596
O O2 0.837514 0.246970 0.196050
O O3 0.784881 0.157940 0.225035
O O4 0.774087 0.206501 0.821532
O O5 0.071217 0.080975 0.398517
O O6 0.000000 0.152809 0.250000
O O7 0.000000 0.128592 0.750000
O O8 0.184012 0.965320 0.810954
O O9 0.084450 0.989471 0.534269
O O10 0.783450 0.508951 0.581649
O O11 0.795409 0.416961 0.738055
O O12 0.827301 0.665599 0.481394
O O13 0.817838 0.669148 0.980499
#
# Coordination Sequence:
#
# PCOD9255471 Si02
#       6
#     8   8   8   8   8   8
#     4   9  21  34  50  71  91 112 161 203 238 290
#     4  12  26  35  48  66  93 128 154 203 253 279
#     4  10  20  35  49  59  81 120 172 210 234 266
#     4  10  19  29  46  68  92 124 152 194 243 278
#     4   9  19  30  57  70  86 113 150 214 238 265
#     4  10  17  31  50  72  90 115 152 200 235 284
#
# _framework density 16.988931000000001
#
# number of rings (size 3 to 8) (size 9 to 14) (size 15 to 20)
#    1.000    1.000    1.667    2.500    2.333    3.333 
#    0.000    0.000    0.000    0.000    0.000    0.000 
#    0.000    0.000    0.000    0.000    0.000   58.333 
#
# Total GULP energy -133775.025793 kJ/mol
# GULP energy per Si atom -5573.959408 kJ/mol
# Density = 1.695026 g / cm^3
# Si number density = 16.988931 Si / 1000 Ang^3
#
#
#
# Elastic Constant Matrix: (Units=GPa)
#
#
# Indices 1 2 3 4 5 6 
#
# 1 9.7965 5.3410 -7.5501 0.0000 -3.9982 0.0000
# 2 5.3410 101.8501 19.0123 0.0000 -16.3532 0.0000
# 3 -7.5501 19.0123 93.4842 0.0000 -1.4685 0.0000
# 4 0.0000 0.0000 0.0000 20.0484 0.0000 1.6172
# 5 -3.9982 -16.3532 -1.4685 0.0000 8.5531 0.0000
# 6 0.0000 0.0000 0.0000 1.6172 0.0000 12.1009
#
#
#
# Elastic Compliance Matrix: (Units=1/GPa)
#
#
# Indices 1 2 3 4 5 6 
#
# 1 0.139109 0.001790 0.011978 0.000000 0.070507 0.000000
# 2 0.001790 0.014780 -0.002411 0.000000 0.028681 0.000000
# 3 0.011978 -0.002411 0.012203 0.000000 0.003085 0.000000
# 4 0.000000 0.000000 0.000000 0.050423 0.000000 -0.006739
# 5 0.070507 0.028681 0.003085 0.000000 0.205243 0.000000
# 6 0.000000 0.000000 0.000000 -0.006739 0.000000 0.083539
#
#
# Mechanical properties :
#
#
# Convention : Reuss Voigt Hill
#
# Bulk Modulus (GPa) = 5.29640 26.52636 15.91138
# Shear Modulus (GPa) = 9.16560 20.69564 14.93062
#
# Velocity S-wave (km/s) = 2.32524 3.49404 2.96775
# Velocity P-wave (km/s) = 3.21455 5.65027 4.59668
#
# Compressibility (1/GPa) = 0.18880732
#
# Stress axis : x y z
#
# Youngs Moduli (GPa) = 7.18859 67.66124 81.94605
#
# Poissons Ratio (x) = -0.12111 -0.98159
# Poissons Ratio (y) = -0.01287 0.19755
# Poissons Ratio (z) = -0.08611 0.16311
#
# Static dielectric constant tensor:
#      x y z
#    x 1.566550 0.000000 0.021960 
#    y 0.000000 1.571320 0.000000 
#    z 0.021960 0.000000 1.589170 
# 
# From -- ./inp_files/13528.got.cif
#   From: 2010.05.17/outbox.cif.g08.bks.cpg/sg15_7_cif.got.tgz:13528.got - 2010.06.03 18:47:42.
