data_PCOD9255070
_publ_section_title
;
Structure prediction by ZEFSAII (Michael W. Deem and Ramdas Pophale) SiO2 
 PCOD9255070
Probable space group: C 2/C
;
_chemical_formula_sum "Si O2"
_cell_formula_units_Z 64
_cell_length_a 17.457463
_cell_length_b 26.710863
_cell_length_c 9.875333
_cell_angle_alpha 90.000000
_cell_angle_beta 61.380642
_cell_angle_gamma 90.000000
_cell_volume 4042.284361
_symmetry_space_group_name_H-M "C 2/C"
_symmetry_group_IT_number 15
_symmetry_cell_setting 'monoclinic'
loop_
_space_group_symop_operation_xyz
x,y,z
-x,y,1/2-z
-x,-y,-z
x,-y,1/2+z
1/2+x,1/2+y,z
1/2-x,1/2+y,1/2-z
1/2-x,1/2-y,-z
1/2+x,1/2-y,1/2+z
loop_
_atom_site_type_symbol
_atom_site_label
_atom_site_fract_x
_atom_site_fract_y
_atom_site_fract_z
Si Si1 0.061421 0.479543 0.828090
Si Si2 0.074225 0.612473 0.488995
Si Si3 0.164220 0.215590 0.075696
Si Si4 0.232812 0.159027 0.775205
Si Si5 0.399708 0.305430 0.307555
Si Si6 0.944205 0.725550 0.043102
Si Si7 0.622890 0.913134 0.247303
Si Si8 0.142572 0.245815 0.383103
O O1 0.124446 0.526462 0.746265
O O2 0.000000 0.470817 0.750000
O O3 0.100007 0.428425 0.854826
O O4 0.000000 0.500000 0.000000
O O5 0.087262 0.668777 0.429127
O O6 0.121926 0.604172 0.591726
O O7 0.971096 0.603782 0.611399
O O8 0.145446 0.209700 0.249588
O O9 0.250000 0.250000 0.000000
O O10 0.185913 0.169422 0.959465
O O11 0.089232 0.247475 0.064635
O O12 0.159447 0.154899 0.722215
O O13 0.300700 0.114230 0.736430
O O14 0.286618 0.210015 0.692562
O O15 0.500000 0.321398 0.250000
O O16 0.408428 0.258033 0.198130
O O17 0.354437 0.285984 0.482452
O O18 0.048284 0.727645 0.961374
#
# Coordination Sequence:
#
# PCOD9255070 Si02
#       8
#     8   8   8   8   8   8   8   8
#     4  10  18  32  47  66  94 125 156 196 236 272
#     4  10  18  29  48  68  94 124 165 196 227 279
#     4   9  18  27  43  62  87 121 166 204 229 268
#     4  10  18  31  46  63  88 126 166 197 238 287
#     4   9  20  32  43  65  98 125 157 198 243 284
#     4  10  18  29  44  68  90 127 170 194 229 286
#     4  10  18  30  48  66  88 128 163 196 235 280
#     4  10  17  28  44  61  90 121 158 204 239 274
#
# _framework density 15.832632
#
# number of rings (size 3 to 8) (size 9 to 14) (size 15 to 20)
#    0.000    2.250    3.750    2.250    1.750    1.500 
#    0.000    0.000    0.000    0.000    0.000    0.000 
#    0.000    1.000    0.000    8.625    0.000   10.500 
#
# Total GULP energy -178285.578773 kJ/mol
# GULP energy per Si atom -5571.424337 kJ/mol
# Density = 1.579660 g / cm^3
# Si number density = 15.832632 Si / 1000 Ang^3
#
#
#
# Elastic Constant Matrix: (Units=GPa)
#
#
# Indices 1 2 3 4 5 6 
#
# 1 89.1756 37.5214 24.6655 0.0000 19.2371 0.0000
# 2 37.5214 41.7004 9.3872 0.0000 4.0526 0.0000
# 3 24.6655 9.3872 79.8689 0.0000 21.8500 0.0000
# 4 0.0000 0.0000 0.0000 8.8596 0.0000 2.4339
# 5 19.2371 4.0526 21.8500 0.0000 20.2865 0.0000
# 6 0.0000 0.0000 0.0000 2.4339 0.0000 18.9139
#
#
#
# Elastic Compliance Matrix: (Units=1/GPa)
#
#
# Indices 1 2 3 4 5 6 
#
# 1 0.023151 -0.019077 0.000079 0.000000 -0.018228 0.000000
# 2 -0.019077 0.040447 -0.002270 0.000000 0.012455 0.000000
# 3 0.000079 -0.002270 0.017948 0.000000 -0.018953 0.000000
# 4 0.000000 0.000000 0.000000 0.117008 0.000000 -0.015057
# 5 -0.018228 0.012455 -0.018953 0.000000 0.084504 0.000000
# 6 0.000000 0.000000 0.000000 -0.015057 0.000000 0.054809
#
#
# Mechanical properties :
#
#
# Convention : Reuss Voigt Hill
#
# Bulk Modulus (GPa) = 25.63449 39.32145 32.47797
# Shear Modulus (GPa) = 12.70955 18.89006 15.79981
#
# Velocity S-wave (km/s) = 2.83635 3.45789 3.16242
# Velocity P-wave (km/s) = 5.19159 6.39001 5.82172
#
# Compressibility (1/GPa) = 0.03900995
#
# Stress axis : x y z
#
# Youngs Moduli (GPa) = 43.19477 24.72398 55.71723
#
# Poissons Ratio (x) = 0.47167 -0.00441
# Poissons Ratio (y) = 0.82404 0.12645
# Poissons Ratio (z) = -0.00342 0.05611
#
# Static dielectric constant tensor:
#      x y z
#    x 1.554280 0.000000 0.005310 
#    y 0.000000 1.535510 0.000000 
#    z 0.005310 0.000000 1.558680 
# 
# From -- ./inp_files/52482.got.cif
#   From: 2010.05.17/outbox.cif.g08.bks.cpg/sg15_27_cif.got.tgz:52482.got - 2010.06.03 18:47:42.
