data_PCOD9255772
_publ_section_title
;
Structure prediction by ZEFSAII (Michael W. Deem and Ramdas Pophale) SiO2 
 PCOD9255772
Probable space group: C 2/C
;
_chemical_formula_sum "Si O2"
_cell_formula_units_Z 64
_cell_length_a 30.086182
_cell_length_b 21.240010
_cell_length_c 14.404289
_cell_angle_alpha 90.000000
_cell_angle_beta 158.299844
_cell_angle_gamma 90.000000
_cell_volume 3403.462476
_symmetry_space_group_name_H-M "C 2/C"
_symmetry_group_IT_number 15
_symmetry_cell_setting 'monoclinic'
loop_
_space_group_symop_operation_xyz
x,y,z
-x,y,1/2-z
-x,-y,-z
x,-y,1/2+z
1/2+x,1/2+y,z
1/2-x,1/2+y,1/2-z
1/2-x,1/2-y,-z
1/2+x,1/2-y,1/2+z
loop_
_atom_site_type_symbol
_atom_site_label
_atom_site_fract_x
_atom_site_fract_y
_atom_site_fract_z
Si Si1 0.800905 0.837807 0.015025
Si Si2 0.683087 0.628124 0.165268
Si Si3 0.054204 0.646370 0.133386
Si Si4 0.632718 0.489668 0.003220
Si Si5 0.625415 0.528880 0.780359
Si Si6 0.327786 0.960722 0.521018
Si Si7 0.985295 0.752883 0.116526
Si Si8 0.933772 0.593630 0.716087
O O1 0.874609 0.895535 0.204849
O O2 0.887881 0.779483 0.172439
O O3 0.774925 0.857921 0.858490
O O4 0.679015 0.826733 0.833536
O O5 0.624331 0.558366 0.039568
O O6 0.800090 0.622226 0.454886
O O7 0.598907 0.685127 0.035905
O O8 0.098386 0.598572 0.299100
O O9 0.962911 0.696901 0.000829
O O10 0.998095 0.610984 0.936197
O O11 0.739337 0.452775 0.261212
O O12 0.500000 0.460174 0.750000
O O13 0.657416 0.501151 0.943148
O O14 0.500000 0.500000 0.500000
O O15 0.734602 0.518798 0.921462
O O16 0.415394 0.018825 0.673502
O O17 0.000000 0.728033 0.250000
O O18 0.000000 0.614762 0.750000
#
# Coordination Sequence:
#
# PCOD9255772 Si02
#       8
#     8   8   8   8   8   8   8   8
#     4   9  18  34  59  83 114 146 194 238 289 345
#     4   9  18  34  59  87 109 145 200 245 290 326
#     4  11  22  39  55  87 119 159 193 232 293 362
#     4  10  17  32  57  87 120 150 185 245 293 338
#     4  10  18  31  56  90 118 146 188 244 293 342
#     4  10  23  35  55  87 120 155 196 232 297 364
#     4  10  21  37  60  85 111 149 198 250 285 346
#     4  11  22  39  61  83 117 154 195 248 290 349
#
# _framework density 18.804379999999998
#
# number of rings (size 3 to 8) (size 9 to 14) (size 15 to 20)
#    0.000    2.000    2.500    2.625    3.500    1.000 
#    2.250    0.000    0.000    0.000    0.000    0.000 
#    0.000    0.000    0.000    0.000    0.000    0.000 
#
# Total GULP energy -178347.375864 kJ/mol
# GULP energy per Si atom -5573.355496 kJ/mol
# Density = 1.876158 g / cm^3
# Si number density = 18.804380 Si / 1000 Ang^3
#
#
#
# Elastic Constant Matrix: (Units=GPa)
#
#
# Indices 1 2 3 4 5 6 
#
# 1 74.1042 30.8240 33.1094 0.0000 -14.2687 0.0000
# 2 30.8240 37.9825 29.5405 0.0000 -4.1351 0.0000
# 3 33.1094 29.5405 86.2833 0.0000 -18.5328 0.0000
# 4 0.0000 0.0000 0.0000 16.1576 0.0000 4.4418
# 5 -14.2687 -4.1351 -18.5328 0.0000 29.5978 0.0000
# 6 0.0000 0.0000 0.0000 4.4418 0.0000 25.2597
#
#
#
# Elastic Compliance Matrix: (Units=1/GPa)
#
#
# Indices 1 2 3 4 5 6 
#
# 1 0.022324 -0.016217 -0.001374 0.000000 0.007636 0.000000
# 2 -0.016217 0.047910 -0.012041 0.000000 -0.008664 0.000000
# 3 -0.001374 -0.012041 0.018181 0.000000 0.009039 0.000000
# 4 0.000000 0.000000 0.000000 0.065034 0.000000 -0.011436
# 5 0.007636 -0.008664 0.009039 0.000000 0.041917 0.000000
# 6 0.000000 0.000000 0.000000 -0.011436 0.000000 0.041600
#
#
# Mechanical properties :
#
#
# Convention : Reuss Voigt Hill
#
# Bulk Modulus (GPa) = 34.30355 42.81307 38.55831
# Shear Modulus (GPa) = 16.34273 21.19609 18.76941
#
# Velocity S-wave (km/s) = 2.95123 3.36101 3.16276
# Velocity P-wave (km/s) = 5.46763 6.15458 5.82125
#
# Compressibility (1/GPa) = 0.02915151
#
# Stress axis : x y z
#
# Youngs Moduli (GPa) = 44.79434 20.87265 55.00252
#
# Poissons Ratio (x) = 0.33849 0.07559
# Poissons Ratio (y) = 0.72642 0.66227
# Poissons Ratio (z) = 0.06156 0.25132
#
# Static dielectric constant tensor:
#      x y z
#    x 1.683040 0.000000 0.008040 
#    y 0.000000 1.676730 0.000000 
#    z 0.008040 0.000000 1.660760 
# 
# From -- ./inp_files/183149.got.cif
#   From: 2010.05.17/outbox.cif.g08.bks.cpg/sg15_92_cif.got.tgz:183149.got - 2010.06.03 18:47:42.
