data_PCOD9255092
_publ_section_title
;
Structure prediction by ZEFSAII (Michael W. Deem and Ramdas Pophale) SiO2 
 PCOD9255092
Probable space group: C 2/C
;
_chemical_formula_sum "Si O2"
_cell_formula_units_Z 56
_cell_length_a 11.342114
_cell_length_b 8.939409
_cell_length_c 24.397871
_cell_angle_alpha 90.000000
_cell_angle_beta 107.348779
_cell_angle_gamma 90.000000
_cell_volume 2361.206623
_symmetry_space_group_name_H-M "C 2/C"
_symmetry_group_IT_number 15
_symmetry_cell_setting 'monoclinic'
loop_
_space_group_symop_operation_xyz
x,y,z
-x,y,1/2-z
-x,-y,-z
x,-y,1/2+z
1/2+x,1/2+y,z
1/2-x,1/2+y,1/2-z
1/2-x,1/2-y,-z
1/2+x,1/2-y,1/2+z
loop_
_atom_site_type_symbol
_atom_site_label
_atom_site_fract_x
_atom_site_fract_y
_atom_site_fract_z
Si Si1 0.770280 0.495226 0.785308
Si Si2 0.165855 0.710089 0.611378
Si Si3 0.576290 0.732581 0.309893
Si Si4 0.619752 0.489248 0.658695
Si Si5 0.144610 0.533737 0.032676
Si Si6 0.887447 0.575021 0.586195
Si Si7 0.049093 0.683539 0.125061
O O1 0.774129 0.641685 0.824701
O O2 0.671969 0.379503 0.796067
O O3 0.725891 0.525014 0.717985
O O4 0.896154 0.405711 0.814827
O O5 0.168683 0.887965 0.615325
O O6 0.210758 0.614869 0.565326
O O7 0.022222 0.655235 0.594378
O O8 0.500000 0.810842 0.250000
O O9 0.478807 0.622586 0.326475
O O10 0.643146 0.843024 0.361559
O O11 0.552443 0.641580 0.633935
O O12 0.191257 0.590724 0.980304
O O13 0.134036 0.642714 0.083619
O O14 0.000000 0.500000 0.000000
O O15 0.919991 0.399822 0.597447
#
# Coordination Sequence:
#
# PCOD9255092 Si02
#       7
#     8   8   8   8   8   8   8
#     4   9  17  30  45  65  92 122 152 182 219 270
#     4   8  15  27  44  64  88 118 147 181 222 265
#     4   9  18  31  46  65  92 122 150 181 227 275
#     4  10  17  28  46  69  94 118 145 186 231 268
#     4   7  13  28  46  65  87 115 151 187 218 263
#     4   8  15  31  48  64  88 122 151 182 221 269
#     4   9  17  29  48  72  88 113 156 191 219 264
#
# _framework density 23.716688000000001
#
# number of rings (size 3 to 8) (size 9 to 14) (size 15 to 20)
#    0.000    4.000    0.000    0.857    0.000    1.143 
#    0.000   17.857    0.000    0.000    0.000   38.000 
#    0.000    0.000    0.000    0.000    0.000    0.000 
#
# Total GULP energy -156077.856607 kJ/mol
# GULP energy per Si atom -5574.209165 kJ/mol
# Density = 2.366271 g / cm^3
# Si number density = 23.716688 Si / 1000 Ang^3
#
#
#
# Elastic Constant Matrix: (Units=GPa)
#
#
# Indices 1 2 3 4 5 6 
#
# 1 35.8219 3.1159 13.8148 0.0000 -4.3055 0.0000
# 2 3.1159 162.0060 66.8753 0.0000 -0.1432 0.0000
# 3 13.8148 66.8753 116.1645 0.0000 -3.9919 0.0000
# 4 0.0000 0.0000 0.0000 10.4739 0.0000 4.3704
# 5 -4.3055 -0.1432 -3.9919 0.0000 21.7619 0.0000
# 6 0.0000 0.0000 0.0000 4.3704 0.0000 19.4462
#
#
#
# Elastic Compliance Matrix: (Units=1/GPa)
#
#
# Indices 1 2 3 4 5 6 
#
# 1 0.029995 0.001084 -0.004012 0.000000 0.005205 0.000000
# 2 0.001084 0.008150 -0.004842 0.000000 -0.000620 0.000000
# 3 -0.004012 -0.004842 0.011920 0.000000 0.001361 0.000000
# 4 0.000000 0.000000 0.000000 0.105355 0.000000 -0.023678
# 5 0.005205 -0.000620 0.001361 0.000000 0.047227 0.000000
# 6 0.000000 0.000000 0.000000 -0.023678 0.000000 0.056745
#
#
# Mechanical properties :
#
#
# Convention : Reuss Voigt Hill
#
# Bulk Modulus (GPa) = 28.96561 53.51162 41.23861
# Shear Modulus (GPa) = 17.45557 25.68216 21.56887
#
# Velocity S-wave (km/s) = 2.71588 3.29427 3.01896
# Velocity P-wave (km/s) = 4.69834 6.08946 5.43856
#
# Compressibility (1/GPa) = 0.03452370
#
# Stress axis : x y z
#
# Youngs Moduli (GPa) = 33.33939 122.69892 83.89261
#
# Poissons Ratio (x) = -0.13300 0.33660
# Poissons Ratio (y) = -0.03614 0.40622
# Poissons Ratio (z) = 0.13377 0.59413
#
# Static dielectric constant tensor:
#      x y z
#    x 2.033380 0.000000 -0.074320 
#    y 0.000000 1.917010 0.000000 
#    z -0.074320 0.000000 1.994260 
# 
# From -- ./inp_files/294854.got.cif
#   From: 2010.05.17/outbox.cif.g08.bks.cpg/sg15_148_cif.got.tgz:294854.got - 2010.06.03 18:47:42.
