data_PCOD9255474
_publ_section_title
;
Structure prediction by ZEFSAII (Michael W. Deem and Ramdas Pophale) SiO2 
 PCOD9255474
Probable space group: C 2/C
;
_chemical_formula_sum "Si O2"
_cell_formula_units_Z 56
_cell_length_a 14.578453
_cell_length_b 22.168300
_cell_length_c 10.248939
_cell_angle_alpha 90.000000
_cell_angle_beta 69.871145
_cell_angle_gamma 90.000000
_cell_volume 3109.938639
_symmetry_space_group_name_H-M "C 2/C"
_symmetry_group_IT_number 15
_symmetry_cell_setting 'monoclinic'
loop_
_space_group_symop_operation_xyz
x,y,z
-x,y,1/2-z
-x,-y,-z
x,-y,1/2+z
1/2+x,1/2+y,z
1/2-x,1/2+y,1/2-z
1/2-x,1/2-y,-z
1/2+x,1/2-y,1/2+z
loop_
_atom_site_type_symbol
_atom_site_label
_atom_site_fract_x
_atom_site_fract_y
_atom_site_fract_z
Si Si1 0.894006 0.755893 0.032132
Si Si2 0.612122 0.668426 0.700319
Si Si3 0.002938 0.442628 0.404821
Si Si4 0.610018 0.352858 0.699251
Si Si5 0.804851 0.368658 0.505086
Si Si6 0.801645 0.634717 0.694284
Si Si7 0.384537 0.260386 0.568842
O O1 0.881728 0.790195 0.173720
O O2 0.824342 0.699396 0.045397
O O3 0.887387 0.803411 0.918035
O O4 0.005805 0.734485 0.974269
O O5 0.500000 0.645194 0.750000
O O6 0.698376 0.619617 0.676040
O O7 0.628954 0.710447 0.566124
O O8 0.102887 0.405261 0.382310
O O9 0.000000 0.456640 0.250000
O O10 0.000000 0.500000 0.500000
O O11 0.904384 0.404826 0.481277
O O12 0.500000 0.379776 0.750000
O O13 0.706163 0.392186 0.622675
O O14 0.623317 0.315180 0.825197
O O15 0.790819 0.366860 0.355982
O O16 0.820152 0.703417 0.638710
#
# Coordination Sequence:
#
# PCOD9255474 Si02
#       7
#     8   8   8   8   8   8   8
#     4  10  17  31  50  78 113 149 185 215 257 334
#     4  10  21  32  47  80 123 150 174 215 268 333
#     4  10  24  44  63  82 105 139 194 246 283 322
#     4  10  19  29  52  81 114 144 180 220 253 332
#     4  11  19  34  59  78 103 148 188 225 275 323
#     4  11  19  35  58  75 107 151 185 220 277 332
#     4  10  19  30  47  81 117 146 184 215 262 325
#
# _framework density 18.006786000000002
#
# number of rings (size 3 to 8) (size 9 to 14) (size 15 to 20)
#    0.000    1.714    4.286    1.714    0.000    0.000 
#    5.143    0.000    0.000    0.857    0.000    4.000 
#    0.000    0.000    0.000    0.000    0.000    0.000 
#
# Total GULP energy -156065.079811 kJ/mol
# GULP energy per Si atom -5573.752850 kJ/mol
# Density = 1.796580 g / cm^3
# Si number density = 18.006786 Si / 1000 Ang^3
#
#
#
# Elastic Constant Matrix: (Units=GPa)
#
#
# Indices 1 2 3 4 5 6 
#
# 1 170.0575 38.3752 37.7481 0.0000 -26.5210 0.0000
# 2 38.3752 28.1995 12.5987 0.0000 -2.2824 0.0000
# 3 37.7481 12.5987 69.4414 0.0000 -6.4980 0.0000
# 4 0.0000 0.0000 0.0000 16.2759 0.0000 1.5964
# 5 -26.5210 -2.2824 -6.4980 0.0000 39.1192 0.0000
# 6 0.0000 0.0000 0.0000 1.5964 0.0000 12.4019
#
#
#
# Elastic Compliance Matrix: (Units=1/GPa)
#
#
# Indices 1 2 3 4 5 6 
#
# 1 0.010101 -0.012047 -0.002773 0.000000 0.005684 0.000000
# 2 -0.012047 0.053004 -0.003599 0.000000 -0.005672 0.000000
# 3 -0.002773 -0.003599 0.016624 0.000000 0.000671 0.000000
# 4 0.000000 0.000000 0.000000 0.062226 0.000000 -0.008010
# 5 0.005684 -0.005672 0.000671 0.000000 0.029197 0.000000
# 6 0.000000 0.000000 0.000000 -0.008010 0.000000 0.081664
#
#
# Mechanical properties :
#
#
# Convention : Reuss Voigt Hill
#
# Bulk Modulus (GPa) = 23.31466 49.46025 36.38746
# Shear Modulus (GPa) = 16.45002 25.49115 20.97059
#
# Velocity S-wave (km/s) = 3.02577 3.76658 3.41632
# Velocity P-wave (km/s) = 5.01825 6.81494 5.98441
#
# Compressibility (1/GPa) = 0.04289146
#
# Stress axis : x y z
#
# Youngs Moduli (GPa) = 99.00080 18.86647 60.15438
#
# Poissons Ratio (x) = 0.22728 0.16682
# Poissons Ratio (y) = 1.19264 0.21648
# Poissons Ratio (z) = 0.27456 0.06790
#
# Static dielectric constant tensor:
#      x y z
#    x 1.745550 0.000000 -0.054580 
#    y 0.000000 1.566640 0.000000 
#    z -0.054580 0.000000 1.619740 
# 
# From -- ./inp_files/42121.got.cif
#   From: 2010.05.17/outbox.cif.g08.bks.cpg/sg15_22_cif.got.tgz:42121.got - 2010.06.03 18:47:42.
