data_PCOD9255900
_publ_section_title
;
Structure prediction by ZEFSAII (Michael W. Deem and Ramdas Pophale) SiO2 
 PCOD9255900
Probable space group: C 2/C
;
_chemical_formula_sum "Si O2"
_cell_formula_units_Z 52
_cell_length_a 15.732997
_cell_length_b 14.798307
_cell_length_c 8.684182
_cell_angle_alpha 90.000000
_cell_angle_beta 94.344338
_cell_angle_gamma 90.000000
_cell_volume 2016.056987
_symmetry_space_group_name_H-M "C 2/C"
_symmetry_group_IT_number 15
_symmetry_cell_setting 'monoclinic'
loop_
_space_group_symop_operation_xyz
x,y,z
-x,y,1/2-z
-x,-y,-z
x,-y,1/2+z
1/2+x,1/2+y,z
1/2-x,1/2+y,1/2-z
1/2-x,1/2-y,-z
1/2+x,1/2-y,1/2+z
loop_
_atom_site_type_symbol
_atom_site_label
_atom_site_fract_x
_atom_site_fract_y
_atom_site_fract_z
Si Si1 0.122080 0.404488 0.588033
Si Si2 0.062982 0.950276 0.888665
Si Si3 0.317148 0.562848 0.829924
Si Si4 0.384634 0.752362 0.481479
Si Si5 0.500000 0.768702 0.750000
Si Si6 0.865424 0.399023 0.266423
Si Si7 0.751263 0.627082 0.157964
O O1 0.057568 0.335900 0.658382
O O2 0.111910 0.403190 0.407266
O O3 0.114097 0.505711 0.651616
O O4 0.214330 0.372934 0.663940
O O5 0.122717 0.018313 0.794271
O O6 0.000000 0.906397 0.750000
O O7 0.125808 0.899640 0.020787
O O8 0.000000 0.000000 0.000000
O O9 0.238759 0.620393 0.747066
O O10 0.263577 0.476681 0.889122
O O11 0.446544 0.713626 0.618959
O O12 0.417229 0.821932 0.360371
O O13 0.336354 0.675695 0.384312
O O14 0.320311 0.818363 0.568101
#
# Coordination Sequence:
#
# PCOD9255900 Si02
#       7
#     8   8   8   8   4   8   8
#     4  10  21  36  59  89 118 147 199 241 299 346
#     4   9  18  30  50  77 110 143 180 236 287 338
#     4  10  17  33  56  80 110 145 191 238 286 337
#     4  10  21  37  58  84 118 154 199 236 299 349
#     4  10  22  40  58  80 120 160 186 246 302 356
#     4  11  21  35  61  91 111 151 199 247 287 352
#     4   9  19  37  58  81 115 153 196 243 279 358
#
# _framework density 25.792922000000001
#
# number of rings (size 3 to 8) (size 9 to 14) (size 15 to 20)
#    0.000    2.154    0.000    5.538    0.000    3.692 
#    1.385    0.000   20.308    0.000    0.000    0.000 
#    0.000    0.000    0.000    0.000    0.000    0.000 
#
# Total GULP energy -145443.542313 kJ/mol
# GULP energy per Si atom -5593.982397 kJ/mol
# Density = 2.573422 g / cm^3
# Si number density = 25.792922 Si / 1000 Ang^3
#
#
#
# Elastic Constant Matrix: (Units=GPa)
#
#
# Indices 1 2 3 4 5 6 
#
# 1 86.3586 7.9843 30.8168 0.0000 0.9635 0.0000
# 2 7.9843 54.2930 17.1856 0.0000 10.3530 0.0000
# 3 30.8168 17.1856 160.2344 0.0000 18.6266 0.0000
# 4 0.0000 0.0000 0.0000 2.7680 0.0000 -2.4160
# 5 0.9635 10.3530 18.6266 0.0000 55.3181 0.0000
# 6 0.0000 0.0000 0.0000 -2.4160 0.0000 12.2352
#
#
#
# Elastic Compliance Matrix: (Units=1/GPa)
#
#
# Indices 1 2 3 4 5 6 
#
# 1 0.012532 -0.001248 -0.002371 0.000000 0.000814 0.000000
# 2 -0.001248 0.019680 -0.001504 0.000000 -0.003155 0.000000
# 3 -0.002371 -0.001504 0.007098 0.000000 -0.002067 0.000000
# 4 0.000000 0.000000 0.000000 0.436514 0.000000 0.086197
# 5 0.000814 -0.003155 -0.002067 0.000000 0.019350 0.000000
# 6 0.000000 0.000000 0.000000 0.086197 0.000000 0.098752
#
#
# Mechanical properties :
#
#
# Convention : Reuss Voigt Hill
#
# Bulk Modulus (GPa) = 34.40559 45.87328 40.13943
# Shear Modulus (GPa) = 8.14519 30.39087 19.26803
#
# Velocity S-wave (km/s) = 1.77898 3.43631 2.73615
# Velocity P-wave (km/s) = 4.19378 5.79380 5.05747
#
# Compressibility (1/GPa) = 0.02906504
#
# Stress axis : x y z
#
# Youngs Moduli (GPa) = 79.79593 50.81373 140.87513
#
# Poissons Ratio (x) = 0.06340 0.33401
# Poissons Ratio (y) = 0.09955 0.21188
# Poissons Ratio (z) = 0.18919 0.07642
#
# Static dielectric constant tensor:
#      x y z
#    x 2.198120 0.000000 0.041610 
#    y 0.000000 1.990460 0.000000 
#    z 0.041610 0.000000 2.021830 
# 
# From -- ./inp_files/48577.got.cif
#   From: 2010.05.17/outbox.cif.g08.bks.cpg/sg15_25_cif.got.tgz:48577.got - 2010.06.03 18:47:42.
