data_PCOD9255892
_publ_section_title
;
Structure prediction by ZEFSAII (Michael W. Deem and Ramdas Pophale) SiO2 
 PCOD9255892
Probable space group: C 2/C
;
_chemical_formula_sum "Si O2"
_cell_formula_units_Z 60
_cell_length_a 15.770386
_cell_length_b 21.295257
_cell_length_c 13.232581
_cell_angle_alpha 90.000000
_cell_angle_beta 42.630599
_cell_angle_gamma 90.000000
_cell_volume 3009.753721
_symmetry_space_group_name_H-M "C 2/C"
_symmetry_group_IT_number 15
_symmetry_cell_setting 'monoclinic'
loop_
_space_group_symop_operation_xyz
x,y,z
-x,y,1/2-z
-x,-y,-z
x,-y,1/2+z
1/2+x,1/2+y,z
1/2-x,1/2+y,1/2-z
1/2-x,1/2-y,-z
1/2+x,1/2-y,1/2+z
loop_
_atom_site_type_symbol
_atom_site_label
_atom_site_fract_x
_atom_site_fract_y
_atom_site_fract_z
Si Si1 0.915551 0.615189 0.414889
Si Si2 0.850142 0.194064 0.400593
Si Si3 0.015273 0.747121 0.114069
Si Si4 0.904975 0.144837 0.570154
Si Si5 0.000000 0.922994 0.250000
Si Si6 0.797938 0.156806 0.045442
Si Si7 0.279182 0.536231 0.809129
Si Si8 0.184434 0.892817 0.763514
O O1 0.983200 0.673276 0.411053
O O2 0.799634 0.648245 0.457709
O O3 0.853078 0.560578 0.533509
O O4 0.000000 0.589905 0.250000
O O5 0.750000 0.250000 0.500000
O O6 0.847701 0.162704 0.512899
O O7 0.807145 0.147956 0.346506
O O8 0.000000 0.210532 0.250000
O O9 0.000000 0.752333 0.250000
O O10 0.928269 0.793145 0.121643
O O11 0.154536 0.773754 0.974305
O O12 0.824099 0.090891 0.693931
O O13 0.039205 0.115050 0.423320
O O14 0.922331 0.880146 0.396739
O O15 0.891458 0.962533 0.293154
O O16 0.748166 0.132311 0.195153
O O17 0.276414 0.464851 0.778112
#
# Coordination Sequence:
#
# PCOD9255892 Si02
#       8
#     8   8   8   8   4   8   8   8
#     4  10  23  35  53  83 123 159 193 239 297 376
#     4  10  24  44  63  90 125 168 219 263 305 362
#     4  10  17  33  55  86 115 149 189 243 310 360
#     4  10  21  35  62  92 121 149 201 259 313 367
#     4  10  18  30  58  86 118 140 176 244 310 366
#     4  10  18  35  56  84 114 148 191 243 303 361
#     4  11  21  36  59  90 121 152 195 252 316 367
#     4  10  22  37  61  89 119 158 200 254 309 358
#
# _framework density 19.935186000000002
#
# number of rings (size 3 to 8) (size 9 to 14) (size 15 to 20)
#    0.000    1.867    3.333    1.600    2.800    7.467 
#    0.000    1.333    0.000    0.000    0.000    0.000 
#    0.000    0.000    0.000    0.000    0.000    0.000 
#
# Total GULP energy -167128.750517 kJ/mol
# GULP energy per Si atom -5570.958351 kJ/mol
# Density = 1.988981 g / cm^3
# Si number density = 19.935186 Si / 1000 Ang^3
#
#
#
# Elastic Constant Matrix: (Units=GPa)
#
#
# Indices 1 2 3 4 5 6 
#
# 1 48.2888 45.2480 23.3667 0.0009 20.5754 -0.0005
# 2 45.2480 131.7962 78.5102 0.0004 4.1688 -0.0003
# 3 23.3667 78.5102 104.1220 0.0008 9.1825 -0.0006
# 4 0.0009 0.0004 0.0008 25.3461 -0.0009 1.7786
# 5 20.5754 4.1688 9.1825 -0.0009 29.6985 0.0004
# 6 -0.0005 -0.0003 -0.0006 1.7786 0.0004 3.6176
#
#
#
# Elastic Compliance Matrix: (Units=1/GPa)
#
#
# Indices 1 2 3 4 5 6 
#
# 1 0.051992 -0.021128 0.007379 -0.000004 -0.035336 0.000013
# 2 -0.021128 0.022410 -0.013539 0.000002 0.015678 -0.000006
# 3 0.007379 -0.013539 0.018957 -0.000001 -0.009073 0.000005
# 4 -0.000004 0.000002 -0.000001 0.040864 0.000004 -0.020091
# 5 -0.035336 0.015678 -0.009073 0.000004 0.058758 -0.000014
# 6 0.000013 -0.000006 0.000005 -0.020091 -0.000014 0.286308
#
#
# Mechanical properties :
#
#
# Convention : Reuss Voigt Hill
#
# Bulk Modulus (GPa) = 25.78393 64.27297 45.02845
# Shear Modulus (GPa) = 9.14427 20.87123 15.00775
#
# Velocity S-wave (km/s) = 2.14405 3.23918 2.74675
# Velocity P-wave (km/s) = 4.36935 6.80446 5.71804
#
# Compressibility (1/GPa) = 0.03878385
#
# Stress axis : x y z
#
# Youngs Moduli (GPa) = 19.23387 44.62257 52.75120
#
# Poissons Ratio (x) = 0.94277 -0.38927
# Poissons Ratio (y) = 0.40637 0.71420
# Poissons Ratio (z) = -0.14193 0.60414
#
# Static dielectric constant tensor:
#      x y z
#    x 1.798260 0.000000 -0.016350 
#    y 0.000000 1.731720 0.000000 
#    z -0.016350 0.000000 1.743230 
# 
# From -- ./inp_files/163529.got.cif
#   From: 2010.05.17/outbox.cif.g08.bks.cpg/sg15_82_cif.got.tgz:163529.got - 2010.06.03 18:47:42.
