data_PCOD9255876
_publ_section_title
;
Structure prediction by ZEFSAII (Michael W. Deem and Ramdas Pophale) SiO2 
 PCOD9255876
Probable space group: C 2/C
;
_chemical_formula_sum "Si O2"
_cell_formula_units_Z 64
_cell_length_a 9.404970
_cell_length_b 20.195554
_cell_length_c 14.824683
_cell_angle_alpha 90.000000
_cell_angle_beta 74.894789
_cell_angle_gamma 90.000000
_cell_volume 2718.491057
_symmetry_space_group_name_H-M "C 2/C"
_symmetry_group_IT_number 15
_symmetry_cell_setting 'monoclinic'
loop_
_space_group_symop_operation_xyz
x,y,z
-x,y,1/2-z
-x,-y,-z
x,-y,1/2+z
1/2+x,1/2+y,z
1/2-x,1/2+y,1/2-z
1/2-x,1/2-y,-z
1/2+x,1/2-y,1/2+z
loop_
_atom_site_type_symbol
_atom_site_label
_atom_site_fract_x
_atom_site_fract_y
_atom_site_fract_z
Si Si1 0.919742 0.274377 0.678700
Si Si2 0.392165 0.795637 0.482441
Si Si3 0.969052 0.133196 0.908552
Si Si4 0.857504 0.439417 0.444823
Si Si5 0.121815 0.285410 0.304865
Si Si6 0.813031 0.425072 0.127073
Si Si7 0.951107 0.939874 0.940894
Si Si8 0.825795 0.014613 0.689886
O O1 0.912244 0.312366 0.584902
O O2 0.763015 0.253400 0.745862
O O3 0.000000 0.307837 0.750000
O O4 0.003596 0.205507 0.636781
O O5 0.250000 0.750000 0.500000
O O6 0.353678 0.860199 0.429809
O O7 0.542562 0.768247 0.413233
O O8 0.804018 0.105574 0.923143
O O9 0.073029 0.080610 0.839073
O O10 0.015333 0.124836 0.005206
O O11 0.724115 0.448375 0.538030
O O12 0.799916 0.479002 0.366644
O O13 0.029799 0.447300 0.436786
O O14 0.160058 0.362828 0.309989
O O15 0.000000 0.274931 0.250000
O O16 0.744266 0.480689 0.201479
O O17 0.064744 0.952808 0.842470
O O18 0.000000 0.000000 0.000000
#
# Coordination Sequence:
#
# PCOD9255876 Si02
#       8
#     8   8   8   8   8   8   8   8
#     4  12  22  37  56  88 128 159 211 266 299 368
#     4  11  21  34  58  87 119 166 204 255 313 361
#     4  10  18  32  51  80 116 147 184 247 310 347
#     4   9  19  33  51  82 114 148 193 240 294 360
#     4  11  21  35  55  88 121 149 209 259 302 357
#     4  11  18  29  55  85 113 146 185 255 310 344
#     4   8  18  33  52  78 112 145 186 242 306 373
#     4  10  17  33  54  82 110 145 186 249 313 359
#
# _framework density 23.542472
#
# number of rings (size 3 to 8) (size 9 to 14) (size 15 to 20)
#    0.000    2.000    3.750    3.750    1.750    0.500 
#    0.000    5.625    0.000    0.000   39.000    0.000 
#    0.000    0.000    0.000    0.000    0.000    0.000 
#
# Total GULP energy -178612.112936 kJ/mol
# GULP energy per Si atom -5581.628529 kJ/mol
# Density = 2.348889 g / cm^3
# Si number density = 23.542472 Si / 1000 Ang^3
#
#
#
# Elastic Constant Matrix: (Units=GPa)
#
#
# Indices 1 2 3 4 5 6 
#
# 1 162.6467 6.3440 50.4260 0.0000 -29.7881 0.0000
# 2 6.3440 19.9612 20.2978 0.0000 -12.5742 0.0000
# 3 50.4260 20.2978 123.0886 0.0000 -19.1239 0.0000
# 4 0.0000 0.0000 0.0000 29.9173 0.0000 -3.3406
# 5 -29.7881 -12.5742 -19.1239 0.0000 46.3361 0.0000
# 6 0.0000 0.0000 0.0000 -3.3406 0.0000 18.4000
#
#
#
# Elastic Compliance Matrix: (Units=1/GPa)
#
#
# Indices 1 2 3 4 5 6 
#
# 1 0.007827 0.003622 -0.003066 0.000000 0.004749 0.000000
# 2 0.003622 0.070322 -0.010422 0.000000 0.017110 0.000000
# 3 -0.003066 -0.010422 0.011063 0.000000 -0.000233 0.000000
# 4 0.000000 0.000000 0.000000 0.034117 0.000000 0.006194
# 5 0.004749 0.017110 -0.000233 0.000000 0.029182 0.000000
# 6 0.000000 0.000000 0.000000 0.006194 0.000000 0.055472
#
#
# Mechanical properties :
#
#
# Convention : Reuss Voigt Hill
#
# Bulk Modulus (GPa) = 14.39258 51.09244 32.74251
# Shear Modulus (GPa) = 19.93023 34.17259 27.05141
#
# Velocity S-wave (km/s) = 2.91274 3.81403 3.39344
# Velocity P-wave (km/s) = 4.17597 6.41444 5.41220
#
# Compressibility (1/GPa) = 0.06948025
#
# Stress axis : x y z
#
# Youngs Moduli (GPa) = 127.75544 14.22028 90.39438
#
# Poissons Ratio (x) = -0.05150 0.27715
# Poissons Ratio (y) = -0.46272 0.94207
# Poissons Ratio (z) = 0.39170 0.14820
#
# Static dielectric constant tensor:
#      x y z
#    x 1.945980 0.000000 0.010010 
#    y 0.000000 1.943880 0.000000 
#    z 0.010010 0.000000 1.983380 
# 
# From -- ./inp_files/138590.got.cif
#   From: 2010.05.17/outbox.cif.g08.bks.cpg/sg15_70_cif.got.tgz:138590.got - 2010.06.03 18:47:42.
