data_PCOD9255889
_publ_section_title
;
Structure prediction by ZEFSAII (Michael W. Deem and Ramdas Pophale) SiO2 
 PCOD9255889
Probable space group: C 2/C
;
_chemical_formula_sum "Si O2"
_cell_formula_units_Z 44
_cell_length_a 12.440215
_cell_length_b 8.172232
_cell_length_c 22.733222
_cell_angle_alpha 90.000000
_cell_angle_beta 131.693875
_cell_angle_gamma 90.000000
_cell_volume 1725.762875
_symmetry_space_group_name_H-M "C 2/C"
_symmetry_group_IT_number 15
_symmetry_cell_setting 'monoclinic'
loop_
_space_group_symop_operation_xyz
x,y,z
-x,y,1/2-z
-x,-y,-z
x,-y,1/2+z
1/2+x,1/2+y,z
1/2-x,1/2+y,1/2-z
1/2-x,1/2-y,-z
1/2+x,1/2-y,1/2+z
loop_
_atom_site_type_symbol
_atom_site_label
_atom_site_fract_x
_atom_site_fract_y
_atom_site_fract_z
Si Si1 0.298993 0.589391 0.597757
Si Si2 0.704240 0.925508 0.457320
Si Si3 0.889609 0.336962 0.372054
Si Si4 0.500000 0.809809 0.750000
Si Si5 0.666765 0.764596 0.329521
Si Si6 0.742242 0.103067 0.248521
O O1 0.284479 0.565716 0.522713
O O2 0.152060 0.655427 0.575163
O O3 0.418022 0.702750 0.670815
O O4 0.323971 0.406037 0.631439
O O5 0.750000 0.750000 0.500000
O O6 0.535383 0.930237 0.411325
O O7 0.716840 0.906878 0.392018
O O8 0.880691 0.160638 0.337136
O O9 0.764472 0.437989 0.292104
O O10 0.382804 0.900926 0.748102
O O11 0.500000 0.783053 0.250000
O O12 0.763717 0.733109 0.307749
#
# Coordination Sequence:
#
# PCOD9255889 Si02
#       6
#     8   8   8   4   8   8
#     4   9  19  34  58  81 115 156 196 243 285 354
#     4  10  20  32  58  89 118 152 195 249 289 344
#     4  10  20  37  58  88 119 153 202 238 292 345
#     4  10  20  38  56  82 116 158 204 230 300 356
#     4  10  17  33  55  85 116 145 198 240 290 340
#     4  10  22  35  60  85 116 159 192 248 282 351
#
# _framework density 25.495972999999999
#
# number of rings (size 3 to 8) (size 9 to 14) (size 15 to 20)
#    0.000    2.182    2.727    0.545    0.000    1.455 
#    0.000    1.818    0.000    2.182    0.000    0.000 
#    0.000    0.000    0.000    0.000    0.000    0.000 
#
# Total GULP energy -122838.591194 kJ/mol
# GULP energy per Si atom -5583.572327 kJ/mol
# Density = 2.543794 g / cm^3
# Si number density = 25.495973 Si / 1000 Ang^3
#
#
#
# Elastic Constant Matrix: (Units=GPa)
#
#
# Indices 1 2 3 4 5 6 
#
# 1 111.5737 8.5705 23.6535 0.0000 -29.5705 0.0000
# 2 8.5705 51.7383 22.8229 0.0000 -14.0872 0.0000
# 3 23.6535 22.8229 79.4835 0.0000 -26.0847 0.0000
# 4 0.0000 0.0000 0.0000 23.3586 0.0000 -3.1418
# 5 -29.5705 -14.0872 -26.0847 0.0000 39.8767 0.0000
# 6 0.0000 0.0000 0.0000 -3.1418 0.0000 24.2158
#
#
#
# Elastic Compliance Matrix: (Units=1/GPa)
#
#
# Indices 1 2 3 4 5 6 
#
# 1 0.011215 0.000721 -0.000932 0.000000 0.007962 0.000000
# 2 0.000721 0.022880 -0.005038 0.000000 0.005322 0.000000
# 3 -0.000932 -0.005038 0.017183 0.000000 0.008769 0.000000
# 4 0.000000 0.000000 0.000000 0.043571 0.000000 0.005653
# 5 0.007962 0.005322 0.008769 0.000000 0.038598 0.000000
# 6 0.000000 0.000000 0.000000 0.005653 0.000000 0.042029
#
#
# Mechanical properties :
#
#
# Convention : Reuss Voigt Hill
#
# Bulk Modulus (GPa) = 24.52124 39.20993 31.86559
# Shear Modulus (GPa) = 25.05438 30.00679 27.53058
#
# Velocity S-wave (km/s) = 3.13817 3.43435 3.28960
# Velocity P-wave (km/s) = 4.77173 5.58020 5.19173
#
# Compressibility (1/GPa) = 0.04078097
#
# Stress axis : x y z
#
# Youngs Moduli (GPa) = 89.16713 43.70637 58.19731
#
# Poissons Ratio (x) = -0.03151 0.05422
# Poissons Ratio (y) = -0.06429 0.29318
# Poissons Ratio (z) = 0.08307 0.22018
#
# Static dielectric constant tensor:
#      x y z
#    x 2.027360 0.000000 0.060540 
#    y 0.000000 2.099860 0.000000 
#    z 0.060540 0.000000 2.105250 
# 
# From -- ./inp_files/203232.got.cif
#   From: 2010.05.17/outbox.cif.g08.bks.cpg/sg15_102_cif.got.tgz:203232.got - 2010.06.03 18:47:42.
