data_PCOD9255447
_publ_section_title
;
Structure prediction by ZEFSAII (Michael W. Deem and Ramdas Pophale) SiO2 
 PCOD9255447
Probable space group: C 2/C
;
_chemical_formula_sum "Si O2"
_cell_formula_units_Z 64
_cell_length_a 12.042639
_cell_length_b 23.259215
_cell_length_c 28.812585
_cell_angle_alpha 90.000000
_cell_angle_beta 28.305725
_cell_angle_gamma 90.000000
_cell_volume 3826.825703
_symmetry_space_group_name_H-M "C 2/C"
_symmetry_group_IT_number 15
_symmetry_cell_setting 'monoclinic'
loop_
_space_group_symop_operation_xyz
x,y,z
-x,y,1/2-z
-x,-y,-z
x,-y,1/2+z
1/2+x,1/2+y,z
1/2-x,1/2+y,1/2-z
1/2-x,1/2-y,-z
1/2+x,1/2-y,1/2+z
loop_
_atom_site_type_symbol
_atom_site_label
_atom_site_fract_x
_atom_site_fract_y
_atom_site_fract_z
Si Si1 0.471560 0.715720 0.939046
Si Si2 0.534363 0.872279 0.474422
Si Si3 0.282158 0.933361 0.649860
Si Si4 0.205186 0.817446 0.711610
Si Si5 0.445651 0.355548 0.175901
Si Si6 0.748639 0.940247 0.315330
Si Si7 0.399981 0.755141 0.165121
Si Si8 0.080210 0.242195 0.998464
O O1 0.673678 0.761158 0.853344
O O2 0.525265 0.659437 0.888984
O O3 0.250000 0.750000 0.000000
O O4 0.468643 0.710414 0.995408
O O5 0.397155 0.916887 0.558032
O O6 0.579206 0.899217 0.407513
O O7 0.410067 0.810559 0.517102
O O8 0.791058 0.859662 0.401310
O O9 0.343509 0.877401 0.658123
O O10 0.000000 0.938006 0.750000
O O11 0.349762 0.995195 0.645522
O O12 0.143940 0.799934 0.786177
O O13 0.000000 0.826301 0.750000
O O14 0.308091 0.412089 0.243843
O O15 0.302704 0.301949 0.251062
O O16 0.000000 0.939280 0.250000
O O17 0.427979 0.739179 0.101138
O O18 0.655762 0.778090 0.087525
#
# Coordination Sequence:
#
# PCOD9255447 Si02
#       8
#     8   8   8   8   8   8   8   8
#     4  11  19  30  49  74 102 136 172 207 262 309
#     4  11  18  32  50  74 108 138 172 212 264 318
#     4  10  18  30  49  71 103 141 177 211 264 319
#     4  10  17  31  47  69 100 134 166 209 255 309
#     4  10  20  32  50  73 108 139 173 209 256 314
#     4   9  19  31  47  74 105 140 172 214 262 316
#     4  10  21  31  48  73 107 141 171 208 264 310
#     4  11  19  32  48  73 107 138 169 213 258 313
#
# _framework density 16.724043000000002
#
# number of rings (size 3 to 8) (size 9 to 14) (size 15 to 20)
#    0.000    1.750    5.000    1.125    0.000    0.000 
#    0.000    0.000    0.000    0.000    0.000    0.875 
#    7.500    0.125    0.000    0.000    0.000    0.000 
#
# Total GULP energy -178137.606044 kJ/mol
# GULP energy per Si atom -5566.800189 kJ/mol
# Density = 1.668598 g / cm^3
# Si number density = 16.724043 Si / 1000 Ang^3
#
#
#
# Elastic Constant Matrix: (Units=GPa)
#
#
# Indices 1 2 3 4 5 6 
#
# 1 71.9161 15.4276 29.8562 0.0776 25.2710 -0.0115
# 2 15.4276 68.7864 10.7589 0.0859 12.3648 0.0153
# 3 29.8562 10.7589 74.8244 0.2344 13.9522 -0.0117
# 4 0.0776 0.0859 0.2344 9.4761 -0.0366 5.3492
# 5 25.2710 12.3648 13.9522 -0.0366 34.6545 -0.0136
# 6 -0.0115 0.0153 -0.0117 5.3492 -0.0136 13.9863
#
#
#
# Elastic Compliance Matrix: (Units=1/GPa)
#
#
# Indices 1 2 3 4 5 6 
#
# 1 0.021037 -0.001569 -0.005851 -0.000080 -0.012425 0.000033
# 2 -0.001569 0.015769 -0.000870 -0.000142 -0.004132 0.000031
# 3 -0.005851 -0.000870 0.016188 -0.000455 -0.001940 0.000182
# 4 -0.000080 -0.000142 -0.000455 0.134605 0.000414 -0.051481
# 5 -0.012425 -0.004132 -0.001940 0.000414 0.040173 -0.000127
# 6 0.000033 0.000031 0.000182 -0.051481 -0.000127 0.091188
#
#
# Mechanical properties :
#
#
# Convention : Reuss Voigt Hill
#
# Bulk Modulus (GPa) = 27.46388 36.40136 31.93262
# Shear Modulus (GPa) = 14.38109 22.25565 18.31837
#
# Velocity S-wave (km/s) = 2.93560 3.65191 3.31317
# Velocity P-wave (km/s) = 5.28656 6.29246 5.81132
#
# Compressibility (1/GPa) = 0.03641147
#
# Stress axis : x y z
#
# Youngs Moduli (GPa) = 47.53479 63.41670 61.77489
#
# Poissons Ratio (x) = 0.09953 0.36147
# Poissons Ratio (y) = 0.07460 0.05376
# Poissons Ratio (z) = 0.27815 0.05519
#
# Static dielectric constant tensor:
#      x y z
#    x 1.555250 0.000130 0.024850 
#    y 0.000130 1.675410 -0.000010 
#    z 0.024850 -0.000010 1.628410 
# 
# From -- ./inp_files/293890.got.cif
#   From: 2010.05.17/outbox.cif.g08.bks.cpg/sg15_147_cif.got.tgz:293890.got - 2010.06.03 18:47:42.
