data_PCOD9255738
_publ_section_title
;
Structure prediction by ZEFSAII (Michael W. Deem and Ramdas Pophale) SiO2 
 PCOD9255738
Probable space group: C 2/C
;
_chemical_formula_sum "Si O2"
_cell_formula_units_Z 48
_cell_length_a 9.733337
_cell_length_b 28.132427
_cell_length_c 12.610474
_cell_angle_alpha 90.000000
_cell_angle_beta 127.525102
_cell_angle_gamma 90.000000
_cell_volume 2738.551807
_symmetry_space_group_name_H-M "C 2/C"
_symmetry_group_IT_number 15
_symmetry_cell_setting 'monoclinic'
loop_
_space_group_symop_operation_xyz
x,y,z
-x,y,1/2-z
-x,-y,-z
x,-y,1/2+z
1/2+x,1/2+y,z
1/2-x,1/2+y,1/2-z
1/2-x,1/2-y,-z
1/2+x,1/2-y,1/2+z
loop_
_atom_site_type_symbol
_atom_site_label
_atom_site_fract_x
_atom_site_fract_y
_atom_site_fract_z
Si Si1 0.305820 0.389311 0.834787
Si Si2 0.000000 0.545305 0.250000
Si Si3 0.500000 0.447462 0.750000
Si Si4 0.648452 0.788062 0.726862
Si Si5 0.831392 0.884299 0.097530
Si Si6 0.162338 0.282364 0.050632
Si Si7 0.179291 0.486403 0.029865
O O1 0.438651 0.414944 0.819147
O O2 0.260637 0.335669 0.781041
O O3 0.126608 0.419614 0.744782
O O4 0.363500 0.388456 0.985599
O O5 0.128755 0.514383 0.381885
O O6 0.661433 0.480285 0.862478
O O7 0.500000 0.794067 0.750000
O O8 0.764454 0.742661 0.810486
O O9 0.540699 0.781005 0.568973
O O10 0.725364 0.836120 0.066879
O O11 0.729984 0.932157 0.079842
O O12 0.000000 0.881626 0.250000
O O13 0.250000 0.250000 0.000000
O O14 0.000000 0.500000 0.000000
#
# Coordination Sequence:
#
# PCOD9255738 Si02
#       7
#     8   4   4   8   8   8   8
#     4  11  21  37  60  89 120 160 202 242 302 367
#     4  10  20  38  66  79 119 154 202 254 298 342
#     4  12  26  40  62  89 123 168 206 238 308 376
#     4  10  17  32  55  89 117 148 191 253 305 344
#     4  11  21  35  59  93 121 150 199 256 298 350
#     4  10  18  29  56  92 118 143 189 253 307 343
#     4  11  23  40  59  88 122 158 200 249 304 351
#
# _framework density 17.527512999999999
#
# number of rings (size 3 to 8) (size 9 to 14) (size 15 to 20)
#    0.000    1.333    6.667    2.500    0.000    4.000 
#    0.000    0.000    0.000    1.000    0.000    0.000 
#    0.000    0.000    0.000    0.000    0.000    0.000 
#
# Total GULP energy -133801.784216 kJ/mol
# GULP energy per Si atom -5575.074342 kJ/mol
# Density = 1.748762 g / cm^3
# Si number density = 17.527513 Si / 1000 Ang^3
#
#
#
# Elastic Constant Matrix: (Units=GPa)
#
#
# Indices 1 2 3 4 5 6 
#
# 1 69.4714 55.6415 35.8617 0.0000 10.0671 0.0000
# 2 55.6415 136.6738 69.8158 0.0000 4.3462 0.0000
# 3 35.8617 69.8158 150.6290 0.0000 28.4970 0.0000
# 4 0.0000 0.0000 0.0000 25.3143 0.0000 3.0516
# 5 10.0671 4.3462 28.4970 0.0000 18.5743 0.0000
# 6 0.0000 0.0000 0.0000 3.0516 0.0000 9.1465
#
#
#
# Elastic Compliance Matrix: (Units=1/GPa)
#
#
# Indices 1 2 3 4 5 6 
#
# 1 0.023345 -0.009785 0.001322 0.000000 -0.012391 0.000000
# 2 -0.009785 0.014268 -0.006559 0.000000 0.012028 0.000000
# 3 0.001322 -0.006559 0.012976 0.000000 -0.019089 0.000000
# 4 0.000000 0.000000 0.000000 0.041159 0.000000 -0.013732
# 5 -0.012391 0.012028 -0.019089 0.000000 0.087026 0.000000
# 6 0.000000 0.000000 0.000000 -0.013732 0.000000 0.113913
#
#
# Mechanical properties :
#
#
# Convention : Reuss Voigt Hill
#
# Bulk Modulus (GPa) = 48.67712 75.49024 62.08368
# Shear Modulus (GPa) = 15.17080 23.63735 19.40408
#
# Velocity S-wave (km/s) = 2.94520 3.67629 3.33087
# Velocity P-wave (km/s) = 6.27676 7.82197 7.09158
#
# Compressibility (1/GPa) = 0.02054353
#
# Stress axis : x y z
#
# Youngs Moduli (GPa) = 42.83597 70.08489 77.06645
#
# Poissons Ratio (x) = 0.68578 -0.10184
# Poissons Ratio (y) = 0.41915 0.50550
# Poissons Ratio (z) = -0.05661 0.45971
#
# Static dielectric constant tensor:
#      x y z
#    x 1.588580 0.000000 -0.007190 
#    y 0.000000 1.602080 0.000000 
#    z -0.007190 0.000000 1.682030 
# 
# From -- ./inp_files/80955.got.cif
#   From: 2010.05.17/outbox.cif.g08.bks.cpg/sg15_41_cif.got.tgz:80955.got - 2010.06.03 18:47:42.
