data_PCOD9255688
_publ_section_title
;
Structure prediction by ZEFSAII (Michael W. Deem and Ramdas Pophale) SiO2 
 PCOD9255688
Probable space group: C 2/C
;
_chemical_formula_sum "Si O2"
_cell_formula_units_Z 64
_cell_length_a 19.705327
_cell_length_b 22.072635
_cell_length_c 9.283520
_cell_angle_alpha 90.000000
_cell_angle_beta 127.858828
_cell_angle_gamma 90.000000
_cell_volume 3187.987103
_symmetry_space_group_name_H-M "C 2/C"
_symmetry_group_IT_number 15
_symmetry_cell_setting 'monoclinic'
loop_
_space_group_symop_operation_xyz
x,y,z
-x,y,1/2-z
-x,-y,-z
x,-y,1/2+z
1/2+x,1/2+y,z
1/2-x,1/2+y,1/2-z
1/2-x,1/2-y,-z
1/2+x,1/2-y,1/2+z
loop_
_atom_site_type_symbol
_atom_site_label
_atom_site_fract_x
_atom_site_fract_y
_atom_site_fract_z
Si Si1 0.666253 0.736605 0.295167
Si Si2 0.799025 0.441962 0.224597
Si Si3 0.580227 0.419334 0.150569
Si Si4 0.602746 0.556267 0.121406
Si Si5 0.238593 0.356754 0.741028
Si Si6 0.238682 0.432718 0.989280
Si Si7 0.625034 0.376595 0.921882
Si Si8 0.906297 0.643328 0.696791
O O1 0.750000 0.750000 0.500000
O O2 0.705597 0.704812 0.203858
O O3 0.617539 0.683681 0.318519
O O4 0.611567 0.797514 0.227187
O O5 0.796774 0.442608 0.395298
O O6 0.777135 0.505842 0.121151
O O7 0.884982 0.414905 0.266839
O O8 0.723980 0.394917 0.079816
O O9 0.601847 0.484422 0.103216
O O10 0.659657 0.416319 0.361878
O O11 0.481774 0.420211 0.069462
O O12 0.586880 0.371227 0.030497
O O13 0.691739 0.590267 0.207076
O O14 0.587565 0.570602 0.271356
O O15 0.203086 0.376627 0.849714
O O16 0.162850 0.356082 0.524963
O O17 0.000000 0.643650 0.750000
#
# Coordination Sequence:
#
# PCOD9255688 Si02
#       8
#     8   8   8   8   8   8   8   8
#     4   9  18  35  62  84 113 147 198 247 297 348
#     4  11  20  37  60  90 125 161 201 245 303 370
#     4  10  20  27  49  84 117 161 195 232 281 365
#     4  10  18  31  48  77 124 154 196 231 288 346
#     4  10  20  39  58  86 122 160 190 250 301 357
#     4  11  22  37  61  89 126 165 197 240 307 368
#     4  10  17  32  53  80 118 153 199 238 296 351
#     4  11  22  41  67  92 112 155 213 260 301 355
#
# _framework density 20.075361999999998
#
# number of rings (size 3 to 8) (size 9 to 14) (size 15 to 20)
#    0.000    1.750    5.000    2.625    0.000    2.500 
#    0.000    3.750    0.000    0.000    3.250    0.000 
#    0.000    0.000    0.000    0.000    0.000    0.000 
#
# Total GULP energy -178356.351814 kJ/mol
# GULP energy per Si atom -5573.635994 kJ/mol
# Density = 2.002967 g / cm^3
# Si number density = 20.075362 Si / 1000 Ang^3
#
#
#
# Elastic Constant Matrix: (Units=GPa)
#
#
# Indices 1 2 3 4 5 6 
#
# 1 99.0100 28.7354 42.2689 0.0000 1.6418 0.0000
# 2 28.7354 65.3778 30.2355 0.0000 -7.5683 0.0000
# 3 42.2689 30.2355 85.3144 0.0000 -24.5193 0.0000
# 4 0.0000 0.0000 0.0000 21.0042 0.0000 -6.1030
# 5 1.6418 -7.5683 -24.5193 0.0000 34.6531 0.0000
# 6 0.0000 0.0000 0.0000 -6.1030 0.0000 22.6499
#
#
#
# Elastic Compliance Matrix: (Units=1/GPa)
#
#
# Indices 1 2 3 4 5 6 
#
# 1 0.014708 -0.003553 -0.008098 0.000000 -0.007202 0.000000
# 2 -0.003553 0.019168 -0.004746 0.000000 0.000996 0.000000
# 3 -0.008098 -0.004746 0.021625 0.000000 0.014648 0.000000
# 4 0.000000 0.000000 0.000000 0.051654 0.000000 0.013918
# 5 -0.007202 0.000996 0.014648 0.000000 0.039781 0.000000
# 6 0.000000 0.000000 0.000000 0.013918 0.000000 0.047900
#
#
# Mechanical properties :
#
#
# Convention : Reuss Voigt Hill
#
# Bulk Modulus (GPa) = 44.04023 50.24243 47.14133
# Shear Modulus (GPa) = 21.25860 25.55893 23.40876
#
# Velocity S-wave (km/s) = 3.25767 3.57199 3.41844
# Velocity P-wave (km/s) = 6.01123 6.48794 6.25413
#
# Compressibility (1/GPa) = 0.02270651
#
# Stress axis : x y z
#
# Youngs Moduli (GPa) = 67.99174 52.17065 46.24217
#
# Poissons Ratio (x) = 0.18538 0.37445
# Poissons Ratio (y) = 0.24160 0.21948
# Poissons Ratio (z) = 0.55057 0.24762
#
# Static dielectric constant tensor:
#      x y z
#    x 1.808470 0.000000 -0.013730 
#    y 0.000000 1.767500 0.000000 
#    z -0.013730 0.000000 1.754960 
# 
# From -- ./inp_files/58645.got.cif
#   From: 2010.05.17/outbox.cif.g08.bks.cpg/sg15_30_cif.got.tgz:58645.got - 2010.06.03 18:47:42.
