data_PCOD9255888
_publ_section_title
;
Structure prediction by ZEFSAII (Michael W. Deem and Ramdas Pophale) SiO2 
 PCOD9255888
Probable space group: C 2/C
;
_chemical_formula_sum "Si O2"
_cell_formula_units_Z 64
_cell_length_a 13.700011
_cell_length_b 9.005599
_cell_length_c 20.856112
_cell_angle_alpha 90.000000
_cell_angle_beta 116.670011
_cell_angle_gamma 90.000000
_cell_volume 2299.392774
_symmetry_space_group_name_H-M "C 2/C"
_symmetry_group_IT_number 15
_symmetry_cell_setting 'monoclinic'
loop_
_space_group_symop_operation_xyz
x,y,z
-x,y,1/2-z
-x,-y,-z
x,-y,1/2+z
1/2+x,1/2+y,z
1/2-x,1/2+y,1/2-z
1/2-x,1/2-y,-z
1/2+x,1/2-y,1/2+z
loop_
_atom_site_type_symbol
_atom_site_label
_atom_site_fract_x
_atom_site_fract_y
_atom_site_fract_z
Si Si1 0.207052 0.546527 0.444698
Si Si2 0.622616 0.249046 0.913969
Si Si3 0.369686 0.029509 0.221838
Si Si4 0.631321 0.693263 0.277409
Si Si5 0.416947 0.423694 0.085903
Si Si6 0.416803 0.881299 0.395597
Si Si7 0.512199 0.181567 0.061462
Si Si8 0.327419 0.358915 0.201927
O O1 0.196303 0.377050 0.468102
O O2 0.195988 0.536821 0.365090
O O3 0.313283 0.611584 0.509196
O O4 0.097541 0.627943 0.434492
O O5 0.677444 0.293925 0.863235
O O6 0.575888 0.402617 0.924484
O O7 0.508172 0.159811 0.870858
O O8 0.500000 0.020872 0.250000
O O9 0.358347 0.201114 0.244781
O O10 0.339280 0.861814 0.239951
O O11 0.500000 0.682604 0.250000
O O12 0.662538 0.525164 0.262073
O O13 0.524789 0.345558 0.090505
O O14 0.394839 0.382822 0.154102
O O15 0.480714 0.832252 0.478486
O O16 0.295773 0.824611 0.357275
O O17 0.402090 0.058261 0.395003
#
# Coordination Sequence:
#
# PCOD9255888 Si02
#       8
#     8   8   8   8   8   8   8   8
#     4  10  17  33  55  82 109 147 189 237 278 334
#     4   9  21  34  54  83 117 150 180 244 288 337
#     4  10  20  35  58  88 109 142 196 247 276 320
#     4   9  20  39  63  84 110 146 201 243 278 331
#     4  11  19  33  58  87 108 146 202 226 276 351
#     4  10  21  36  51  81 123 151 176 224 304 341
#     4  10  19  33  53  77 116 155 176 224 285 349
#     4  11  20  36  63  88 109 151 192 237 282 347
#
# _framework density 27.833435999999999
#
# number of rings (size 3 to 8) (size 9 to 14) (size 15 to 20)
#    0.000    2.000    2.500    1.875    0.000    0.500 
#    2.250    0.000   11.000    0.000    0.000    0.000 
#    0.000    0.000    0.000    0.000    0.000    0.000 
#
# Total GULP energy -178506.680115 kJ/mol
# GULP energy per Si atom -5578.333754 kJ/mol
# Density = 2.777009 g / cm^3
# Si number density = 27.833436 Si / 1000 Ang^3
#
#
#
# Elastic Constant Matrix: (Units=GPa)
#
#
# Indices 1 2 3 4 5 6 
#
# 1 38.5419 42.5741 -0.6906 0.0000 -0.2490 0.0000
# 2 42.5741 261.4630 25.6618 0.0000 3.1796 0.0000
# 3 -0.6906 25.6618 63.3288 0.0000 -13.0538 0.0000
# 4 0.0000 0.0000 0.0000 11.4370 0.0000 3.7272
# 5 -0.2490 3.1796 -13.0538 0.0000 26.5672 0.0000
# 6 0.0000 0.0000 0.0000 3.7272 0.0000 52.7654
#
#
#
# Elastic Compliance Matrix: (Units=1/GPa)
#
#
# Indices 1 2 3 4 5 6 
#
# 1 0.032179 -0.005577 0.003127 0.000000 0.002506 0.000000
# 2 -0.005577 0.004998 -0.002470 0.000000 -0.001864 0.000000
# 3 0.003127 -0.002470 0.018796 0.000000 0.009561 0.000000
# 4 0.000000 0.000000 0.000000 0.089496 0.000000 -0.006322
# 5 0.002506 -0.001864 0.009561 0.000000 0.042585 0.000000
# 6 0.000000 0.000000 0.000000 -0.006322 0.000000 0.019398
#
#
# Mechanical properties :
#
#
# Convention : Reuss Voigt Hill
#
# Bulk Modulus (GPa) = 21.67657 55.38047 38.52852
# Shear Modulus (GPa) = 21.48971 37.87313 29.68142
#
# Velocity S-wave (km/s) = 2.78165 3.69278 3.26911
# Velocity P-wave (km/s) = 4.25695 6.17434 5.30302
#
# Compressibility (1/GPa) = 0.04613277
#
# Stress axis : x y z
#
# Youngs Moduli (GPa) = 31.07659 200.08534 53.20162
#
# Poissons Ratio (x) = 1.11589 -0.16638
# Poissons Ratio (y) = 0.17332 0.13142
# Poissons Ratio (z) = -0.09719 0.49427
#
# Static dielectric constant tensor:
#      x y z
#    x 2.114610 0.000000 -0.089630 
#    y 0.000000 2.391900 0.000000 
#    z -0.089630 0.000000 2.296000 
# 
# From -- ./inp_files/312911.got.cif
#   From: 2010.05.17/outbox.cif.g08.bks.cpg/sg15_157_cif.got.tgz:312911.got - 2010.06.03 18:47:42.
