data_PCOD9255148
_publ_section_title
;
Structure prediction by ZEFSAII (Michael W. Deem and Ramdas Pophale) SiO2 
 PCOD9255148
Probable space group: C 2/C
;
_chemical_formula_sum "Si O2"
_cell_formula_units_Z 52
_cell_length_a 18.040815
_cell_length_b 13.883751
_cell_length_c 14.269967
_cell_angle_alpha 90.000000
_cell_angle_beta 58.377930
_cell_angle_gamma 90.000000
_cell_volume 3043.570448
_symmetry_space_group_name_H-M "C 2/C"
_symmetry_group_IT_number 15
_symmetry_cell_setting 'monoclinic'
loop_
_space_group_symop_operation_xyz
x,y,z
-x,y,1/2-z
-x,-y,-z
x,-y,1/2+z
1/2+x,1/2+y,z
1/2-x,1/2+y,1/2-z
1/2-x,1/2-y,-z
1/2+x,1/2-y,1/2+z
loop_
_atom_site_type_symbol
_atom_site_label
_atom_site_fract_x
_atom_site_fract_y
_atom_site_fract_z
Si Si1 0.000000 0.349611 0.250000
Si Si2 0.078196 0.927112 0.925636
Si Si3 0.320409 0.498298 0.980590
Si Si4 0.229909 0.016762 0.185795
Si Si5 0.564551 0.310061 0.565585
Si Si6 0.326858 0.913676 0.283275
Si Si7 0.732985 0.766528 0.899200
O O1 0.050101 0.276004 0.147780
O O2 0.072773 0.413272 0.253598
O O3 0.143241 0.971070 0.805752
O O4 0.027914 0.836170 0.917623
O O5 0.133458 0.922882 0.984294
O O6 0.000000 0.000000 0.000000
O O7 0.236820 0.459015 0.094244
O O8 0.292929 0.533647 0.896989
O O9 0.389121 0.407685 0.924367
O O10 0.258378 0.123652 0.135295
O O11 0.300708 0.965377 0.204320
O O12 0.636131 0.272733 0.445100
O O13 0.298630 0.801658 0.300033
O O14 0.750000 0.750000 0.000000
#
# Coordination Sequence:
#
# PCOD9255148 Si02
#       7
#     4   8   8   8   8   8   8
#     4  12  18  30  50  76 104 132 188 232 254 314
#     4   9  19  29  48  85 111 131 177 226 274 332
#     4   9  17  34  49  75 110 139 170 226 283 330
#     4  11  19  34  57  77 113 152 171 223 288 322
#     4  10  17  28  53  77 102 132 180 231 264 307
#     4  10  21  32  53  83 105 138 193 223 272 332
#     4  11  18  36  56  77 107 145 184 229 269 321
#
# _framework density 17.085196
#
# number of rings (size 3 to 8) (size 9 to 14) (size 15 to 20)
#    0.000    1.846    4.615    2.769    0.000    1.846 
#    0.000    3.077    0.000   10.154    0.000    0.000 
#    0.000    0.000    0.000    0.000    0.000    0.000 
#
# Total GULP energy -144821.950899 kJ/mol
# GULP energy per Si atom -5570.075035 kJ/mol
# Density = 1.704631 g / cm^3
# Si number density = 17.085196 Si / 1000 Ang^3
#
#
#
# Elastic Constant Matrix: (Units=GPa)
#
#
# Indices 1 2 3 4 5 6 
#
# 1 142.2243 33.1227 49.4258 0.0000 14.1330 0.0000
# 2 33.1227 41.5030 11.0239 0.0000 14.2258 0.0000
# 3 49.4258 11.0239 57.8546 0.0000 17.5024 0.0000
# 4 0.0000 0.0000 0.0000 24.9914 0.0000 1.1373
# 5 14.1330 14.2258 17.5024 0.0000 34.5146 0.0000
# 6 0.0000 0.0000 0.0000 1.1373 0.0000 23.3807
#
#
#
# Elastic Compliance Matrix: (Units=1/GPa)
#
#
# Indices 1 2 3 4 5 6 
#
# 1 0.011952 -0.008120 -0.009681 0.000000 0.003362 0.000000
# 2 -0.008120 0.033810 0.004376 0.000000 -0.012829 0.000000
# 3 -0.009681 0.004376 0.028429 0.000000 -0.012256 0.000000
# 4 0.000000 0.000000 0.000000 0.040103 0.000000 -0.001951
# 5 0.003362 -0.012829 -0.012256 0.000000 0.039099 0.000000
# 6 0.000000 0.000000 0.000000 -0.001951 0.000000 0.042865
#
#
# Mechanical properties :
#
#
# Convention : Reuss Voigt Hill
#
# Bulk Modulus (GPa) = 21.12303 47.63631 34.37967
# Shear Modulus (GPa) = 20.93018 26.44465 23.68742
#
# Velocity S-wave (km/s) = 3.50387 3.93849 3.72752
# Velocity P-wave (km/s) = 5.36280 6.97312 6.22029
#
# Compressibility (1/GPa) = 0.04734170
#
# Stress axis : x y z
#
# Youngs Moduli (GPa) = 83.66505 29.57688 35.17528
#
# Poissons Ratio (x) = 0.24016 0.34053
# Poissons Ratio (y) = 0.67935 -0.15392
# Poissons Ratio (z) = 0.80995 -0.12942
#
# Static dielectric constant tensor:
#      x y z
#    x 1.643270 0.000000 -0.009340 
#    y 0.000000 1.591670 0.000000 
#    z -0.009340 0.000000 1.606510 
# 
# From -- ./inp_files/161622.got.cif
#   From: 2010.05.17/outbox.cif.g08.bks.cpg/sg15_81_cif.got.tgz:161622.got - 2010.06.03 18:47:42.
