data_PCOD9255863
_publ_section_title
;
Structure prediction by ZEFSAII (Michael W. Deem and Ramdas Pophale) SiO2 
 PCOD9255863
Probable space group: C 2/C
;
_chemical_formula_sum "Si O2"
_cell_formula_units_Z 48
_cell_length_a 11.636856
_cell_length_b 15.922302
_cell_length_c 11.746543
_cell_angle_alpha 90.000000
_cell_angle_beta 61.606293
_cell_angle_gamma 90.000000
_cell_volume 1914.637587
_symmetry_space_group_name_H-M "C 2/C"
_symmetry_group_IT_number 15
_symmetry_cell_setting 'monoclinic'
loop_
_space_group_symop_operation_xyz
x,y,z
-x,y,1/2-z
-x,-y,-z
x,-y,1/2+z
1/2+x,1/2+y,z
1/2-x,1/2+y,1/2-z
1/2-x,1/2-y,-z
1/2+x,1/2-y,1/2+z
loop_
_atom_site_type_symbol
_atom_site_label
_atom_site_fract_x
_atom_site_fract_y
_atom_site_fract_z
Si Si1 0.137833 0.725267 0.209688
Si Si2 0.917858 0.398644 0.438246
Si Si3 0.178992 0.483137 0.345738
Si Si4 0.811208 0.882076 0.472470
Si Si5 0.125095 0.230763 0.978342
Si Si6 0.846281 0.949411 0.062352
O O1 0.249890 0.664871 0.109315
O O2 0.155407 0.753505 0.331135
O O3 0.000000 0.680720 0.250000
O O4 0.129455 0.808284 0.132341
O O5 0.850700 0.425597 0.589680
O O6 0.967993 0.303576 0.429817
O O7 0.798723 0.418050 0.410621
O O8 0.042894 0.454676 0.356288
O O9 0.199634 0.422285 0.444545
O O10 0.307748 0.473864 0.209000
O O11 0.886903 0.966662 0.475852
O O12 0.075855 0.135283 0.003788
O O13 0.250000 0.250000 0.000000
#
# Coordination Sequence:
#
# PCOD9255863 Si02
#       6
#     8   8   8   8   8   8
#     4  11  22  40  63  88 123 158 206 257 305 368
#     4   9  19  29  53  84 113 152 195 240 303 359
#     4  10  17  33  53  83 117 147 198 248 302 355
#     4  10  22  36  60  89 114 159 203 251 311 365
#     4  10  20  37  58  85 120 162 194 245 308 367
#     4  10  19  33  54  81 120 152 194 243 301 361
#
# _framework density 25.070018999999998
#
# number of rings (size 3 to 8) (size 9 to 14) (size 15 to 20)
#    0.000    2.000    1.667    2.500    0.000    2.667 
#    0.000    0.833    0.000    6.000    0.000    0.000 
#    0.000    0.000    0.000    0.000    0.000    0.000 
#
# Total GULP energy -133968.455741 kJ/mol
# GULP energy per Si atom -5582.018989 kJ/mol
# Density = 2.501296 g / cm^3
# Si number density = 25.070019 Si / 1000 Ang^3
#
#
#
# Elastic Constant Matrix: (Units=GPa)
#
#
# Indices 1 2 3 4 5 6 
#
# 1 46.0160 6.1924 20.2789 0.0000 7.7684 0.0000
# 2 6.1924 146.8150 22.5980 0.0000 -0.0751 0.0000
# 3 20.2789 22.5980 81.5985 0.0000 18.1373 0.0000
# 4 0.0000 0.0000 0.0000 18.2615 0.0000 9.8185
# 5 7.7684 -0.0751 18.1373 0.0000 30.7938 0.0000
# 6 0.0000 0.0000 0.0000 9.8185 0.0000 31.7382
#
#
#
# Elastic Compliance Matrix: (Units=1/GPa)
#
#
# Indices 1 2 3 4 5 6 
#
# 1 0.024650 -0.000211 -0.005391 0.000000 -0.003044 0.000000
# 2 -0.000211 0.007166 -0.002241 0.000000 0.001391 0.000000
# 3 -0.005391 -0.002241 0.016010 0.000000 -0.008076 0.000000
# 4 0.000000 0.000000 0.000000 0.065686 0.000000 -0.020320
# 5 -0.003044 0.001391 -0.008076 0.000000 0.038002 0.000000
# 6 0.000000 0.000000 0.000000 -0.020320 0.000000 0.037794
#
#
# Mechanical properties :
#
#
# Convention : Reuss Voigt Hill
#
# Bulk Modulus (GPa) = 31.11468 41.39646 36.25557
# Shear Modulus (GPa) = 23.17957 31.18271 27.18114
#
# Velocity S-wave (km/s) = 3.04401 3.53062 3.29631
# Velocity P-wave (km/s) = 4.97923 5.75921 5.38337
#
# Compressibility (1/GPa) = 0.03213917
#
# Stress axis : x y z
#
# Youngs Moduli (GPa) = 40.56867 139.55014 62.45901
#
# Poissons Ratio (x) = 0.02951 0.33670
# Poissons Ratio (y) = 0.00858 0.13998
# Poissons Ratio (z) = 0.21870 0.31275
#
# Static dielectric constant tensor:
#      x y z
#    x 2.153430 0.000000 -0.023560 
#    y 0.000000 2.100140 0.000000 
#    z -0.023560 0.000000 2.025870 
# 
# From -- ./inp_files/96207.got.cif
#   From: 2010.05.17/outbox.cif.g08.bks.cpg/sg15_49_cif.got.tgz:96207.got - 2010.06.03 18:47:42.
