data_PCOD9255380
_publ_section_title
;
Structure prediction by ZEFSAII (Michael W. Deem and Ramdas Pophale) SiO2 
 PCOD9255380
Probable space group: C 2/C
;
_chemical_formula_sum "Si O2"
_cell_formula_units_Z 56
_cell_length_a 30.047677
_cell_length_b 15.602732
_cell_length_c 9.416994
_cell_angle_alpha 90.000000
_cell_angle_beta 40.697788
_cell_angle_gamma 90.000000
_cell_volume 2878.839733
_symmetry_space_group_name_H-M "C 2/C"
_symmetry_group_IT_number 15
_symmetry_cell_setting 'monoclinic'
loop_
_space_group_symop_operation_xyz
x,y,z
-x,y,1/2-z
-x,-y,-z
x,-y,1/2+z
1/2+x,1/2+y,z
1/2-x,1/2+y,1/2-z
1/2-x,1/2-y,-z
1/2+x,1/2-y,1/2+z
loop_
_atom_site_type_symbol
_atom_site_label
_atom_site_fract_x
_atom_site_fract_y
_atom_site_fract_z
Si Si1 0.556068 0.196756 0.711593
Si Si2 0.790280 0.111602 0.322135
Si Si3 0.678036 0.856155 0.420731
Si Si4 0.939448 0.401045 0.010363
Si Si5 0.123916 0.582587 0.324218
Si Si6 0.307705 0.251066 0.005544
Si Si7 0.758746 0.019420 0.137304
O O1 0.500000 0.243274 0.750000
O O2 0.576445 0.117741 0.562157
O O3 0.625210 0.250398 0.563676
O O4 0.539104 0.158539 0.908383
O O5 0.715120 0.154172 0.478129
O O6 0.822847 0.190675 0.330086
O O7 0.806091 0.073908 0.128810
O O8 0.792749 0.034865 0.429142
O O9 0.622290 0.859623 0.431145
O O10 0.634951 0.852151 0.668629
O O11 0.740222 0.790562 0.244272
O O12 0.716966 0.948179 0.328943
O O13 0.000000 0.414577 0.750000
O O14 0.908977 0.491647 0.140459
O O15 0.199115 0.573071 0.208499
#
# Coordination Sequence:
#
# PCOD9255380 Si02
#       7
#     8   8   8   8   8   8   8
#     4  12  24  37  54  77 113 156 203 242 290 350
#     4  10  18  34  55  78 112 145 187 235 294 340
#     4  10  21  34  57  81 116 155 197 240 287 348
#     4  11  22  37  56  82 119 162 198 230 283 344
#     4  11  20  33  52  84 117 150 195 236 277 343
#     4  10  21  37  56  79 115 160 192 242 307 339
#     4  10  17  30  53  82 113 142 187 235 277 341
#
# _framework density 19.452280999999999
#
# number of rings (size 3 to 8) (size 9 to 14) (size 15 to 20)
#    0.000    1.429    2.857    6.429    0.000    2.286 
#    0.000    0.000    0.000    0.000    0.000    4.000 
#    0.000    0.000    0.000    1.286    0.000    0.000 
#
# Total GULP energy -155998.850938 kJ/mol
# GULP energy per Si atom -5571.387533 kJ/mol
# Density = 1.940801 g / cm^3
# Si number density = 19.452281 Si / 1000 Ang^3
#
#
#
# Elastic Constant Matrix: (Units=GPa)
#
#
# Indices 1 2 3 4 5 6 
#
# 1 134.0591 36.8472 42.3601 0.0000 2.4703 0.0000
# 2 36.8472 48.1953 28.0828 0.0000 5.2631 0.0000
# 3 42.3601 28.0828 86.4131 0.0000 10.2986 0.0000
# 4 0.0000 0.0000 0.0000 25.8003 0.0000 4.8773
# 5 2.4703 5.2631 10.2986 0.0000 32.2664 0.0000
# 6 0.0000 0.0000 0.0000 4.8773 0.0000 17.2249
#
#
#
# Elastic Compliance Matrix: (Units=1/GPa)
#
#
# Indices 1 2 3 4 5 6 
#
# 1 0.010079 -0.006014 -0.003131 0.000000 0.001208 0.000000
# 2 -0.006014 0.029262 -0.006287 0.000000 -0.002306 0.000000
# 3 -0.003131 -0.006287 0.015592 0.000000 -0.003712 0.000000
# 4 0.000000 0.000000 0.000000 0.040951 0.000000 -0.011596
# 5 0.001208 -0.002306 -0.003712 0.000000 0.032460 0.000000
# 6 0.000000 0.000000 0.000000 -0.011596 0.000000 0.061339
#
#
# Mechanical properties :
#
#
# Convention : Reuss Voigt Hill
#
# Bulk Modulus (GPa) = 41.54351 53.69419 47.61885
# Shear Modulus (GPa) = 21.87519 25.81681 23.84600
#
# Velocity S-wave (km/s) = 3.35708 3.64701 3.50504
# Velocity P-wave (km/s) = 6.03570 6.73774 6.39636
#
# Compressibility (1/GPa) = 0.02407115
#
# Stress axis : x y z
#
# Youngs Moduli (GPa) = 99.21345 34.17432 64.13406
#
# Poissons Ratio (x) = 0.20552 0.20077
# Poissons Ratio (y) = 0.59666 0.40319
# Poissons Ratio (z) = 0.31059 0.21484
#
# Static dielectric constant tensor:
#      x y z
#    x 1.744080 0.000000 0.026400 
#    y 0.000000 1.711120 0.000000 
#    z 0.026400 0.000000 1.743450 
# 
# From -- ./inp_files/66826.got.cif
#   From: 2010.05.17/outbox.cif.g08.bks.cpg/sg15_34_cif.got.tgz:66826.got - 2010.06.03 18:47:42.
