data_PCOD9255558
_publ_section_title
;
Structure prediction by ZEFSAII (Michael W. Deem and Ramdas Pophale) SiO2 
 PCOD9255558
Probable space group: C 2/C
;
_chemical_formula_sum "Si O2"
_cell_formula_units_Z 36
_cell_length_a 29.140483
_cell_length_b 7.082489
_cell_length_c 13.394302
_cell_angle_alpha 90.000000
_cell_angle_beta 28.933809
_cell_angle_gamma 90.000000
_cell_volume 1337.419375
_symmetry_space_group_name_H-M "C 2/C"
_symmetry_group_IT_number 15
_symmetry_cell_setting 'monoclinic'
loop_
_space_group_symop_operation_xyz
x,y,z
-x,y,1/2-z
-x,-y,-z
x,-y,1/2+z
1/2+x,1/2+y,z
1/2-x,1/2+y,1/2-z
1/2-x,1/2-y,-z
1/2+x,1/2-y,1/2+z
loop_
_atom_site_type_symbol
_atom_site_label
_atom_site_fract_x
_atom_site_fract_y
_atom_site_fract_z
Si Si1 0.851273 0.770952 0.154605
Si Si2 0.709919 0.101053 0.427822
Si Si3 0.413706 0.302835 0.240076
Si Si4 0.118059 0.232643 0.279921
Si Si5 0.500000 0.473386 0.250000
O O1 0.828129 0.631931 0.109462
O O2 0.865258 0.692911 0.239087
O O3 0.757346 0.898536 0.341880
O O4 0.940403 0.896351 0.942308
O O5 0.792390 0.238361 0.315699
O O6 0.627657 0.141338 0.663288
O O7 0.389318 0.515734 0.246257
O O8 0.419550 0.348237 0.347250
O O9 0.521691 0.235570 0.020503
#
# Coordination Sequence:
#
# PCOD9255558 Si02
#       5
#     8   8   8   8   4
#     4  11  20  33  55  85 106 144 176 228 266 321
#     4  10  19  31  53  80 116 133 178 226 278 304
#     4  10  17  31  55  84  99 139 192 220 253 310
#     4   9  16  31  53  80 102 139 183 231 253 306
#     4  12  16  32  56  80 104 140 194 226 236 330
#
# _framework density 26.917511000000001
#
# number of rings (size 3 to 8) (size 9 to 14) (size 15 to 20)
#    0.000    1.778    8.889    0.000    0.000    0.000 
#    0.000    1.111    0.000    5.333    0.000    0.000 
#    0.000    0.000    0.000    0.000    0.000    0.000 
#
# Total GULP energy -100475.981938 kJ/mol
# GULP energy per Si atom -5581.998997 kJ/mol
# Density = 2.685625 g / cm^3
# Si number density = 26.917511 Si / 1000 Ang^3
#
#
#
# Elastic Constant Matrix: (Units=GPa)
#
#
# Indices 1 2 3 4 5 6 
#
# 1 235.7924 44.5820 5.4081 0.0000 -3.6682 0.0000
# 2 44.5820 38.9184 28.8342 0.0000 11.7534 -0.0001
# 3 5.4081 28.8342 65.2610 -0.0002 6.2815 -0.0001
# 4 0.0000 0.0000 -0.0002 25.9618 0.0000 -1.8327
# 5 -3.6682 11.7534 6.2815 0.0000 39.9826 0.0000
# 6 0.0000 -0.0001 -0.0001 -1.8327 0.0000 36.6780
#
#
#
# Elastic Compliance Matrix: (Units=1/GPa)
#
#
# Indices 1 2 3 4 5 6 
#
# 1 0.006339 -0.011334 0.004169 0.000000 0.003258 0.000000
# 2 -0.011334 0.061705 -0.024854 0.000000 -0.015274 0.000000
# 3 0.004169 -0.024854 0.025606 0.000000 0.003666 0.000000
# 4 0.000000 0.000000 0.000000 0.038654 0.000000 0.001931
# 5 0.003258 -0.015274 0.003666 0.000000 0.029224 0.000000
# 6 0.000000 0.000000 0.000000 0.001931 0.000000 0.027361
#
#
# Mechanical properties :
#
#
# Convention : Reuss Voigt Hill
#
# Bulk Modulus (GPa) = 33.77026 55.29116 44.53071
# Shear Modulus (GPa) = 19.02599 37.93433 28.48016
#
# Velocity S-wave (km/s) = 2.66150 3.75811 3.25630
# Velocity P-wave (km/s) = 4.69232 6.27828 5.54232
#
# Compressibility (1/GPa) = 0.02961186
#
# Stress axis : x y z
#
# Youngs Moduli (GPa) = 157.75067 16.20607 39.05350
#
# Poissons Ratio (x) = 0.18369 -0.16281
# Poissons Ratio (y) = 1.78801 0.97063
# Poissons Ratio (z) = -0.65765 0.40278
#
# Static dielectric constant tensor:
#      x y z
#    x 2.103740 0.000000 -0.002060 
#    y 0.000000 2.336610 0.000000 
#    z -0.002060 0.000000 2.241460 
# 
# From -- ./inp_files/141616.got.cif
#   From: 2010.05.17/outbox.cif.g08.bks.cpg/sg15_71_cif.got.tgz:141616.got - 2010.06.03 18:47:42.
