data_PCOD9255069
_publ_section_title
;
Structure prediction by ZEFSAII (Michael W. Deem and Ramdas Pophale) SiO2 
 PCOD9255069
Probable space group: C 2/C
;
_chemical_formula_sum "Si O2"
_cell_formula_units_Z 52
_cell_length_a 32.574820
_cell_length_b 10.708685
_cell_length_c 9.272546
_cell_angle_alpha 90.000000
_cell_angle_beta 35.171246
_cell_angle_gamma 90.000000
_cell_volume 1863.186611
_symmetry_space_group_name_H-M "C 2/C"
_symmetry_group_IT_number 15
_symmetry_cell_setting 'monoclinic'
loop_
_space_group_symop_operation_xyz
x,y,z
-x,y,1/2-z
-x,-y,-z
x,-y,1/2+z
1/2+x,1/2+y,z
1/2-x,1/2+y,1/2-z
1/2-x,1/2-y,-z
1/2+x,1/2-y,1/2+z
loop_
_atom_site_type_symbol
_atom_site_label
_atom_site_fract_x
_atom_site_fract_y
_atom_site_fract_z
Si Si1 0.000000 0.622802 0.750000
Si Si2 0.849885 0.668475 0.301604
Si Si3 0.955429 0.655689 0.590130
Si Si4 0.241945 0.916180 0.874342
Si Si5 0.450949 0.420333 0.749315
Si Si6 0.392391 0.851920 0.983672
Si Si7 0.820368 0.909507 0.734248
O O1 0.068693 0.686291 0.480355
O O2 0.035741 0.568093 0.793216
O O3 0.811980 0.801993 0.432793
O O4 0.809369 0.606607 0.283197
O O5 0.849904 0.606547 0.461664
O O6 0.930791 0.788480 0.729701
O O7 0.911286 0.591254 0.587269
O O8 0.030885 0.688880 0.300300
O O9 0.205977 0.041022 0.038011
O O10 0.243654 0.913248 0.697827
O O11 0.500000 0.404439 0.750000
O O12 0.500000 0.500000 0.500000
O O13 0.381595 0.498551 0.996341
O O14 0.351196 0.727598 0.150803
#
# Coordination Sequence:
#
# PCOD9255069 Si02
#       7
#     4   8   8   8   8   8   8
#     4  10  18  32  56  76  98 138 182 220 266 314
#     4   9  20  37  55  75 106 145 179 224 269 325
#     4  10  17  28  43  75 108 134 167 211 261 315
#     4  10  21  37  53  76 110 144 181 217 272 322
#     4  12  20  26  41  71 110 142 173 208 246 309
#     4   9  18  30  47  73 108 138 171 211 263 320
#     4  11  20  31  49  74 105 147 178 214 258 319
#
# _framework density 27.909175000000001
#
# number of rings (size 3 to 8) (size 9 to 14) (size 15 to 20)
#    0.000    1.846    2.308    3.692    2.154    0.000 
#    0.000    1.538    0.000    7.385    0.000    0.000 
#    0.000    0.000    0.000    0.000    0.000    0.000 
#
# Total GULP energy -145574.546152 kJ/mol
# GULP energy per Si atom -5599.021006 kJ/mol
# Density = 2.784565 g / cm^3
# Si number density = 27.909175 Si / 1000 Ang^3
#
#
#
# Elastic Constant Matrix: (Units=GPa)
#
#
# Indices 1 2 3 4 5 6 
#
# 1 269.0453 43.4752 40.5282 0.0000 37.9916 0.0000
# 2 43.4752 70.1065 11.1297 0.0000 3.0284 0.0000
# 3 40.5282 11.1297 93.6496 0.0000 5.1837 0.0000
# 4 0.0000 0.0000 0.0000 38.1435 0.0000 8.1719
# 5 37.9916 3.0284 5.1837 0.0000 61.0735 0.0000
# 6 0.0000 0.0000 0.0000 8.1719 0.0000 52.9750
#
#
#
# Elastic Compliance Matrix: (Units=1/GPa)
#
#
# Indices 1 2 3 4 5 6 
#
# 1 0.004755 -0.002578 -0.001602 0.000000 -0.002694 0.000000
# 2 -0.002578 0.015956 -0.000829 0.000000 0.000883 0.000000
# 3 -0.001602 -0.000829 0.011467 0.000000 0.000065 0.000000
# 4 0.000000 0.000000 0.000000 0.027113 0.000000 -0.004182
# 5 -0.002694 0.000883 0.000065 0.000000 0.018000 0.000000
# 6 0.000000 0.000000 0.000000 -0.004182 0.000000 0.019522
#
#
# Mechanical properties :
#
#
# Convention : Reuss Voigt Hill
#
# Bulk Modulus (GPa) = 45.13001 69.22973 57.17987
# Shear Modulus (GPa) = 43.77538 52.94962 48.36250
#
# Velocity S-wave (km/s) = 3.96472 4.36043 4.16727
# Velocity P-wave (km/s) = 6.09623 7.08592 6.60963
#
# Compressibility (1/GPa) = 0.02215820
#
# Stress axis : x y z
#
# Youngs Moduli (GPa) = 210.29265 62.67106 87.21014
#
# Poissons Ratio (x) = 0.16157 0.13974
# Poissons Ratio (y) = 0.54216 0.07234
# Poissons Ratio (z) = 0.33697 0.05198
#
# Static dielectric constant tensor:
#      x y z
#    x 2.227240 0.000000 -0.048630 
#    y 0.000000 2.257970 0.000000 
#    z -0.048630 0.000000 2.108120 
# 
# From -- ./inp_files/61455.got.cif
#   From: 2010.05.17/outbox.cif.g08.bks.cpg/sg15_31_cif.got.tgz:61455.got - 2010.06.03 18:47:42.
