data_PCOD9255049
_publ_section_title
;
Structure prediction by ZEFSAII (Michael W. Deem and Ramdas Pophale) SiO2 
 PCOD9255049
Probable space group: C 2/C
;
_chemical_formula_sum "Si O2"
_cell_formula_units_Z 56
_cell_length_a 10.045325
_cell_length_b 18.758790
_cell_length_c 22.597022
_cell_angle_alpha 90.000000
_cell_angle_beta 148.681595
_cell_angle_gamma 90.000000
_cell_volume 2213.354193
_symmetry_space_group_name_H-M "C 2/C"
_symmetry_group_IT_number 15
_symmetry_cell_setting 'monoclinic'
loop_
_space_group_symop_operation_xyz
x,y,z
-x,y,1/2-z
-x,-y,-z
x,-y,1/2+z
1/2+x,1/2+y,z
1/2-x,1/2+y,1/2-z
1/2-x,1/2-y,-z
1/2+x,1/2-y,1/2+z
loop_
_atom_site_type_symbol
_atom_site_label
_atom_site_fract_x
_atom_site_fract_y
_atom_site_fract_z
Si Si1 0.552898 0.262323 0.199310
Si Si2 0.169676 0.155019 0.987505
Si Si3 0.702449 0.118045 0.875259
Si Si4 0.467502 0.327500 0.799183
Si Si5 0.262178 0.471727 0.831980
Si Si6 0.815950 0.407676 0.007844
Si Si7 0.912580 0.538314 0.359896
O O1 0.500000 0.268477 0.250000
O O2 0.472070 0.331910 0.129492
O O3 0.824685 0.222588 0.291837
O O4 0.379559 0.208872 0.092973
O O5 0.960232 0.158682 0.959344
O O6 0.318940 0.080139 0.042532
O O7 0.500000 0.138191 0.750000
O O8 0.772126 0.036136 0.881952
O O9 0.593396 0.130392 0.898545
O O10 0.500000 0.288099 0.750000
O O11 0.738880 0.356155 0.926126
O O12 0.295544 0.397807 0.715850
O O13 0.532745 0.434062 0.924242
O O14 0.000000 0.427799 0.750000
O O15 0.184583 0.498691 0.737363
O O16 0.012403 0.471877 0.069608
#
# Coordination Sequence:
#
# PCOD9255049 Si02
#       7
#     8   8   8   8   8   8   8
#     4  10  22  45  68  88 113 163 227 262 306 370
#     4  10  21  37  63  90 124 157 205 269 314 351
#     4  11  19  30  52  94 131 162 192 253 304 363
#     4  10  24  41  62  89 124 168 208 259 315 370
#     4  10  17  27  50  85 130 160 193 239 289 357
#     4  11  19  33  57  86 131 165 204 239 307 378
#     4  10  19  34  57  90 121 164 198 245 305 379
#
# _framework density 25.300965999999999
#
# number of rings (size 3 to 8) (size 9 to 14) (size 15 to 20)
#    0.000    1.714    4.286    2.143    0.000    5.143 
#    0.000    5.000    0.000   10.286    0.000    0.000 
#    0.000    0.000    0.000    0.000    0.000    0.000 
#
# Total GULP energy -155997.885393 kJ/mol
# GULP energy per Si atom -5571.353050 kJ/mol
# Density = 2.524338 g / cm^3
# Si number density = 25.300966 Si / 1000 Ang^3
#
#
#
# Elastic Constant Matrix: (Units=GPa)
#
#
# Indices 1 2 3 4 5 6 
#
# 1 42.4433 5.6903 11.2097 0.0007 -35.6045 0.0010
# 2 5.6903 66.2246 39.5845 -0.0002 -9.7670 0.0001
# 3 11.2097 39.5845 126.0309 -0.0016 -37.7130 -0.0017
# 4 0.0007 -0.0002 -0.0016 12.3322 0.0000 -3.9204
# 5 -35.6045 -9.7670 -37.7130 0.0000 56.4303 0.0003
# 6 0.0010 0.0001 -0.0017 -3.9204 0.0003 6.1850
#
#
#
# Elastic Compliance Matrix: (Units=1/GPa)
#
#
# Indices 1 2 3 4 5 6 
#
# 1 0.055068 -0.003747 0.008102 -0.000006 0.039511 -0.000012
# 2 -0.003747 0.018878 -0.006657 -0.000001 -0.003546 -0.000002
# 3 0.008102 -0.006657 0.013112 0.000002 0.012723 0.000003
# 4 -0.000006 -0.000001 0.000002 0.101551 -0.000003 0.064368
# 5 0.039511 -0.003546 0.012723 -0.000003 0.050539 -0.000007
# 6 -0.000012 -0.000002 0.000003 0.064368 -0.000007 0.202481
#
#
# Mechanical properties :
#
#
# Convention : Reuss Voigt Hill
#
# Bulk Modulus (GPa) = 12.12804 38.62977 25.37891
# Shear Modulus (GPa) = 10.55478 26.87046 18.71262
#
# Velocity S-wave (km/s) = 2.04469 3.26242 2.72251
# Velocity P-wave (km/s) = 3.22153 5.43069 4.46490
#
# Compressibility (1/GPa) = 0.08245354
#
# Stress axis : x y z
#
# Youngs Moduli (GPa) = 18.15933 52.97064 76.26640
#
# Poissons Ratio (x) = 0.19850 -0.61792
# Poissons Ratio (y) = 0.06805 0.50772
# Poissons Ratio (z) = -0.14713 0.35264
#
# Static dielectric constant tensor:
#      x y z
#    x 2.069450 0.000000 0.031600 
#    y 0.000000 2.127080 0.000000 
#    z 0.031600 0.000000 2.042850 
# 
# From -- ./inp_files/240789.got.cif
#   From: 2010.05.17/outbox.cif.g08.bks.cpg/sg15_121_cif.got.tgz:240789.got - 2010.06.03 18:47:42.
