data_PCOD9255351
_publ_section_title
;
Structure prediction by ZEFSAII (Michael W. Deem and Ramdas Pophale) SiO2 
 PCOD9255351
Probable space group: C 2/C
;
_chemical_formula_sum "Si O2"
_cell_formula_units_Z 64
_cell_length_a 18.429620
_cell_length_b 11.707914
_cell_length_c 29.898480
_cell_angle_alpha 90.000000
_cell_angle_beta 30.351353
_cell_angle_gamma 90.000000
_cell_volume 3259.833354
_symmetry_space_group_name_H-M "C 2/C"
_symmetry_group_IT_number 15
_symmetry_cell_setting 'monoclinic'
loop_
_space_group_symop_operation_xyz
x,y,z
-x,y,1/2-z
-x,-y,-z
x,-y,1/2+z
1/2+x,1/2+y,z
1/2-x,1/2+y,1/2-z
1/2-x,1/2-y,-z
1/2+x,1/2-y,1/2+z
loop_
_atom_site_type_symbol
_atom_site_label
_atom_site_fract_x
_atom_site_fract_y
_atom_site_fract_z
Si Si1 0.141221 0.118852 0.882522
Si Si2 0.340733 0.893501 0.523267
Si Si3 0.976358 0.198322 0.093311
Si Si4 0.718234 0.052272 0.252958
Si Si5 0.159027 0.013572 0.459037
Si Si6 0.448068 0.263425 0.844077
Si Si7 0.242907 0.872921 0.667319
Si Si8 0.909695 0.491720 0.390064
O O1 0.205189 0.032049 0.885936
O O2 0.181919 0.248505 0.869585
O O3 0.208257 0.067191 0.801510
O O4 0.969040 0.104998 0.975993
O O5 0.485343 0.818049 0.449496
O O6 0.208211 0.806024 0.586291
O O7 0.301461 0.941041 0.593044
O O8 0.350994 0.963902 0.471610
O O9 0.815216 0.153136 0.180503
O O10 0.026569 0.211743 0.117423
O O11 0.074626 0.097759 0.022010
O O12 0.727707 0.065138 0.301392
O O13 0.557157 0.056809 0.320625
O O14 0.286359 0.045366 0.424741
O O15 0.575931 0.333960 0.752918
O O16 0.450469 0.126104 0.841970
#
# Coordination Sequence:
#
# PCOD9255351 Si02
#       8
#     8   8   8   8   8   8   8   8
#     4  10  20  36  54  81 108 145 181 227 272 328
#     4  11  19  31  58  83 112 139 175 229 287 334
#     4   9  16  31  50  77 107 138 172 209 274 328
#     4  10  23  34  50  78 115 149 182 221 271 323
#     4  10  18  32  58  80 106 135 181 223 279 326
#     4  10  17  30  51  83 111 136 167 224 286 320
#     4  11  21  35  53  80 115 148 184 219 271 336
#     4  11  19  34  53  83 113 140 175 230 274 330
#
# _framework density 19.632905000000001
#
# number of rings (size 3 to 8) (size 9 to 14) (size 15 to 20)
#    0.000    1.750    5.000    1.125    0.000    1.000 
#    0.000    0.625    0.000    0.000    0.000    0.000 
#    0.000    0.000    0.000    0.000    0.000    0.000 
#
# Total GULP energy -178437.340437 kJ/mol
# GULP energy per Si atom -5576.166889 kJ/mol
# Density = 1.958822 g / cm^3
# Si number density = 19.632905 Si / 1000 Ang^3
#
#
#
# Elastic Constant Matrix: (Units=GPa)
#
#
# Indices 1 2 3 4 5 6 
#
# 1 105.9227 18.9679 56.9697 -0.0001 -12.6778 0.0000
# 2 18.9679 15.4259 9.9388 -0.0001 -6.6161 0.0000
# 3 56.9697 9.9388 85.8646 -0.0005 -0.9167 0.0000
# 4 -0.0001 -0.0001 -0.0005 19.4747 0.0001 -2.8948
# 5 -12.6778 -6.6161 -0.9167 0.0001 36.0526 0.0000
# 6 0.0000 0.0000 0.0000 -2.8948 0.0000 10.7653
#
#
#
# Elastic Compliance Matrix: (Units=1/GPa)
#
#
# Indices 1 2 3 4 5 6 
#
# 1 0.017809 -0.013859 -0.010175 0.000000 0.003461 0.000000
# 2 -0.013859 0.087122 -0.000771 0.000000 0.011095 0.000000
# 3 -0.010175 -0.000771 0.018452 0.000001 -0.003250 0.000000
# 4 0.000000 0.000000 0.000001 0.053487 0.000000 0.014383
# 5 0.003461 0.011095 -0.003250 0.000000 0.030908 0.000000
# 6 0.000000 0.000000 0.000000 0.014383 0.000000 0.096758
#
#
# Mechanical properties :
#
#
# Convention : Reuss Voigt Hill
#
# Bulk Modulus (GPa) = 13.55490 42.10732 27.83111
# Shear Modulus (GPa) = 13.20176 21.34763 17.27469
#
# Velocity S-wave (km/s) = 2.59594 3.30106 2.96950
# Velocity P-wave (km/s) = 3.98803 6.00193 5.09547
#
# Compressibility (1/GPa) = 0.07377408
#
# Stress axis : x y z
#
# Youngs Moduli (GPa) = 56.15030 11.47810 54.19528
#
# Poissons Ratio (x) = 0.15907 0.55144
# Poissons Ratio (y) = 0.77816 0.04179
# Poissons Ratio (z) = 0.57134 0.00885
#
# Static dielectric constant tensor:
#      x y z
#    x 1.728330 0.000000 0.051150 
#    y 0.000000 1.686710 0.000000 
#    z 0.051150 0.000000 1.775140 
# 
# From -- ./inp_files/316382.got.cif
#   From: 2010.05.17/outbox.cif.g08.bks.cpg/sg15_159_cif.got.tgz:316382.got - 2010.06.03 18:47:42.
