data_PCOD9255086
_publ_section_title
;
Structure prediction by ZEFSAII (Michael W. Deem and Ramdas Pophale) SiO2 
 PCOD9255086
Probable space group: C 2/C
;
_chemical_formula_sum "Si O2"
_cell_formula_units_Z 56
_cell_length_a 23.474870
_cell_length_b 4.943636
_cell_length_c 30.633952
_cell_angle_alpha 90.000000
_cell_angle_beta 111.196776
_cell_angle_gamma 90.000000
_cell_volume 3314.583460
_symmetry_space_group_name_H-M "C 2/C"
_symmetry_group_IT_number 15
_symmetry_cell_setting 'monoclinic'
loop_
_space_group_symop_operation_xyz
x,y,z
-x,y,1/2-z
-x,-y,-z
x,-y,1/2+z
1/2+x,1/2+y,z
1/2-x,1/2+y,1/2-z
1/2-x,1/2-y,-z
1/2+x,1/2-y,1/2+z
loop_
_atom_site_type_symbol
_atom_site_label
_atom_site_fract_x
_atom_site_fract_y
_atom_site_fract_z
Si Si1 0.213091 0.108866 0.753893
Si Si2 0.775377 0.727844 0.853568
Si Si3 0.950088 0.708587 0.529291
Si Si4 0.327701 0.505269 0.505738
Si Si5 0.225619 0.496285 0.050601
Si Si6 0.530496 0.720266 0.563964
Si Si7 0.852236 0.229956 0.845762
O O1 0.264482 0.301711 0.745361
O O2 0.217132 0.198393 0.805220
O O3 0.154544 0.157697 0.707319
O O4 0.763159 0.615063 0.898179
O O5 0.825641 0.526607 0.846749
O O6 0.806511 0.021169 0.858084
O O7 0.891402 0.858970 0.532564
O O8 0.940322 0.685620 0.474237
O O9 0.973861 0.425828 0.554853
O O10 0.005713 0.918975 0.550544
O O11 0.285262 0.529120 0.536571
O O12 0.327198 0.802167 0.484425
O O13 0.294837 0.304908 0.461801
O O14 0.581071 0.719567 0.615226
#
# Coordination Sequence:
#
# PCOD9255086 Si02
#       7
#     8   8   8   8   8   8   8
#     4   8  16  27  41  63  89 113 136 171 216 258
#     4  10  17  28  46  66  90 115 142 176 218 267
#     4  10  19  30  41  60  86 113 147 180 206 246
#     4  10  20  32  44  63  91 115 145 186 215 254
#     4  10  19  30  47  66  85 117 148 173 222 266
#     4  10  19  28  43  61  82 117 149 170 210 256
#     4  10  18  29  44  65  92 116 142 178 217 263
#
# _framework density 16.895035
#
# number of rings (size 3 to 8) (size 9 to 14) (size 15 to 20)
#    0.000    2.286    0.000    4.286    0.000    2.286 
#    0.000    0.000    0.000    0.000    0.000    1.000 
#    0.000    2.286    0.000    0.000    0.000    0.000 
#
# Total GULP energy -156011.082951 kJ/mol
# GULP energy per Si atom -5571.824391 kJ/mol
# Density = 1.685658 g / cm^3
# Si number density = 16.895035 Si / 1000 Ang^3
#
#
#
# Elastic Constant Matrix: (Units=GPa)
#
#
# Indices 1 2 3 4 5 6 
#
# 1 41.3501 0.0702 27.2940 0.0004 5.6354 0.0000
# 2 0.0702 68.5211 1.8204 0.0009 -1.4864 0.0043
# 3 27.2940 1.8204 113.1775 0.0001 17.6265 -0.0003
# 4 0.0004 0.0009 0.0001 19.5432 -0.0007 3.8856
# 5 5.6354 -1.4864 17.6265 -0.0007 19.5546 0.0007
# 6 0.0000 0.0043 -0.0003 3.8856 0.0007 21.4230
#
#
#
# Elastic Compliance Matrix: (Units=1/GPa)
#
#
# Indices 1 2 3 4 5 6 
#
# 1 0.028858 0.000094 -0.006592 -0.000001 -0.002367 0.000000
# 2 0.000094 0.014640 -0.000497 0.000000 0.001534 -0.000003
# 3 -0.006592 -0.000497 0.011800 0.000000 -0.008774 0.000001
# 4 -0.000001 0.000000 0.000000 0.053083 0.000003 -0.009628
# 5 -0.002367 0.001534 -0.008774 0.000003 0.059847 -0.000003
# 6 0.000000 -0.000003 0.000001 -0.009628 -0.000003 0.048425
#
#
# Mechanical properties :
#
#
# Convention : Reuss Voigt Hill
#
# Bulk Modulus (GPa) = 24.20845 31.26866 27.73856
# Shear Modulus (GPa) = 20.45726 25.02843 22.74285
#
# Velocity S-wave (km/s) = 3.48349 3.85308 3.67294
# Velocity P-wave (km/s) = 5.52625 6.19215 5.86866
#
# Compressibility (1/GPa) = 0.04130788
#
# Stress axis : x y z
#
# Youngs Moduli (GPa) = 34.65304 68.30404 84.74584
#
# Poissons Ratio (x) = -0.00644 0.55866
# Poissons Ratio (y) = -0.00326 0.04212
# Poissons Ratio (z) = 0.22844 0.03395
#
# Static dielectric constant tensor:
#      x y z
#    x 1.566500 0.000000 0.013170 
#    y 0.000000 1.587560 0.000000 
#    z 0.013170 0.000000 1.614100 
# 
# From -- ./inp_files/316907.got.cif
#   From: 2010.05.17/outbox.cif.g08.bks.cpg/sg15_159_cif.got.tgz:316907.got - 2010.06.03 18:47:42.
