data_PCOD9255783
_publ_section_title
;
Structure prediction by ZEFSAII (Michael W. Deem and Ramdas Pophale) SiO2 
 PCOD9255783
Probable space group: C 2/C
;
_chemical_formula_sum "Si O2"
_cell_formula_units_Z 64
_cell_length_a 25.655177
_cell_length_b 17.656789
_cell_length_c 20.601559
_cell_angle_alpha 90.000000
_cell_angle_beta 159.362115
_cell_angle_gamma 90.000000
_cell_volume 3289.253119
_symmetry_space_group_name_H-M "C 2/C"
_symmetry_group_IT_number 15
_symmetry_cell_setting 'monoclinic'
loop_
_space_group_symop_operation_xyz
x,y,z
-x,y,1/2-z
-x,-y,-z
x,-y,1/2+z
1/2+x,1/2+y,z
1/2-x,1/2+y,1/2-z
1/2-x,1/2-y,-z
1/2+x,1/2-y,1/2+z
loop_
_atom_site_type_symbol
_atom_site_label
_atom_site_fract_x
_atom_site_fract_y
_atom_site_fract_z
Si Si1 0.800105 0.838267 0.265860
Si Si2 0.734622 0.628837 0.916615
Si Si3 0.472878 0.229150 0.994804
Si Si4 0.461045 0.095376 0.518801
Si Si5 0.747020 0.021564 0.795077
Si Si6 0.876015 0.634628 0.214035
Si Si7 0.063378 0.933503 0.391454
Si Si8 0.419456 0.005634 0.591425
O O1 0.739049 0.832578 0.121367
O O2 0.967916 0.811774 0.452740
O O3 0.781173 0.920212 0.276366
O O4 0.699022 0.782561 0.190890
O O5 0.562218 0.625599 0.732994
O O6 0.835146 0.659446 0.092581
O O7 0.778529 0.541065 0.953167
O O8 0.522750 0.177954 0.992054
O O9 0.553851 0.192556 0.152840
O O10 0.626616 0.061683 0.701331
O O11 0.407199 0.074428 0.527674
O O12 0.344956 0.049445 0.339188
O O13 0.891443 0.994321 0.001602
O O14 0.982064 0.561031 0.328549
O O15 0.717770 0.607536 0.056125
O O16 0.000000 0.966728 0.250000
O O17 0.500000 0.031591 0.750000
#
# Coordination Sequence:
#
# PCOD9255783 Si02
#       8
#     8   8   8   8   8   8   8   8
#     4  11  24  38  52  78 109 148 185 226 268 316
#     4  10  21  33  51  83 114 138 179 226 271 316
#     4  11  23  37  55  76 109 147 187 222 267 323
#     4  10  17  34  61  80 100 146 187 222 267 324
#     4  10  18  35  59  80 106 143 185 224 270 324
#     4  10  18  35  56  76 109 148 180 218 265 332
#     4  10  20  33  55  87 114 138 173 227 284 324
#     4  10  17  32  58  85 107 134 184 231 267 320
#
# _framework density 19.457304000000001
#
# number of rings (size 3 to 8) (size 9 to 14) (size 15 to 20)
#    0.000    1.750    5.000    0.750    1.750    1.000 
#    2.250    0.000    0.000    0.750    0.000    3.500 
#    0.000    0.000    0.000    0.000    0.000    0.000 
#
# Total GULP energy -178379.755233 kJ/mol
# GULP energy per Si atom -5574.367351 kJ/mol
# Density = 1.941302 g / cm^3
# Si number density = 19.457304 Si / 1000 Ang^3
#
#
#
# Elastic Constant Matrix: (Units=GPa)
#
#
# Indices 1 2 3 4 5 6 
#
# 1 61.0000 7.4976 6.9743 0.0006 -0.6354 0.0005
# 2 7.4976 11.4828 -1.6738 0.0026 -1.6160 0.0022
# 3 6.9743 -1.6738 61.6008 0.0011 6.2710 0.0013
# 4 0.0006 0.0026 0.0011 18.9792 0.0008 7.0375
# 5 -0.6354 -1.6160 6.2710 0.0008 26.4467 0.0002
# 6 0.0005 0.0022 0.0013 7.0375 0.0002 8.4829
#
#
#
# Elastic Compliance Matrix: (Units=1/GPa)
#
#
# Indices 1 2 3 4 5 6 
#
# 1 0.018169 -0.012178 -0.002415 0.000001 0.000265 0.000002
# 2 -0.012178 0.096219 0.003509 -0.000006 0.004755 -0.000019
# 3 -0.002415 0.003509 0.016997 0.000000 -0.003874 -0.000003
# 4 0.000001 -0.000006 0.000000 0.076098 -0.000002 -0.063132
# 5 0.000265 0.004755 -0.003874 -0.000002 0.039027 0.000000
# 6 0.000002 -0.000019 -0.000003 -0.063132 0.000000 0.170259
#
#
# Mechanical properties :
#
#
# Convention : Reuss Voigt Hill
#
# Bulk Modulus (GPa) = 9.15607 17.74220 13.44913
# Shear Modulus (GPa) = 10.51872 18.86746 14.69309
#
# Velocity S-wave (km/s) = 2.32761 3.11736 2.75097
# Velocity P-wave (km/s) = 3.45538 4.70059 4.12524
#
# Compressibility (1/GPa) = 0.10921712
#
# Stress axis : x y z
#
# Youngs Moduli (GPa) = 55.03832 10.39294 58.83500
#
# Poissons Ratio (x) = 0.12657 0.14208
# Poissons Ratio (y) = 0.67027 -0.20646
# Poissons Ratio (z) = 0.13291 -0.03647
#
# Static dielectric constant tensor:
#      x y z
#    x 1.726630 0.000000 -0.004770 
#    y 0.000000 1.683900 0.000000 
#    z -0.004770 0.000000 1.717470 
# 
# From -- ./inp_files/258072.got.cif
#   From: 2010.05.17/outbox.cif.g08.bks.cpg/sg15_130_cif.got.tgz:258072.got - 2010.06.03 18:47:42.
