data_PCOD9255193
_publ_section_title
;
Structure prediction by ZEFSAII (Michael W. Deem and Ramdas Pophale) SiO2 
 PCOD9255193
Probable space group: C 2/C
;
_chemical_formula_sum "Si O2"
_cell_formula_units_Z 56
_cell_length_a 11.381542
_cell_length_b 14.535575
_cell_length_c 18.414137
_cell_angle_alpha 90.000000
_cell_angle_beta 51.997129
_cell_angle_gamma 90.000000
_cell_volume 2400.489622
_symmetry_space_group_name_H-M "C 2/C"
_symmetry_group_IT_number 15
_symmetry_cell_setting 'monoclinic'
loop_
_space_group_symop_operation_xyz
x,y,z
-x,y,1/2-z
-x,-y,-z
x,-y,1/2+z
1/2+x,1/2+y,z
1/2-x,1/2+y,1/2-z
1/2-x,1/2-y,-z
1/2+x,1/2-y,1/2+z
loop_
_atom_site_type_symbol
_atom_site_label
_atom_site_fract_x
_atom_site_fract_y
_atom_site_fract_z
Si Si1 0.776774 0.904981 0.220701
Si Si2 0.534301 0.374226 0.472613
Si Si3 0.312214 0.041885 0.959012
Si Si4 0.075712 0.270245 0.056522
Si Si5 0.823471 0.024487 0.331076
Si Si6 0.711399 0.076253 0.152774
Si Si7 0.799282 0.802147 0.740769
O O1 0.940211 0.902559 0.120097
O O2 0.727908 0.801572 0.224544
O O3 0.774209 0.935234 0.304225
O O4 0.692764 0.986955 0.210852
O O5 0.677622 0.412988 0.462192
O O6 0.532187 0.265756 0.493039
O O7 0.383270 0.413979 0.561830
O O8 0.241944 0.021489 0.063813
O O9 0.435396 0.121886 0.922041
O O10 0.367300 0.953106 0.892348
O O11 0.971985 0.207322 0.147875
O O12 0.250000 0.250000 0.000000
O O13 0.776538 0.120104 0.309551
O O14 0.000000 0.025423 0.250000
O O15 0.698355 0.165043 0.209928
#
# Coordination Sequence:
#
# PCOD9255193 Si02
#       7
#     8   8   8   8   8   8   8
#     4  10  19  32  52  78 106 137 171 215 265 312
#     4   9  16  31  50  74 104 136 168 208 262 319
#     4  10  17  29  48  73 102 134 168 212 256 304
#     4   9  17  30  50  76 102 133 174 216 260 307
#     4  11  20  32  54  83 104 126 174 229 259 297
#     4   9  18  33  52  73 105 142 170 202 260 325
#     4  10  21  35  52  77 108 140 174 216 264 314
#
# _framework density 23.328575000000001
#
# number of rings (size 3 to 8) (size 9 to 14) (size 15 to 20)
#    0.000    2.286    0.000    6.857    0.000    3.429 
#    0.000    1.429    0.000    3.429    0.000    0.000 
#    0.000    0.000    0.000    0.000    0.000    0.000 
#
# Total GULP energy -156006.210692 kJ/mol
# GULP energy per Si atom -5571.650382 kJ/mol
# Density = 2.327548 g / cm^3
# Si number density = 23.328575 Si / 1000 Ang^3
#
#
#
# Elastic Constant Matrix: (Units=GPa)
#
#
# Indices 1 2 3 4 5 6 
#
# 1 31.8533 32.0968 27.0578 0.0000 3.5068 0.0000
# 2 32.0968 73.1502 10.8603 0.0000 -2.2619 0.0000
# 3 27.0578 10.8603 74.2570 0.0000 15.0568 0.0000
# 4 0.0000 0.0000 0.0000 25.7909 0.0000 1.4379
# 5 3.5068 -2.2619 15.0568 0.0000 28.9975 0.0000
# 6 0.0000 0.0000 0.0000 1.4379 0.0000 29.9560
#
#
#
# Elastic Compliance Matrix: (Units=1/GPa)
#
#
# Indices 1 2 3 4 5 6 
#
# 1 0.091517 -0.035936 -0.028253 0.000000 0.000800 0.000000
# 2 -0.035936 0.028237 0.008536 0.000000 0.002116 0.000000
# 3 -0.028253 0.008536 0.024237 0.000000 -0.008503 0.000000
# 4 0.000000 0.000000 0.000000 0.038877 0.000000 -0.001866
# 5 0.000800 0.002116 -0.008503 0.000000 0.038969 0.000000
# 6 0.000000 0.000000 0.000000 -0.001866 0.000000 0.033472
#
#
# Mechanical properties :
#
#
# Convention : Reuss Voigt Hill
#
# Bulk Modulus (GPa) = 30.59696 35.47672 33.03684
# Shear Modulus (GPa) = 13.24463 24.23191 18.73827
#
# Velocity S-wave (km/s) = 2.38532 3.22642 2.83721
# Velocity P-wave (km/s) = 4.55307 5.39631 4.99252
#
# Compressibility (1/GPa) = 0.03268298
#
# Stress axis : x y z
#
# Youngs Moduli (GPa) = 10.92696 35.41478 41.25862
#
# Poissons Ratio (x) = 1.27268 1.16569
# Poissons Ratio (y) = 0.39267 -0.35217
# Poissons Ratio (z) = 0.30872 -0.30229
#
# Static dielectric constant tensor:
#      x y z
#    x 1.915110 0.000000 0.010410 
#    y 0.000000 1.963220 0.000000 
#    z 0.010410 0.000000 1.970640 
# 
# From -- ./inp_files/198227.got.cif
#   From: 2010.05.17/outbox.cif.g08.bks.cpg/sg15_100_cif.got.tgz:198227.got - 2010.06.03 18:47:42.
