data_PCOD9255980
_publ_section_title
;
Structure prediction by ZEFSAII (Michael W. Deem and Ramdas Pophale) SiO2 
 PCOD9255980
Probable space group: C 2/C
;
_chemical_formula_sum "Si O2"
_cell_formula_units_Z 52
_cell_length_a 14.258915
_cell_length_b 8.661983
_cell_length_c 21.140285
_cell_angle_alpha 90.000000
_cell_angle_beta 130.249902
_cell_angle_gamma 90.000000
_cell_volume 1992.838533
_symmetry_space_group_name_H-M "C 2/C"
_symmetry_group_IT_number 15
_symmetry_cell_setting 'monoclinic'
loop_
_space_group_symop_operation_xyz
x,y,z
-x,y,1/2-z
-x,-y,-z
x,-y,1/2+z
1/2+x,1/2+y,z
1/2-x,1/2+y,1/2-z
1/2-x,1/2-y,-z
1/2+x,1/2-y,1/2+z
loop_
_atom_site_type_symbol
_atom_site_label
_atom_site_fract_x
_atom_site_fract_y
_atom_site_fract_z
Si Si1 0.571317 0.664329 0.526673
Si Si2 0.934737 0.073400 0.665393
Si Si3 0.502533 0.892107 0.108430
Si Si4 0.266735 0.518717 0.985865
Si Si5 0.633186 0.202898 0.186657
Si Si6 0.500000 0.080276 0.750000
Si Si7 0.223273 0.672001 0.350844
O O1 0.500000 0.500000 0.500000
O O2 0.487807 0.780309 0.448240
O O3 0.697180 0.663716 0.540805
O O4 0.624609 0.702106 0.618588
O O5 0.823221 0.160926 0.649925
O O6 0.000000 0.983436 0.750000
O O7 0.025239 0.209725 0.679753
O O8 0.876887 0.984611 0.583113
O O9 0.368140 0.974966 0.045258
O O10 0.504981 0.837064 0.183499
O O11 0.599011 0.031092 0.150137
O O12 0.285946 0.379164 0.944228
O O13 0.747540 0.189190 0.285569
O O14 0.382576 0.963181 0.697121
#
# Coordination Sequence:
#
# PCOD9255980 Si02
#       7
#     8   8   8   8   8   4   8
#     4  12  25  39  56  90 133 160 189 257 320 353
#     4  10  17  33  62  93 119 154 207 253 294 362
#     4  10  21  40  66  87 115 165 210 245 287 376
#     4  11  21  37  62  91 121 158 205 254 302 352
#     4  10  19  40  62  88 120 161 203 244 306 366
#     4   8  14  34  60  88 110 150 208 248 288 344
#     4   9  16  33  63  89 115 154 205 251 284 361
#
# _framework density 26.093433000000001
#
# number of rings (size 3 to 8) (size 9 to 14) (size 15 to 20)
#    0.000    1.846    6.923    1.385    0.000    0.000 
#    1.385    7.692    0.000    0.000    0.000    0.000 
#    0.000    0.000    0.000    0.000    0.000    0.000 
#
# Total GULP energy -144883.145370 kJ/mol
# GULP energy per Si atom -5572.428668 kJ/mol
# Density = 2.603404 g / cm^3
# Si number density = 26.093433 Si / 1000 Ang^3
#
#
#
# Elastic Constant Matrix: (Units=GPa)
#
#
# Indices 1 2 3 4 5 6 
#
# 1 33.3481 9.6595 25.6671 0.0000 -17.2542 0.0000
# 2 9.6595 53.7406 29.1497 0.0000 -18.3420 0.0000
# 3 25.6671 29.1497 191.0237 0.0000 -39.3728 0.0000
# 4 0.0000 0.0000 0.0000 46.6244 0.0000 -21.9178
# 5 -17.2542 -18.3420 -39.3728 0.0000 36.4994 0.0000
# 6 0.0000 0.0000 0.0000 -21.9178 0.0000 19.8002
#
#
#
# Elastic Compliance Matrix: (Units=1/GPa)
#
#
# Indices 1 2 3 4 5 6 
#
# 1 0.040242 -0.000498 -0.001880 0.000000 0.016745 0.000000
# 2 -0.000498 0.022768 -0.001411 0.000000 0.009683 0.000000
# 3 -0.001880 -0.001411 0.006910 0.000000 0.005856 0.000000
# 4 0.000000 0.000000 0.000000 0.044718 0.000000 0.049500
# 5 0.016745 0.009683 0.005856 0.000000 0.046497 0.000000
# 6 0.000000 0.000000 0.000000 0.049500 0.000000 0.105299
#
#
# Mechanical properties :
#
#
# Convention : Reuss Voigt Hill
#
# Bulk Modulus (GPa) = 16.04089 45.22945 30.63517
# Shear Modulus (GPa) = 16.96111 34.82722 25.89416
#
# Velocity S-wave (km/s) = 2.55230 3.65733 3.15360
# Velocity P-wave (km/s) = 3.85312 5.93347 5.00263
#
# Compressibility (1/GPa) = 0.06234068
#
# Stress axis : x y z
#
# Youngs Moduli (GPa) = 24.84987 43.92112 144.71946
#
# Poissons Ratio (x) = 0.02189 0.27202
# Poissons Ratio (y) = 0.01238 0.20427
# Poissons Ratio (z) = 0.04671 0.06199
#
# Static dielectric constant tensor:
#      x y z
#    x 2.284370 0.000000 0.139010 
#    y 0.000000 2.133880 0.000000 
#    z 0.139010 0.000000 2.372460 
# 
# From -- ./inp_files/247893.got.cif
#   From: 2010.05.17/outbox.cif.g08.bks.cpg/sg15_124_cif.got.tgz:247893.got - 2010.06.03 18:47:42.
