data_PCOD9255072
_publ_section_title
;
Structure prediction by ZEFSAII (Michael W. Deem and Ramdas Pophale) SiO2 
 PCOD9255072
Probable space group: C 2/C
;
_chemical_formula_sum "Si O2"
_cell_formula_units_Z 48
_cell_length_a 9.204280
_cell_length_b 20.564142
_cell_length_c 11.115828
_cell_angle_alpha 90.000000
_cell_angle_beta 83.116075
_cell_angle_gamma 90.000000
_cell_volume 2088.815441
_symmetry_space_group_name_H-M "C 2/C"
_symmetry_group_IT_number 15
_symmetry_cell_setting 'monoclinic'
loop_
_space_group_symop_operation_xyz
x,y,z
-x,y,1/2-z
-x,-y,-z
x,-y,1/2+z
1/2+x,1/2+y,z
1/2-x,1/2+y,1/2-z
1/2-x,1/2-y,-z
1/2+x,1/2-y,1/2+z
loop_
_atom_site_type_symbol
_atom_site_label
_atom_site_fract_x
_atom_site_fract_y
_atom_site_fract_z
Si Si1 0.387826 0.797756 0.462834
Si Si2 0.183448 0.440571 0.948917
Si Si3 0.567473 0.691263 0.556667
Si Si4 0.718670 0.010846 0.702580
Si Si5 0.272435 0.659192 0.736313
Si Si6 0.477655 0.414877 0.623912
O O1 0.250000 0.750000 0.500000
O O2 0.374129 0.866843 0.531777
O O3 0.525198 0.757382 0.494687
O O4 0.362240 0.814124 0.326473
O O5 0.149503 0.470716 0.821139
O O6 0.361453 0.435349 0.935032
O O7 0.145582 0.478703 0.077265
O O8 0.419141 0.668933 0.641668
O O9 0.691932 0.694468 0.643725
O O10 0.596970 0.634038 0.460313
O O11 0.747418 0.082526 0.752530
O O12 0.872072 0.975044 0.660119
O O13 0.500000 0.379980 0.750000
#
# Coordination Sequence:
#
# PCOD9255072 Si02
#       6
#     8   8   8   8   8   8
#     4   9  16  31  43  62  96 123 164 188 219 276
#     4  10  18  27  42  67  94 132 144 194 224 284
#     4  10  17  28  44  66  89 131 162 182 226 272
#     4  10  18  26  42  71 103 121 156 176 243 287
#     4   9  18  26  46  69  90 125 148 194 224 276
#     4  10  18  24  40  65  99 130 148 183 223 288
#
# _framework density 22.979531999999999
#
# number of rings (size 3 to 8) (size 9 to 14) (size 15 to 20)
#    0.000    2.333    5.000    1.500    7.000    0.000 
#    0.000    0.000    0.000    1.000   21.667    0.000 
#    0.000  113.333    0.000    0.000    0.000    0.000 
#
# Total GULP energy -133997.069103 kJ/mol
# GULP energy per Si atom -5583.211213 kJ/mol
# Density = 2.292723 g / cm^3
# Si number density = 22.979532 Si / 1000 Ang^3
#
#
#
# Elastic Constant Matrix: (Units=GPa)
#
#
# Indices 1 2 3 4 5 6 
#
# 1 44.3290 46.6120 49.0728 0.0000 -28.1558 0.0000
# 2 46.6120 132.3586 86.4759 0.0000 20.7925 0.0000
# 3 49.0728 86.4759 180.1240 0.0000 36.3539 0.0000
# 4 0.0000 0.0000 0.0000 12.7295 0.0000 24.8653
# 5 -28.1558 20.7925 36.3539 0.0000 10.1887 0.0000
# 6 0.0000 0.0000 0.0000 24.8653 0.0000 -21.0415
#
#
#
# Elastic Compliance Matrix: (Units=1/GPa)
#
#
# Indices 1 2 3 4 5 6 
#
# 1 -0.001888 0.001469 0.005243 0.000000 -0.026921 0.000000
# 2 0.001469 0.010361 -0.006882 0.000000 0.007470 0.000000
# 3 0.005243 -0.006882 0.005963 0.000000 0.007254 0.000000
# 4 0.000000 0.000000 0.000000 0.023745 0.000000 0.028061
# 5 -0.026921 0.007470 0.007254 0.000000 -0.017374 0.000000
# 6 0.000000 0.000000 0.000000 0.028061 0.000000 -0.014365
#
#
# Mechanical properties :
#
#
# Convention : Reuss Voigt Hill
#
# Bulk Modulus (GPa) = 70.94865 80.12589 75.53727
# Shear Modulus (GPa) = 435.46914 12.01874 223.74394
#
# Velocity S-wave (km/s) = 13.78094 2.28944 9.87816
# Velocity P-wave (km/s) = 16.85708 6.47555 12.76898
#
# Compressibility (1/GPa) = 0.01409470
#
# Stress axis : x y z
#
# Youngs Moduli (GPa) = -529.64632 96.51776 167.69284
#
# Poissons Ratio (x) = -0.14176 -0.87914
# Poissons Ratio (y) = 0.77790 1.15405
# Poissons Ratio (z) = 2.77671 0.66423
#
# Static dielectric constant tensor:
#      x y z
#    x 1.547580 0.000000 -0.231440 
#    y 0.000000 1.824360 0.000000 
#    z -0.231440 0.000000 1.716600 
# 
# From -- ./inp_files/88516.got.cif
#   From: 2010.05.17/outbox.cif.g08.bks.cpg/sg15_45_cif.got.tgz:88516.got - 2010.06.03 18:47:42.
