data_PCOD9255617
_publ_section_title
;
Structure prediction by ZEFSAII (Michael W. Deem and Ramdas Pophale) SiO2 
 PCOD9255617
Probable space group: C 2/C
;
_chemical_formula_sum "Si O2"
_cell_formula_units_Z 64
_cell_length_a 26.433604
_cell_length_b 19.690114
_cell_length_c 9.126591
_cell_angle_alpha 90.000000
_cell_angle_beta 54.230654
_cell_angle_gamma 90.000000
_cell_volume 3854.212991
_symmetry_space_group_name_H-M "C 2/C"
_symmetry_group_IT_number 15
_symmetry_cell_setting 'monoclinic'
loop_
_space_group_symop_operation_xyz
x,y,z
-x,y,1/2-z
-x,-y,-z
x,-y,1/2+z
1/2+x,1/2+y,z
1/2-x,1/2+y,1/2-z
1/2-x,1/2-y,-z
1/2+x,1/2-y,1/2+z
loop_
_atom_site_type_symbol
_atom_site_label
_atom_site_fract_x
_atom_site_fract_y
_atom_site_fract_z
Si Si1 0.979894 0.307713 0.615271
Si Si2 0.850248 0.250391 0.915949
Si Si3 0.182145 0.633623 0.462418
Si Si4 0.052793 0.578789 0.542574
Si Si5 0.248172 0.647523 0.051328
Si Si6 0.614349 0.800478 0.341266
Si Si7 0.618612 0.950087 0.470384
Si Si8 0.199308 0.495842 0.584000
O O1 0.916267 0.264147 0.724757
O O2 0.962897 0.380153 0.575906
O O3 0.000000 0.312216 0.750000
O O4 0.042416 0.282316 0.426318
O O5 0.802516 0.312034 0.960511
O O6 0.814603 0.183360 0.923509
O O7 0.861373 0.251171 0.072261
O O8 0.117821 0.607384 0.497329
O O9 0.224555 0.659056 0.258201
O O10 0.159483 0.685913 0.626829
O O11 0.214160 0.566852 0.479599
O O12 0.061750 0.498038 0.520286
O O13 0.000000 0.593951 0.750000
O O14 0.245519 0.567625 0.018618
O O15 0.610029 0.874097 0.430420
O O16 0.639003 0.963833 0.602005
O O17 0.677126 0.980008 0.280330
#
# Coordination Sequence:
#
# PCOD9255617 Si02
#       8
#     8   8   8   8   8   8   8   8
#     4  10  20  32  46  66  95 124 167 207 233 281
#     4  10  21  32  49  68  90 132 173 202 238 279
#     4  10  20  32  49  70  95 130 160 203 250 283
#     4  11  19  31  42  67  95 133 169 195 241 277
#     4  11  19  34  51  65  96 130 168 206 237 290
#     4  10  20  33  47  69  97 129 162 206 240 280
#     4  10  20  29  44  66  97 125 167 198 235 281
#     4  10  17  32  47  66  93 125 159 206 238 274
#
# _framework density 16.605205000000002
#
# number of rings (size 3 to 8) (size 9 to 14) (size 15 to 20)
#    0.000    1.750    6.250    0.000    1.750    2.500 
#    0.000    0.000    0.000    0.000    0.000    0.000 
#    0.000    9.000    0.000    0.000    0.000    2.125 
#
# Total GULP energy -178348.007158 kJ/mol
# GULP energy per Si atom -5573.375224 kJ/mol
# Density = 1.656741 g / cm^3
# Si number density = 16.605205 Si / 1000 Ang^3
#
#
#
# Elastic Constant Matrix: (Units=GPa)
#
#
# Indices 1 2 3 4 5 6 
#
# 1 58.5080 25.0409 16.1319 0.0000 -12.3911 0.0000
# 2 25.0409 40.6337 8.5540 0.0000 -16.9380 0.0000
# 3 16.1319 8.5540 46.4166 0.0000 -5.3070 0.0000
# 4 0.0000 0.0000 0.0000 16.6452 0.0000 -8.7637
# 5 -12.3911 -16.9380 -5.3070 0.0000 17.6622 0.0000
# 6 0.0000 0.0000 0.0000 -8.7637 0.0000 28.1824
#
#
#
# Elastic Compliance Matrix: (Units=1/GPa)
#
#
# Indices 1 2 3 4 5 6 
#
# 1 0.024869 -0.012576 -0.005913 0.000000 0.003610 0.000000
# 2 -0.012576 0.047815 -0.000214 0.000000 0.036967 0.000000
# 3 -0.005913 -0.000214 0.023964 0.000000 0.002847 0.000000
# 4 0.000000 0.000000 0.000000 0.071839 0.000000 0.022339
# 5 0.003610 0.036967 0.002847 0.000000 0.095457 0.000000
# 6 0.000000 0.000000 0.000000 0.022339 0.000000 0.042430
#
#
# Mechanical properties :
#
#
# Convention : Reuss Voigt Hill
#
# Bulk Modulus (GPa) = 16.88010 27.22353 22.05181
# Shear Modulus (GPa) = 13.75411 18.88673 16.32042
#
# Velocity S-wave (km/s) = 2.88114 3.37619 3.13844
# Velocity P-wave (km/s) = 4.61038 5.62391 5.14218
#
# Compressibility (1/GPa) = 0.05924136
#
# Stress axis : x y z
#
# Youngs Moduli (GPa) = 40.21072 20.91396 41.72936
#
# Poissons Ratio (x) = 0.26302 0.24673
# Poissons Ratio (y) = 0.50570 0.00894
# Poissons Ratio (z) = 0.23775 0.00448
#
# Static dielectric constant tensor:
#      x y z
#    x 1.593350 0.000000 0.016170 
#    y 0.000000 1.570390 0.000000 
#    z 0.016170 0.000000 1.595870 
# 
# From -- ./inp_files/63389.got.cif
#   From: 2010.05.17/outbox.cif.g08.bks.cpg/sg15_32_cif.got.tgz:63389.got - 2010.06.03 18:47:42.
