data_PCOD9255433
_publ_section_title
;
Structure prediction by ZEFSAII (Michael W. Deem and Ramdas Pophale) SiO2 
 PCOD9255433
Probable space group: C 2/C
;
_chemical_formula_sum "Si O2"
_cell_formula_units_Z 56
_cell_length_a 11.219488
_cell_length_b 19.343297
_cell_length_c 13.578869
_cell_angle_alpha 90.000000
_cell_angle_beta 72.792806
_cell_angle_gamma 90.000000
_cell_volume 2815.011635
_symmetry_space_group_name_H-M "C 2/C"
_symmetry_group_IT_number 15
_symmetry_cell_setting 'monoclinic'
loop_
_space_group_symop_operation_xyz
x,y,z
-x,y,1/2-z
-x,-y,-z
x,-y,1/2+z
1/2+x,1/2+y,z
1/2-x,1/2+y,1/2-z
1/2-x,1/2-y,-z
1/2+x,1/2-y,1/2+z
loop_
_atom_site_type_symbol
_atom_site_label
_atom_site_fract_x
_atom_site_fract_y
_atom_site_fract_z
Si Si1 0.946244 0.706708 0.997601
Si Si2 0.316317 0.150699 0.846327
Si Si3 0.446618 0.994375 0.358692
Si Si4 0.096704 0.783189 0.804147
Si Si5 0.627593 0.790418 0.759969
Si Si6 0.137680 0.865786 0.227027
Si Si7 0.863825 0.577403 0.548012
O O1 0.893255 0.721024 0.118110
O O2 0.836521 0.684515 0.948239
O O3 0.024075 0.766417 0.922708
O O4 0.043393 0.642916 0.983487
O O5 0.388276 0.078321 0.838240
O O6 0.371417 0.207629 0.755209
O O7 0.186272 0.131344 0.827669
O O8 0.500000 0.030300 0.250000
O O9 0.564367 0.975963 0.398432
O O10 0.353686 0.040204 0.445663
O O11 0.231322 0.819023 0.785204
O O12 0.000000 0.816405 0.750000
O O13 0.500000 0.822901 0.750000
O O14 0.633744 0.716091 0.703704
O O15 0.237476 0.900590 0.131331
O O16 0.000000 0.894588 0.250000
#
# Coordination Sequence:
#
# PCOD9255433 Si02
#       7
#     8   8   8   8   8   8   8
#     4  10  18  32  54  75 105 138 182 226 261 313
#     4   9  16  32  55  77 105 135 171 225 267 313
#     4  10  17  30  57  84  99 132 173 231 274 315
#     4   9  17  31  52  74 103 139 180 224 261 315
#     4  10  21  33  50  77 107 147 183 217 272 317
#     4  10  19  35  52  76 111 145 177 217 264 331
#     4  10  19  32  54  81 106 133 179 224 273 313
#
# _framework density 19.893345
#
# number of rings (size 3 to 8) (size 9 to 14) (size 15 to 20)
#    0.000    2.286    4.286    1.286    0.000    6.286 
#    0.000    0.714    0.000    0.000    0.000    2.000 
#    0.000    0.000    0.000    0.000    0.000    0.000 
#
# Total GULP energy -155984.714960 kJ/mol
# GULP energy per Si atom -5570.882677 kJ/mol
# Density = 1.984807 g / cm^3
# Si number density = 19.893345 Si / 1000 Ang^3
#
#
#
# Elastic Constant Matrix: (Units=GPa)
#
#
# Indices 1 2 3 4 5 6 
#
# 1 153.6747 13.9535 38.9557 0.0000 -5.9500 0.0000
# 2 13.9535 43.4385 19.8197 0.0000 -5.9657 0.0000
# 3 38.9557 19.8197 110.0011 0.0000 -11.2206 0.0000
# 4 0.0000 0.0000 0.0000 19.8678 0.0000 -6.6191
# 5 -5.9500 -5.9657 -11.2206 0.0000 24.1427 0.0000
# 6 0.0000 0.0000 0.0000 -6.6191 0.0000 -1.9825
#
#
#
# Elastic Compliance Matrix: (Units=1/GPa)
#
#
# Indices 1 2 3 4 5 6 
#
# 1 0.007215 -0.001214 -0.002294 0.000000 0.000412 0.000000
# 2 -0.001214 0.025720 -0.003765 0.000000 0.004306 0.000000
# 3 -0.002294 -0.003765 0.010948 0.000000 0.003593 0.000000
# 4 0.000000 0.000000 0.000000 0.023828 0.000000 -0.079556
# 5 0.000412 0.004306 0.003593 0.000000 0.044256 0.000000
# 6 0.000000 0.000000 0.000000 -0.079556 0.000000 -0.238791
#
#
# Mechanical properties :
#
#
# Convention : Reuss Voigt Hill
#
# Bulk Modulus (GPa) = 34.08726 50.28581 42.18654
# Shear Modulus (GPa) = -48.78149 24.03127 -12.37511
#
# Velocity S-wave (km/s) = -4.95729 3.47941 -2.49684
# Velocity P-wave (km/s) = 3.94894 6.44005 3.59723
#
# Compressibility (1/GPa) = 0.02933647
#
# Stress axis : x y z
#
# Youngs Moduli (GPa) = 138.59904 38.87975 91.33966
#
# Poissons Ratio (x) = 0.04721 0.20957
# Poissons Ratio (y) = 0.16830 0.34389
# Poissons Ratio (z) = 0.31800 0.14638
#
# Static dielectric constant tensor:
#      x y z
#    x 1.692350 0.000000 0.129500 
#    y 0.000000 1.707850 0.000000 
#    z 0.129500 0.000000 1.574920 
# 
# From -- ./inp_files/89545.got.cif
#   From: 2010.05.17/outbox.cif.g08.bks.cpg/sg15_45_cif.got.tgz:89545.got - 2010.06.03 18:47:42.
