data_PCOD9255897
_publ_section_title
;
Structure prediction by ZEFSAII (Michael W. Deem and Ramdas Pophale) SiO2 
 PCOD9255897
Probable space group: C 2/C
;
_chemical_formula_sum "Si O2"
_cell_formula_units_Z 48
_cell_length_a 13.512571
_cell_length_b 10.355903
_cell_length_c 13.512818
_cell_angle_alpha 90.000000
_cell_angle_beta 81.991079
_cell_angle_gamma 90.000000
_cell_volume 1872.471244
_symmetry_space_group_name_H-M "C 2/C"
_symmetry_group_IT_number 15
_symmetry_cell_setting 'monoclinic'
loop_
_space_group_symop_operation_xyz
x,y,z
-x,y,1/2-z
-x,-y,-z
x,-y,1/2+z
1/2+x,1/2+y,z
1/2-x,1/2+y,1/2-z
1/2-x,1/2-y,-z
1/2+x,1/2-y,1/2+z
loop_
_atom_site_type_symbol
_atom_site_label
_atom_site_fract_x
_atom_site_fract_y
_atom_site_fract_z
Si Si1 0.171991 0.547413 0.430430
Si Si2 0.939286 0.965784 0.631523
Si Si3 0.743806 0.872363 0.572375
Si Si4 0.056783 0.765855 0.342771
Si Si5 0.377890 0.337905 0.846531
Si Si6 0.234975 0.671665 0.765474
O O1 0.164964 0.470333 0.534800
O O2 0.085510 0.645479 0.407920
O O3 0.276515 0.625820 0.416291
O O4 0.196646 0.438483 0.343731
O O5 0.997329 0.102634 0.614661
O O6 0.849426 0.942491 0.569003
O O7 0.899358 0.931501 0.748809
O O8 0.023238 0.854091 0.604252
O O9 0.750000 0.750000 0.500000
O O10 0.732593 0.802308 0.679173
O O11 0.162676 0.840796 0.308584
O O12 0.000000 0.725327 0.250000
O O13 0.353864 0.203464 0.797328
#
# Coordination Sequence:
#
# PCOD9255897 Si02
#       6
#     8   8   8   8   8   8
#     4  10  19  34  52  81 108 140 176 216 276 319
#     4  10  17  33  56  77 104 135 185 220 258 314
#     4   9  20  35  53  77 111 145 171 218 273 320
#     4  11  20  34  57  82 105 140 181 230 259 309
#     4   9  17  31  56  79  98 139 185 221 255 307
#     4   9  18  36  56  75 107 142 178 220 266 314
#
# _framework density 25.634571999999999
#
# number of rings (size 3 to 8) (size 9 to 14) (size 15 to 20)
#    0.000    2.333    3.333    0.000    0.000    1.333 
#    9.000    0.833    0.000    0.000    0.000    0.000 
#    0.000    0.000    0.000    0.000    0.000    0.000 
#
# Total GULP energy -133851.813124 kJ/mol
# GULP energy per Si atom -5577.158880 kJ/mol
# Density = 2.557623 g / cm^3
# Si number density = 25.634572 Si / 1000 Ang^3
#
#
#
# Elastic Constant Matrix: (Units=GPa)
#
#
# Indices 1 2 3 4 5 6 
#
# 1 49.2448 21.6141 24.2669 0.0000 26.2416 0.0000
# 2 21.6141 101.9594 49.0670 0.0000 19.8789 0.0000
# 3 24.2669 49.0670 84.6885 0.0000 26.4330 0.0000
# 4 0.0000 0.0000 0.0000 56.6927 0.0000 11.9177
# 5 26.2416 19.8789 26.4330 0.0000 48.5959 0.0000
# 6 0.0000 0.0000 0.0000 11.9177 0.0000 19.7025
#
#
#
# Elastic Compliance Matrix: (Units=1/GPa)
#
#
# Indices 1 2 3 4 5 6 
#
# 1 0.030077 -0.002242 -0.003055 0.000000 -0.013662 0.000000
# 2 -0.002242 0.013863 -0.007224 0.000000 -0.000531 0.000000
# 3 -0.003055 -0.007224 0.018587 0.000000 -0.005505 0.000000
# 4 0.000000 0.000000 0.000000 0.020209 0.000000 -0.012224
# 5 -0.013662 -0.000531 -0.005505 0.000000 0.031167 0.000000
# 6 0.000000 0.000000 0.000000 -0.012224 0.000000 0.058149
#
#
# Mechanical properties :
#
#
# Convention : Reuss Voigt Hill
#
# Bulk Modulus (GPa) = 26.67720 47.30987 36.99353
# Shear Modulus (GPa) = 23.85628 34.39452 29.12540
#
# Velocity S-wave (km/s) = 3.05393 3.66693 3.37438
# Velocity P-wave (km/s) = 4.78170 6.03523 5.44466
#
# Compressibility (1/GPa) = 0.03748519
#
# Stress axis : x y z
#
# Youngs Moduli (GPa) = 33.24846 72.13433 53.80063
#
# Poissons Ratio (x) = 0.16172 0.16436
# Poissons Ratio (y) = 0.07454 0.38865
# Poissons Ratio (z) = 0.10157 0.52109
#
# Static dielectric constant tensor:
#      x y z
#    x 2.132030 0.000000 -0.057740 
#    y 0.000000 2.226680 0.000000 
#    z -0.057740 0.000000 2.118430 
# 
# From -- ./inp_files/152169.got.cif
#   From: 2010.05.17/outbox.cif.g08.bks.cpg/sg15_77_cif.got.tgz:152169.got - 2010.06.03 18:47:42.
