data_PCOD9255706
_publ_section_title
;
Structure prediction by ZEFSAII (Michael W. Deem and Ramdas Pophale) SiO2 
 PCOD9255706
Probable space group: C 2/C
;
_chemical_formula_sum "Si O2"
_cell_formula_units_Z 60
_cell_length_a 29.865474
_cell_length_b 20.109030
_cell_length_c 9.333752
_cell_angle_alpha 90.000000
_cell_angle_beta 27.927378
_cell_angle_gamma 90.000000
_cell_volume 2625.362167
_symmetry_space_group_name_H-M "C 2/C"
_symmetry_group_IT_number 15
_symmetry_cell_setting 'monoclinic'
loop_
_space_group_symop_operation_xyz
x,y,z
-x,y,1/2-z
-x,-y,-z
x,-y,1/2+z
1/2+x,1/2+y,z
1/2-x,1/2+y,1/2-z
1/2-x,1/2-y,-z
1/2+x,1/2-y,1/2+z
loop_
_atom_site_type_symbol
_atom_site_label
_atom_site_fract_x
_atom_site_fract_y
_atom_site_fract_z
Si Si1 0.179122 0.523698 0.693902
Si Si2 0.397631 0.887989 0.572968
Si Si3 0.888882 0.720462 0.586539
Si Si4 0.295682 0.132044 0.087012
Si Si5 0.135349 0.939808 0.425614
Si Si6 0.717811 0.134530 0.823271
Si Si7 0.000000 0.151867 0.750000
Si Si8 0.911253 0.068613 0.767323
O O1 0.152297 0.567949 0.632939
O O2 0.272210 0.480434 0.393618
O O3 0.206987 0.574948 0.739077
O O4 0.104783 0.467431 0.945025
O O5 0.500000 0.859736 0.250000
O O6 0.325186 0.856429 0.665488
O O7 0.363060 0.875351 0.829143
O O8 0.817128 0.699430 0.662494
O O9 0.089628 0.798656 0.973552
O O10 0.836957 0.690924 0.872457
O O11 0.000000 0.693212 0.250000
O O12 0.186591 0.106535 0.405576
O O13 0.181261 0.877130 0.380848
O O14 0.092587 0.993350 0.659340
O O15 0.082727 0.925658 0.422486
O O16 0.010754 0.107203 0.859556
#
# Coordination Sequence:
#
# PCOD9255706 Si02
#       8
#     8   8   8   8   8   8   4   8
#     4   9  17  29  45  82 117 151 183 233 300 375
#     4  11  19  25  44  83 120 150 189 241 312 367
#     4   9  21  40  57  80 122 165 213 246 282 358
#     4  10  19  33  58  81 114 162 196 248 299 365
#     4  10  18  34  63  94 120 146 193 256 317 375
#     4  10  17  32  54  80 117 157 191 246 306 353
#     4  10  26  44  62  86 118 174 218 256 292 354
#     4  11  21  40  66  94 124 154 206 257 320 372
#
# _framework density 22.85399
#
# number of rings (size 3 to 8) (size 9 to 14) (size 15 to 20)
#    0.400    1.600    4.000    2.400    0.000    5.333 
#    0.000    0.667    0.000    1.600    0.000    0.000 
#    0.000    0.000    0.000    0.000    0.000    0.000 
#
# Total GULP energy -167367.764351 kJ/mol
# GULP energy per Si atom -5578.925478 kJ/mol
# Density = 2.280197 g / cm^3
# Si number density = 22.853990 Si / 1000 Ang^3
#
#
#
# Elastic Constant Matrix: (Units=GPa)
#
#
# Indices 1 2 3 4 5 6 
#
# 1 109.1366 51.2470 35.9811 0.0000 3.8658 0.0000
# 2 51.2470 81.3280 30.3839 0.0000 -5.7826 0.0000
# 3 35.9811 30.3839 91.5035 0.0000 12.7860 0.0000
# 4 0.0000 0.0000 0.0000 23.1676 0.0000 -10.7785
# 5 3.8658 -5.7826 12.7860 0.0000 28.3391 0.0000
# 6 0.0000 0.0000 0.0000 -10.7785 0.0000 14.1389
#
#
#
# Elastic Compliance Matrix: (Units=1/GPa)
#
#
# Indices 1 2 3 4 5 6 
#
# 1 0.013784 -0.007941 -0.002448 0.000000 -0.002396 0.000000
# 2 -0.007941 0.019401 -0.004295 0.000000 0.006980 0.000000
# 3 -0.002448 -0.004295 0.014294 0.000000 -0.006992 0.000000
# 4 0.000000 0.000000 0.000000 0.066886 0.000000 0.050990
# 5 -0.002396 0.006980 -0.006992 0.000000 0.040192 0.000000
# 6 0.000000 0.000000 0.000000 0.050990 0.000000 0.109598
#
#
# Mechanical properties :
#
#
# Convention : Reuss Voigt Hill
#
# Bulk Modulus (GPa) = 55.21738 57.46579 56.34158
# Shear Modulus (GPa) = 16.69112 24.08620 20.38866
#
# Velocity S-wave (km/s) = 2.70541 3.24993 2.99009
# Velocity P-wave (km/s) = 5.82858 6.26754 6.05204
#
# Compressibility (1/GPa) = 0.01811024
#
# Stress axis : x y z
#
# Youngs Moduli (GPa) = 72.54875 51.54480 69.95804
#
# Poissons Ratio (x) = 0.40933 0.17128
# Poissons Ratio (y) = 0.57613 0.30044
# Poissons Ratio (z) = 0.17763 0.22137
#
# Static dielectric constant tensor:
#      x y z
#    x 1.879580 0.000000 -0.044830 
#    y 0.000000 1.860580 0.000000 
#    z -0.044830 0.000000 1.905730 
# 
# From -- ./inp_files/67525.got.cif
#   From: 2010.05.17/outbox.cif.g08.bks.cpg/sg15_34_cif.got.tgz:67525.got - 2010.06.03 18:47:42.
