data_PCOD9255145
_publ_section_title
;
Structure prediction by ZEFSAII (Michael W. Deem and Ramdas Pophale) SiO2 
 PCOD9255145
Probable space group: C 2/C
;
_chemical_formula_sum "Si O2"
_cell_formula_units_Z 64
_cell_length_a 17.916221
_cell_length_b 14.698317
_cell_length_c 15.111704
_cell_angle_alpha 90.000000
_cell_angle_beta 132.619732
_cell_angle_gamma 90.000000
_cell_volume 2928.363449
_symmetry_space_group_name_H-M "C 2/C"
_symmetry_group_IT_number 15
_symmetry_cell_setting 'monoclinic'
loop_
_space_group_symop_operation_xyz
x,y,z
-x,y,1/2-z
-x,-y,-z
x,-y,1/2+z
1/2+x,1/2+y,z
1/2-x,1/2+y,1/2-z
1/2-x,1/2-y,-z
1/2+x,1/2-y,1/2+z
loop_
_atom_site_type_symbol
_atom_site_label
_atom_site_fract_x
_atom_site_fract_y
_atom_site_fract_z
Si Si1 0.320878 0.791281 0.477206
Si Si2 0.637154 0.485219 0.544319
Si Si3 0.837625 0.827476 0.660958
Si Si4 0.444985 0.680938 0.071423
Si Si5 0.245341 0.158060 0.231863
Si Si6 0.954998 0.115034 0.803078
Si Si7 0.048231 0.282555 0.600743
Si Si8 0.774486 0.980008 0.070908
O O1 0.250000 0.750000 0.500000
O O2 0.294677 0.722239 0.377687
O O3 0.443800 0.793166 0.570404
O O4 0.292451 0.897706 0.447455
O O5 0.603093 0.590067 0.511625
O O6 0.684574 0.437302 0.668513
O O7 0.538774 0.428478 0.433680
O O8 0.716097 0.470993 0.527249
O O9 0.869399 0.788701 0.590592
O O10 0.777647 0.786806 0.696010
O O11 0.948408 0.844444 0.795663
O O12 0.765148 0.914324 0.583635
O O13 0.467724 0.754801 0.014185
O O14 0.365595 0.141791 0.322160
O O15 0.900784 0.193577 0.813208
O O16 0.883226 0.040615 0.702708
O O17 0.000000 0.158350 0.750000
#
# Coordination Sequence:
#
# PCOD9255145 Si02
#       8
#     8   8   8   8   8   8   8   8
#     4  12  22  39  58  90 128 162 198 252 313 379
#     4  10  19  34  57  92 124 153 195 256 311 369
#     4  10  21  39  62  91 117 160 212 264 311 356
#     4  10  21  39  64  89 122 158 211 271 305 353
#     4  12  24  35  57  90 125 162 206 250 313 378
#     4  10  17  28  52  84 115 144 179 237 301 360
#     4  12  25  36  57  91 121 168 201 247 318 370
#     4  10  19  34  58  88 124 158 191 250 319 366
#
# _framework density 21.85521
#
# number of rings (size 3 to 8) (size 9 to 14) (size 15 to 20)
#    0.000    1.250    6.250    0.750    1.750    1.500 
#    0.000    0.625    0.000    0.000    0.000    0.000 
#    0.000    0.000    0.000    0.000    0.000    0.000 
#
# Total GULP energy -178245.616617 kJ/mol
# GULP energy per Si atom -5570.175519 kJ/mol
# Density = 2.180547 g / cm^3
# Si number density = 21.855210 Si / 1000 Ang^3
#
#
#
# Elastic Constant Matrix: (Units=GPa)
#
#
# Indices 1 2 3 4 5 6 
#
# 1 121.2587 3.2882 35.2187 0.0000 -6.4288 0.0000
# 2 3.2882 24.8388 6.3094 0.0000 1.5516 0.0000
# 3 35.2187 6.3094 63.0431 0.0000 1.6223 0.0000
# 4 0.0000 0.0000 0.0000 18.2500 0.0000 -1.9546
# 5 -6.4288 1.5516 1.6223 0.0000 44.3266 0.0000
# 6 0.0000 0.0000 0.0000 -1.9546 0.0000 21.6346
#
#
#
# Elastic Compliance Matrix: (Units=1/GPa)
#
#
# Indices 1 2 3 4 5 6 
#
# 1 0.009963 0.000003 -0.005609 0.000000 0.001650 0.000000
# 2 0.000003 0.041384 -0.004110 0.000000 -0.001298 0.000000
# 3 -0.005609 -0.004110 0.019442 0.000000 -0.001381 0.000000
# 4 0.000000 0.000000 0.000000 0.055330 0.000000 0.004999
# 5 0.001650 -0.001298 -0.001381 0.000000 0.022895 0.000000
# 6 0.000000 0.000000 0.000000 0.004999 0.000000 0.046674
#
#
# Mechanical properties :
#
#
# Convention : Reuss Voigt Hill
#
# Bulk Modulus (GPa) = 19.47114 33.19702 26.33408
# Shear Modulus (GPa) = 21.52948 27.79719 24.66334
#
# Velocity S-wave (km/s) = 3.14203 3.57021 3.36294
# Velocity P-wave (km/s) = 4.70017 5.67606 5.21101
#
# Compressibility (1/GPa) = 0.05135806
#
# Stress axis : x y z
#
# Youngs Moduli (GPa) = 100.36910 24.16378 51.43441
#
# Poissons Ratio (x) = -0.00006 0.28848
# Poissons Ratio (y) = -0.00027 0.21139
# Poissons Ratio (z) = 0.56293 0.09931
#
# Static dielectric constant tensor:
#      x y z
#    x 1.906810 0.000000 0.000760 
#    y 0.000000 1.823660 0.000000 
#    z 0.000760 0.000000 1.841510 
# 
# From -- ./inp_files/162584.got.cif
#   From: 2010.05.17/outbox.cif.g08.bks.cpg/sg15_82_cif.got.tgz:162584.got - 2010.06.03 18:47:42.
