data_PCOD9255797
_publ_section_title
;
Structure prediction by ZEFSAII (Michael W. Deem and Ramdas Pophale) SiO2 
 PCOD9255797
Probable space group: C 2/C
;
_chemical_formula_sum "Si O2"
_cell_formula_units_Z 56
_cell_length_a 18.535365
_cell_length_b 7.081233
_cell_length_c 33.022040
_cell_angle_alpha 90.000000
_cell_angle_beta 141.095571
_cell_angle_gamma 90.000000
_cell_volume 2722.009420
_symmetry_space_group_name_H-M "C 2/C"
_symmetry_group_IT_number 15
_symmetry_cell_setting 'monoclinic'
loop_
_space_group_symop_operation_xyz
x,y,z
-x,y,1/2-z
-x,-y,-z
x,-y,1/2+z
1/2+x,1/2+y,z
1/2-x,1/2+y,1/2-z
1/2-x,1/2-y,-z
1/2+x,1/2-y,1/2+z
loop_
_atom_site_type_symbol
_atom_site_label
_atom_site_fract_x
_atom_site_fract_y
_atom_site_fract_z
Si Si1 0.406614 0.814917 0.242783
Si Si2 0.668644 0.636789 0.668167
Si Si3 0.516367 0.824421 0.374637
Si Si4 0.184028 0.649140 0.415738
Si Si5 0.378722 0.763324 0.702761
Si Si6 0.214781 0.693385 0.694979
Si Si7 0.588700 0.572142 0.938773
O O1 0.500000 0.758476 0.250000
O O2 0.268724 0.780750 0.182707
O O3 0.455324 0.747780 0.307090
O O4 0.408812 0.046344 0.241533
O O5 0.708517 0.686484 0.731179
O O6 0.680761 0.409658 0.671641
O O7 0.533611 0.665046 0.603229
O O8 0.406260 0.909552 0.350488
O O9 0.571193 0.650327 0.422685
O O10 0.608440 0.976602 0.400408
O O11 0.169668 0.672730 0.361578
O O12 0.314855 0.613047 0.485766
O O13 0.135970 0.832144 0.418250
O O14 0.500000 0.663574 0.750000
O O15 0.291548 0.639652 0.690428
#
# Coordination Sequence:
#
# PCOD9255797 Si02
#       7
#     8   8   8   8   8   8   8
#     4   9  16  31  58  83 109 145 188 233 288 335
#     4   9  18  32  51  83 115 139 187 238 276 340
#     4  10  19  38  59  80 114 149 191 238 283 339
#     4  11  21  38  63  77 117 156 187 236 289 341
#     4  10  17  32  59  84 111 149 189 238 295 336
#     4   9  19  31  55  86 108 145 193 233 293 346
#     4  10  23  36  56  89 110 151 201 223 283 359
#
# _framework density 20.573038
#
# number of rings (size 3 to 8) (size 9 to 14) (size 15 to 20)
#    0.000    2.286    2.857    1.286    4.000    0.000 
#    0.000   11.429    0.000    1.714    0.000    0.000 
#    0.000    0.000    0.000    0.000    0.000    0.000 
#
# Total GULP energy -156160.802719 kJ/mol
# GULP energy per Si atom -5577.171526 kJ/mol
# Density = 2.052621 g / cm^3
# Si number density = 20.573038 Si / 1000 Ang^3
#
#
#
# Elastic Constant Matrix: (Units=GPa)
#
#
# Indices 1 2 3 4 5 6 
#
# 1 169.7501 15.7249 61.6650 -0.0002 37.4315 0.0001
# 2 15.7249 62.6409 11.2247 -0.0001 10.0652 -0.0001
# 3 61.6650 11.2247 97.6173 0.0001 41.3287 -0.0001
# 4 -0.0002 -0.0001 0.0001 3.0409 -0.0002 -11.4904
# 5 37.4315 10.0652 41.3287 -0.0002 38.4885 0.0002
# 6 0.0001 -0.0001 -0.0001 -11.4904 0.0002 -2.5137
#
#
#
# Elastic Compliance Matrix: (Units=1/GPa)
#
#
# Indices 1 2 3 4 5 6 
#
# 1 0.008056 -0.000774 -0.003243 0.000000 -0.004150 0.000000
# 2 -0.000774 0.016740 0.000181 0.000000 -0.003819 0.000000
# 3 -0.003243 0.000181 0.020090 -0.000001 -0.018466 0.000000
# 4 0.000000 0.000000 -0.000001 0.017997 0.000001 -0.082266
# 5 -0.004150 -0.003819 -0.018466 0.000001 0.050845 0.000000
# 6 0.000000 0.000000 0.000000 -0.082266 0.000000 -0.021771
#
#
# Mechanical properties :
#
#
# Convention : Reuss Voigt Hill
#
# Bulk Modulus (GPa) = 26.87215 56.35973 41.61594
# Shear Modulus (GPa) = 44.63005 23.89604 34.26305
#
# Velocity S-wave (km/s) = 4.66268 3.41181 4.08540
# Velocity P-wave (km/s) = 6.48673 6.55553 6.52122
#
# Compressibility (1/GPa) = 0.03721324
#
# Stress axis : x y z
#
# Youngs Moduli (GPa) = 124.13267 59.73864 49.77658
#
# Poissons Ratio (x) = 0.04626 0.16142
# Poissons Ratio (y) = 0.09612 -0.00902
# Poissons Ratio (z) = 0.40255 -0.01083
#
# Static dielectric constant tensor:
#      x y z
#    x 1.828060 0.000000 0.045170 
#    y 0.000000 1.784520 0.000000 
#    z 0.045170 0.000000 1.698180 
# 
# From -- ./inp_files/276354.got.cif
#   From: 2010.05.17/outbox.cif.g08.bks.cpg/sg15_139_cif.got.tgz:276354.got - 2010.06.03 18:47:42.
