data_PCOD9255031
_publ_section_title
;
Structure prediction by ZEFSAII (Michael W. Deem and Ramdas Pophale) SiO2 
 PCOD9255031
Probable space group: C 2/C
;
_chemical_formula_sum "Si O2"
_cell_formula_units_Z 60
_cell_length_a 26.746384
_cell_length_b 13.262196
_cell_length_c 14.244732
_cell_angle_alpha 90.000000
_cell_angle_beta 151.522834
_cell_angle_gamma 90.000000
_cell_volume 2409.232866
_symmetry_space_group_name_H-M "C 2/C"
_symmetry_group_IT_number 15
_symmetry_cell_setting 'monoclinic'
loop_
_space_group_symop_operation_xyz
x,y,z
-x,y,1/2-z
-x,-y,-z
x,-y,1/2+z
1/2+x,1/2+y,z
1/2-x,1/2+y,1/2-z
1/2-x,1/2-y,-z
1/2+x,1/2-y,1/2+z
loop_
_atom_site_type_symbol
_atom_site_label
_atom_site_fract_x
_atom_site_fract_y
_atom_site_fract_z
Si Si1 0.898945 0.701695 0.034590
Si Si2 0.318934 0.840084 0.216574
Si Si3 0.723367 0.954990 0.046471
Si Si4 0.602723 0.270776 0.813531
Si Si5 0.711185 0.456069 0.552378
Si Si6 0.496682 0.999205 0.605752
Si Si7 0.188913 0.370951 0.619186
Si Si8 0.500000 0.567946 0.250000
O O1 0.815584 0.646714 0.965886
O O2 0.962489 0.609382 0.089529
O O3 0.000000 0.757918 0.250000
O O4 0.834889 0.732509 0.833982
O O5 0.408405 0.801891 0.293290
O O6 0.295920 0.954004 0.211998
O O7 0.211533 0.831849 0.977542
O O8 0.788849 0.935410 0.059557
O O9 0.616325 0.006284 0.834217
O O10 0.756359 0.042065 0.174524
O O11 0.512835 0.352178 0.684990
O O12 0.640148 0.212215 0.968621
O O13 0.748530 0.362410 0.677693
O O14 0.602066 0.499757 0.409990
O O15 0.421075 0.079515 0.527370
O O16 0.500000 0.000000 0.500000
#
# Coordination Sequence:
#
# PCOD9255031 Si02
#       8
#     8   8   8   8   8   8   8   4
#     4   9  18  30  52  88 116 150 190 242 312 380
#     4  10  18  38  59  80 119 161 194 251 319 373
#     4  10  18  31  54  85 118 149 195 244 317 356
#     4  10  23  35  60  87 117 155 211 256 312 360
#     4  11  20  39  61  82 122 165 206 253 309 371
#     4  10  17  27  47  88 115 138 178 245 304 355
#     4  11  20  32  60  89 115 150 203 264 304 364
#     4  10  26  42  58  88 130 170 210 250 310 386
#
# _framework density 24.904191000000001
#
# number of rings (size 3 to 8) (size 9 to 14) (size 15 to 20)
#    0.000    1.867    5.333    1.200    1.867    0.000 
#    0.000    0.667    1.467    0.800    0.000    0.000 
#    0.000    0.000    0.000    0.000    0.000    0.000 
#
# Total GULP energy -167094.419156 kJ/mol
# GULP energy per Si atom -5569.813972 kJ/mol
# Density = 2.484751 g / cm^3
# Si number density = 24.904191 Si / 1000 Ang^3
#
#
#
# Elastic Constant Matrix: (Units=GPa)
#
#
# Indices 1 2 3 4 5 6 
#
# 1 163.7911 30.8823 39.7881 0.0000 -5.2473 0.0000
# 2 30.8823 62.7240 1.9635 0.0000 -4.9617 0.0000
# 3 39.7881 1.9635 62.8589 0.0000 -8.6329 0.0000
# 4 0.0000 0.0000 0.0000 4.2749 0.0000 -12.4444
# 5 -5.2473 -4.9617 -8.6329 0.0000 44.3219 0.0000
# 6 0.0000 0.0000 0.0000 -12.4444 0.0000 26.1923
#
#
#
# Elastic Compliance Matrix: (Units=1/GPa)
#
#
# Indices 1 2 3 4 5 6 
#
# 1 0.008035 -0.003835 -0.005029 0.000000 -0.000458 0.000000
# 2 -0.003835 0.017920 0.002138 0.000000 0.001968 0.000000
# 3 -0.005029 0.002138 0.019498 0.000000 0.003442 0.000000
# 4 0.000000 0.000000 0.000000 -0.610626 0.000000 -0.290119
# 5 -0.000458 0.001968 0.003442 0.000000 0.023399 0.000000
# 6 0.000000 0.000000 0.000000 -0.290119 0.000000 -0.099661
#
#
# Mechanical properties :
#
#
# Convention : Reuss Voigt Hill
#
# Bulk Modulus (GPa) = 31.24927 48.29351 39.77139
# Shear Modulus (GPa) = -8.09958 29.40715 10.65378
#
# Velocity S-wave (km/s) = -1.80537 3.44002 2.07055
# Velocity P-wave (km/s) = 2.86866 5.93398 4.66055
#
# Compressibility (1/GPa) = 0.03200075
#
# Stress axis : x y z
#
# Youngs Moduli (GPa) = 124.44809 55.80405 51.28745
#
# Poissons Ratio (x) = 0.21401 0.25794
# Poissons Ratio (y) = 0.47726 -0.10966
# Poissons Ratio (z) = 0.62589 -0.11931
#
# Static dielectric constant tensor:
#      x y z
#    x 2.058290 0.000000 -0.056100 
#    y 0.000000 2.152190 0.000000 
#    z -0.056100 0.000000 2.485500 
# 
# From -- ./inp_files/178715.got.cif
#   From: 2010.05.17/outbox.cif.g08.bks.cpg/sg15_90_cif.got.tgz:178715.got - 2010.06.03 18:47:42.
