data_PCOD9255489
_publ_section_title
;
Structure prediction by ZEFSAII (Michael W. Deem and Ramdas Pophale) SiO2 
 PCOD9255489
Probable space group: C 2/C
;
_chemical_formula_sum "Si O2"
_cell_formula_units_Z 48
_cell_length_a 15.665303
_cell_length_b 13.300569
_cell_length_c 25.147757
_cell_angle_alpha 90.000000
_cell_angle_beta 154.093265
_cell_angle_gamma 90.000000
_cell_volume 2289.274135
_symmetry_space_group_name_H-M "C 2/C"
_symmetry_group_IT_number 15
_symmetry_cell_setting 'monoclinic'
loop_
_space_group_symop_operation_xyz
x,y,z
-x,y,1/2-z
-x,-y,-z
x,-y,1/2+z
1/2+x,1/2+y,z
1/2-x,1/2+y,1/2-z
1/2-x,1/2-y,-z
1/2+x,1/2-y,1/2+z
loop_
_atom_site_type_symbol
_atom_site_label
_atom_site_fract_x
_atom_site_fract_y
_atom_site_fract_z
Si Si1 0.602408 0.900762 0.687001
Si Si2 0.009610 0.901786 0.434231
Si Si3 0.251385 0.026093 0.924389
Si Si4 0.125941 0.973394 0.738590
Si Si5 0.287842 0.954862 0.154095
Si Si6 0.872358 0.743220 0.128447
O O1 0.450485 0.970408 0.568792
O O2 0.495670 0.802090 0.648718
O O3 0.774855 0.886925 0.741111
O O4 0.671574 0.960420 0.777957
O O5 0.170490 0.816687 0.517826
O O6 0.901621 0.936599 0.319944
O O7 0.849302 0.878353 0.389741
O O8 0.145511 0.995808 0.530254
O O9 0.249409 0.003745 0.860322
O O10 0.166859 0.138849 0.886750
O O11 0.091089 0.953525 0.861122
O O12 0.500000 0.924757 0.250000
O O13 0.000000 0.712451 0.250000
#
# Coordination Sequence:
#
# PCOD9255489 Si02
#       6
#     8   8   8   8   8   8
#     4  11  20  33  54  79 112 142 184 230 285 327
#     4  10  19  30  51  80 107 140 183 229 283 326
#     4  11  22  36  54  81 116 142 185 230 285 334
#     4  10  21  34  51  81 110 146 180 229 281 336
#     4  10  17  31  51  78 108 140 182 231 280 328
#     4  12  20  35  56  86 113 143 183 244 285 326
#
# _framework density 20.967345000000002
#
# number of rings (size 3 to 8) (size 9 to 14) (size 15 to 20)
#    0.000    1.333    6.667    1.000    0.000    0.000 
#    0.000    0.000    0.000    0.000    8.667    3.500 
#    0.000    0.000    0.000    0.000    0.000    0.000 
#
# Total GULP energy -133782.258405 kJ/mol
# GULP energy per Si atom -5574.260767 kJ/mol
# Density = 2.091962 g / cm^3
# Si number density = 20.967345 Si / 1000 Ang^3
#
#
#
# Elastic Constant Matrix: (Units=GPa)
#
#
# Indices 1 2 3 4 5 6 
#
# 1 156.2632 36.7782 35.8151 0.0001 12.6972 -0.0001
# 2 36.7782 30.9567 0.7613 0.0033 9.9149 -0.0005
# 3 35.8151 0.7613 103.4200 0.0104 -12.3867 -0.0014
# 4 0.0001 0.0033 0.0104 -13.6474 0.0006 -36.0183
# 5 12.6972 9.9149 -12.3867 0.0006 47.7164 -0.0004
# 6 -0.0001 -0.0005 -0.0014 -36.0183 -0.0004 -22.4650
#
#
#
# Elastic Compliance Matrix: (Units=1/GPa)
#
#
# Indices 1 2 3 4 5 6 
#
# 1 0.009984 -0.011390 -0.003518 0.000002 -0.001203 -0.000003
# 2 -0.011390 0.047733 0.002857 -0.000005 -0.006146 0.000007
# 3 -0.003518 0.002857 0.011258 -0.000004 0.003265 0.000005
# 4 0.000002 -0.000005 -0.000004 0.022675 -0.000001 -0.036355
# 5 -0.001203 -0.006146 0.003265 -0.000001 0.023402 0.000001
# 6 -0.000003 0.000007 0.000005 -0.036355 0.000001 0.013775
#
#
# Mechanical properties :
#
#
# Convention : Reuss Voigt Hill
#
# Bulk Modulus (GPa) = 22.28495 48.59434 35.43964
# Shear Modulus (GPa) = 29.78194 16.80648 23.29421
#
# Velocity S-wave (km/s) = 3.77290 2.83425 3.33675
# Velocity P-wave (km/s) = 5.44346 5.82556 5.63774
#
# Compressibility (1/GPa) = 0.04487334
#
# Stress axis : x y z
#
# Youngs Moduli (GPa) = 100.15753 20.94975 88.82898
#
# Poissons Ratio (x) = 0.23862 0.31249
# Poissons Ratio (y) = 1.14079 -0.25378
# Poissons Ratio (z) = 0.35235 -0.05985
#
# Static dielectric constant tensor:
#      x y z
#    x 1.829670 0.000000 0.015760 
#    y 0.000000 1.735280 0.000000 
#    z 0.015760 0.000000 1.805270 
# 
# From -- ./inp_files/274591.got.cif
#   From: 2010.05.17/outbox.cif.g08.bks.cpg/sg15_138_cif.got.tgz:274591.got - 2010.06.03 18:47:42.
