data_PCOD9255394
_publ_section_title
;
Structure prediction by ZEFSAII (Michael W. Deem and Ramdas Pophale) SiO2 
 PCOD9255394
Probable space group: C 2/C
;
_chemical_formula_sum "Si O2"
_cell_formula_units_Z 64
_cell_length_a 16.647030
_cell_length_b 11.898180
_cell_length_c 22.465678
_cell_angle_alpha 90.000000
_cell_angle_beta 40.480067
_cell_angle_gamma 90.000000
_cell_volume 2888.712212
_symmetry_space_group_name_H-M "C 2/C"
_symmetry_group_IT_number 15
_symmetry_cell_setting 'monoclinic'
loop_
_space_group_symop_operation_xyz
x,y,z
-x,y,1/2-z
-x,-y,-z
x,-y,1/2+z
1/2+x,1/2+y,z
1/2-x,1/2+y,1/2-z
1/2-x,1/2-y,-z
1/2+x,1/2-y,1/2+z
loop_
_atom_site_type_symbol
_atom_site_label
_atom_site_fract_x
_atom_site_fract_y
_atom_site_fract_z
Si Si1 0.309728 0.680577 0.412687
Si Si2 0.503577 0.635379 0.503778
Si Si3 0.206912 0.938157 0.042213
Si Si4 0.364235 0.682812 0.809032
Si Si5 0.585766 0.437821 0.331762
Si Si6 0.127390 0.353649 0.217218
Si Si7 0.951599 0.810774 0.648117
Si Si8 0.719137 0.908560 0.629620
O O1 0.250000 0.750000 0.500000
O O2 0.261547 0.554299 0.442171
O O3 0.304317 0.753122 0.356573
O O4 0.452793 0.668901 0.351839
O O5 0.500000 0.500000 0.500000
O O6 0.416346 0.646411 0.610256
O O7 0.478942 0.695419 0.454905
O O8 0.648600 0.651314 0.434103
O O9 0.215661 0.843014 0.087273
O O10 0.063649 0.941592 0.099191
O O11 0.288510 0.926461 0.937174
O O12 0.500000 0.639605 0.750000
O O13 0.335996 0.615867 0.765342
O O14 0.372423 0.815159 0.793914
O O15 0.620882 0.570190 0.318297
O O16 0.107978 0.304545 0.294577
O O17 0.199986 0.470788 0.170482
O O18 0.000000 0.372786 0.250000
#
# Coordination Sequence:
#
# PCOD9255394 Si02
#       8
#     8   8   8   8   8   8   8   8
#     4  10  17  30  54  81 103 129 169 218 267 313
#     4   9  19  36  55  72  96 139 186 220 247 303
#     4   9  17  30  51  77 105 132 173 214 257 312
#     4  10  19  32  51  77 107 138 168 217 262 310
#     4   8  16  32  54  73  97 134 180 216 252 297
#     4  10  20  32  52  81 113 135 165 220 278 324
#     4   9  18  34  52  76 102 135 173 218 260 302
#     4  11  20  33  50  80 107 140 174 208 269 325
#
# _framework density 22.155201999999999
#
# number of rings (size 3 to 8) (size 9 to 14) (size 15 to 20)
#    0.000    2.500    1.250    2.250    0.000    3.000 
#    4.500    0.000    0.000    0.750    0.000    0.000 
#    0.000    0.000    0.000    0.000    0.000    0.000 
#
# Total GULP energy -178193.994227 kJ/mol
# GULP energy per Si atom -5568.562320 kJ/mol
# Density = 2.210478 g / cm^3
# Si number density = 22.155202 Si / 1000 Ang^3
#
#
#
# Elastic Constant Matrix: (Units=GPa)
#
#
# Indices 1 2 3 4 5 6 
#
# 1 45.0226 12.6662 11.1449 0.0000 8.3631 0.0000
# 2 12.6662 109.0487 35.2153 0.0000 22.4205 0.0000
# 3 11.1449 35.2153 88.2452 0.0000 30.2087 0.0000
# 4 0.0000 0.0000 0.0000 34.4283 0.0000 3.1736
# 5 8.3631 22.4205 30.2087 0.0000 29.2327 0.0000
# 6 0.0000 0.0000 0.0000 3.1736 0.0000 16.4586
#
#
#
# Elastic Compliance Matrix: (Units=1/GPa)
#
#
# Indices 1 2 3 4 5 6 
#
# 1 0.023723 -0.001520 -0.000720 0.000000 -0.004877 0.000000
# 2 -0.001520 0.011295 -0.002319 0.000000 -0.005831 0.000000
# 3 -0.000720 -0.002319 0.018057 0.000000 -0.016675 0.000000
# 4 0.000000 0.000000 0.000000 0.029572 0.000000 -0.005702
# 5 -0.004877 -0.005831 -0.016675 0.000000 0.057308 0.000000
# 6 0.000000 0.000000 0.000000 -0.005702 0.000000 0.061858
#
#
# Mechanical properties :
#
#
# Convention : Reuss Voigt Hill
#
# Bulk Modulus (GPa) = 22.75020 40.04104 31.39562
# Shear Modulus (GPa) = 22.16492 28.24326 25.20409
#
# Velocity S-wave (km/s) = 3.16640 3.57430 3.37651
# Velocity P-wave (km/s) = 4.86405 5.92843 5.42242
#
# Compressibility (1/GPa) = 0.04395566
#
# Stress axis : x y z
#
# Youngs Moduli (GPa) = 42.15342 88.53803 55.38095
#
# Poissons Ratio (x) = 0.13460 0.03987
# Poissons Ratio (y) = 0.06408 0.12843
# Poissons Ratio (z) = 0.03035 0.20533
#
# Static dielectric constant tensor:
#      x y z
#    x 1.998070 0.000000 -0.028760 
#    y 0.000000 1.840060 0.000000 
#    z -0.028760 0.000000 1.900410 
# 
# From -- ./inp_files/281824.got.cif
#   From: 2010.05.17/outbox.cif.g08.bks.cpg/sg15_141_cif.got.tgz:281824.got - 2010.06.03 18:47:42.
