data_PCOD9255839
_publ_section_title
;
Structure prediction by ZEFSAII (Michael W. Deem and Ramdas Pophale) SiO2 
 PCOD9255839
Probable space group: C 2/C
;
_chemical_formula_sum "Si O2"
_cell_formula_units_Z 48
_cell_length_a 25.428296
_cell_length_b 8.669822
_cell_length_c 8.897688
_cell_angle_alpha 90.000000
_cell_angle_beta 110.814215
_cell_angle_gamma 90.000000
_cell_volume 1833.556512
_symmetry_space_group_name_H-M "C 2/C"
_symmetry_group_IT_number 15
_symmetry_cell_setting 'monoclinic'
loop_
_space_group_symop_operation_xyz
x,y,z
-x,y,1/2-z
-x,-y,-z
x,-y,1/2+z
1/2+x,1/2+y,z
1/2-x,1/2+y,1/2-z
1/2-x,1/2-y,-z
1/2+x,1/2-y,1/2+z
loop_
_atom_site_type_symbol
_atom_site_label
_atom_site_fract_x
_atom_site_fract_y
_atom_site_fract_z
Si Si1 0.322099 0.003579 0.156793
Si Si2 0.762137 0.321885 0.343098
Si Si3 0.621722 0.687782 0.054535
Si Si4 0.397296 0.261401 0.631907
Si Si5 0.540528 0.962176 0.904932
Si Si6 0.370564 0.304336 0.279181
O O1 0.372868 0.117247 0.258456
O O2 0.286594 0.952742 0.260205
O O3 0.341584 0.847690 0.093512
O O4 0.280158 0.111218 0.021724
O O5 0.810395 0.192044 0.361319
O O6 0.695733 0.325872 0.256519
O O7 0.599372 0.650612 0.202555
O O8 0.593281 0.858648 0.009512
O O9 0.613240 0.632535 0.871002
O O10 0.397828 0.346330 0.468822
O O11 0.441571 0.122824 0.653820
O O12 0.500000 0.868745 0.750000
O O13 0.500000 0.000000 0.000000
#
# Coordination Sequence:
#
# PCOD9255839 Si02
#       6
#     8   8   8   8   8   8
#     4  10  17  33  49  67 103 129 181 216 249 310
#     4  10  20  32  52  72  96 144 178 218 264 307
#     4  10  20  32  46  69  97 130 181 217 239 307
#     4  11  19  34  49  69 103 139 178 216 246 305
#     4  12  20  30  50  73 101 145 185 208 257 308
#     4  11  20  34  52  71  99 141 183 217 265 303
#
# _framework density 26.178630999999999
#
# number of rings (size 3 to 8) (size 9 to 14) (size 15 to 20)
#    0.000    1.333    6.667    4.000    0.000    2.667 
#    3.000    0.000    0.000    0.000    0.000    0.000 
#    0.000    0.000    0.000   51.000    0.000    0.000 
#
# Total GULP energy -133628.130031 kJ/mol
# GULP energy per Si atom -5567.838751 kJ/mol
# Density = 2.611905 g / cm^3
# Si number density = 26.178631 Si / 1000 Ang^3
#
#
#
# Elastic Constant Matrix: (Units=GPa)
#
#
# Indices 1 2 3 4 5 6 
#
# 1 112.5385 13.2712 37.6587 0.0000 -9.6134 0.0000
# 2 13.2712 49.3100 51.8513 0.0000 -12.7149 0.0000
# 3 37.6587 51.8513 187.7308 0.0000 -46.6433 0.0000
# 4 0.0000 0.0000 0.0000 32.6579 0.0000 -9.2369
# 5 -9.6134 -12.7149 -46.6433 0.0000 49.3917 0.0000
# 6 0.0000 0.0000 0.0000 -9.2369 0.0000 26.5766
#
#
#
# Elastic Compliance Matrix: (Units=1/GPa)
#
#
# Indices 1 2 3 4 5 6 
#
# 1 0.009547 -0.000783 -0.001682 0.000000 0.000068 0.000000
# 2 -0.000783 0.028646 -0.007788 0.000000 -0.000133 0.000000
# 3 -0.001682 -0.007788 0.009454 0.000000 0.006596 0.000000
# 4 0.000000 0.000000 0.000000 0.033959 0.000000 0.011803
# 5 0.000068 -0.000133 0.006596 0.000000 0.026454 0.000000
# 6 0.000000 0.000000 0.000000 0.011803 0.000000 0.041729
#
#
# Mechanical properties :
#
#
# Convention : Reuss Voigt Hill
#
# Bulk Modulus (GPa) = 36.84519 61.68241 49.26380
# Shear Modulus (GPa) = 27.87986 38.17843 33.02915
#
# Velocity S-wave (km/s) = 3.26695 3.82302 3.55587
# Velocity P-wave (km/s) = 5.32313 6.56510 5.97647
#
# Compressibility (1/GPa) = 0.02714058
#
# Stress axis : x y z
#
# Youngs Moduli (GPa) = 104.74689 34.90936 105.77684
#
# Poissons Ratio (x) = 0.02735 0.17789
# Poissons Ratio (y) = 0.08206 0.82376
# Poissons Ratio (z) = 0.17616 0.27186
#
# Static dielectric constant tensor:
#      x y z
#    x 2.073650 0.000000 -0.084880 
#    y 0.000000 2.142020 0.000000 
#    z -0.084880 0.000000 2.160600 
# 
# From -- ./inp_files/55211.got.cif
#   From: 2010.05.17/outbox.cif.g08.bks.cpg/sg15_28_cif.got.tgz:55211.got - 2010.06.03 18:47:42.
