data_PCOD9255014
_publ_section_title
;
Structure prediction by ZEFSAII (Michael W. Deem and Ramdas Pophale) SiO2 
 PCOD9255014
Probable space group: C 2/C
;
_chemical_formula_sum "Si O2"
_cell_formula_units_Z 64
_cell_length_a 8.037091
_cell_length_b 21.289878
_cell_length_c 15.682370
_cell_angle_alpha 90.000000
_cell_angle_beta 61.747908
_cell_angle_gamma 90.000000
_cell_volume 2363.726791
_symmetry_space_group_name_H-M "C 2/C"
_symmetry_group_IT_number 15
_symmetry_cell_setting 'monoclinic'
loop_
_space_group_symop_operation_xyz
x,y,z
-x,y,1/2-z
-x,-y,-z
x,-y,1/2+z
1/2+x,1/2+y,z
1/2-x,1/2+y,1/2-z
1/2-x,1/2-y,-z
1/2+x,1/2-y,1/2+z
loop_
_atom_site_type_symbol
_atom_site_label
_atom_site_fract_x
_atom_site_fract_y
_atom_site_fract_z
Si Si1 0.821394 0.666400 0.966616
Si Si2 0.390510 0.537985 0.185784
Si Si3 0.438731 0.678310 0.892252
Si Si4 0.049707 0.815995 0.839137
Si Si5 0.704033 0.186063 0.788467
Si Si6 0.268844 0.473219 0.987196
Si Si7 0.920588 0.325617 0.926198
Si Si8 0.951708 0.453594 0.640530
O O1 0.628484 0.699610 0.053337
O O2 0.743066 0.596340 0.973274
O O3 0.962274 0.670384 0.013730
O O4 0.978843 0.675816 0.853065
O O5 0.500000 0.534751 0.250000
O O6 0.393090 0.611878 0.161434
O O7 0.524400 0.503157 0.087601
O O8 0.181329 0.516224 0.256767
O O9 0.318777 0.655775 0.839570
O O10 0.660484 0.666361 0.823175
O O11 0.435830 0.754067 0.895967
O O12 0.301332 0.659558 0.003050
O O13 0.205264 0.761543 0.805644
O O14 0.000000 0.813513 0.750000
O O15 0.157493 0.464616 0.923243
O O16 0.154490 0.518628 0.074628
O O17 0.020201 0.379967 0.848824
#
# Coordination Sequence:
#
# PCOD9255014 Si02
#       8
#     8   8   8   8   8   8   8   8
#     4   9  17  28  42  62  89 111 137 178 219 251
#     4   8  14  24  38  57  80 104 131 168 209 243
#     4   9  18  29  41  60  89 117 142 173 206 255
#     4  10  17  27  45  64  84 110 142 175 211 254
#     4  10  18  28  41  62  89 114 140 172 214 256
#     4   8  15  25  36  59  85 106 132 173 214 251
#     4   9  16  29  45  60  84 118 145 171 208 253
#     4   9  14  24  41  58  79 108 142 171 203 252
#
# _framework density 27.075887000000002
#
# number of rings (size 3 to 8) (size 9 to 14) (size 15 to 20)
#    0.000    3.000    0.000    4.125    0.000    0.000 
#    2.250    0.000    0.000    0.000    0.000    3.500 
#    7.500    0.000    0.000    0.000    0.000    0.000 
#
# Total GULP energy -178620.240390 kJ/mol
# GULP energy per Si atom -5581.882512 kJ/mol
# Density = 2.701426 g / cm^3
# Si number density = 27.075887 Si / 1000 Ang^3
#
#
#
# Elastic Constant Matrix: (Units=GPa)
#
#
# Indices 1 2 3 4 5 6 
#
# 1 105.0542 0.3613 34.2248 0.0000 -15.1120 0.0000
# 2 0.3613 9.4995 31.6505 0.0000 -1.5730 0.0000
# 3 34.2248 31.6505 248.7104 0.0000 -56.6705 0.0000
# 4 0.0000 0.0000 0.0000 27.0535 0.0000 -6.7209
# 5 -15.1120 -1.5730 -56.6705 0.0000 49.9700 0.0000
# 6 0.0000 0.0000 0.0000 -6.7209 0.0000 14.8523
#
#
#
# Elastic Compliance Matrix: (Units=1/GPa)
#
#
# Indices 1 2 3 4 5 6 
#
# 1 0.010298 0.006431 -0.001995 0.000000 0.001054 0.000000
# 2 0.006431 0.220763 -0.036344 0.000000 -0.032323 0.000000
# 3 -0.001995 -0.036344 0.011492 0.000000 0.011285 0.000000
# 4 0.000000 0.000000 0.000000 0.041645 0.000000 0.018845
# 5 0.001054 -0.032323 0.011285 0.000000 0.032112 0.000000
# 6 0.000000 0.000000 0.000000 0.018845 0.000000 0.075858
#
#
# Mechanical properties :
#
#
# Convention : Reuss Voigt Hill
#
# Bulk Modulus (GPa) = 5.59482 55.08193 30.33837
# Shear Modulus (GPa) = 9.69812 38.17697 23.93755
#
# Velocity S-wave (km/s) = 1.89463 3.75907 2.97659
# Velocity P-wave (km/s) = 2.61858 6.26327 4.80029
#
# Compressibility (1/GPa) = 0.17873689
#
# Stress axis : x y z
#
# Youngs Moduli (GPa) = 97.10184 4.52974 87.01809
#
# Poissons Ratio (x) = -0.02913 0.17364
# Poissons Ratio (y) = -0.62449 3.16259
# Poissons Ratio (z) = 0.19376 0.16463
#
# Static dielectric constant tensor:
#      x y z
#    x 2.204460 0.000000 0.009510 
#    y 0.000000 2.053710 0.000000 
#    z 0.009510 0.000000 2.159790 
# 
# From -- ./inp_files/293604.got.cif
#   From: 2010.05.17/outbox.cif.g08.bks.cpg/sg15_147_cif.got.tgz:293604.got - 2010.06.03 18:47:42.
