data_PCOD9255513
_publ_section_title
;
Structure prediction by ZEFSAII (Michael W. Deem and Ramdas Pophale) SiO2 
 PCOD9255513
Probable space group: C 2/C
;
_chemical_formula_sum "Si O2"
_cell_formula_units_Z 44
_cell_length_a 9.275556
_cell_length_b 11.479902
_cell_length_c 17.187856
_cell_angle_alpha 90.000000
_cell_angle_beta 121.630787
_cell_angle_gamma 90.000000
_cell_volume 1558.319728
_symmetry_space_group_name_H-M "C 2/C"
_symmetry_group_IT_number 15
_symmetry_cell_setting 'monoclinic'
loop_
_space_group_symop_operation_xyz
x,y,z
-x,y,1/2-z
-x,-y,-z
x,-y,1/2+z
1/2+x,1/2+y,z
1/2-x,1/2+y,1/2-z
1/2-x,1/2-y,-z
1/2+x,1/2-y,1/2+z
loop_
_atom_site_type_symbol
_atom_site_label
_atom_site_fract_x
_atom_site_fract_y
_atom_site_fract_z
Si Si1 0.000000 0.420914 0.750000
Si Si2 0.401205 0.406802 0.653227
Si Si3 0.882314 0.581553 0.889311
Si Si4 0.727647 0.392638 0.044581
Si Si5 0.831488 0.633292 0.049705
Si Si6 0.812165 0.095411 0.800692
O O1 0.948838 0.352062 0.658064
O O2 0.841253 0.503902 0.725563
O O3 0.500000 0.339838 0.750000
O O4 0.230119 0.462778 0.638589
O O5 0.358715 0.346506 0.558929
O O6 0.522380 0.518474 0.669285
O O7 0.758140 0.657628 0.797340
O O8 0.068562 0.595899 0.906255
O O9 0.908101 0.601984 0.987666
O O10 0.694136 0.533393 0.033291
O O11 0.674642 0.340117 0.112368
O O12 0.750000 0.750000 0.000000
#
# Coordination Sequence:
#
# PCOD9255513 Si02
#       6
#     4   8   8   8   8   8
#     4  10  20  34  56  76 110 146 186 226 288 334
#     4   9  18  25  45  79 110 134 174 228 284 318
#     4  10  18  33  55  81 112 141 183 236 287 334
#     4  10  18  33  54  80 116 142 180 236 291 329
#     4  10  20  34  51  77 111 147 184 222 280 349
#     4  10  17  31  52  81 112 136 178 239 291 324
#
# _framework density 28.235541000000001
#
# number of rings (size 3 to 8) (size 9 to 14) (size 15 to 20)
#    0.000    2.182    3.636    2.727    2.545    0.000 
#   13.091    0.000    0.000    0.000    0.000   76.364 
#    0.000    0.000    0.000    0.000    0.000    0.000 
#
# Total GULP energy -122931.506295 kJ/mol
# GULP energy per Si atom -5587.795741 kJ/mol
# Density = 2.817128 g / cm^3
# Si number density = 28.235541 Si / 1000 Ang^3
#
#
#
# Elastic Constant Matrix: (Units=GPa)
#
#
# Indices 1 2 3 4 5 6 
#
# 1 122.4170 26.1167 52.8062 0.0000 -17.4360 0.0000
# 2 26.1167 62.3671 26.8831 0.0000 3.6201 0.0000
# 3 52.8062 26.8831 337.8981 0.0000 -25.0424 0.0000
# 4 0.0000 0.0000 0.0000 33.6151 0.0000 -3.4722
# 5 -17.4360 3.6201 -25.0424 0.0000 59.8812 0.0000
# 6 0.0000 0.0000 0.0000 -3.4722 0.0000 21.2303
#
#
#
# Elastic Compliance Matrix: (Units=1/GPa)
#
#
# Indices 1 2 3 4 5 6 
#
# 1 0.009806 -0.003816 -0.001032 0.000000 0.002654 0.000000
# 2 -0.003816 0.018239 -0.001051 0.000000 -0.002653 0.000000
# 3 -0.001032 -0.001051 0.003289 0.000000 0.001138 0.000000
# 4 0.000000 0.000000 0.000000 0.030260 0.000000 0.004949
# 5 0.002654 -0.002653 0.001138 0.000000 0.018109 0.000000
# 6 0.000000 0.000000 0.000000 0.004949 0.000000 0.047912
#
#
# Mechanical properties :
#
#
# Convention : Reuss Voigt Hill
#
# Bulk Modulus (GPa) = 51.18849 81.58825 66.38837
# Shear Modulus (GPa) = 34.26418 50.73708 42.50063
#
# Velocity S-wave (km/s) = 3.48733 4.24361 3.88392
# Velocity P-wave (km/s) = 5.86377 7.27800 6.60882
#
# Compressibility (1/GPa) = 0.01953564
#
# Stress axis : x y z
#
# Youngs Moduli (GPa) = 101.97708 54.82724 304.06164
#
# Poissons Ratio (x) = 0.20920 0.31385
# Poissons Ratio (y) = 0.38910 0.31971
# Poissons Ratio (z) = 0.10526 0.05765
#
# Static dielectric constant tensor:
#      x y z
#    x 2.736730 0.000000 -0.001750 
#    y 0.000000 3.842550 0.000000 
#    z -0.001750 0.000000 2.349070 
# 
# From -- ./inp_files/189348.got.cif
#   From: 2010.05.17/outbox.cif.g08.bks.cpg/sg15_95_cif.got.tgz:189348.got - 2010.06.03 18:47:42.
