data_PCOD9255896
_publ_section_title
;
Structure prediction by ZEFSAII (Michael W. Deem and Ramdas Pophale) SiO2 
 PCOD9255896
Probable space group: C 2/C
;
_chemical_formula_sum "Si O2"
_cell_formula_units_Z 52
_cell_length_a 12.163300
_cell_length_b 25.928836
_cell_length_c 13.906369
_cell_angle_alpha 90.000000
_cell_angle_beta 142.765075
_cell_angle_gamma 90.000000
_cell_volume 2653.775862
_symmetry_space_group_name_H-M "C 2/C"
_symmetry_group_IT_number 15
_symmetry_cell_setting 'monoclinic'
loop_
_space_group_symop_operation_xyz
x,y,z
-x,y,1/2-z
-x,-y,-z
x,-y,1/2+z
1/2+x,1/2+y,z
1/2-x,1/2+y,1/2-z
1/2-x,1/2-y,-z
1/2+x,1/2-y,1/2+z
loop_
_atom_site_type_symbol
_atom_site_label
_atom_site_fract_x
_atom_site_fract_y
_atom_site_fract_z
Si Si1 0.201275 0.182941 0.556519
Si Si2 0.575209 0.129935 0.099242
Si Si3 0.500000 0.087118 0.250000
Si Si4 0.517179 0.212181 0.914210
Si Si5 0.978875 0.458274 0.400972
Si Si6 0.259313 0.508788 0.935731
Si Si7 0.523312 0.588004 0.153094
O O1 0.332478 0.189359 0.555201
O O2 0.047193 0.226549 0.437273
O O3 0.114838 0.126691 0.496434
O O4 0.325200 0.197028 0.734100
O O5 0.506796 0.120313 0.158539
O O6 0.559337 0.187034 0.046413
O O7 0.775785 0.104975 0.235071
O O8 0.467204 0.095889 0.945491
O O9 0.323180 0.049010 0.119368
O O10 0.150124 0.463211 0.447427
O O11 0.000000 0.500000 0.500000
O O12 0.812516 0.470650 0.215999
O O13 0.463951 0.528935 0.090969
O O14 0.500000 0.597780 0.250000
#
# Coordination Sequence:
#
# PCOD9255896 Si02
#       7
#     8   8   4   8   8   8   8
#     4  10  20  36  54  96 117 147 183 243 311 365
#     4  12  21  37  58  84 116 164 195 251 290 358
#     4  10  24  40  58  76 120 166 220 226 284 354
#     4  10  20  33  63  83 122 151 187 236 306 366
#     4  10  17  33  56  75 108 154 195 237 287 346
#     4  10  20  35  55  83 109 154 196 251 288 348
#     4  12  22  32  57  90 123 147 193 251 309 350
#
# _framework density 19.594721
#
# number of rings (size 3 to 8) (size 9 to 14) (size 15 to 20)
#    0.000    1.538    6.154    1.846    2.154    4.308 
#    0.000    0.000    0.000    3.692    0.000    0.000 
#    0.000    0.000    0.000    0.000    0.000    0.000 
#
# Total GULP energy -145134.584520 kJ/mol
# GULP energy per Si atom -5582.099405 kJ/mol
# Density = 1.955012 g / cm^3
# Si number density = 19.594721 Si / 1000 Ang^3
#
#
#
# Elastic Constant Matrix: (Units=GPa)
#
#
# Indices 1 2 3 4 5 6 
#
# 1 59.2359 20.6284 43.9192 0.0000 -22.6383 0.0000
# 2 20.6284 57.6230 20.9209 0.0000 -8.0343 0.0000
# 3 43.9192 20.9209 95.1112 0.0000 -10.0293 0.0000
# 4 0.0000 0.0000 0.0000 19.3834 0.0000 0.0496
# 5 -22.6383 -8.0343 -10.0293 0.0000 31.8526 0.0000
# 6 0.0000 0.0000 0.0000 0.0496 0.0000 12.3175
#
#
#
# Elastic Compliance Matrix: (Units=1/GPa)
#
#
# Indices 1 2 3 4 5 6 
#
# 1 0.036596 -0.005329 -0.013577 0.000000 0.020391 0.000000
# 2 -0.005329 0.020037 -0.001875 0.000000 0.000676 0.000000
# 3 -0.013577 -0.001875 0.016682 0.000000 -0.004870 0.000000
# 4 0.000000 0.000000 0.000000 0.051591 0.000000 -0.000208
# 5 0.020391 0.000676 -0.004870 0.000000 0.044524 0.000000
# 6 0.000000 0.000000 0.000000 -0.000208 0.000000 0.081186
#
#
# Mechanical properties :
#
#
# Convention : Reuss Voigt Hill
#
# Bulk Modulus (GPa) = 31.49222 42.54523 37.01872
# Shear Modulus (GPa) = 16.51454 21.14414 18.82934
#
# Velocity S-wave (km/s) = 2.90626 3.28849 3.10327
# Velocity P-wave (km/s) = 5.23149 6.01487 5.63680
#
# Compressibility (1/GPa) = 0.03175387
#
# Stress axis : x y z
#
# Youngs Moduli (GPa) = 27.32519 49.90762 59.94379
#
# Poissons Ratio (x) = 0.26595 0.81384
# Poissons Ratio (y) = 0.14561 0.11242
# Poissons Ratio (z) = 0.37098 0.09360
#
# Static dielectric constant tensor:
#      x y z
#    x 1.689250 0.000000 0.036800 
#    y 0.000000 1.720410 0.000000 
#    z 0.036800 0.000000 1.718830 
# 
# From -- ./inp_files/92657.got.cif
#   From: 2010.05.17/outbox.cif.g08.bks.cpg/sg15_47_cif.got.tgz:92657.got - 2010.06.03 18:47:42.
