data_PCOD9255647
_publ_section_title
;
Structure prediction by ZEFSAII (Michael W. Deem and Ramdas Pophale) SiO2 
 PCOD9255647
Probable space group: C 2/C
;
_chemical_formula_sum "Si O2"
_cell_formula_units_Z 60
_cell_length_a 17.464436
_cell_length_b 19.702020
_cell_length_c 20.493175
_cell_angle_alpha 90.000000
_cell_angle_beta 156.244630
_cell_angle_gamma 90.000000
_cell_volume 2840.527799
_symmetry_space_group_name_H-M "C 2/C"
_symmetry_group_IT_number 15
_symmetry_cell_setting 'monoclinic'
loop_
_space_group_symop_operation_xyz
x,y,z
-x,y,1/2-z
-x,-y,-z
x,-y,1/2+z
1/2+x,1/2+y,z
1/2-x,1/2+y,1/2-z
1/2-x,1/2-y,-z
1/2+x,1/2-y,1/2+z
loop_
_atom_site_type_symbol
_atom_site_label
_atom_site_fract_x
_atom_site_fract_y
_atom_site_fract_z
Si Si1 0.584706 0.094465 0.624761
Si Si2 0.139086 0.964401 0.054839
Si Si3 0.500000 0.418169 0.250000
Si Si4 0.391103 0.078296 0.260473
Si Si5 0.625668 0.648284 0.159172
Si Si6 0.011088 0.724703 0.021121
Si Si7 0.290524 0.992300 0.402313
Si Si8 0.839899 0.689140 0.030079
O O1 0.704520 0.078041 0.782166
O O2 0.597499 0.170612 0.609518
O O3 0.667805 0.045651 0.632936
O O4 0.364989 0.069223 0.457564
O O5 0.260964 0.026162 0.118234
O O6 0.014533 0.908360 0.919649
O O7 0.000000 0.000000 0.000000
O O8 0.581258 0.469151 0.258770
O O9 0.672183 0.366268 0.396131
O O10 0.263308 0.104356 0.220398
O O11 0.562950 0.038009 0.429266
O O12 0.479705 0.147122 0.301675
O O13 0.772807 0.697347 0.310748
O O14 0.510127 0.699984 0.022571
O O15 0.914716 0.715547 0.017586
O O16 0.750000 0.750000 0.000000
#
# Coordination Sequence:
#
# PCOD9255647 Si02
#       8
#     8   8   4   8   8   8   8   8
#     4  10  17  32  51  72  98 138 176 222 275 314
#     4   9  18  30  50  71  99 131 179 230 279 312
#     4  10  18  32  46  74 100 138 184 216 266 316
#     4   8  16  33  44  68  95 135 179 217 260 311
#     4  10  19  31  46  71  99 135 169 220 271 322
#     4  11  21  33  49  73 108 141 181 223 274 327
#     4   9  17  29  52  70  97 134 174 226 261 319
#     4  10  21  31  48  66 106 149 184 219 259 326
#
# _framework density 21.122834999999998
#
# number of rings (size 3 to 8) (size 9 to 14) (size 15 to 20)
#    0.000    2.400    4.000    0.800    5.600    1.067 
#    0.000    0.000    0.000    0.000    0.000    0.000 
#    0.000   17.067    0.000    0.000    0.000    1.200 
#
# Total GULP energy -167081.762545 kJ/mol
# GULP energy per Si atom -5569.392085 kJ/mol
# Density = 2.107476 g / cm^3
# Si number density = 21.122835 Si / 1000 Ang^3
#
#
#
# Elastic Constant Matrix: (Units=GPa)
#
#
# Indices 1 2 3 4 5 6 
#
# 1 24.5815 26.3065 7.1143 -0.0174 5.9029 -0.0001
# 2 26.3065 103.7370 24.7918 -0.0478 15.5113 0.0055
# 3 7.1143 24.7918 84.0809 -0.0781 4.8736 -0.0016
# 4 -0.0174 -0.0478 -0.0781 28.4917 -0.0025 2.7854
# 5 5.9029 15.5113 4.8736 -0.0025 18.5414 0.0054
# 6 -0.0001 0.0055 -0.0016 2.7854 0.0054 26.9039
#
#
#
# Elastic Compliance Matrix: (Units=1/GPa)
#
#
# Indices 1 2 3 4 5 6 
#
# 1 0.056608 -0.013214 -0.000497 0.000010 -0.006837 0.000003
# 2 -0.013214 0.014770 -0.002807 0.000009 -0.007411 -0.000003
# 3 -0.000497 -0.002807 0.012813 0.000030 -0.000861 -0.000002
# 4 0.000010 0.000009 0.000030 0.035457 -0.000012 -0.003671
# 5 -0.006837 -0.007411 -0.000861 -0.000012 0.062537 -0.000010
# 6 0.000003 -0.000003 -0.000002 -0.003671 -0.000010 0.037549
#
#
# Mechanical properties :
#
#
# Convention : Reuss Voigt Hill
#
# Bulk Modulus (GPa) = 19.54895 36.53607 28.04251
# Shear Modulus (GPa) = 18.53075 25.06651 21.79863
#
# Velocity S-wave (km/s) = 2.96511 3.44859 3.21595
# Velocity P-wave (km/s) = 4.58230 5.76121 5.20524
#
# Compressibility (1/GPa) = 0.05115364
#
# Stress axis : x y z
#
# Youngs Moduli (GPa) = 17.66540 67.70590 78.04535
#
# Poissons Ratio (x) = 0.89466 0.03881
# Poissons Ratio (y) = 0.23343 0.21910
# Poissons Ratio (z) = 0.00878 0.19007
#
# Static dielectric constant tensor:
#      x y z
#    x 1.913100 0.000170 -0.055440 
#    y 0.000170 1.843900 -0.000090 
#    z -0.055440 -0.000090 1.883950 
# 
# From -- ./inp_files/301399.got.cif
#   From: 2010.05.17/outbox.cif.g08.bks.cpg/sg15_151_cif.got.tgz:301399.got - 2010.06.03 18:47:42.
