data_PCOD9255192
_publ_section_title
;
Structure prediction by ZEFSAII (Michael W. Deem and Ramdas Pophale) SiO2 
 PCOD9255192
Probable space group: C 2/C
;
_chemical_formula_sum "Si O2"
_cell_formula_units_Z 56
_cell_length_a 16.420161
_cell_length_b 18.867848
_cell_length_c 9.413359
_cell_angle_alpha 90.000000
_cell_angle_beta 101.293368
_cell_angle_gamma 90.000000
_cell_volume 2859.913018
_symmetry_space_group_name_H-M "C 2/C"
_symmetry_group_IT_number 15
_symmetry_cell_setting 'monoclinic'
loop_
_space_group_symop_operation_xyz
x,y,z
-x,y,1/2-z
-x,-y,-z
x,-y,1/2+z
1/2+x,1/2+y,z
1/2-x,1/2+y,1/2-z
1/2-x,1/2-y,-z
1/2+x,1/2-y,1/2+z
loop_
_atom_site_type_symbol
_atom_site_label
_atom_site_fract_x
_atom_site_fract_y
_atom_site_fract_z
Si Si1 0.100655 0.565799 0.279016
Si Si2 0.189860 0.180197 0.480209
Si Si3 0.969906 0.790083 0.400416
Si Si4 0.817111 0.582932 0.654402
Si Si5 0.629205 0.137911 0.562727
Si Si6 0.053114 0.368776 0.492683
Si Si7 0.419730 0.283042 0.818903
O O1 0.147839 0.495813 0.343750
O O2 0.133130 0.627262 0.395596
O O3 0.110034 0.586029 0.118510
O O4 0.000000 0.558684 0.250000
O O5 0.250000 0.250000 0.500000
O O6 0.121108 0.186048 0.581298
O O7 0.241937 0.110354 0.534524
O O8 0.142142 0.180304 0.312956
O O9 0.965072 0.705682 0.436354
O O10 0.000000 0.799638 0.250000
O O11 0.036181 0.823071 0.534698
O O12 0.804270 0.598842 0.816740
O O13 0.893264 0.634117 0.630078
O O14 0.538777 0.101173 0.564020
O O15 0.625286 0.217872 0.617420
O O16 0.500000 0.260368 0.750000
#
# Coordination Sequence:
#
# PCOD9255192 Si02
#       7
#     8   8   8   8   8   8   8
#     4  10  21  32  46  76 114 149 179 206 245 315
#     4  11  20  35  51  78 106 143 181 225 261 309
#     4  10  19  35  57  77 102 140 181 223 265 315
#     4  12  20  30  48  70 107 148 177 214 253 300
#     4  10  17  29  48  71 102 143 182 207 243 309
#     4  10  18  31  50  74 109 145 180 208 247 316
#     4   9  17  32  54  76 102 142 185 216 256 311
#
# _framework density 19.581016000000002
#
# number of rings (size 3 to 8) (size 9 to 14) (size 15 to 20)
#    0.000    1.714    2.857    6.000    0.000    2.286 
#    0.000    2.143    0.000    0.000    0.000    0.000 
#    0.000   59.429    0.000    0.000    0.000    0.000 
#
# Total GULP energy -155931.271878 kJ/mol
# GULP energy per Si atom -5568.973996 kJ/mol
# Density = 1.953645 g / cm^3
# Si number density = 19.581016 Si / 1000 Ang^3
#
#
#
# Elastic Constant Matrix: (Units=GPa)
#
#
# Indices 1 2 3 4 5 6 
#
# 1 55.3410 12.6609 46.4975 0.0000 11.2399 0.0000
# 2 12.6609 39.5182 30.1534 0.0000 17.1887 0.0000
# 3 46.4975 30.1534 147.1787 0.0000 17.0758 0.0000
# 4 0.0000 0.0000 0.0000 26.0626 0.0000 15.0463
# 5 11.2399 17.1887 17.0758 0.0000 33.3283 0.0000
# 6 0.0000 0.0000 0.0000 15.0463 0.0000 22.3681
#
#
#
# Elastic Compliance Matrix: (Units=1/GPa)
#
#
# Indices 1 2 3 4 5 6 
#
# 1 0.025285 -0.000538 -0.007358 0.000000 -0.004480 0.000000
# 2 -0.000538 0.036559 -0.005479 0.000000 -0.015866 0.000000
# 3 -0.007358 -0.005479 0.010234 0.000000 0.000064 0.000000
# 4 0.000000 0.000000 0.000000 0.062729 0.000000 -0.042196
# 5 -0.004480 -0.015866 0.000064 0.000000 0.039665 0.000000
# 6 0.000000 0.000000 0.000000 -0.042196 0.000000 0.073090
#
#
# Mechanical properties :
#
#
# Convention : Reuss Voigt Hill
#
# Bulk Modulus (GPa) = 22.06158 46.74018 34.40088
# Shear Modulus (GPa) = 17.27573 26.53354 21.90463
#
# Velocity S-wave (km/s) = 2.97352 3.68511 3.34828
# Velocity P-wave (km/s) = 4.80421 6.48296 5.70566
#
# Compressibility (1/GPa) = 0.04532767
#
# Stress axis : x y z
#
# Youngs Moduli (GPa) = 39.54893 27.35303 97.71063
#
# Poissons Ratio (x) = 0.01471 0.71898
# Poissons Ratio (y) = 0.02127 0.53539
# Poissons Ratio (z) = 0.29101 0.14988
#
# Static dielectric constant tensor:
#      x y z
#    x 1.718560 0.000000 0.011650 
#    y 0.000000 1.709980 0.000000 
#    z 0.011650 0.000000 1.748660 
# 
# From -- ./inp_files/49790.got.cif
#   From: 2010.05.17/outbox.cif.g08.bks.cpg/sg15_25_cif.got.tgz:49790.got - 2010.06.03 18:47:42.
