data_PCOD9255774
_publ_section_title
;
Structure prediction by ZEFSAII (Michael W. Deem and Ramdas Pophale) SiO2 
 PCOD9255774
Probable space group: C 2/C
;
_chemical_formula_sum "Si O2"
_cell_formula_units_Z 64
_cell_length_a 11.783224
_cell_length_b 16.472227
_cell_length_c 17.225965
_cell_angle_alpha 90.000000
_cell_angle_beta 77.395067
_cell_angle_gamma 90.000000
_cell_volume 3262.905008
_symmetry_space_group_name_H-M "C 2/C"
_symmetry_group_IT_number 15
_symmetry_cell_setting 'monoclinic'
loop_
_space_group_symop_operation_xyz
x,y,z
-x,y,1/2-z
-x,-y,-z
x,-y,1/2+z
1/2+x,1/2+y,z
1/2-x,1/2+y,1/2-z
1/2-x,1/2-y,-z
1/2+x,1/2-y,1/2+z
loop_
_atom_site_type_symbol
_atom_site_label
_atom_site_fract_x
_atom_site_fract_y
_atom_site_fract_z
Si Si1 0.862711 0.214149 0.936389
Si Si2 0.582823 0.110502 0.082879
Si Si3 0.794846 0.449273 0.441501
Si Si4 0.039331 0.906292 0.500857
Si Si5 0.833315 0.629545 0.606343
Si Si6 0.405333 0.358860 0.830224
Si Si7 0.536767 0.822066 0.161710
Si Si8 0.174218 0.451722 0.875989
O O1 0.909149 0.296491 0.891358
O O2 0.798591 0.155528 0.886271
O O3 0.750000 0.250000 0.000000
O O4 0.953412 0.159920 0.972941
O O5 0.453145 0.082499 0.119294
O O6 0.675171 0.040420 0.093624
O O7 0.604586 0.115776 0.986407
O O8 0.668597 0.410893 0.444310
O O9 0.891090 0.387811 0.395956
O O10 0.806095 0.453583 0.533328
O O11 0.053131 0.886091 0.590112
O O12 0.000000 0.000000 0.500000
O O13 0.829965 0.544426 0.650698
O O14 0.915074 0.694189 0.636052
O O15 0.500000 0.377345 0.750000
O O16 0.394927 0.261396 0.837014
O O17 0.282786 0.400794 0.829134
O O18 0.500000 0.855701 0.250000
#
# Coordination Sequence:
#
# PCOD9255774 Si02
#       8
#     8   8   8   8   8   8   8   8
#     4  10  20  31  57  89 115 150 188 251 301 340
#     4  10  17  32  57  92 112 140 190 248 298 337
#     4  10  20  35  58  87 118 147 198 253 285 351
#     4  11  22  38  60  91 123 154 207 254 300 361
#     4  10  18  37  58  82 116 152 189 238 296 356
#     4  10  23  38  57  85 123 161 197 246 308 361
#     4  11  22  38  59  86 120 159 199 243 310 364
#     4  10  18  33  63  81 113 150 197 242 293 349
#
# _framework density 19.614424
#
# number of rings (size 3 to 8) (size 9 to 14) (size 15 to 20)
#    0.000    1.750    2.500    5.250    1.750    1.000 
#    2.250    0.000    0.000    0.000    3.250    0.000 
#    0.000    0.000    0.000    0.000    0.000    0.000 
#
# Total GULP energy -178274.031461 kJ/mol
# GULP energy per Si atom -5571.063483 kJ/mol
# Density = 1.956978 g / cm^3
# Si number density = 19.614424 Si / 1000 Ang^3
#
#
#
# Elastic Constant Matrix: (Units=GPa)
#
#
# Indices 1 2 3 4 5 6 
#
# 1 117.0952 57.5411 19.7145 0.0000 -16.2864 0.0000
# 2 57.5411 118.3236 22.4244 0.0000 -21.1168 0.0000
# 3 19.7145 22.4244 34.0896 0.0000 -9.3918 0.0000
# 4 0.0000 0.0000 0.0000 4.2631 0.0000 1.3288
# 5 -16.2864 -21.1168 -9.3918 0.0000 11.9421 0.0000
# 6 0.0000 0.0000 0.0000 1.3288 0.0000 34.9255
#
#
#
# Elastic Compliance Matrix: (Units=1/GPa)
#
#
# Indices 1 2 3 4 5 6 
#
# 1 0.011934 -0.004078 -0.002198 0.000000 0.007337 0.000000
# 2 -0.004078 0.013938 -0.001982 0.000000 0.017526 0.000000
# 3 -0.002198 -0.001982 0.038448 0.000000 0.023736 0.000000
# 4 0.000000 0.000000 0.000000 0.237389 0.000000 -0.009032
# 5 0.007337 0.017526 0.023736 0.000000 0.143401 0.000000
# 6 0.000000 0.000000 0.000000 -0.009032 0.000000 0.028976
#
#
# Mechanical properties :
#
#
# Convention : Reuss Voigt Hill
#
# Bulk Modulus (GPa) = 20.91811 52.09646 36.50728
# Shear Modulus (GPa) = 9.87094 21.54802 15.70948
#
# Velocity S-wave (km/s) = 2.24576 3.31808 2.83311
# Velocity P-wave (km/s) = 4.17281 6.42631 5.41802
#
# Compressibility (1/GPa) = 0.04780547
#
# Stress axis : x y z
#
# Youngs Moduli (GPa) = 83.79120 71.74698 26.00887
#
# Poissons Ratio (x) = 0.29257 0.05717
# Poissons Ratio (y) = 0.34169 0.05154
# Poissons Ratio (z) = 0.18419 0.14218
#
# Static dielectric constant tensor:
#      x y z
#    x 1.732100 0.000000 0.005720 
#    y 0.000000 1.760500 0.000000 
#    z 0.005720 0.000000 1.690820 
# 
# From -- ./inp_files/238742.got.cif
#   From: 2010.05.17/outbox.cif.g08.bks.cpg/sg15_120_cif.got.tgz:238742.got - 2010.06.03 18:47:42.
