data_PCOD9255722
_publ_section_title
;
Structure prediction by ZEFSAII (Michael W. Deem and Ramdas Pophale) SiO2 
 PCOD9255722
Probable space group: C 2/C
;
_chemical_formula_sum "Si O2"
_cell_formula_units_Z 40
_cell_length_a 11.350722
_cell_length_b 26.706461
_cell_length_c 8.903157
_cell_angle_alpha 90.000000
_cell_angle_beta 120.707381
_cell_angle_gamma 90.000000
_cell_volume 2320.462100
_symmetry_space_group_name_H-M "C 2/C"
_symmetry_group_IT_number 15
_symmetry_cell_setting 'monoclinic'
loop_
_space_group_symop_operation_xyz
x,y,z
-x,y,1/2-z
-x,-y,-z
x,-y,1/2+z
1/2+x,1/2+y,z
1/2-x,1/2+y,1/2-z
1/2-x,1/2-y,-z
1/2+x,1/2-y,1/2+z
loop_
_atom_site_type_symbol
_atom_site_label
_atom_site_fract_x
_atom_site_fract_y
_atom_site_fract_z
Si Si1 0.161978 0.630690 0.332775
Si Si2 0.852327 0.152128 0.740616
Si Si3 0.681592 0.457503 0.728725
Si Si4 0.655605 0.761198 0.794619
Si Si5 0.640122 0.441309 0.046332
O O1 0.238398 0.639585 0.541061
O O2 0.224666 0.582148 0.295879
O O3 0.189973 0.683041 0.260265
O O4 0.000000 0.624802 0.250000
O O5 0.836579 0.209147 0.790039
O O6 0.839191 0.112057 0.863534
O O7 0.000000 0.148180 0.750000
O O8 0.524154 0.447042 0.578440
O O9 0.700409 0.515026 0.691665
O O10 0.696752 0.449278 0.916079
O O11 0.500000 0.764973 0.750000
O O12 0.750000 0.750000 0.000000
#
# Coordination Sequence:
#
# PCOD9255722 Si02
#       5
#     8   8   8   8   8
#     4  10  19  34  53  79 110 137 169 215 264 310
#     4  10  17  32  55  79 102 138 182 214 251 303
#     4  10  20  34  52  79 107 136 173 221 264 303
#     4   8  16  28  49  76 103 134 172 210 250 305
#     4  10  20  33  55  78 103 135 181 221 255 303
#
# _framework density 17.237946000000001
#
# number of rings (size 3 to 8) (size 9 to 14) (size 15 to 20)
#    0.000    2.400    2.000    1.200    2.800    0.000 
#    0.000    6.000    0.000    0.000    0.000    0.000 
#    0.000    0.000    0.000    0.000    0.000    0.000 
#
# Total GULP energy -111335.672569 kJ/mol
# GULP energy per Si atom -5566.783628 kJ/mol
# Density = 1.719871 g / cm^3
# Si number density = 17.237946 Si / 1000 Ang^3
#
#
#
# Elastic Constant Matrix: (Units=GPa)
#
#
# Indices 1 2 3 4 5 6 
#
# 1 44.4825 17.5204 22.1264 0.0000 6.2326 0.0000
# 2 17.5204 150.1179 25.1134 0.0000 -24.4637 0.0000
# 3 22.1264 25.1134 60.2926 0.0000 1.8741 0.0000
# 4 0.0000 0.0000 0.0000 28.7236 0.0000 -2.1630
# 5 6.2326 -24.4637 1.8741 0.0000 25.7665 0.0000
# 6 0.0000 0.0000 0.0000 -2.1630 0.0000 23.8163
#
#
#
# Elastic Compliance Matrix: (Units=1/GPa)
#
#
# Indices 1 2 3 4 5 6 
#
# 1 0.029832 -0.003571 -0.009152 0.000000 -0.009940 0.000000
# 2 -0.003571 0.009133 -0.002796 0.000000 0.009738 0.000000
# 3 -0.009152 -0.002796 0.021171 0.000000 -0.001981 0.000000
# 4 0.000000 0.000000 0.000000 0.035054 0.000000 0.003184
# 5 -0.009940 0.009738 -0.001981 0.000000 0.050605 0.000000
# 6 0.000000 0.000000 0.000000 0.003184 0.000000 0.042277
#
#
# Mechanical properties :
#
#
# Convention : Reuss Voigt Hill
#
# Bulk Modulus (GPa) = 34.36635 42.71261 38.53948
# Shear Modulus (GPa) = 21.85232 28.33680 25.09456
#
# Velocity S-wave (km/s) = 3.56432 4.05886 3.81960
# Velocity P-wave (km/s) = 6.07609 6.84089 6.46980
#
# Compressibility (1/GPa) = 0.02909823
#
# Stress axis : x y z
#
# Youngs Moduli (GPa) = 33.52093 109.49339 47.23520
#
# Poissons Ratio (x) = 0.39096 0.43228
# Poissons Ratio (y) = 0.11969 0.13209
# Poissons Ratio (z) = 0.30677 0.30619
#
# Static dielectric constant tensor:
#      x y z
#    x 1.558380 0.000000 0.012510 
#    y 0.000000 1.640810 0.000000 
#    z 0.012510 0.000000 1.570500 
# 
# From -- ./inp_files/32283.got.cif
#   From: 2010.05.17/outbox.cif.g08.bks.cpg/sg15_17_cif.got.tgz:32283.got - 2010.06.03 18:47:42.
