data_PCOD9255520
_publ_section_title
;
Structure prediction by ZEFSAII (Michael W. Deem and Ramdas Pophale) SiO2 
 PCOD9255520
Probable space group: C 2/C
;
_chemical_formula_sum "Si O2"
_cell_formula_units_Z 32
_cell_length_a 13.445864
_cell_length_b 7.222074
_cell_length_c 18.024955
_cell_angle_alpha 90.000000
_cell_angle_beta 48.700178
_cell_angle_gamma 90.000000
_cell_volume 1314.978579
_symmetry_space_group_name_H-M "C 2/C"
_symmetry_group_IT_number 15
_symmetry_cell_setting 'monoclinic'
loop_
_space_group_symop_operation_xyz
x,y,z
-x,y,1/2-z
-x,-y,-z
x,-y,1/2+z
1/2+x,1/2+y,z
1/2-x,1/2+y,1/2-z
1/2-x,1/2-y,-z
1/2+x,1/2-y,1/2+z
loop_
_atom_site_type_symbol
_atom_site_label
_atom_site_fract_x
_atom_site_fract_y
_atom_site_fract_z
Si Si1 0.640455 0.588482 0.157853
Si Si2 0.340503 0.599300 0.001346
Si Si3 0.085555 0.654577 0.414257
Si Si4 0.137637 0.665419 0.219589
O O1 0.500000 0.674248 0.250000
O O2 0.638622 0.555879 0.070555
O O3 0.777934 0.682777 0.110188
O O4 0.646551 0.388386 0.198829
O O5 0.482363 0.680146 0.953293
O O6 0.250000 0.750000 0.000000
O O7 0.257847 0.575795 0.116398
O O8 0.129634 0.608584 0.308623
O O9 0.000000 0.500000 0.500000
O O10 0.000000 0.610725 0.250000
#
# Coordination Sequence:
#
# PCOD9255520 Si02
#       4
#     8   8   8   8
#     4  10  19  35  56  85 124 148 195 247 281 348
#     4  10  17  32  54  85 122 145 197 247 278 349
#     4  12  19  30  60  91 112 161 193 233 308 340
#     4  10  17  31  52  84 120 143 194 242 277 348
#
# _framework density 24.335000000000001
#
# number of rings (size 3 to 8) (size 9 to 14) (size 15 to 20)
#    0.000    1.500   12.500    0.000    0.000    0.000 
#    0.000    1.250    0.000    3.000    0.000    0.000 
#    0.000    0.000    0.000    0.000    0.000    0.000 
#
# Total GULP energy -89509.987851 kJ/mol
# GULP energy per Si atom -5594.374241 kJ/mol
# Density = 2.427961 g / cm^3
# Si number density = 24.335000 Si / 1000 Ang^3
#
#
#
# Elastic Constant Matrix: (Units=GPa)
#
#
# Indices 1 2 3 4 5 6 
#
# 1 211.5469 50.8812 99.8843 0.0000 -41.2089 0.0000
# 2 50.8812 78.6987 32.2357 0.0000 2.1437 0.0000
# 3 99.8843 32.2357 262.5592 0.0000 -3.0835 0.0000
# 4 0.0000 0.0000 0.0000 9.2951 0.0000 9.1117
# 5 -41.2089 2.1437 -3.0835 0.0000 58.7847 0.0000
# 6 0.0000 0.0000 0.0000 9.1117 0.0000 -40.0030
#
#
#
# Elastic Compliance Matrix: (Units=1/GPa)
#
#
# Indices 1 2 3 4 5 6 
#
# 1 0.008034 -0.004342 -0.002457 0.000000 0.005662 0.000000
# 2 -0.004342 0.015746 -0.000324 0.000000 -0.003635 0.000000
# 3 -0.002457 -0.000324 0.004766 0.000000 -0.001461 0.000000
# 4 0.000000 0.000000 0.000000 0.087947 0.000000 0.020032
# 5 0.005662 -0.003635 -0.001461 0.000000 0.021036 0.000000
# 6 0.000000 0.000000 0.000000 0.020032 0.000000 -0.020435
#
#
# Mechanical properties :
#
#
# Convention : Reuss Voigt Hill
#
# Bulk Modulus (GPa) = 69.93068 102.08967 86.01017
# Shear Modulus (GPa) = 36.73577 30.26892 33.50235
#
# Velocity S-wave (km/s) = 3.88955 3.53064 3.71444
# Velocity P-wave (km/s) = 6.99790 7.65921 7.33601
#
# Compressibility (1/GPa) = 0.01429987
#
# Stress axis : x y z
#
# Youngs Moduli (GPa) = 124.46387 63.50861 209.82188
#
# Poissons Ratio (x) = 0.27578 0.51551
# Poissons Ratio (y) = 0.54047 0.06797
# Poissons Ratio (z) = 0.30579 0.02057
#
# Static dielectric constant tensor:
#      x y z
#    x 2.111360 0.000000 0.316970 
#    y 0.000000 2.124040 0.000000 
#    z 0.316970 0.000000 2.549640 
# 
# From -- ./inp_files/194852.got.cif
#   From: 2010.05.17/outbox.cif.g08.bks.cpg/sg15_98_cif.got.tgz:194852.got - 2010.06.03 18:47:42.
