data_PCOD9255040
_publ_section_title
;
Structure prediction by ZEFSAII (Michael W. Deem and Ramdas Pophale) SiO2 
 PCOD9255040
Probable space group: C 2/C
;
_chemical_formula_sum "Si O2"
_cell_formula_units_Z 56
_cell_length_a 21.619405
_cell_length_b 7.289527
_cell_length_c 15.858528
_cell_angle_alpha 90.000000
_cell_angle_beta 119.078558
_cell_angle_gamma 90.000000
_cell_volume 2184.211130
_symmetry_space_group_name_H-M "C 2/C"
_symmetry_group_IT_number 15
_symmetry_cell_setting 'monoclinic'
loop_
_space_group_symop_operation_xyz
x,y,z
-x,y,1/2-z
-x,-y,-z
x,-y,1/2+z
1/2+x,1/2+y,z
1/2-x,1/2+y,1/2-z
1/2-x,1/2-y,-z
1/2+x,1/2-y,1/2+z
loop_
_atom_site_type_symbol
_atom_site_label
_atom_site_fract_x
_atom_site_fract_y
_atom_site_fract_z
Si Si1 0.388962 0.318726 0.969914
Si Si2 0.926114 0.979148 0.171832
Si Si3 0.638369 0.075761 0.962201
Si Si4 0.891470 0.408144 0.735840
Si Si5 0.250173 0.219604 0.203414
Si Si6 0.780909 0.884377 0.641650
Si Si7 0.490381 0.144644 0.917392
O O1 0.422064 0.417158 0.072179
O O2 0.373632 0.112374 0.992713
O O3 0.311338 0.385414 0.889315
O O4 0.441876 0.303655 0.925458
O O5 0.920209 0.789187 0.223043
O O6 0.856267 0.096331 0.146855
O O7 0.000000 0.066339 0.250000
O O8 0.639465 0.006564 0.867218
O O9 0.568626 0.192343 0.937526
O O10 0.712279 0.157584 0.040748
O O11 0.827080 0.372455 0.757163
O O12 0.950404 0.532667 0.818072
O O13 0.266075 0.411466 0.168906
O O14 0.219122 0.240433 0.275895
O O15 0.500000 0.000000 0.000000
#
# Coordination Sequence:
#
# PCOD9255040 Si02
#       7
#     8   8   8   8   8   8   8
#     4   9  18  31  51  77 110 144 180 226 274 323
#     4  10  19  33  53  78 105 143 189 226 265 331
#     4   9  17  30  49  80 110 139 181 227 277 325
#     4  10  17  28  51  79 110 142 180 231 275 318
#     4  10  19  34  54  80 111 145 184 226 273 324
#     4  10  21  35  57  82 110 145 185 229 275 325
#     4  10  17  27  48  80 113 140 173 226 278 318
#
# _framework density 25.638548
#
# number of rings (size 3 to 8) (size 9 to 14) (size 15 to 20)
#    0.000    2.286    0.000    6.429    0.000    4.571 
#    0.000    0.714    0.000   11.143    0.000    0.000 
#    0.000    0.000    0.000    0.000    0.000    0.000 
#
# Total GULP energy -156919.240833 kJ/mol
# GULP energy per Si atom -5604.258601 kJ/mol
# Density = 2.558019 g / cm^3
# Si number density = 25.638548 Si / 1000 Ang^3
#
#
#
# Elastic Constant Matrix: (Units=GPa)
#
#
# Indices 1 2 3 4 5 6 
#
# 1 176.1335 34.8344 53.4785 0.0000 18.4065 0.0000
# 2 34.8344 68.9677 8.6496 0.0000 16.8870 0.0000
# 3 53.4785 8.6496 136.5579 0.0000 32.5462 0.0000
# 4 0.0000 0.0000 0.0000 15.1510 0.0000 -3.0267
# 5 18.4065 16.8870 32.5462 0.0000 46.0530 0.0000
# 6 0.0000 0.0000 0.0000 -3.0267 0.0000 29.8583
#
#
#
# Elastic Compliance Matrix: (Units=1/GPa)
#
#
# Indices 1 2 3 4 5 6 
#
# 1 0.007107 -0.003317 -0.002629 0.000000 0.000234 0.000000
# 2 -0.003317 0.017502 0.001689 0.000000 -0.006285 0.000000
# 3 -0.002629 0.001689 0.009792 0.000000 -0.006488 0.000000
# 4 0.000000 0.000000 0.000000 0.067366 0.000000 0.006829
# 5 0.000234 -0.006285 -0.006488 0.000000 0.028511 0.000000
# 6 0.000000 0.000000 0.000000 0.006829 0.000000 0.034184
#
#
# Mechanical properties :
#
#
# Convention : Reuss Voigt Hill
#
# Bulk Modulus (GPa) = 38.63082 63.95379 51.29231
# Shear Modulus (GPa) = 27.53200 37.19223 32.36212
#
# Velocity S-wave (km/s) = 3.28052 3.81286 3.55666
# Velocity P-wave (km/s) = 5.42672 6.66201 6.07584
#
# Compressibility (1/GPa) = 0.02588607
#
# Stress axis : x y z
#
# Youngs Moduli (GPa) = 140.69878 57.13547 102.12510
#
# Poissons Ratio (x) = 0.18954 0.26848
# Poissons Ratio (y) = 0.46674 -0.17244
# Poissons Ratio (z) = 0.36989 -0.09647
#
# Static dielectric constant tensor:
#      x y z
#    x 2.019090 0.000000 -0.003990 
#    y 0.000000 2.039290 0.000000 
#    z -0.003990 0.000000 1.943670 
# 
# From -- ./inp_files/214027.got.cif
#   From: 2010.05.17/outbox.cif.g08.bks.cpg/sg15_108_cif.got.tgz:214027.got - 2010.06.03 18:47:42.
