data_PCOD9255183
_publ_section_title
;
Structure prediction by ZEFSAII (Michael W. Deem and Ramdas Pophale) SiO2 
 PCOD9255183
Probable space group: C 2/C
;
_chemical_formula_sum "Si O2"
_cell_formula_units_Z 60
_cell_length_a 27.802527
_cell_length_b 10.013896
_cell_length_c 13.396445
_cell_angle_alpha 90.000000
_cell_angle_beta 124.272419
_cell_angle_gamma 90.000000
_cell_volume 3082.131588
_symmetry_space_group_name_H-M "C 2/C"
_symmetry_group_IT_number 15
_symmetry_cell_setting 'monoclinic'
loop_
_space_group_symop_operation_xyz
x,y,z
-x,y,1/2-z
-x,-y,-z
x,-y,1/2+z
1/2+x,1/2+y,z
1/2-x,1/2+y,1/2-z
1/2-x,1/2-y,-z
1/2+x,1/2-y,1/2+z
loop_
_atom_site_type_symbol
_atom_site_label
_atom_site_fract_x
_atom_site_fract_y
_atom_site_fract_z
Si Si1 0.284757 0.695558 0.842487
Si Si2 0.699015 0.059403 0.593900
Si Si3 0.325844 0.656043 0.526435
Si Si4 0.399063 0.462407 0.496148
Si Si5 0.779329 0.445725 0.076624
Si Si6 0.915784 0.164264 0.809153
Si Si7 0.500000 0.457769 0.250000
Si Si8 0.143926 0.587722 0.184380
O O1 0.253510 0.590402 0.729966
O O2 0.347657 0.644719 0.953287
O O3 0.240615 0.683027 0.883951
O O4 0.301814 0.820817 0.793262
O O5 0.690756 0.194457 0.521368
O O6 0.709837 0.941636 0.527905
O O7 0.642829 0.020460 0.594336
O O8 0.368567 0.601655 0.489647
O O9 0.272095 0.554924 0.469474
O O10 0.359501 0.650244 0.671263
O O11 0.416226 0.439817 0.401407
O O12 0.452543 0.454486 0.635181
O O13 0.835948 0.507866 0.195187
O O14 0.907656 0.310481 0.849731
O O15 0.968770 0.133430 0.797191
#
# Coordination Sequence:
#
# PCOD9255183 Si02
#       8
#     8   8   8   8   8   8   4   8
#     4   9  19  31  47  76 111 141 175 217 253 304
#     4  11  19  29  51  75 108 155 180 201 248 318
#     4  10  18  31  53  78 107 143 183 203 258 318
#     4   9  19  33  54  83 107 132 172 226 265 312
#     4  10  17  29  47  72 105 144 178 210 249 305
#     4  10  19  35  56  78 105 133 172 229 268 315
#     4  10  20  34  60  84  98 132 176 222 286 320
#     4  10  19  31  48  72 107 141 176 215 253 306
#
# _framework density 19.467047000000001
#
# number of rings (size 3 to 8) (size 9 to 14) (size 15 to 20)
#    0.000    2.133    2.667    2.400    0.000    0.533 
#    0.000    0.000   17.600    3.200    0.000   14.933 
#    0.000    0.000    0.000    0.000    0.000    0.000 
#
# Total GULP energy -167041.382036 kJ/mol
# GULP energy per Si atom -5568.046068 kJ/mol
# Density = 1.942274 g / cm^3
# Si number density = 19.467047 Si / 1000 Ang^3
#
#
#
# Elastic Constant Matrix: (Units=GPa)
#
#
# Indices 1 2 3 4 5 6 
#
# 1 67.7146 -2.3364 33.1516 0.0000 -16.5509 0.0000
# 2 -2.3364 46.3647 12.5946 0.0000 1.6041 0.0000
# 3 33.1516 12.5946 96.9400 0.0000 -8.6176 0.0000
# 4 0.0000 0.0000 0.0000 18.8581 0.0000 -5.7602
# 5 -16.5509 1.6041 -8.6176 0.0000 34.2221 0.0000
# 6 0.0000 0.0000 0.0000 -5.7602 0.0000 19.8282
#
#
#
# Elastic Compliance Matrix: (Units=1/GPa)
#
#
# Indices 1 2 3 4 5 6 
#
# 1 0.019937 0.002480 -0.006438 0.000000 0.007905 0.000000
# 2 0.002480 0.022777 -0.003883 0.000000 -0.000846 0.000000
# 3 -0.006438 -0.003883 0.013053 0.000000 0.000356 0.000000
# 4 0.000000 0.000000 0.000000 0.058191 0.000000 0.016905
# 5 0.007905 -0.000846 0.000356 0.000000 0.033173 0.000000
# 6 0.000000 0.000000 0.000000 0.016905 0.000000 0.055344
#
#
# Mechanical properties :
#
#
# Convention : Reuss Voigt Hill
#
# Bulk Modulus (GPa) = 24.94572 33.09322 29.01947
# Shear Modulus (GPa) = 21.59654 25.75566 23.67610
#
# Velocity S-wave (km/s) = 3.33436 3.64131 3.49121
# Velocity P-wave (km/s) = 5.25986 5.89197 5.58487
#
# Compressibility (1/GPa) = 0.04008704
#
# Stress axis : x y z
#
# Youngs Moduli (GPa) = 50.15730 43.90392 76.60934
#
# Poissons Ratio (x) = -0.10888 0.49318
# Poissons Ratio (y) = -0.12438 0.29744
# Poissons Ratio (z) = 0.32289 0.17046
#
# Static dielectric constant tensor:
#      x y z
#    x 1.716150 0.000000 -0.042630 
#    y 0.000000 1.738420 0.000000 
#    z -0.042630 0.000000 1.706600 
# 
# From -- ./inp_files/126284.got.cif
#   From: 2010.05.17/outbox.cif.g08.bks.cpg/sg15_64_cif.got.tgz:126284.got - 2010.06.03 18:47:42.
