data_PCOD9255337
_publ_section_title
;
Structure prediction by ZEFSAII (Michael W. Deem and Ramdas Pophale) SiO2 
 PCOD9255337
Probable space group: C 2/C
;
_chemical_formula_sum "Si O2"
_cell_formula_units_Z 56
_cell_length_a 13.921026
_cell_length_b 16.457952
_cell_length_c 14.744255
_cell_angle_alpha 90.000000
_cell_angle_beta 124.301642
_cell_angle_gamma 90.000000
_cell_volume 2790.571178
_symmetry_space_group_name_H-M "C 2/C"
_symmetry_group_IT_number 15
_symmetry_cell_setting 'monoclinic'
loop_
_space_group_symop_operation_xyz
x,y,z
-x,y,1/2-z
-x,-y,-z
x,-y,1/2+z
1/2+x,1/2+y,z
1/2-x,1/2+y,1/2-z
1/2-x,1/2-y,-z
1/2+x,1/2-y,1/2+z
loop_
_atom_site_type_symbol
_atom_site_label
_atom_site_fract_x
_atom_site_fract_y
_atom_site_fract_z
Si Si1 0.754714 0.943725 0.336826
Si Si2 0.630736 0.792123 0.351008
Si Si3 0.533527 0.591862 0.170629
Si Si4 0.780842 0.483123 0.855575
Si Si5 0.346574 0.804712 0.925361
Si Si6 0.161825 0.047982 0.962987
Si Si7 0.512623 0.660200 0.549793
O O1 0.692465 0.878182 0.366686
O O2 0.778601 0.022200 0.411159
O O3 0.877393 0.900476 0.376861
O O4 0.678866 0.963305 0.207827
O O5 0.500000 0.797927 0.250000
O O6 0.631938 0.779108 0.459146
O O7 0.714019 0.728085 0.342509
O O8 0.500000 0.630849 0.250000
O O9 0.657618 0.550731 0.251559
O O10 0.435889 0.521939 0.104989
O O11 0.527902 0.643825 0.075922
O O12 0.851535 0.401315 0.915285
O O13 0.750282 0.536965 0.927014
O O14 0.435881 0.750580 0.915024
O O15 0.090848 0.130982 0.939764
#
# Coordination Sequence:
#
# PCOD9255337 Si02
#       7
#     8   8   8   8   8   8   8
#     4  10  18  34  52  79 113 150 195 237 290 344
#     4  10  22  37  54  80 118 154 181 244 301 350
#     4   9  17  24  47  76 110 144 177 221 291 333
#     4  11  19  31  53  86 113 146 189 241 278 348
#     4  10  23  33  52  87 122 141 193 236 299 352
#     4  10  17  30  50  84 118 140 198 237 289 342
#     4  10  18  32  47  81 123 149 178 240 295 355
#
# _framework density 20.067575999999999
#
# number of rings (size 3 to 8) (size 9 to 14) (size 15 to 20)
#    0.000    2.000    4.286    0.857    8.000    0.000 
#    0.000    0.714    0.000    0.000    7.429    5.000 
#    0.000    0.000    0.000    0.000    0.000    0.000 
#
# Total GULP energy -156154.492214 kJ/mol
# GULP energy per Si atom -5576.946150 kJ/mol
# Density = 2.002190 g / cm^3
# Si number density = 20.067576 Si / 1000 Ang^3
#
#
#
# Elastic Constant Matrix: (Units=GPa)
#
#
# Indices 1 2 3 4 5 6 
#
# 1 43.2916 40.4075 12.0451 0.0000 -8.5121 0.0000
# 2 40.4075 65.5145 4.3987 0.0000 -13.8917 0.0000
# 3 12.0451 4.3987 47.7260 0.0000 -10.7113 0.0000
# 4 0.0000 0.0000 0.0000 20.1768 0.0000 -0.3433
# 5 -8.5121 -13.8917 -10.7113 0.0000 24.3625 0.0000
# 6 0.0000 0.0000 0.0000 -0.3433 0.0000 34.9424
#
#
#
# Elastic Compliance Matrix: (Units=1/GPa)
#
#
# Indices 1 2 3 4 5 6 
#
# 1 0.061233 -0.038196 -0.013336 0.000000 -0.006249 0.000000
# 2 -0.038196 0.041210 0.009010 0.000000 0.014114 0.000000
# 3 -0.013336 0.009010 0.026179 0.000000 0.011988 0.000000
# 4 0.000000 0.000000 0.000000 0.049570 0.000000 0.000487
# 5 -0.006249 0.014114 0.011988 0.000000 0.052182 0.000000
# 6 0.000000 0.000000 0.000000 0.000487 0.000000 0.028623
#
#
# Mechanical properties :
#
#
# Convention : Reuss Voigt Hill
#
# Bulk Modulus (GPa) = 22.94845 30.02607 26.48726
# Shear Modulus (GPa) = 13.94438 22.54173 18.24306
#
# Velocity S-wave (km/s) = 2.63890 3.35519 3.01837
# Velocity P-wave (km/s) = 4.55472 5.47765 5.03737
#
# Compressibility (1/GPa) = 0.04357592
#
# Stress axis : x y z
#
# Youngs Moduli (GPa) = 16.33118 24.26594 38.19889
#
# Poissons Ratio (x) = 0.92687 0.50942
# Poissons Ratio (y) = 0.62379 -0.34415
# Poissons Ratio (z) = 0.21779 -0.21862
#
# Static dielectric constant tensor:
#      x y z
#    x 1.746600 0.000000 -0.008210 
#    y 0.000000 1.751440 0.000000 
#    z -0.008210 0.000000 1.739000 
# 
# From -- ./inp_files/146156.got.cif
#   From: 2010.05.17/outbox.cif.g08.bks.cpg/sg15_74_cif.got.tgz:146156.got - 2010.06.03 18:47:42.
