data_PCOD9255773
_publ_section_title
;
Structure prediction by ZEFSAII (Michael W. Deem and Ramdas Pophale) SiO2 
 PCOD9255773
Probable space group: C 2/C
;
_chemical_formula_sum "Si O2"
_cell_formula_units_Z 56
_cell_length_a 15.738423
_cell_length_b 12.822862
_cell_length_c 28.306474
_cell_angle_alpha 90.000000
_cell_angle_beta 25.570829
_cell_angle_gamma 90.000000
_cell_volume 2465.699236
_symmetry_space_group_name_H-M "C 2/C"
_symmetry_group_IT_number 15
_symmetry_cell_setting 'monoclinic'
loop_
_space_group_symop_operation_xyz
x,y,z
-x,y,1/2-z
-x,-y,-z
x,-y,1/2+z
1/2+x,1/2+y,z
1/2-x,1/2+y,1/2-z
1/2-x,1/2-y,-z
1/2+x,1/2-y,1/2+z
loop_
_atom_site_type_symbol
_atom_site_label
_atom_site_fract_x
_atom_site_fract_y
_atom_site_fract_z
Si Si1 0.500000 0.496771 0.250000
Si Si2 0.047356 0.171152 0.151226
Si Si3 0.717079 0.533860 0.380202
Si Si4 0.966766 0.603089 0.950640
Si Si5 0.629652 0.791701 0.637727
Si Si6 0.901580 0.387587 0.014983
Si Si7 0.000000 0.650157 0.750000
Si Si8 0.245164 0.213636 0.286098
O O1 0.478398 0.572854 0.216567
O O2 0.698391 0.433971 0.139257
O O3 0.065488 0.273039 0.175185
O O4 0.880014 0.184587 0.196492
O O5 0.270232 0.143343 0.023464
O O6 0.500000 0.500000 0.500000
O O7 0.810621 0.590889 0.379238
O O8 0.837520 0.428696 0.310694
O O9 0.711803 0.622664 0.342220
O O10 0.947913 0.623481 0.016954
O O11 0.152793 0.673485 0.844855
O O12 0.977569 0.477712 0.941841
O O13 0.500000 0.761256 0.750000
O O14 0.824552 0.722477 0.535358
O O15 0.480944 0.778014 0.669039
#
# Coordination Sequence:
#
# PCOD9255773 Si02
#       8
#     4   8   8   8   8   8   4   8
#     4   9  18  37  54  84 114 159 196 251 316 372
#     4  10  23  37  59  84 125 156 208 261 309 364
#     4  11  22  40  66  88 122 170 213 253 307 382
#     4  10  19  32  57  87 116 152 195 251 309 366
#     4  10  18  36  60  85 118 155 200 246 307 368
#     4  10  17  32  57  88 110 151 198 243 305 376
#     4  11  22  43  60  92 118 173 214 245 318 378
#     4  11  20  40  58  89 119 160 208 260 305 366
#
# _framework density 22.71161
#
# number of rings (size 3 to 8) (size 9 to 14) (size 15 to 20)
#    0.000    1.714    5.714    1.286    0.000    0.000 
#    7.714    1.429    0.000    0.857    0.000    0.000 
#    0.000    0.000    0.000    0.000    0.000    0.000 
#
# Total GULP energy -156279.360971 kJ/mol
# GULP energy per Si atom -5581.405749 kJ/mol
# Density = 2.265992 g / cm^3
# Si number density = 22.711610 Si / 1000 Ang^3
#
#
#
# Elastic Constant Matrix: (Units=GPa)
#
#
# Indices 1 2 3 4 5 6 
#
# 1 101.9392 10.6881 -1.4152 -0.0011 -28.9204 0.0000
# 2 10.6881 82.9896 3.8979 -0.0031 -3.4098 0.0009
# 3 -1.4152 3.8979 31.6768 0.0056 -12.6949 -0.0040
# 4 -0.0011 -0.0031 0.0056 41.0910 -0.0024 -20.5359
# 5 -28.9204 -3.4098 -12.6949 -0.0024 28.2561 0.0004
# 6 0.0000 0.0009 -0.0040 -20.5359 0.0004 23.2493
#
#
#
# Elastic Compliance Matrix: (Units=1/GPa)
#
#
# Indices 1 2 3 4 5 6 
#
# 1 0.015756 -0.001628 0.008889 0.000002 0.019924 0.000003
# 2 -0.001628 0.012310 -0.002025 0.000001 -0.001091 0.000000
# 3 0.008889 -0.002025 0.043617 -0.000001 0.028450 0.000006
# 4 0.000002 0.000001 -0.000001 0.043570 0.000004 0.038485
# 5 0.019924 -0.001091 0.028450 0.000004 0.068433 0.000007
# 6 0.000003 0.000000 0.000006 0.038485 0.000007 0.077006
#
#
# Mechanical properties :
#
#
# Convention : Reuss Voigt Hill
#
# Bulk Modulus (GPa) = 12.17200 26.99414 19.58307
# Shear Modulus (GPa) = 18.01128 32.08158 25.04643
#
# Velocity S-wave (km/s) = 2.81916 3.76249 3.32445
# Velocity P-wave (km/s) = 3.99598 5.54856 4.83499
#
# Compressibility (1/GPa) = 0.08215574
#
# Stress axis : x y z
#
# Youngs Moduli (GPa) = 63.46637 81.23697 22.92694
#
# Poissons Ratio (x) = 0.13227 -0.20380
# Poissons Ratio (y) = 0.10333 0.04642
# Poissons Ratio (z) = -0.56416 0.16447
#
# Static dielectric constant tensor:
#      x y z
#    x 1.893590 0.000000 0.024830 
#    y 0.000000 1.864130 0.000000 
#    z 0.024830 0.000000 1.912430 
# 
# From -- ./inp_files/313753.got.cif
#   From: 2010.05.17/outbox.cif.g08.bks.cpg/sg15_157_cif.got.tgz:313753.got - 2010.06.03 18:47:42.
