data_PCOD9255239
_publ_section_title
;
Structure prediction by ZEFSAII (Michael W. Deem and Ramdas Pophale) SiO2 
 PCOD9255239
Probable space group: C 2/C
;
_chemical_formula_sum "Si O2"
_cell_formula_units_Z 40
_cell_length_a 18.519499
_cell_length_b 5.622663
_cell_length_c 19.672739
_cell_angle_alpha 90.000000
_cell_angle_beta 129.031240
_cell_angle_gamma 90.000000
_cell_volume 1591.280911
_symmetry_space_group_name_H-M "C 2/C"
_symmetry_group_IT_number 15
_symmetry_cell_setting 'monoclinic'
loop_
_space_group_symop_operation_xyz
x,y,z
-x,y,1/2-z
-x,-y,-z
x,-y,1/2+z
1/2+x,1/2+y,z
1/2-x,1/2+y,1/2-z
1/2-x,1/2-y,-z
1/2+x,1/2-y,1/2+z
loop_
_atom_site_type_symbol
_atom_site_label
_atom_site_fract_x
_atom_site_fract_y
_atom_site_fract_z
Si Si1 0.927232 0.999999 0.770266
Si Si2 0.006236 0.500000 0.171067
Si Si3 0.203913 0.500000 0.451226
Si Si4 0.782753 0.000000 0.854956
Si Si5 0.711878 1.000000 0.158680
O O1 0.947995 0.247880 0.820485
O O2 0.000000 0.999999 0.750000
O O3 0.817224 0.999999 0.689069
O O4 0.947995 0.752119 0.820485
O O5 0.900477 0.500000 0.084563
O O6 0.000000 0.500001 0.250000
O O7 0.250000 0.250000 0.500000
O O8 0.209478 0.499999 0.372713
O O9 0.250000 0.750000 0.500000
O O10 0.733367 1.000000 0.752112
O O11 0.833836 0.252358 0.889527
O O12 0.833836 0.747642 0.889527
#
# Coordination Sequence:
#
# PCOD9255239 Si02
#       5
#     8   8   8   8   8
#     4  10  17  29  52  81 108 133 178 235 285 320
#     4  10  20  34  56  81 108 143 191 237 273 326
#     4  12  24  39  59  85 121 155 188 234 290 349
#     4  10  20  35  54  83 117 152 191 232 291 337
#     4  10  19  33  58  86 114 145 191 250 280 326
#
# _framework density 25.136983000000001
#
# number of rings (size 3 to 8) (size 9 to 14) (size 15 to 20)
#    0.000    1.600    0.000    8.400    0.000    0.000 
#    0.000    0.000    0.000    7.200    0.000    0.000 
#    0.000    0.000    0.000    0.000    0.000    0.000 
#
# Total GULP energy -111728.197519 kJ/mol
# GULP energy per Si atom -5586.409876 kJ/mol
# Density = 2.507977 g / cm^3
# Si number density = 25.136983 Si / 1000 Ang^3
#
#
#
# Elastic Constant Matrix: (Units=GPa)
#
#
# Indices 1 2 3 4 5 6 
#
# 1 109.7019 18.3162 16.0066 0.0000 -10.6376 0.0001
# 2 18.3162 363.6914 42.1211 0.0000 29.3359 0.0006
# 3 16.0066 42.1211 35.9849 0.0000 1.6539 0.0000
# 4 0.0000 0.0000 0.0000 35.1166 0.0000 2.6856
# 5 -10.6376 29.3359 1.6539 0.0000 44.4841 0.0000
# 6 0.0001 0.0006 0.0000 2.6856 0.0000 18.8342
#
#
#
# Elastic Compliance Matrix: (Units=1/GPa)
#
#
# Indices 1 2 3 4 5 6 
#
# 1 0.010048 -0.000223 -0.004333 0.000000 0.002711 0.000000
# 2 -0.000223 0.003366 -0.003743 0.000000 -0.002134 0.000000
# 3 -0.004333 -0.003743 0.034091 0.000000 0.000165 0.000000
# 4 0.000000 0.000000 0.000000 0.028790 0.000000 -0.004105
# 5 0.002711 -0.002134 0.000165 0.000000 0.024530 0.000000
# 6 0.000000 0.000000 0.000000 -0.004105 0.000000 0.053680
#
#
# Mechanical properties :
#
#
# Convention : Reuss Voigt Hill
#
# Bulk Modulus (GPa) = 32.35554 73.58512 52.97033
# Shear Modulus (GPa) = 27.56236 48.54926 38.05581
#
# Velocity S-wave (km/s) = 3.31492 4.39952 3.89516
# Velocity P-wave (km/s) = 5.24892 7.42596 6.43025
#
# Compressibility (1/GPa) = 0.03090661
#
# Stress axis : x y z
#
# Youngs Moduli (GPa) = 99.52281 297.04503 29.33330
#
# Poissons Ratio (x) = 0.06619 0.12711
# Poissons Ratio (y) = 0.02218 0.10980
# Poissons Ratio (z) = 0.43125 1.11194
#
# Static dielectric constant tensor:
#      x y z
#    x 2.021260 0.000000 -0.035940 
#    y 0.000000 2.095240 0.000000 
#    z -0.035940 0.000000 1.954680 
# 
# From -- ./inp_files/212594.got.cif
#   From: 2010.05.17/outbox.cif.g08.bks.cpg/sg15_107_cif.got.tgz:212594.got - 2010.06.03 18:47:42.
