data_PCOD9255714
_publ_section_title
;
Structure prediction by ZEFSAII (Michael W. Deem and Ramdas Pophale) SiO2 
 PCOD9255714
Probable space group: C 2/C
;
_chemical_formula_sum "Si O2"
_cell_formula_units_Z 56
_cell_length_a 10.308923
_cell_length_b 15.807863
_cell_length_c 30.262555
_cell_angle_alpha 90.000000
_cell_angle_beta 146.545805
_cell_angle_gamma 90.000000
_cell_volume 2718.670260
_symmetry_space_group_name_H-M "C 2/C"
_symmetry_group_IT_number 15
_symmetry_cell_setting 'monoclinic'
loop_
_space_group_symop_operation_xyz
x,y,z
-x,y,1/2-z
-x,-y,-z
x,-y,1/2+z
1/2+x,1/2+y,z
1/2-x,1/2+y,1/2-z
1/2-x,1/2-y,-z
1/2+x,1/2-y,1/2+z
loop_
_atom_site_type_symbol
_atom_site_label
_atom_site_fract_x
_atom_site_fract_y
_atom_site_fract_z
Si Si1 0.652479 0.383064 0.090527
Si Si2 0.000000 0.512952 0.750000
Si Si3 0.626573 0.630152 0.484716
Si Si4 0.673241 0.692197 0.340251
Si Si5 0.500000 0.269552 0.250000
Si Si6 0.328310 0.844802 0.509010
Si Si7 0.097808 0.681708 0.572319
Si Si8 0.833986 0.120605 0.316478
O O1 0.740202 0.284100 0.117399
O O2 0.830296 0.430536 0.172644
O O3 0.649227 0.410921 0.038834
O O4 0.390253 0.396568 0.034913
O O5 0.145735 0.453309 0.757688
O O6 0.505815 0.722434 0.459873
O O7 0.457416 0.597826 0.398082
O O8 0.886229 0.635974 0.537661
O O9 0.500000 0.704212 0.250000
O O10 0.532920 0.639941 0.337397
O O11 0.914270 0.643170 0.397039
O O12 0.661536 0.318750 0.331011
O O13 0.684744 0.207324 0.278245
O O14 0.250000 0.750000 0.500000
O O15 0.357288 0.850396 0.464405
#
# Coordination Sequence:
#
# PCOD9255714 Si02
#       8
#     8   4   8   8   4   8   8   8
#     4  11  22  38  65  97 129 165 213 275 321 381
#     4  11  26  44  62  96 136 167 210 271 330 390
#     4  10  18  35  60  85 123 169 209 255 320 379
#     4  11  21  37  66  95 126 169 219 269 319 374
#     4   9  20  26  54  86 116 157 206 261 310 360
#     4  10  20  33  56  94 127 156 209 269 320 366
#     4  10  17  32  54  91 128 153 206 265 315 365
#     4  10  22  40  59  88 127 173 216 259 314 393
#
# _framework density 20.598303999999999
#
# number of rings (size 3 to 8) (size 9 to 14) (size 15 to 20)
#    0.000    1.714    5.000    1.714    4.000    2.857 
#    0.000    0.714    3.143    0.000    0.000    0.000 
#    0.000    0.000    0.000    0.000    0.000    0.000 
#
# Total GULP energy -156255.725233 kJ/mol
# GULP energy per Si atom -5580.561615 kJ/mol
# Density = 2.055142 g / cm^3
# Si number density = 20.598304 Si / 1000 Ang^3
#
#
#
# Elastic Constant Matrix: (Units=GPa)
#
#
# Indices 1 2 3 4 5 6 
#
# 1 129.0568 18.0702 51.2429 0.0000 10.7472 0.0000
# 2 18.0702 30.6977 10.9672 0.0000 6.7207 0.0000
# 3 51.2429 10.9672 159.2303 0.0005 14.5140 -0.0001
# 4 0.0000 0.0000 0.0005 3.8715 0.0000 4.1768
# 5 10.7472 6.7207 14.5140 0.0000 36.6788 0.0000
# 6 0.0000 0.0000 -0.0001 4.1768 0.0000 5.7149
#
#
#
# Elastic Compliance Matrix: (Units=1/GPa)
#
#
# Indices 1 2 3 4 5 6 
#
# 1 0.009507 -0.004442 -0.002670 0.000002 -0.000915 -0.000002
# 2 -0.004442 0.036538 -0.000618 -0.000002 -0.005149 0.000001
# 3 -0.002670 -0.000618 0.007366 -0.000005 -0.002019 0.000003
# 4 0.000002 -0.000002 -0.000005 1.221333 0.000001 -0.892631
# 5 -0.000915 -0.005149 -0.002019 0.000001 0.029274 0.000000
# 6 -0.000002 0.000001 0.000003 -0.892631 0.000000 0.827376
#
#
# Mechanical properties :
#
#
# Convention : Reuss Voigt Hill
#
# Bulk Modulus (GPa) = 26.34929 53.28282 39.81605
# Shear Modulus (GPa) = 2.31535 25.16666 13.74100
#
# Velocity S-wave (km/s) = 1.06136 3.49919 2.58562
# Velocity P-wave (km/s) = 3.78441 6.49996 5.31842
#
# Compressibility (1/GPa) = 0.03795169
#
# Stress axis : x y z
#
# Youngs Moduli (GPa) = 105.18708 27.36845 135.75700
#
# Poissons Ratio (x) = 0.12157 0.36249
# Poissons Ratio (y) = 0.46723 0.08387
# Poissons Ratio (z) = 0.28086 0.01691
#
# Static dielectric constant tensor:
#      x y z
#    x 1.724540 0.000000 0.012540 
#    y 0.000000 1.780390 0.000000 
#    z 0.012540 0.000000 1.734790 
# 
# From -- ./inp_files/191623.got.cif
#   From: 2010.05.17/outbox.cif.g08.bks.cpg/sg15_96_cif.got.tgz:191623.got - 2010.06.03 18:47:42.
