data_PCOD9255805
_publ_section_title
;
Structure prediction by ZEFSAII (Michael W. Deem and Ramdas Pophale) SiO2 
 PCOD9255805
Probable space group: C 2/C
;
_chemical_formula_sum "Si O2"
_cell_formula_units_Z 48
_cell_length_a 11.599654
_cell_length_b 14.021673
_cell_length_c 13.720485
_cell_angle_alpha 90.000000
_cell_angle_beta 91.122928
_cell_angle_gamma 90.000000
_cell_volume 2231.161045
_symmetry_space_group_name_H-M "C 2/C"
_symmetry_group_IT_number 15
_symmetry_cell_setting 'monoclinic'
loop_
_space_group_symop_operation_xyz
x,y,z
-x,y,1/2-z
-x,-y,-z
x,-y,1/2+z
1/2+x,1/2+y,z
1/2-x,1/2+y,1/2-z
1/2-x,1/2-y,-z
1/2+x,1/2-y,1/2+z
loop_
_atom_site_type_symbol
_atom_site_label
_atom_site_fract_x
_atom_site_fract_y
_atom_site_fract_z
Si Si1 0.130709 0.046972 0.268063
Si Si2 0.628690 0.252369 0.706234
Si Si3 0.232417 0.394046 0.337438
Si Si4 0.522132 0.033595 0.361419
Si Si5 0.345491 0.900229 0.461824
Si Si6 0.132222 0.971755 0.984508
O O1 0.153223 0.135955 0.197976
O O2 0.140508 0.077629 0.379669
O O3 0.000000 0.014172 0.250000
O O4 0.213873 0.961562 0.244320
O O5 0.500000 0.244743 0.750000
O O6 0.711796 0.207124 0.789099
O O7 0.642549 0.190573 0.608563
O O8 0.110388 0.443647 0.359529
O O9 0.315923 0.405087 0.430530
O O10 0.500000 0.065125 0.250000
O O11 0.583335 0.107647 0.435638
O O12 0.407843 0.989647 0.407953
O O13 0.215886 0.935534 0.480587
O O14 0.000000 0.000000 0.000000
#
# Coordination Sequence:
#
# PCOD9255805 Si02
#       6
#     8   8   8   8   8   8
#     4  11  23  39  64  92 127 171 212 253 317 392
#     4  11  21  39  65  94 125 162 218 266 319 373
#     4  11  20  38  65  87 126 167 207 265 314 374
#     4  10  17  32  59  93 118 159 207 260 318 371
#     4  10  19  33  62  91 121 164 209 261 314 369
#     4  11  22  37  62  91 126 175 211 247 317 393
#
# _framework density 21.513463000000002
#
# number of rings (size 3 to 8) (size 9 to 14) (size 15 to 20)
#    0.000    1.333    6.667    0.000    0.000    0.667 
#    0.000    3.333    0.000    8.000    0.000    0.000 
#    0.000    0.000    0.000    0.000    0.000    0.000 
#
# Total GULP energy -134113.686397 kJ/mol
# GULP energy per Si atom -5588.070267 kJ/mol
# Density = 2.146450 g / cm^3
# Si number density = 21.513463 Si / 1000 Ang^3
#
#
#
# Elastic Constant Matrix: (Units=GPa)
#
#
# Indices 1 2 3 4 5 6 
#
# 1 121.5401 21.8907 29.5303 0.0000 0.3592 0.0000
# 2 21.8907 39.4618 -1.5458 0.0000 -12.8305 0.0000
# 3 29.5303 -1.5458 149.2367 0.0000 17.5959 0.0000
# 4 0.0000 0.0000 0.0000 22.8639 0.0000 -1.2170
# 5 0.3592 -12.8305 17.5959 0.0000 34.4443 0.0000
# 6 0.0000 0.0000 0.0000 -1.2170 0.0000 10.2777
#
#
#
# Elastic Compliance Matrix: (Units=1/GPa)
#
#
# Indices 1 2 3 4 5 6 
#
# 1 0.009743 -0.005923 -0.001827 0.000000 -0.001375 0.000000
# 2 -0.005923 0.032583 0.000076 0.000000 0.012160 0.000000
# 3 -0.001827 0.000076 0.007510 0.000000 -0.003789 0.000000
# 4 0.000000 0.000000 0.000000 0.044015 0.000000 0.005212
# 5 -0.001375 0.012160 -0.003789 0.000000 0.035512 0.000000
# 6 0.000000 0.000000 0.000000 0.005212 0.000000 0.097915
#
#
# Mechanical properties :
#
#
# Convention : Reuss Voigt Hill
#
# Bulk Modulus (GPa) = 28.99635 45.55435 37.27535
# Shear Modulus (GPa) = 19.67559 30.87473 25.27516
#
# Velocity S-wave (km/s) = 3.02747 3.79243 3.43133
# Velocity P-wave (km/s) = 5.07230 6.35590 5.75003
#
# Compressibility (1/GPa) = 0.03448710
#
# Stress axis : x y z
#
# Youngs Moduli (GPa) = 102.64290 30.69047 133.15845
#
# Poissons Ratio (x) = 0.18178 0.24329
# Poissons Ratio (y) = 0.60795 -0.01008
# Poissons Ratio (z) = 0.18754 -0.00232
#
# Static dielectric constant tensor:
#      x y z
#    x 1.795130 0.000000 -0.007000 
#    y 0.000000 1.753350 0.000000 
#    z -0.007000 0.000000 1.881700 
# 
# From -- ./inp_files/143639.got.cif
#   From: 2010.05.17/outbox.cif.g08.bks.cpg/sg15_72_cif.got.tgz:143639.got - 2010.06.03 18:47:42.
