data_PCOD9255671
_publ_section_title
;
Structure prediction by ZEFSAII (Michael W. Deem and Ramdas Pophale) SiO2 
 PCOD9255671
Probable space group: C 2/C
;
_chemical_formula_sum "Si O2"
_cell_formula_units_Z 60
_cell_length_a 26.388978
_cell_length_b 10.536563
_cell_length_c 13.111223
_cell_angle_alpha 90.000000
_cell_angle_beta 53.444875
_cell_angle_gamma 90.000000
_cell_volume 2928.424080
_symmetry_space_group_name_H-M "C 2/C"
_symmetry_group_IT_number 15
_symmetry_cell_setting 'monoclinic'
loop_
_space_group_symop_operation_xyz
x,y,z
-x,y,1/2-z
-x,-y,-z
x,-y,1/2+z
1/2+x,1/2+y,z
1/2-x,1/2+y,1/2-z
1/2-x,1/2-y,-z
1/2+x,1/2-y,1/2+z
loop_
_atom_site_type_symbol
_atom_site_label
_atom_site_fract_x
_atom_site_fract_y
_atom_site_fract_z
Si Si1 0.724434 0.257814 0.813666
Si Si2 0.138618 0.219988 0.893774
Si Si3 0.297101 0.939450 0.008783
Si Si4 0.382776 0.717465 0.348869
Si Si5 0.587447 0.975395 0.983863
Si Si6 0.662744 0.466324 0.751783
Si Si7 0.827486 0.577487 0.780644
Si Si8 0.000000 0.401620 0.250000
O O1 0.796801 0.292470 0.712620
O O2 0.679580 0.364622 0.820630
O O3 0.719634 0.129539 0.748719
O O4 0.706601 0.205231 0.945957
O O5 0.086691 0.329474 0.947577
O O6 0.135403 0.095818 0.829556
O O7 0.137980 0.181541 0.013094
O O8 0.355160 0.002361 0.003079
O O9 0.229841 0.002524 0.117150
O O10 0.309881 0.961192 0.874274
O O11 0.384378 0.597888 0.272376
O O12 0.331897 0.807849 0.355484
O O13 0.444141 0.806549 0.283342
O O14 0.608237 0.056815 0.861219
O O15 0.525319 0.988192 0.126689
#
# Coordination Sequence:
#
# PCOD9255671 Si02
#       8
#     8   8   8   8   8   8   8   4
#     4   9  18  29  51  78 109 140 173 211 261 319
#     4  10  18  34  52  76 113 142 175 214 258 316
#     4  10  17  32  52  79 110 135 169 218 265 316
#     4  10  20  36  55  77 103 144 181 214 265 318
#     4  10  20  34  53  80 103 138 176 219 264 308
#     4  10  19  33  54  81 107 146 177 210 259 320
#     4  10  18  32  55  77 106 138 174 217 269 321
#     4  10  20  38  56  76 106 134 184 226 260 312
#
# _framework density 20.488835999999999
#
# number of rings (size 3 to 8) (size 9 to 14) (size 15 to 20)
#    0.000    2.133    4.000    0.800    0.000    2.667 
#    2.400    4.000    0.000    0.000    0.000    0.933 
#    0.000    0.000    0.000    0.000    0.000    0.000 
#
# Total GULP energy -167225.366414 kJ/mol
# GULP energy per Si atom -5574.178880 kJ/mol
# Density = 2.044220 g / cm^3
# Si number density = 20.488836 Si / 1000 Ang^3
#
#
#
# Elastic Constant Matrix: (Units=GPa)
#
#
# Indices 1 2 3 4 5 6 
#
# 1 22.3571 -5.6165 6.9936 0.0000 7.9841 0.0000
# 2 -5.6165 40.7261 22.4685 0.0000 7.4473 0.0000
# 3 6.9936 22.4685 117.7248 0.0000 2.0419 0.0000
# 4 0.0000 0.0000 0.0000 29.1549 0.0000 8.2711
# 5 7.9841 7.4473 2.0419 0.0000 24.1110 0.0000
# 6 0.0000 0.0000 0.0000 8.2711 0.0000 23.7780
#
#
#
# Elastic Compliance Matrix: (Units=1/GPa)
#
#
# Indices 1 2 3 4 5 6 
#
# 1 0.059239 0.015954 -0.006147 0.000000 -0.024023 0.000000
# 2 0.015954 0.033393 -0.007061 0.000000 -0.014999 0.000000
# 3 -0.006147 -0.007061 0.010149 0.000000 0.003357 0.000000
# 4 0.000000 0.000000 0.000000 0.038055 0.000000 -0.013237
# 5 -0.024023 -0.014999 0.003357 0.000000 0.053778 0.000000
# 6 0.000000 0.000000 0.000000 -0.013237 0.000000 0.046660
#
#
# Mechanical properties :
#
#
# Convention : Reuss Voigt Hill
#
# Bulk Modulus (GPa) = 9.23598 25.38879 17.31239
# Shear Modulus (GPa) = 18.39095 25.87296 22.13195
#
# Velocity S-wave (km/s) = 2.99926 3.55742 3.29020
# Velocity P-wave (km/s) = 4.06346 5.41222 4.78559
#
# Compressibility (1/GPa) = 0.10827216
#
# Stress axis : x y z
#
# Youngs Moduli (GPa) = 16.88089 29.94652 98.53218
#
# Poissons Ratio (x) = -0.47777 0.60572
# Poissons Ratio (y) = -0.26932 0.69572
# Poissons Ratio (z) = 0.10377 0.21145
#
# Static dielectric constant tensor:
#      x y z
#    x 1.767470 0.000000 0.013890 
#    y 0.000000 1.783410 0.000000 
#    z 0.013890 0.000000 1.775080 
# 
# From -- ./inp_files/126432.got.cif
#   From: 2010.05.17/outbox.cif.g08.bks.cpg/sg15_64_cif.got.tgz:126432.got - 2010.06.03 18:47:42.
