data_PCOD9255283
_publ_section_title
;
Structure prediction by ZEFSAII (Michael W. Deem and Ramdas Pophale) SiO2 
 PCOD9255283
Probable space group: C 2/C
;
_chemical_formula_sum "Si O2"
_cell_formula_units_Z 64
_cell_length_a 27.673985
_cell_length_b 21.495254
_cell_length_c 17.826842
_cell_angle_alpha 90.000000
_cell_angle_beta 165.788781
_cell_angle_gamma 90.000000
_cell_volume 2603.366147
_symmetry_space_group_name_H-M "C 2/C"
_symmetry_group_IT_number 15
_symmetry_cell_setting 'monoclinic'
loop_
_space_group_symop_operation_xyz
x,y,z
-x,y,1/2-z
-x,-y,-z
x,-y,1/2+z
1/2+x,1/2+y,z
1/2-x,1/2+y,1/2-z
1/2-x,1/2-y,-z
1/2+x,1/2-y,1/2+z
loop_
_atom_site_type_symbol
_atom_site_label
_atom_site_fract_x
_atom_site_fract_y
_atom_site_fract_z
Si Si1 0.284806 0.660025 0.871847
Si Si2 0.738810 0.605544 0.271523
Si Si3 0.275239 0.618858 0.007631
Si Si4 0.261848 0.711922 0.113089
Si Si5 0.258885 0.619524 0.548548
Si Si6 0.774072 0.988732 0.630888
Si Si7 0.777666 0.859755 0.909507
Si Si8 0.235405 0.215525 0.814690
O O1 0.300395 0.722384 0.946495
O O2 0.195384 0.684424 0.659012
O O3 0.197723 0.614841 0.805312
O O4 0.490634 0.630396 0.154453
O O5 0.794322 0.663793 0.406150
O O6 0.810557 0.545024 0.423151
O O7 0.499321 0.612088 0.908821
O O8 0.815958 0.608160 0.303683
O O9 0.196774 0.678957 0.937316
O O10 0.265618 0.560370 0.049382
O O11 0.497591 0.714848 0.458584
O O12 0.189135 0.554091 0.476737
O O13 0.192470 0.632730 0.364000
O O14 0.207336 0.674911 0.527251
O O15 0.000000 0.000000 0.000000
O O16 0.000000 0.885242 0.250000
O O17 0.792961 0.787103 0.910268
#
# Coordination Sequence:
#
# PCOD9255283 Si02
#       8
#     8   8   8   8   8   8   8   8
#     4  10  17  30  45  69 105 124 166 199 246 304
#     4   8  15  28  46  67  94 130 155 192 246 298
#     4   9  19  29  46  76  98 132 161 204 249 297
#     4   9  16  29  48  67 101 132 157 200 249 300
#     4   9  18  30  45  70 100 127 155 206 250 296
#     4   9  16  32  47  67 105 128 159 200 257 298
#     4  10  18  31  48  75 102 126 167 207 250 306
#     4  10  19  31  49  73 102 134 161 204 262 298
#
# _framework density 24.583558
#
# number of rings (size 3 to 8) (size 9 to 14) (size 15 to 20)
#    0.000    2.750    1.250    3.000    0.000    0.000 
#   13.500    0.000    0.000    0.000    0.000    2.625 
#    0.000    0.000    0.000    0.000    0.000    0.000 
#
# Total GULP energy -178748.873546 kJ/mol
# GULP energy per Si atom -5585.902298 kJ/mol
# Density = 2.452760 g / cm^3
# Si number density = 24.583558 Si / 1000 Ang^3
#
#
#
# Elastic Constant Matrix: (Units=GPa)
#
#
# Indices 1 2 3 4 5 6 
#
# 1 242.5800 58.5853 42.0307 0.0000 -32.6945 0.0000
# 2 58.5853 76.4816 -9.3634 0.0000 -17.7998 0.0000
# 3 42.0307 -9.3634 82.3913 0.0004 1.9323 -0.0001
# 4 0.0000 0.0000 0.0004 17.1093 0.0000 -3.0946
# 5 -32.6945 -17.7998 1.9323 0.0000 51.1072 0.0000
# 6 0.0000 0.0000 -0.0001 -3.0946 0.0000 28.7938
#
#
#
# Elastic Compliance Matrix: (Units=1/GPa)
#
#
# Indices 1 2 3 4 5 6 
#
# 1 0.006239 -0.004656 -0.003771 0.000000 0.002512 0.000000
# 2 -0.004656 0.017891 0.004336 0.000000 0.003089 0.000000
# 3 -0.003771 0.004336 0.014588 0.000000 -0.001454 0.000000
# 4 0.000000 0.000000 0.000000 0.059606 0.000000 0.006406
# 5 0.002512 0.003089 -0.001454 0.000000 0.022304 0.000000
# 6 0.000000 0.000000 0.000000 0.006406 0.000000 0.035418
#
#
# Mechanical properties :
#
#
# Convention : Reuss Voigt Hill
#
# Bulk Modulus (GPa) = 32.74788 64.88425 48.81606
# Shear Modulus (GPa) = 28.66868 40.08207 34.37538
#
# Velocity S-wave (km/s) = 3.41863 4.04225 3.74345
# Velocity P-wave (km/s) = 5.37891 6.94529 6.21167
#
# Compressibility (1/GPa) = 0.03053633
#
# Stress axis : x y z
#
# Youngs Moduli (GPa) = 160.29095 55.89361 68.55153
#
# Poissons Ratio (x) = 0.26023 0.25848
# Poissons Ratio (y) = 0.74629 -0.29723
# Poissons Ratio (z) = 0.60439 -0.24235
#
# Static dielectric constant tensor:
#      x y z
#    x 2.001470 0.000000 0.044970 
#    y 0.000000 1.922910 0.000000 
#    z 0.044970 0.000000 2.102380 
# 
# From -- ./inp_files/223154.got.cif
#   From: 2010.05.17/outbox.cif.g08.bks.cpg/sg15_112_cif.got.tgz:223154.got - 2010.06.03 18:47:42.
