data_PCOD9255560
_publ_section_title
;
Structure prediction by ZEFSAII (Michael W. Deem and Ramdas Pophale) SiO2 
 PCOD9255560
Probable space group: C 2/C
;
_chemical_formula_sum "Si O2"
_cell_formula_units_Z 64
_cell_length_a 9.478157
_cell_length_b 21.790500
_cell_length_c 21.474561
_cell_angle_alpha 90.000000
_cell_angle_beta 50.153853
_cell_angle_gamma 90.000000
_cell_volume 3405.220478
_symmetry_space_group_name_H-M "C 2/C"
_symmetry_group_IT_number 15
_symmetry_cell_setting 'monoclinic'
loop_
_space_group_symop_operation_xyz
x,y,z
-x,y,1/2-z
-x,-y,-z
x,-y,1/2+z
1/2+x,1/2+y,z
1/2-x,1/2+y,1/2-z
1/2-x,1/2-y,-z
1/2+x,1/2-y,1/2+z
loop_
_atom_site_type_symbol
_atom_site_label
_atom_site_fract_x
_atom_site_fract_y
_atom_site_fract_z
Si Si1 0.436244 0.411541 0.638778
Si Si2 0.444593 0.616694 0.933990
Si Si3 0.581082 0.532418 0.791894
Si Si4 0.426654 0.285963 0.199049
Si Si5 0.751875 0.084013 0.547441
Si Si6 0.619715 0.849814 0.778779
Si Si7 0.833102 0.558724 0.399793
Si Si8 0.092700 0.377558 0.291438
O O1 0.440547 0.460920 0.692106
O O2 0.628580 0.405087 0.548560
O O3 0.331615 0.354192 0.698110
O O4 0.289776 0.436727 0.628482
O O5 0.463860 0.561017 0.880669
O O6 0.461287 0.675741 0.884958
O O7 0.612928 0.606516 0.934900
O O8 0.263823 0.605795 0.025113
O O9 0.500000 0.553853 0.750000
O O10 0.783594 0.560781 0.740453
O O11 0.500000 0.288667 0.250000
O O12 0.412773 0.215714 0.180679
O O13 0.231896 0.321104 0.256830
O O14 0.562524 0.119888 0.611864
O O15 0.697827 0.011646 0.569929
O O16 0.500000 0.845902 0.750000
O O17 0.535361 0.912001 0.833100
O O18 0.000000 0.376881 0.250000
#
# Coordination Sequence:
#
# PCOD9255560 Si02
#       8
#     8   8   8   8   8   8   8   8
#     4  10  18  34  53  79 115 147 183 227 288 332
#     4  10  17  31  55  86 113 142 181 242 283 321
#     4  11  20  33  54  82 118 151 172 223 296 341
#     4  10  21  38  55  79 116 151 193 231 281 333
#     4  11  18  31  58  91 110 136 190 242 279 328
#     4   9  20  35  56  80 109 156 193 233 274 334
#     4  10  17  31  57  88 113 136 191 245 277 326
#     4  11  19  33  57  85 106 144 196 229 270 335
#
# _framework density 18.794671000000001
#
# number of rings (size 3 to 8) (size 9 to 14) (size 15 to 20)
#    0.000    1.750    5.000    3.000    0.000    1.500 
#    0.000    1.875    2.750    0.000    0.000    0.000 
#    0.000    0.000    0.000    0.000    0.000    0.000 
#
# Total GULP energy -178157.808985 kJ/mol
# GULP energy per Si atom -5567.431531 kJ/mol
# Density = 1.875189 g / cm^3
# Si number density = 18.794671 Si / 1000 Ang^3
#
#
#
# Elastic Constant Matrix: (Units=GPa)
#
#
# Indices 1 2 3 4 5 6 
#
# 1 51.4863 1.8787 23.4140 0.0000 0.2176 0.0000
# 2 1.8787 54.8611 16.7764 0.0000 -2.7180 0.0000
# 3 23.4140 16.7764 99.2241 0.0000 -21.1186 0.0000
# 4 0.0000 0.0000 0.0000 5.0005 0.0000 9.7739
# 5 0.2176 -2.7180 -21.1186 0.0000 20.0365 0.0000
# 6 0.0000 0.0000 0.0000 9.7739 0.0000 0.4246
#
#
#
# Elastic Compliance Matrix: (Units=1/GPa)
#
#
# Indices 1 2 3 4 5 6 
#
# 1 0.022669 0.001032 -0.007150 0.000000 -0.007643 0.000000
# 2 0.001032 0.019286 -0.003803 0.000000 -0.001403 0.000000
# 3 -0.007150 -0.003803 0.015877 0.000000 0.016296 0.000000
# 4 0.000000 0.000000 0.000000 -0.004545 0.000000 0.104639
# 5 -0.007643 -0.001403 0.016296 0.000000 0.066978 0.000000
# 6 0.000000 0.000000 0.000000 0.104639 0.000000 -0.053535
#
#
# Mechanical properties :
#
#
# Convention : Reuss Voigt Hill
#
# Bulk Modulus (GPa) = 26.32368 32.18996 29.25682
# Shear Modulus (GPa) = 50.38539 15.99248 33.18893
#
# Velocity S-wave (km/s) = 5.18329 2.92019 4.20678
# Velocity P-wave (km/s) = 7.06105 5.34176 6.26070
#
# Compressibility (1/GPa) = 0.03798861
#
# Stress axis : x y z
#
# Youngs Moduli (GPa) = 44.11315 51.85133 62.98482
#
# Poissons Ratio (x) = -0.05349 0.45036
# Poissons Ratio (y) = -0.04551 0.23952
# Poissons Ratio (z) = 0.31542 0.19718
#
# Static dielectric constant tensor:
#      x y z
#    x 1.656730 0.000000 -0.015870 
#    y 0.000000 1.666040 0.000000 
#    z -0.015870 0.000000 1.684300 
# 
# From -- ./inp_files/234412.got.cif
#   From: 2010.05.17/outbox.cif.g08.bks.cpg/sg15_118_cif.got.tgz:234412.got - 2010.06.03 18:47:42.
