data_PCOD9255273
_publ_section_title
;
Structure prediction by ZEFSAII (Michael W. Deem and Ramdas Pophale) SiO2 
 PCOD9255273
Probable space group: C 2/C
;
_chemical_formula_sum "Si O2"
_cell_formula_units_Z 64
_cell_length_a 9.498991
_cell_length_b 19.353073
_cell_length_c 25.548803
_cell_angle_alpha 90.000000
_cell_angle_beta 36.349058
_cell_angle_gamma 90.000000
_cell_volume 2783.781255
_symmetry_space_group_name_H-M "C 2/C"
_symmetry_group_IT_number 15
_symmetry_cell_setting 'monoclinic'
loop_
_space_group_symop_operation_xyz
x,y,z
-x,y,1/2-z
-x,-y,-z
x,-y,1/2+z
1/2+x,1/2+y,z
1/2-x,1/2+y,1/2-z
1/2-x,1/2-y,-z
1/2+x,1/2-y,1/2+z
loop_
_atom_site_type_symbol
_atom_site_label
_atom_site_fract_x
_atom_site_fract_y
_atom_site_fract_z
Si Si1 0.896478 0.532136 0.113223
Si Si2 0.074729 0.762980 0.602434
Si Si3 0.749603 0.868422 0.080290
Si Si4 0.402626 0.810775 0.598494
Si Si5 0.585197 0.604875 0.391420
Si Si6 0.619278 0.527104 0.600467
Si Si7 0.456076 0.324496 0.412103
Si Si8 0.569943 0.010032 0.169359
O O1 0.837443 0.612922 0.136401
O O2 0.731215 0.489710 0.123325
O O3 0.896877 0.505727 0.172191
O O4 0.160542 0.528923 0.007511
O O5 0.250000 0.750000 0.500000
O O6 0.033817 0.685580 0.637353
O O7 0.225885 0.797211 0.603535
O O8 0.878477 0.819886 0.645098
O O9 0.953406 0.834009 0.055006
O O10 0.713154 0.940169 0.119382
O O11 0.841474 0.886539 0.995699
O O12 0.410202 0.748503 0.638982
O O13 0.673334 0.813604 0.495649
O O14 0.537580 0.539878 0.367789
O O15 0.773382 0.579839 0.378620
O O16 0.500272 0.603183 0.631273
O O17 0.500000 0.010427 0.250000
#
# Coordination Sequence:
#
# PCOD9255273 Si02
#       8
#     8   8   8   8   8   8   8   8
#     4  10  20  33  53  84 112 146 187 241 294 341
#     4   9  19  30  56  92 119 143 186 248 304 353
#     4  10  19  35  59  89 115 148 197 244 298 350
#     4   9  16  29  47  82 121 142 176 227 298 344
#     4  11  18  35  59  88 115 146 197 248 295 347
#     4  10  17  29  57  86 111 138 187 242 293 335
#     4   9  17  27  49  83 117 145 171 233 290 344
#     4  12  25  39  58  82 120 162 201 240 291 364
#
# _framework density 22.990314000000001
#
# number of rings (size 3 to 8) (size 9 to 14) (size 15 to 20)
#    0.000    2.000    3.750    1.875    0.000    1.000 
#    0.000    0.625    5.500    0.000    0.000    0.000 
#    0.000    0.000    0.000    0.000    0.000    0.000 
#
# Total GULP energy -178214.327642 kJ/mol
# GULP energy per Si atom -5569.197739 kJ/mol
# Density = 2.293799 g / cm^3
# Si number density = 22.990314 Si / 1000 Ang^3
#
#
#
# Elastic Constant Matrix: (Units=GPa)
#
#
# Indices 1 2 3 4 5 6 
#
# 1 95.8153 44.0797 12.2285 -0.0013 16.2412 0.0034
# 2 44.0797 163.8136 10.7896 -0.0040 4.1745 0.0009
# 3 12.2285 10.7896 26.7458 0.0386 12.9992 -0.0152
# 4 -0.0013 -0.0040 0.0386 -32.3028 -0.0079 19.2482
# 5 16.2412 4.1745 12.9992 -0.0079 16.9373 0.0016
# 6 0.0034 0.0009 -0.0152 19.2482 0.0016 45.1630
#
#
#
# Elastic Compliance Matrix: (Units=1/GPa)
#
#
# Indices 1 2 3 4 5 6 
#
# 1 0.014264 -0.003597 0.001828 0.000004 -0.014195 -0.000002
# 2 -0.003597 0.007182 -0.003300 -0.000005 0.004211 0.000001
# 3 0.001828 -0.003300 0.061152 0.000078 -0.047874 -0.000011
# 4 0.000004 -0.000005 0.000078 -0.024687 -0.000076 0.010522
# 5 -0.014195 0.004211 -0.047874 -0.000076 0.108357 0.000013
# 6 -0.000002 0.000001 -0.000011 0.010522 0.000013 0.017658
#
#
# Mechanical properties :
#
#
# Convention : Reuss Voigt Hill
#
# Bulk Modulus (GPa) = 13.80035 46.73001 30.26518
# Shear Modulus (GPa) = 22.91299 20.57796 21.74547
#
# Velocity S-wave (km/s) = 3.16038 2.99502 3.07881
# Velocity P-wave (km/s) = 4.39694 5.68597 5.08249
#
# Compressibility (1/GPa) = 0.07246195
#
# Stress axis : x y z
#
# Youngs Moduli (GPa) = 70.10531 139.22909 16.35263
#
# Poissons Ratio (x) = 0.50080 -0.02990
# Poissons Ratio (y) = 0.25217 0.05396
# Poissons Ratio (z) = -0.12817 0.45943
#
# Static dielectric constant tensor:
#      x y z
#    x 1.855160 0.000000 -0.018140 
#    y 0.000000 1.888830 -0.000030 
#    z -0.018140 -0.000030 1.900910 
# 
# From -- ./inp_files/289969.got.cif
#   From: 2010.05.17/outbox.cif.g08.bks.cpg/sg15_145_cif.got.tgz:289969.got - 2010.06.03 18:47:42.
