data_PCOD9255958
_publ_section_title
;
Structure prediction by ZEFSAII (Michael W. Deem and Ramdas Pophale) SiO2 
 PCOD9255958
Probable space group: C 2/C
;
_chemical_formula_sum "Si O2"
_cell_formula_units_Z 52
_cell_length_a 18.803949
_cell_length_b 7.906866
_cell_length_c 24.144914
_cell_angle_alpha 90.000000
_cell_angle_beta 144.742766
_cell_angle_gamma 90.000000
_cell_volume 2072.248161
_symmetry_space_group_name_H-M "C 2/C"
_symmetry_group_IT_number 15
_symmetry_cell_setting 'monoclinic'
loop_
_space_group_symop_operation_xyz
x,y,z
-x,y,1/2-z
-x,-y,-z
x,-y,1/2+z
1/2+x,1/2+y,z
1/2-x,1/2+y,1/2-z
1/2-x,1/2-y,-z
1/2+x,1/2-y,1/2+z
loop_
_atom_site_type_symbol
_atom_site_label
_atom_site_fract_x
_atom_site_fract_y
_atom_site_fract_z
Si Si1 0.068571 0.298352 0.106173
Si Si2 0.606266 0.387302 0.934396
Si Si3 0.107392 0.712711 0.266264
Si Si4 0.174569 0.599552 0.421717
Si Si5 0.500000 0.464643 0.750000
Si Si6 0.791294 0.645617 0.284401
Si Si7 0.497148 0.353243 0.042191
O O1 0.135671 0.472697 0.162722
O O2 0.145415 0.158176 0.191797
O O3 0.935602 0.262715 0.050304
O O4 0.068759 0.285995 0.039116
O O5 0.549436 0.371545 0.836178
O O6 0.559062 0.562631 0.937804
O O7 0.750630 0.430584 0.016852
O O8 0.175756 0.604781 0.355884
O O9 0.972400 0.635543 0.164294
O O10 0.185657 0.711317 0.262340
O O11 0.250000 0.750000 0.500000
O O12 0.096151 0.898529 0.285782
O O13 0.864788 0.783351 0.365713
O O14 0.500000 0.500000 0.000000
#
# Coordination Sequence:
#
# PCOD9255958 Si02
#       7
#     8   8   8   8   4   8   8
#     4  11  26  41  68  97 134 183 222 288 344 406
#     4  11  20  40  65  99 129 172 235 278 345 408
#     4  10  21  34  61  97 131 173 224 271 340 405
#     4  10  17  33  59  94 126 167 222 274 326 410
#     4  10  18  36  64  96 128 172 230 266 340 402
#     4  12  23  44  64 101 139 175 233 278 341 405
#     4  10  21  40  66  96 131 174 224 278 336 402
#
# _framework density 25.093520000000002
#
# number of rings (size 3 to 8) (size 9 to 14) (size 15 to 20)
#    0.000    1.538    4.615    3.231    0.000    1.231 
#    0.000    4.615    0.000    0.000    0.000    0.000 
#    0.000    0.000    0.000    0.000    0.000    0.000 
#
# Total GULP energy -144886.955121 kJ/mol
# GULP energy per Si atom -5572.575197 kJ/mol
# Density = 2.503641 g / cm^3
# Si number density = 25.093520 Si / 1000 Ang^3
#
#
#
# Elastic Constant Matrix: (Units=GPa)
#
#
# Indices 1 2 3 4 5 6 
#
# 1 80.4849 3.3322 25.2185 0.0000 -10.8478 0.0000
# 2 3.3322 51.5057 -1.0230 0.0000 9.4958 0.0000
# 3 25.2185 -1.0230 156.9845 0.0000 -1.0211 0.0000
# 4 0.0000 0.0000 0.0000 39.5048 0.0000 0.6619
# 5 -10.8478 9.4958 -1.0211 0.0000 37.6050 0.0000
# 6 0.0000 0.0000 0.0000 0.6619 0.0000 18.9580
#
#
#
# Elastic Compliance Matrix: (Units=1/GPa)
#
#
# Indices 1 2 3 4 5 6 
#
# 1 0.013771 -0.001737 -0.002195 0.000000 0.004351 0.000000
# 2 -0.001737 0.020584 0.000376 0.000000 -0.005689 0.000000
# 3 -0.002195 0.000376 0.006722 0.000000 -0.000546 0.000000
# 4 0.000000 0.000000 0.000000 0.025328 0.000000 -0.000884
# 5 0.004351 -0.005689 -0.000546 0.000000 0.029269 0.000000
# 6 0.000000 0.000000 0.000000 -0.000884 0.000000 0.052779
#
#
# Mechanical properties :
#
#
# Convention : Reuss Voigt Hill
#
# Bulk Modulus (GPa) = 29.44230 38.22561 33.83395
# Shear Modulus (GPa) = 29.96059 36.64340 33.30199
#
# Velocity S-wave (km/s) = 3.45912 3.82550 3.64691
# Velocity P-wave (km/s) = 5.26427 5.89736 5.58979
#
# Compressibility (1/GPa) = 0.03396474
#
# Stress axis : x y z
#
# Youngs Moduli (GPa) = 72.61687 48.58163 148.77402
#
# Poissons Ratio (x) = 0.08437 0.32659
# Poissons Ratio (y) = 0.12612 -0.05596
# Poissons Ratio (z) = 0.15941 -0.01827
#
# Static dielectric constant tensor:
#      x y z
#    x 2.083180 0.000000 0.012660 
#    y 0.000000 2.539140 0.000000 
#    z 0.012660 0.000000 2.101510 
# 
# From -- ./inp_files/319393.got.cif
#   From: 2010.05.17/outbox.cif.g08.bks.cpg/sg15_160_cif.got.tgz:319393.got - 2010.06.03 18:47:42.
