data_PCOD9255986
_publ_section_title
;
Structure prediction by ZEFSAII (Michael W. Deem and Ramdas Pophale) SiO2 
 PCOD9255986
Probable space group: C 2/C
;
_chemical_formula_sum "Si O2"
_cell_formula_units_Z 36
_cell_length_a 16.545602
_cell_length_b 7.871639
_cell_length_c 17.505173
_cell_angle_alpha 90.000000
_cell_angle_beta 128.485869
_cell_angle_gamma 90.000000
_cell_volume 1784.611543
_symmetry_space_group_name_H-M "C 2/C"
_symmetry_group_IT_number 15
_symmetry_cell_setting 'monoclinic'
loop_
_space_group_symop_operation_xyz
x,y,z
-x,y,1/2-z
-x,-y,-z
x,-y,1/2+z
1/2+x,1/2+y,z
1/2-x,1/2+y,1/2-z
1/2-x,1/2-y,-z
1/2+x,1/2-y,1/2+z
loop_
_atom_site_type_symbol
_atom_site_label
_atom_site_fract_x
_atom_site_fract_y
_atom_site_fract_z
Si Si1 0.009805 0.297228 0.527786
Si Si2 0.000000 0.399565 0.250000
Si Si3 0.292437 0.180214 0.944665
Si Si4 0.089256 0.730865 0.245922
Si Si5 0.639723 0.194817 0.966486
O O1 0.058038 0.267468 0.639571
O O2 0.084707 0.221094 0.507250
O O3 0.000000 0.500000 0.500000
O O4 0.892405 0.230796 0.466047
O O5 0.914175 0.530616 0.232790
O O6 0.944636 0.299583 0.150470
O O7 0.197306 0.185617 0.830554
O O8 0.250000 0.250000 0.000000
O O9 0.335081 0.997061 0.993230
O O10 0.000000 0.803921 0.250000
O O11 0.750000 0.250000 0.000000
#
# Coordination Sequence:
#
# PCOD9255986 Si02
#       5
#     8   4   8   8   8
#     4  10  19  37  60  89 120 160 198 240 308 368
#     4  10  18  38  64  80 120 166 194 242 318 346
#     4  11  18  36  66  87 111 158 212 244 285 366
#     4  10  17  33  65  88 109 157 209 242 288 352
#     4  11  24  41  60  89 130 160 194 254 316 362
#
# _framework density 20.172457999999999
#
# number of rings (size 3 to 8) (size 9 to 14) (size 15 to 20)
#    0.667    0.889    8.889    0.000    0.000    1.778 
#    2.000    1.111    0.000    0.000    0.000    0.000 
#    0.000    0.000    0.000    0.000    0.000    0.000 
#
# Total GULP energy -100202.078789 kJ/mol
# GULP energy per Si atom -5566.782155 kJ/mol
# Density = 2.012655 g / cm^3
# Si number density = 20.172458 Si / 1000 Ang^3
#
#
#
# Elastic Constant Matrix: (Units=GPa)
#
#
# Indices 1 2 3 4 5 6 
#
# 1 205.2563 19.0101 74.1020 0.0000 -6.6232 0.0000
# 2 19.0101 13.0919 7.8650 0.0000 -1.5514 0.0000
# 3 74.1020 7.8650 195.8977 0.0000 -8.0521 0.0000
# 4 0.0000 0.0000 0.0000 -18.2681 0.0000 0.8798
# 5 -6.6232 -1.5514 -8.0521 0.0000 31.0871 0.0000
# 6 0.0000 0.0000 0.0000 0.8798 0.0000 17.9973
#
#
#
# Elastic Compliance Matrix: (Units=1/GPa)
#
#
# Indices 1 2 3 4 5 6 
#
# 1 0.006371 -0.007955 -0.002073 0.000000 0.000423 0.000000
# 2 -0.007955 0.088506 -0.000437 0.000000 0.002609 0.000000
# 3 -0.002073 -0.000437 0.005951 0.000000 0.001078 0.000000
# 4 0.000000 0.000000 0.000000 -0.054612 0.000000 0.002670
# 5 0.000423 0.002609 0.001078 0.000000 0.032667 0.000000
# 6 0.000000 0.000000 0.000000 0.002670 0.000000 0.055433
#
#
# Mechanical properties :
#
#
# Convention : Reuss Voigt Hill
#
# Bulk Modulus (GPa) = 12.51607 68.46667 40.49137
# Shear Modulus (GPa) = 27.49073 27.04785 27.26929
#
# Velocity S-wave (km/s) = 3.69560 3.66571 3.68068
# Velocity P-wave (km/s) = 4.94246 7.20631 6.17895
#
# Compressibility (1/GPa) = 0.07989731
#
# Stress axis : x y z
#
# Youngs Moduli (GPa) = 156.96527 11.29864 168.04628
#
# Poissons Ratio (x) = 0.08988 0.34838
# Poissons Ratio (y) = 1.24869 0.07342
# Poissons Ratio (z) = 0.32540 0.00494
#
# Static dielectric constant tensor:
#      x y z
#    x 1.815800 0.000000 -0.000480 
#    y 0.000000 1.762880 0.000000 
#    z -0.000480 0.000000 1.690090 
# 
# From -- ./inp_files/150192.got.cif
#   From: 2010.05.17/outbox.cif.g08.bks.cpg/sg15_76_cif.got.tgz:150192.got - 2010.06.03 18:47:42.
