data_PCOD9255456
_publ_section_title
;
Structure prediction by ZEFSAII (Michael W. Deem and Ramdas Pophale) SiO2 
 PCOD9255456
Probable space group: C 2/C
;
_chemical_formula_sum "Si O2"
_cell_formula_units_Z 60
_cell_length_a 6.599687
_cell_length_b 12.734005
_cell_length_c 23.937224
_cell_angle_alpha 90.000000
_cell_angle_beta 96.996415
_cell_angle_gamma 90.000000
_cell_volume 1996.715477
_symmetry_space_group_name_H-M "C 2/C"
_symmetry_group_IT_number 15
_symmetry_cell_setting 'monoclinic'
loop_
_space_group_symop_operation_xyz
x,y,z
-x,y,1/2-z
-x,-y,-z
x,-y,1/2+z
1/2+x,1/2+y,z
1/2-x,1/2+y,1/2-z
1/2-x,1/2-y,-z
1/2+x,1/2-y,1/2+z
loop_
_atom_site_type_symbol
_atom_site_label
_atom_site_fract_x
_atom_site_fract_y
_atom_site_fract_z
Si Si1 0.740183 0.064594 0.048966
Si Si2 0.253042 0.997800 0.779092
Si Si3 0.238237 0.170374 0.684280
Si Si4 0.022382 0.428861 0.393518
Si Si5 0.260315 0.722401 0.418490
Si Si6 0.500000 0.807157 0.750000
Si Si7 0.489876 0.638072 0.967109
Si Si8 0.505858 0.362000 0.841295
O O1 0.830081 0.132187 0.102463
O O2 0.523898 0.017979 0.061604
O O3 0.902474 0.967660 0.051108
O O4 0.771701 0.121453 0.990317
O O5 0.264839 0.092934 0.737217
O O6 0.408743 0.025281 0.834460
O O7 0.317296 0.890066 0.750454
O O8 0.050160 0.965272 0.806584
O O9 0.261661 0.107829 0.626185
O O10 0.421112 0.256204 0.686975
O O11 0.035067 0.232575 0.697379
O O12 0.893852 0.326545 0.408359
O O13 0.365787 0.667481 0.474607
O O14 0.040028 0.764132 0.428950
O O15 0.293619 0.648248 0.366504
#
# Coordination Sequence:
#
# PCOD9255456 Si02
#       8
#     8   8   8   8   8   4   8   8
#     4   8  13  21  35  60  91 132 168 198 254 311
#     4  10  17  31  49  65  92 130 170 207 256 305
#     4  10  18  29  47  65  89 127 171 213 253 303
#     4   9  15  25  43  63  90 130 168 208 250 303
#     4   8  13  21  34  59  92 131 166 199 252 308
#     4  10  20  32  50  68  90 126 170 210 256 298
#     4   8  12  19  33  56  95 135 160 199 261 300
#     4   8  16  25  40  63  87 127 172 203 252 302
#
# _framework density 30.049351000000001
#
# number of rings (size 3 to 8) (size 9 to 14) (size 15 to 20)
#    0.000    3.200    1.333    0.000    0.000    0.000 
#    0.000    0.000   17.600    0.000    0.000    0.000 
#    0.000    0.000    0.000 2059.200    0.000    0.000 
#
# Total GULP energy -168133.752210 kJ/mol
# GULP energy per Si atom -5604.458407 kJ/mol
# Density = 2.998096 g / cm^3
# Si number density = 30.049351 Si / 1000 Ang^3
#
#
#
# Elastic Constant Matrix: (Units=GPa)
#
#
# Indices 1 2 3 4 5 6 
#
# 1 127.5288 42.7057 42.6039 0.0000 -37.0808 0.0000
# 2 42.7057 150.4181 82.9518 0.0000 -18.2668 0.0000
# 3 42.6039 82.9518 187.6637 0.0000 -38.6378 0.0000
# 4 0.0000 0.0000 0.0000 57.6390 0.0000 -6.5313
# 5 -37.0808 -18.2668 -38.6378 0.0000 34.5669 0.0000
# 6 0.0000 0.0000 0.0000 -6.5313 0.0000 60.9599
#
#
#
# Elastic Compliance Matrix: (Units=1/GPa)
#
#
# Indices 1 2 3 4 5 6 
#
# 1 0.012013 -0.002389 0.000938 0.000000 0.012672 0.000000
# 2 -0.002389 0.009270 -0.003993 0.000000 -0.002127 0.000000
# 3 0.000938 -0.003993 0.008643 0.000000 0.008556 0.000000
# 4 0.000000 0.000000 0.000000 0.017563 0.000000 0.001882
# 5 0.012672 -0.002127 0.008556 0.000000 0.050963 0.000000
# 6 0.000000 0.000000 0.000000 0.001882 0.000000 0.016606
#
#
# Mechanical properties :
#
#
# Convention : Reuss Voigt Hill
#
# Bulk Modulus (GPa) = 52.53011 89.12595 70.82803
# Shear Modulus (GPa) = 37.79553 50.45644 44.12598
#
# Velocity S-wave (km/s) = 3.55037 4.10215 3.83619
# Velocity P-wave (km/s) = 5.85884 7.22226 6.57599
#
# Compressibility (1/GPa) = 0.01903670
#
# Stress axis : x y z
#
# Youngs Moduli (GPa) = 83.24586 107.87204 115.70686
#
# Poissons Ratio (x) = 0.25769 -0.10851
# Poissons Ratio (y) = 0.19886 0.46206
# Poissons Ratio (z) = -0.07807 0.43077
#
# Static dielectric constant tensor:
#      x y z
#    x 2.361660 0.000000 0.019170 
#    y 0.000000 2.291880 0.000000 
#    z 0.019170 0.000000 2.347890 
# 
# From -- ./inp_files/307463.got.cif
#   From: 2010.05.17/outbox.cif.g08.bks.cpg/sg15_154_cif.got.tgz:307463.got - 2010.06.03 18:47:42.
