data_PCOD9255238
_publ_section_title
;
Structure prediction by ZEFSAII (Michael W. Deem and Ramdas Pophale) SiO2 
 PCOD9255238
Probable space group: C 2/C
;
_chemical_formula_sum "Si O2"
_cell_formula_units_Z 40
_cell_length_a 13.224982
_cell_length_b 4.953568
_cell_length_c 26.490859
_cell_angle_alpha 90.000000
_cell_angle_beta 123.105982
_cell_angle_gamma 90.000000
_cell_volume 1453.710464
_symmetry_space_group_name_H-M "C 2/C"
_symmetry_group_IT_number 15
_symmetry_cell_setting 'monoclinic'
loop_
_space_group_symop_operation_xyz
x,y,z
-x,y,1/2-z
-x,-y,-z
x,-y,1/2+z
1/2+x,1/2+y,z
1/2-x,1/2+y,1/2-z
1/2-x,1/2-y,-z
1/2+x,1/2-y,1/2+z
loop_
_atom_site_type_symbol
_atom_site_label
_atom_site_fract_x
_atom_site_fract_y
_atom_site_fract_z
Si Si1 0.610982 0.825051 0.474345
Si Si2 0.255244 0.561755 0.715883
Si Si3 0.580804 0.652919 0.903252
Si Si4 0.086459 0.427499 0.810794
Si Si5 0.286330 0.143184 0.398264
O O1 0.750000 0.750000 0.500000
O O2 0.536304 0.614699 0.419494
O O3 0.599228 0.124217 0.450501
O O4 0.607004 0.790492 0.533522
O O5 0.212273 0.805070 0.740444
O O6 0.361292 0.698769 0.711817
O O7 0.175194 0.460354 0.646146
O O8 0.705139 0.572532 0.907348
O O9 0.516054 0.794477 0.838418
O O10 0.000000 0.593873 0.750000
O O11 0.193569 0.613347 0.861585
#
# Coordination Sequence:
#
# PCOD9255238 Si02
#       5
#     8   8   8   8   8
#     4  10  17  29  52  80 115 141 184 243 296 329
#     4  11  23  41  57  81 119 158 201 237 281 346
#     4  10  19  32  50  82 121 144 180 236 303 335
#     4  11  23  37  58  90 125 155 189 236 294 355
#     4  10  20  32  59  82 117 145 197 239 292 332
#
# _framework density 27.515798
#
# number of rings (size 3 to 8) (size 9 to 14) (size 15 to 20)
#    0.000    1.600    6.000    2.400    2.800    3.200 
#    0.000    0.000    0.000    0.000    0.000    8.400 
#    0.000    0.200    0.000    0.000    0.000    0.000 
#
# Total GULP energy -111852.363850 kJ/mol
# GULP energy per Si atom -5592.618193 kJ/mol
# Density = 2.745317 g / cm^3
# Si number density = 27.515798 Si / 1000 Ang^3
#
#
#
# Elastic Constant Matrix: (Units=GPa)
#
#
# Indices 1 2 3 4 5 6 
#
# 1 118.8691 42.3380 59.2403 0.0000 -42.0765 0.0001
# 2 42.3380 198.9366 93.3016 -0.0001 -33.3251 0.0004
# 3 59.2403 93.3016 245.5812 0.0000 -58.3524 0.0000
# 4 0.0000 -0.0001 0.0000 45.4819 0.0000 -30.6471
# 5 -42.0765 -33.3251 -58.3524 0.0000 42.6491 0.0000
# 6 0.0001 0.0004 0.0000 -30.6471 0.0000 0.5020
#
#
#
# Elastic Compliance Matrix: (Units=1/GPa)
#
#
# Indices 1 2 3 4 5 6 
#
# 1 0.013015 -0.000734 0.000080 0.000000 0.012376 0.000000
# 2 -0.000734 0.006324 -0.001813 0.000000 0.001737 0.000000
# 3 0.000080 -0.001813 0.006554 0.000000 0.007630 0.000000
# 4 0.000000 0.000000 0.000000 -0.000548 0.000000 -0.033442
# 5 0.012376 0.001737 0.007630 0.000000 0.047454 0.000000
# 6 0.000000 0.000000 0.000000 -0.033442 0.000000 -0.049630
#
#
# Mechanical properties :
#
#
# Convention : Reuss Voigt Hill
#
# Bulk Modulus (GPa) = 47.71088 105.90520 76.80804
# Shear Modulus (GPa) = 142.49034 42.29373 92.39203
#
# Velocity S-wave (km/s) = 7.20398 3.92480 5.80092
# Velocity P-wave (km/s) = 9.30449 7.68838 8.53477
#
# Compressibility (1/GPa) = 0.02095958
#
# Stress axis : x y z
#
# Youngs Moduli (GPa) = 76.83408 158.12323 152.56898
#
# Poissons Ratio (x) = 0.11610 -0.01222
# Poissons Ratio (y) = 0.05641 0.27659
# Poissons Ratio (z) = -0.00615 0.28666
#
# Static dielectric constant tensor:
#      x y z
#    x 2.204010 0.000000 0.105540 
#    y 0.000000 2.159120 0.000000 
#    z 0.105540 0.000000 2.415150 
# 
# From -- ./inp_files/294323.got.cif
#   From: 2010.05.17/outbox.cif.g08.bks.cpg/sg15_148_cif.got.tgz:294323.got - 2010.06.03 18:47:42.
