data_PCOD9255595
_publ_section_title
;
Structure prediction by ZEFSAII (Michael W. Deem and Ramdas Pophale) SiO2 
 PCOD9255595
Probable space group: C 2/C
;
_chemical_formula_sum "Si O2"
_cell_formula_units_Z 56
_cell_length_a 10.276763
_cell_length_b 19.437598
_cell_length_c 19.408155
_cell_angle_alpha 90.000000
_cell_angle_beta 41.037967
_cell_angle_gamma 90.000000
_cell_volume 2545.405294
_symmetry_space_group_name_H-M "C 2/C"
_symmetry_group_IT_number 15
_symmetry_cell_setting 'monoclinic'
loop_
_space_group_symop_operation_xyz
x,y,z
-x,y,1/2-z
-x,-y,-z
x,-y,1/2+z
1/2+x,1/2+y,z
1/2-x,1/2+y,1/2-z
1/2-x,1/2-y,-z
1/2+x,1/2-y,1/2+z
loop_
_atom_site_type_symbol
_atom_site_label
_atom_site_fract_x
_atom_site_fract_y
_atom_site_fract_z
Si Si1 0.639540 0.234404 0.972902
Si Si2 0.500000 0.525863 0.250000
Si Si3 0.000000 0.199770 0.750000
Si Si4 0.590002 0.414825 0.325866
Si Si5 0.709955 0.851303 0.877543
Si Si6 0.554396 0.698271 0.339962
Si Si7 0.942455 0.869212 0.013338
Si Si8 0.004999 0.651153 0.668258
O O1 0.807305 0.242441 0.847365
O O2 0.750000 0.250000 0.000000
O O3 0.521741 0.162109 0.017276
O O4 0.468228 0.291357 0.032113
O O5 0.519858 0.479258 0.309832
O O6 0.696747 0.573017 0.167570
O O7 0.021069 0.150980 0.808361
O O8 0.518425 0.413983 0.434065
O O9 0.827441 0.402748 0.230995
O O10 0.765423 0.812461 0.784396
O O11 0.851990 0.820419 0.879758
O O12 0.571122 0.640878 0.393328
O O13 0.523270 0.779891 0.365043
O O14 0.720836 0.881345 0.075057
O O15 0.000000 0.675099 0.750000
#
# Coordination Sequence:
#
# PCOD9255595 Si02
#       8
#     8   4   4   8   8   8   8   8
#     4  12  24  39  63 101 137 170 211 276 349 406
#     4   9  22  46  70  82 136 186 227 278 304 401
#     4  11  24  38  60  90 140 174 207 274 334 405
#     4  10  21  39  58  93 128 175 232 266 319 385
#     4  10  22  42  64  92 126 175 223 256 334 404
#     4  10  18  34  63  97 127 162 205 278 339 410
#     4  11  21  33  60  97 132 163 214 279 342 395
#     4  10  17  31  58  92 129 161 210 272 329 402
#
# _framework density 22.000426999999998
#
# number of rings (size 3 to 8) (size 9 to 14) (size 15 to 20)
#    0.000    1.714    4.286    2.143    4.000    0.000 
#    0.000    5.714    0.000   10.286    0.000    0.000 
#    0.000    0.000    0.000    0.000    0.000    0.000 
#
# Total GULP energy -156109.905032 kJ/mol
# GULP energy per Si atom -5575.353751 kJ/mol
# Density = 2.195035 g / cm^3
# Si number density = 22.000427 Si / 1000 Ang^3
#
#
#
# Elastic Constant Matrix: (Units=GPa)
#
#
# Indices 1 2 3 4 5 6 
#
# 1 75.9458 12.4524 27.8260 -0.0005 4.6314 0.0000
# 2 12.4524 61.9851 16.8671 -0.0005 -2.0211 0.0009
# 3 27.8260 16.8671 115.5354 0.0013 8.3591 0.0002
# 4 -0.0005 -0.0005 0.0013 11.3119 0.0025 -5.5793
# 5 4.6314 -2.0211 8.3591 0.0025 39.3068 -0.0022
# 6 0.0000 0.0009 0.0002 -5.5793 -0.0022 19.6005
#
#
#
# Elastic Compliance Matrix: (Units=1/GPa)
#
#
# Indices 1 2 3 4 5 6 
#
# 1 0.014746 -0.002143 -0.003153 0.000001 -0.001177 0.000000
# 2 -0.002143 0.017189 -0.002108 0.000000 0.001585 0.000000
# 3 -0.003153 -0.002108 0.009855 -0.000001 -0.001833 -0.000001
# 4 0.000001 0.000000 -0.000001 0.102841 -0.000005 0.029274
# 5 -0.001177 0.001585 -0.001833 -0.000005 0.026051 0.000001
# 6 0.000000 0.000000 -0.000001 0.029274 0.000001 0.059352
#
#
# Mechanical properties :
#
#
# Convention : Reuss Voigt Hill
#
# Bulk Modulus (GPa) = 37.06248 40.86194 38.96221
# Shear Modulus (GPa) = 19.69780 27.13188 23.41484
#
# Velocity S-wave (km/s) = 2.99546 3.51557 3.26589
# Velocity P-wave (km/s) = 5.37090 5.92389 5.65416
#
# Compressibility (1/GPa) = 0.02698146
#
# Stress axis : x y z
#
# Youngs Moduli (GPa) = 67.81594 58.17798 101.46933
#
# Poissons Ratio (x) = 0.12465 0.31998
# Poissons Ratio (y) = 0.14530 0.21390
# Poissons Ratio (z) = 0.21386 0.12264
#
# Static dielectric constant tensor:
#      x y z
#    x 1.917620 0.000000 0.041070 
#    y 0.000000 1.791880 0.000000 
#    z 0.041070 0.000000 1.865750 
# 
# From -- ./inp_files/240219.got.cif
#   From: 2010.05.17/outbox.cif.g08.bks.cpg/sg15_121_cif.got.tgz:240219.got - 2010.06.03 18:47:42.
