data_PCOD9255963
_publ_section_title
;
Structure prediction by ZEFSAII (Michael W. Deem and Ramdas Pophale) SiO2 
 PCOD9255963
Probable space group: C 2/C
;
_chemical_formula_sum "Si O2"
_cell_formula_units_Z 56
_cell_length_a 24.468159
_cell_length_b 16.420933
_cell_length_c 19.976631
_cell_angle_alpha 90.000000
_cell_angle_beta 19.810198
_cell_angle_gamma 90.000000
_cell_volume 2720.193729
_symmetry_space_group_name_H-M "C 2/C"
_symmetry_group_IT_number 15
_symmetry_cell_setting 'monoclinic'
loop_
_space_group_symop_operation_xyz
x,y,z
-x,y,1/2-z
-x,-y,-z
x,-y,1/2+z
1/2+x,1/2+y,z
1/2-x,1/2+y,1/2-z
1/2-x,1/2-y,-z
1/2+x,1/2-y,1/2+z
loop_
_atom_site_type_symbol
_atom_site_label
_atom_site_fract_x
_atom_site_fract_y
_atom_site_fract_z
Si Si1 0.625475 0.829662 0.545051
Si Si2 0.948743 0.865660 0.564657
Si Si3 0.204005 0.284026 0.313376
Si Si4 0.960341 0.492652 0.720669
Si Si5 0.522314 0.493303 0.578584
Si Si6 0.609377 0.065125 0.834932
Si Si7 0.357623 0.399159 0.371379
O O1 0.500000 0.816230 0.750000
O O2 0.627430 0.777328 0.476057
O O3 0.792788 0.834981 0.391949
O O4 0.594635 0.922581 0.553871
O O5 0.810455 0.802815 0.705029
O O6 0.115325 0.816385 0.383175
O O7 0.922655 0.920116 0.660220
O O8 0.973234 0.931127 0.477716
O O9 0.112118 0.350019 0.372318
O O10 0.947766 0.558158 0.676450
O O11 0.000000 0.523631 0.750000
O O12 0.795757 0.437791 0.913503
O O13 0.704929 0.464237 0.377969
O O14 0.440657 0.525157 0.739040
O O15 0.500000 0.000000 0.000000
O O16 0.500000 0.361199 0.250000
#
# Coordination Sequence:
#
# PCOD9255963 Si02
#       7
#     8   8   8   8   8   8   8
#     4   9  19  35  56  85 124 153 197 240 291 366
#     4  10  24  39  59  85 119 157 198 249 306 348
#     4  11  22  40  56  86 124 155 199 253 300 357
#     4   9  19  32  55  88 117 152 196 242 293 356
#     4  10  21  39  62  87 114 155 208 246 293 363
#     4  11  21  34  61  91 116 156 201 241 302 360
#     4  10  17  33  60  85 113 152 203 245 289 348
#
# _framework density 20.586769
#
# number of rings (size 3 to 8) (size 9 to 14) (size 15 to 20)
#    0.000    2.286    4.286    0.000    2.000    0.000 
#    0.000    1.429    0.000    1.714    0.000    0.000 
#    0.000    0.000    0.000    0.000    0.000    0.000 
#
# Total GULP energy -156299.780518 kJ/mol
# GULP energy per Si atom -5582.135019 kJ/mol
# Density = 2.053991 g / cm^3
# Si number density = 20.586769 Si / 1000 Ang^3
#
#
#
# Elastic Constant Matrix: (Units=GPa)
#
#
# Indices 1 2 3 4 5 6 
#
# 1 128.1904 36.1440 18.5611 0.0060 -20.5556 -0.0018
# 2 36.1440 76.2941 5.3502 0.0070 -8.7863 -0.0048
# 3 18.5611 5.3502 36.4229 0.0081 -14.2225 -0.0026
# 4 0.0060 0.0070 0.0081 15.4951 -0.0009 -12.1127
# 5 -20.5556 -8.7863 -14.2225 -0.0009 28.5614 0.0007
# 6 -0.0018 -0.0048 -0.0026 -12.1127 0.0007 26.8641
#
#
#
# Elastic Compliance Matrix: (Units=1/GPa)
#
#
# Indices 1 2 3 4 5 6 
#
# 1 0.010084 -0.004050 -0.002727 -0.000001 0.004654 -0.000001
# 2 -0.004050 0.015221 0.000643 -0.000006 0.002088 0.000000
# 3 -0.002727 0.000643 0.034835 -0.000022 0.015582 -0.000007
# 4 -0.000001 -0.000006 -0.000022 0.099665 -0.000012 0.044938
# 5 0.004654 0.002088 0.015582 -0.000012 0.046763 -0.000004
# 6 -0.000001 0.000000 -0.000007 0.044938 -0.000004 0.057486
#
#
# Mechanical properties :
#
#
# Convention : Reuss Voigt Hill
#
# Bulk Modulus (GPa) = 20.88848 40.11310 30.50079
# Shear Modulus (GPa) = 17.10694 26.24092 21.67393
#
# Velocity S-wave (km/s) = 2.88578 3.57410 3.24822
# Velocity P-wave (km/s) = 4.61218 6.04644 5.37734
#
# Compressibility (1/GPa) = 0.04787327
#
# Stress axis : x y z
#
# Youngs Moduli (GPa) = 99.16854 65.69777 28.70694
#
# Poissons Ratio (x) = 0.26608 0.07827
# Poissons Ratio (y) = 0.40164 -0.01847
# Poissons Ratio (z) = 0.27040 -0.04227
#
# Static dielectric constant tensor:
#      x y z
#    x 1.793590 0.000000 -0.042240 
#    y 0.000000 1.711410 0.000000 
#    z -0.042240 0.000000 1.780340 
# 
# From -- ./inp_files/255882.got.cif
#   From: 2010.05.17/outbox.cif.g08.bks.cpg/sg15_128_cif.got.tgz:255882.got - 2010.06.03 18:47:42.
