data_PCOD9255529
_publ_section_title
;
Structure prediction by ZEFSAII (Michael W. Deem and Ramdas Pophale) SiO2 
 PCOD9255529
Probable space group: C 2/C
;
_chemical_formula_sum "Si O2"
_cell_formula_units_Z 48
_cell_length_a 20.054002
_cell_length_b 11.443214
_cell_length_c 9.569837
_cell_angle_alpha 90.000000
_cell_angle_beta 118.744655
_cell_angle_gamma 90.000000
_cell_volume 1925.484821
_symmetry_space_group_name_H-M "C 2/C"
_symmetry_group_IT_number 15
_symmetry_cell_setting 'monoclinic'
loop_
_space_group_symop_operation_xyz
x,y,z
-x,y,1/2-z
-x,-y,-z
x,-y,1/2+z
1/2+x,1/2+y,z
1/2-x,1/2+y,1/2-z
1/2-x,1/2-y,-z
1/2+x,1/2-y,1/2+z
loop_
_atom_site_type_symbol
_atom_site_label
_atom_site_fract_x
_atom_site_fract_y
_atom_site_fract_z
Si Si1 0.426693 0.345313 0.748596
Si Si2 0.008858 0.360185 0.495194
Si Si3 0.307842 0.357812 0.865581
Si Si4 0.182995 0.463469 0.309675
Si Si5 0.330291 0.218572 0.456296
Si Si6 0.379696 0.852936 0.545608
O O1 0.500000 0.405419 0.750000
O O2 0.460129 0.216984 0.832411
O O3 0.378804 0.387256 0.834746
O O4 0.364799 0.331971 0.564378
O O5 0.964962 0.321059 0.588683
O O6 0.000000 0.500000 0.500000
O O7 0.095426 0.329460 0.549882
O O8 0.261944 0.469761 0.867972
O O9 0.242629 0.285748 0.714790
O O10 0.335998 0.269697 0.014025
O O11 0.189002 0.363422 0.431379
O O12 0.154463 0.416691 0.130190
O O13 0.129718 0.557883 0.337511
#
# Coordination Sequence:
#
# PCOD9255529 Si02
#       6
#     8   8   8   8   8   8
#     4   9  20  34  56  84 115 152 198 237 289 359
#     4  10  17  31  53  85 121 151 186 233 291 362
#     4  11  22  37  56  85 121 155 198 245 289 351
#     4  12  21  37  57  87 120 161 193 239 296 348
#     4  11  20  33  57  86 114 161 192 233 293 352
#     4  11  24  37  58  89 125 159 194 237 298 358
#
# _framework density 24.928787
#
# number of rings (size 3 to 8) (size 9 to 14) (size 15 to 20)
#    0.000    1.333    6.667    1.000    0.000    0.000 
#    0.000    0.000    0.000    1.000    0.000    0.000 
#    0.000    0.000    0.000    0.000    0.000    0.000 
#
# Total GULP energy -133978.920463 kJ/mol
# GULP energy per Si atom -5582.455019 kJ/mol
# Density = 2.487205 g / cm^3
# Si number density = 24.928787 Si / 1000 Ang^3
#
#
#
# Elastic Constant Matrix: (Units=GPa)
#
#
# Indices 1 2 3 4 5 6 
#
# 1 202.2472 31.6625 10.2935 0.0000 4.7185 0.0000
# 2 31.6625 24.7865 18.2873 0.0000 -0.1281 0.0000
# 3 10.2935 18.2873 99.5016 0.0000 -4.9442 0.0000
# 4 0.0000 0.0000 0.0000 27.0239 0.0000 3.8805
# 5 4.7185 -0.1281 -4.9442 0.0000 31.3315 0.0000
# 6 0.0000 0.0000 0.0000 3.8805 0.0000 39.5210
#
#
#
# Elastic Compliance Matrix: (Units=1/GPa)
#
#
# Indices 1 2 3 4 5 6 
#
# 1 0.006279 -0.008694 0.000907 0.000000 -0.000838 0.000000
# 2 -0.008694 0.058754 -0.009900 0.000000 -0.000013 0.000000
# 3 0.000907 -0.009900 0.011860 0.000000 0.001695 0.000000
# 4 0.000000 0.000000 0.000000 0.037533 0.000000 -0.003685
# 5 -0.000838 -0.000013 0.001695 0.000000 0.032310 0.000000
# 6 0.000000 0.000000 0.000000 -0.003685 0.000000 0.025665
#
#
# Mechanical properties :
#
#
# Convention : Reuss Voigt Hill
#
# Bulk Modulus (GPa) = 24.08531 49.66911 36.87721
# Shear Modulus (GPa) = 22.56164 37.32809 29.94486
#
# Velocity S-wave (km/s) = 3.01166 3.87381 3.46962
# Velocity P-wave (km/s) = 4.66648 6.32267 5.55663
#
# Compressibility (1/GPa) = 0.04151909
#
# Stress axis : x y z
#
# Youngs Moduli (GPa) = 159.26273 17.02009 84.31756
#
# Poissons Ratio (x) = 0.14797 -0.07645
# Poissons Ratio (y) = 1.38463 0.83471
# Poissons Ratio (z) = -0.14440 0.16849
#
# Static dielectric constant tensor:
#      x y z
#    x 2.034670 0.000000 0.062120 
#    y 0.000000 2.054840 0.000000 
#    z 0.062120 0.000000 2.059770 
# 
# From -- ./inp_files/96512.got.cif
#   From: 2010.05.17/outbox.cif.g08.bks.cpg/sg15_49_cif.got.tgz:96512.got - 2010.06.03 18:47:42.
