data_PCOD9255604
_publ_section_title
;
Structure prediction by ZEFSAII (Michael W. Deem and Ramdas Pophale) SiO2 
 PCOD9255604
Probable space group: C 2/C
;
_chemical_formula_sum "Si O2"
_cell_formula_units_Z 48
_cell_length_a 24.064472
_cell_length_b 14.175790
_cell_length_c 14.528736
_cell_angle_alpha 90.000000
_cell_angle_beta 25.764788
_cell_angle_gamma 90.000000
_cell_volume 2154.362661
_symmetry_space_group_name_H-M "C 2/C"
_symmetry_group_IT_number 15
_symmetry_cell_setting 'monoclinic'
loop_
_space_group_symop_operation_xyz
x,y,z
-x,y,1/2-z
-x,-y,-z
x,-y,1/2+z
1/2+x,1/2+y,z
1/2-x,1/2+y,1/2-z
1/2-x,1/2-y,-z
1/2+x,1/2-y,1/2+z
loop_
_atom_site_type_symbol
_atom_site_label
_atom_site_fract_x
_atom_site_fract_y
_atom_site_fract_z
Si Si1 0.843395 0.949556 0.656706
Si Si2 0.164795 0.303163 0.846683
Si Si3 0.000000 0.762561 0.750000
Si Si4 0.203422 0.373510 0.403347
Si Si5 0.500000 0.258611 0.250000
Si Si6 0.089917 0.937514 0.728815
Si Si7 0.735355 0.384572 0.972645
O O1 0.794984 0.853744 0.685452
O O2 0.879742 0.928650 0.707963
O O3 0.724692 0.022330 0.835340
O O4 0.957946 0.001421 0.431743
O O5 0.183259 0.191993 0.803648
O O6 0.154669 0.351371 0.761889
O O7 0.066938 0.305222 0.075926
O O8 0.082233 0.838308 0.687572
O O9 0.076317 0.315783 0.571969
O O10 0.223457 0.373025 0.483496
O O11 0.608231 0.321057 0.140052
O O12 0.192786 0.006831 0.528356
#
# Coordination Sequence:
#
# PCOD9255604 Si02
#       7
#     8   8   4   8   4   8   8
#     4  10  21  38  63  91 120 157 206 251 301 367
#     4  11  22  37  58  90 122 158 196 254 306 359
#     4  12  23  37  60  88 130 160 190 254 320 364
#     4  10  21  39  61  91 123 159 207 257 298 364
#     4  10  17  31  60  90 118 152 192 258 304 346
#     4  10  20  39  66  88 115 163 210 249 296 364
#     4  10  21  38  65  92 116 159 218 257 288 356
#
# _framework density 22.280370000000001
#
# number of rings (size 3 to 8) (size 9 to 14) (size 15 to 20)
#    0.000    1.667    1.667    5.500    0.000    1.333 
#    6.000    0.000    0.000    6.000    0.000    0.000 
#    0.000    0.000    0.000    0.000    0.000    0.000 
#
# Total GULP energy -133838.653852 kJ/mol
# GULP energy per Si atom -5576.610577 kJ/mol
# Density = 2.222966 g / cm^3
# Si number density = 22.280370 Si / 1000 Ang^3
#
#
#
# Elastic Constant Matrix: (Units=GPa)
#
#
# Indices 1 2 3 4 5 6 
#
# 1 62.3628 23.0118 10.8413 0.0000 15.0696 0.0000
# 2 23.0118 86.8272 24.2898 0.0000 3.2427 0.0000
# 3 10.8413 24.2898 88.3303 0.0000 31.4579 0.0000
# 4 0.0000 0.0000 0.0000 15.2261 0.0000 7.7238
# 5 15.0696 3.2427 31.4579 0.0000 29.8989 0.0000
# 6 0.0000 0.0000 0.0000 7.7238 0.0000 28.5261
#
#
#
# Elastic Compliance Matrix: (Units=1/GPa)
#
#
# Indices 1 2 3 4 5 6 
#
# 1 0.021088 -0.006245 0.004275 0.000000 -0.014450 0.000000
# 2 -0.006245 0.014575 -0.006076 0.000000 0.007960 0.000000
# 3 0.004275 -0.006076 0.020790 0.000000 -0.023370 0.000000
# 4 0.000000 0.000000 0.000000 0.076134 0.000000 -0.020614
# 5 -0.014450 0.007960 -0.023370 0.000000 0.064455 0.000000
# 6 0.000000 0.000000 0.000000 -0.020614 0.000000 0.040637
#
#
# Mechanical properties :
#
#
# Convention : Reuss Voigt Hill
#
# Bulk Modulus (GPa) = 24.77665 39.31178 32.04421
# Shear Modulus (GPa) = 18.71081 26.68870 22.69976
#
# Velocity S-wave (km/s) = 2.90105 3.46476 3.19536
# Velocity P-wave (km/s) = 4.72927 5.80418 5.29408
#
# Compressibility (1/GPa) = 0.04036059
#
# Stress axis : x y z
#
# Youngs Moduli (GPa) = 47.41989 68.61111 48.09900
#
# Poissons Ratio (x) = 0.42850 -0.20563
# Poissons Ratio (y) = 0.29615 0.29227
# Poissons Ratio (z) = -0.20273 0.41690
#
# Static dielectric constant tensor:
#      x y z
#    x 1.857880 0.000000 0.001930 
#    y 0.000000 1.792340 0.000000 
#    z 0.001930 0.000000 1.896880 
# 
# From -- ./inp_files/173625.got.cif
#   From: 2010.05.17/outbox.cif.g08.bks.cpg/sg15_87_cif.got.tgz:173625.got - 2010.06.03 18:47:42.
