data_PCOD9255215
_publ_section_title
;
Structure prediction by ZEFSAII (Michael W. Deem and Ramdas Pophale) SiO2 
 PCOD9255215
Probable space group: C 2/C
;
_chemical_formula_sum "Si O2"
_cell_formula_units_Z 48
_cell_length_a 12.622328
_cell_length_b 14.221133
_cell_length_c 26.746656
_cell_angle_alpha 90.000000
_cell_angle_beta 144.547958
_cell_angle_gamma 90.000000
_cell_volume 2784.755735
_symmetry_space_group_name_H-M "C 2/C"
_symmetry_group_IT_number 15
_symmetry_cell_setting 'monoclinic'
loop_
_space_group_symop_operation_xyz
x,y,z
-x,y,1/2-z
-x,-y,-z
x,-y,1/2+z
1/2+x,1/2+y,z
1/2-x,1/2+y,1/2-z
1/2-x,1/2-y,-z
1/2+x,1/2-y,1/2+z
loop_
_atom_site_type_symbol
_atom_site_label
_atom_site_fract_x
_atom_site_fract_y
_atom_site_fract_z
Si Si1 0.810411 0.940143 0.291982
Si Si2 0.231932 0.653624 0.063574
Si Si3 0.868893 0.335196 0.366687
Si Si4 0.860179 0.964167 0.152632
Si Si5 0.840065 0.157517 0.297977
Si Si6 0.283781 0.772565 0.177834
O O1 0.668731 0.898937 0.196657
O O2 0.792701 0.872377 0.332730
O O3 0.009477 0.932458 0.342370
O O4 0.781895 0.051469 0.287291
O O5 0.231082 0.549294 0.086966
O O6 0.439555 0.661239 0.123823
O O7 0.201064 0.728777 0.095854
O O8 0.079226 0.665041 0.963143
O O9 0.753522 0.380649 0.366940
O O10 0.797183 0.232580 0.324276
O O11 0.000000 0.999869 0.250000
O O12 0.763827 0.198655 0.216221
O O13 0.500000 0.782452 0.250000
#
# Coordination Sequence:
#
# PCOD9255215 Si02
#       6
#     8   8   8   8   8   8
#     4   9  18  33  48  65  92 126 153 182 230 283
#     4  10  17  29  50  74  92 115 156 200 227 259
#     4  10  18  29  50  74  91 117 158 196 225 266
#     4   9  17  30  48  68  93 123 153 187 229 273
#     4   9  18  32  49  68  95 125 152 187 232 273
#     4   9  17  31  50  69  91 122 157 188 225 274
#
# _framework density 17.236699999999999
#
# number of rings (size 3 to 8) (size 9 to 14) (size 15 to 20)
#    0.000    2.667    0.000    4.500    0.000    0.000 
#    0.000    5.833    0.000   10.000    0.000    0.000 
#    0.000    0.000    0.000    0.000    0.000    0.000 
#
# Total GULP energy -133752.514290 kJ/mol
# GULP energy per Si atom -5573.021429 kJ/mol
# Density = 1.719747 g / cm^3
# Si number density = 17.236700 Si / 1000 Ang^3
#
#
#
# Elastic Constant Matrix: (Units=GPa)
#
#
# Indices 1 2 3 4 5 6 
#
# 1 40.5740 43.6158 -4.7484 0.0000 -11.8288 0.0000
# 2 43.6158 153.4656 30.5915 0.0000 -14.6449 0.0000
# 3 -4.7484 30.5915 63.1995 0.0001 -7.7357 0.0000
# 4 0.0000 0.0000 0.0001 17.3355 0.0000 -2.6197
# 5 -11.8288 -14.6449 -7.7357 0.0000 6.7227 0.0000
# 6 0.0000 0.0000 0.0000 -2.6197 0.0000 30.8412
#
#
#
# Elastic Compliance Matrix: (Units=1/GPa)
#
#
# Indices 1 2 3 4 5 6 
#
# 1 0.107893 -0.020552 0.041682 0.000000 0.193033 0.000000
# 2 -0.020552 0.012383 -0.010083 0.000000 -0.020787 0.000000
# 3 0.041682 -0.010083 0.035062 0.000000 0.091721 0.000000
# 4 0.000000 0.000000 0.000000 0.058435 -0.000001 0.004964
# 5 0.193033 -0.020787 0.091721 -0.000001 0.548658 0.000000
# 6 0.000000 0.000000 0.000000 0.004964 0.000000 0.032846
#
#
# Mechanical properties :
#
#
# Convention : Reuss Voigt Hill
#
# Bulk Modulus (GPa) = 5.63594 44.01745 24.82669
# Shear Modulus (GPa) = 6.00726 23.49856 14.75291
#
# Velocity S-wave (km/s) = 1.86888 3.69628 2.92875
# Velocity P-wave (km/s) = 2.81670 6.61884 5.08640
#
# Compressibility (1/GPa) = 0.17743279
#
# Stress axis : x y z
#
# Youngs Moduli (GPa) = 9.26844 80.75473 28.52113
#
# Poissons Ratio (x) = 1.65965 -1.18881
# Poissons Ratio (y) = 0.19048 0.28757
# Poissons Ratio (z) = -0.38632 0.81421
#
# Static dielectric constant tensor:
#      x y z
#    x 1.595830 0.000000 -0.003220 
#    y 0.000000 1.607150 0.000000 
#    z -0.003220 0.000000 1.576960 
# 
# From -- ./inp_files/143421.got.cif
#   From: 2010.05.17/outbox.cif.g08.bks.cpg/sg15_72_cif.got.tgz:143421.got - 2010.06.03 18:47:42.
