data_PCOD9255052
_publ_section_title
;
Structure prediction by ZEFSAII (Michael W. Deem and Ramdas Pophale) SiO2 
 PCOD9255052
Probable space group: C 2/C
;
_chemical_formula_sum "Si O2"
_cell_formula_units_Z 60
_cell_length_a 19.952031
_cell_length_b 24.672529
_cell_length_c 8.198374
_cell_angle_alpha 90.000000
_cell_angle_beta 51.143946
_cell_angle_gamma 90.000000
_cell_volume 3142.768433
_symmetry_space_group_name_H-M "C 2/C"
_symmetry_group_IT_number 15
_symmetry_cell_setting 'monoclinic'
loop_
_space_group_symop_operation_xyz
x,y,z
-x,y,1/2-z
-x,-y,-z
x,-y,1/2+z
1/2+x,1/2+y,z
1/2-x,1/2+y,1/2-z
1/2-x,1/2-y,-z
1/2+x,1/2-y,1/2+z
loop_
_atom_site_type_symbol
_atom_site_label
_atom_site_fract_x
_atom_site_fract_y
_atom_site_fract_z
Si Si1 0.857728 0.553424 0.535139
Si Si2 0.488552 0.217346 0.557485
Si Si3 0.423393 0.312784 0.265091
Si Si4 0.100393 0.435085 0.149483
Si Si5 0.166499 0.672080 0.392457
Si Si6 0.748998 0.355813 0.089764
Si Si7 0.000000 0.368843 0.750000
Si Si8 0.815902 0.255552 0.195019
O O1 0.864583 0.491206 0.477917
O O2 0.889149 0.560827 0.672238
O O3 0.770624 0.585141 0.627715
O O4 0.923430 0.590012 0.329707
O O5 0.530521 0.273669 0.433372
O O6 0.568542 0.195242 0.542529
O O7 0.483262 0.170864 0.425768
O O8 0.387172 0.232001 0.723444
O O9 0.500000 0.340234 0.250000
O O10 0.351206 0.350022 0.298139
O O11 0.371625 0.272103 0.464328
O O12 0.000000 0.429261 0.250000
O O13 0.155740 0.384432 0.002397
O O14 0.240437 0.712572 0.345215
O O15 0.198668 0.659748 0.156723
O O16 0.775849 0.310326 0.181404
#
# Coordination Sequence:
#
# PCOD9255052 Si02
#       8
#     8   8   8   8   8   8   4   8
#     4  12  24  39  57  82 109 154 189 238 282 340
#     4  11  15  28  54  86 115 154 188 226 271 332
#     4   9  15  26  47  87 117 145 190 230 266 331
#     4  12  27  40  57  80 115 151 198 232 289 345
#     4  11  20  35  54  83 118 153 195 236 274 337
#     4  11  18  32  58  85 115 153 190 236 282 329
#     4  12  18  30  58  78 116 146 186 226 268 326
#     4  10  17  27  53  86 115 153 191 231 275 328
#
# _framework density 19.091448
#
# number of rings (size 3 to 8) (size 9 to 14) (size 15 to 20)
#    0.000    1.067    8.000    2.800    0.000    0.000 
#    0.000    0.667    0.000    0.000    0.000   17.733 
#    0.000    0.000    0.000    0.000    0.000    0.000 
#
# Total GULP energy -167410.622022 kJ/mol
# GULP energy per Si atom -5580.354067 kJ/mol
# Density = 1.904800 g / cm^3
# Si number density = 19.091448 Si / 1000 Ang^3
#
#
#
# Elastic Constant Matrix: (Units=GPa)
#
#
# Indices 1 2 3 4 5 6 
#
# 1 150.2398 70.8636 42.2099 0.0000 -25.7840 0.0000
# 2 70.8636 126.8019 43.8844 0.0000 -10.8776 0.0000
# 3 42.2099 43.8844 56.3635 0.0000 -13.9793 0.0000
# 4 0.0000 0.0000 0.0000 9.3595 0.0000 -11.3667
# 5 -25.7840 -10.8776 -13.9793 0.0000 25.3934 0.0000
# 6 0.0000 0.0000 0.0000 -11.3667 0.0000 26.6094
#
#
#
# Elastic Compliance Matrix: (Units=1/GPa)
#
#
# Indices 1 2 3 4 5 6 
#
# 1 0.010829 -0.004443 -0.002774 0.000000 0.007566 0.000000
# 2 -0.004443 0.012618 -0.007268 0.000000 -0.003107 0.000000
# 3 -0.002774 -0.007268 0.027804 0.000000 0.009376 0.000000
# 4 0.000000 0.000000 0.000000 0.222026 0.000000 0.094843
# 5 0.007566 -0.003107 0.009376 0.000000 0.050893 0.000000
# 6 0.000000 0.000000 0.000000 0.094843 0.000000 0.078095
#
#
# Mechanical properties :
#
#
# Convention : Reuss Voigt Hill
#
# Bulk Modulus (GPa) = 44.88105 71.92455 58.40280
# Shear Modulus (GPa) = 11.39830 24.03560 17.71695
#
# Velocity S-wave (km/s) = 2.44608 3.55205 3.04962
# Velocity P-wave (km/s) = 5.61580 7.38771 6.56184
#
# Compressibility (1/GPa) = 0.02228112
#
# Stress axis : x y z
#
# Youngs Moduli (GPa) = 92.34061 79.25220 35.96644
#
# Poissons Ratio (x) = 0.35211 0.09979
# Poissons Ratio (y) = 0.41026 0.26139
# Poissons Ratio (z) = 0.25619 0.57598
#
# Static dielectric constant tensor:
#      x y z
#    x 1.740520 0.000000 0.027900 
#    y 0.000000 1.633370 0.000000 
#    z 0.027900 0.000000 1.785250 
# 
# From -- ./inp_files/58068.got.cif
#   From: 2010.05.17/outbox.cif.g08.bks.cpg/sg15_30_cif.got.tgz:58068.got - 2010.06.03 18:47:42.
