data_PCOD9255102
_publ_section_title
;
Structure prediction by ZEFSAII (Michael W. Deem and Ramdas Pophale) SiO2 
 PCOD9255102
Probable space group: C 2/C
;
_chemical_formula_sum "Si O2"
_cell_formula_units_Z 40
_cell_length_a 18.493879
_cell_length_b 21.476584
_cell_length_c 10.672073
_cell_angle_alpha 90.000000
_cell_angle_beta 26.205851
_cell_angle_gamma 90.000000
_cell_volume 1871.839417
_symmetry_space_group_name_H-M "C 2/C"
_symmetry_group_IT_number 15
_symmetry_cell_setting 'monoclinic'
loop_
_space_group_symop_operation_xyz
x,y,z
-x,y,1/2-z
-x,-y,-z
x,-y,1/2+z
1/2+x,1/2+y,z
1/2-x,1/2+y,1/2-z
1/2-x,1/2-y,-z
1/2+x,1/2-y,1/2+z
loop_
_atom_site_type_symbol
_atom_site_label
_atom_site_fract_x
_atom_site_fract_y
_atom_site_fract_z
Si Si1 0.143253 0.481025 0.629494
Si Si2 0.658850 0.193163 0.911052
Si Si3 0.535078 0.103547 0.889516
Si Si4 0.215753 0.837504 0.821299
Si Si5 0.110253 0.122615 0.766184
O O1 0.077651 0.443222 0.851786
O O2 0.308946 0.444944 0.338267
O O3 0.000000 0.472196 0.750000
O O4 0.153832 0.554248 0.638723
O O5 0.500000 0.187934 0.250000
O O6 0.622895 0.151443 0.845737
O O7 0.687747 0.265154 0.836253
O O8 0.813345 0.166286 0.746291
O O9 0.401082 0.140625 0.017872
O O10 0.172230 0.848755 0.036338
O O11 0.083848 0.875794 0.946299
#
# Coordination Sequence:
#
# PCOD9255102 Si02
#       5
#     8   8   8   8   8
#     4  10  18  34  51  66 101 134 171 194 233 298
#     4  12  16  29  49  75 105 130 153 197 253 303
#     4  10  20  31  51  75  95 135 167 194 242 299
#     4  10  19  27  47  78 106 122 155 202 254 295
#     4  10  17  28  47  72 103 133 151 197 253 289
#
# _framework density 21.369354000000001
#
# number of rings (size 3 to 8) (size 9 to 14) (size 15 to 20)
#    0.000    1.600    8.000    1.800    0.000    0.000 
#    0.000    1.000    8.800    1.200    0.000    0.000 
#    0.000    0.000    0.000    0.000    0.000    0.000 
#
# Total GULP energy -111693.656149 kJ/mol
# GULP energy per Si atom -5584.682807 kJ/mol
# Density = 2.132072 g / cm^3
# Si number density = 21.369354 Si / 1000 Ang^3
#
#
#
# Elastic Constant Matrix: (Units=GPa)
#
#
# Indices 1 2 3 4 5 6 
#
# 1 96.3320 64.8866 65.0881 0.0139 -53.0507 -0.0474
# 2 64.8866 174.3023 52.7967 0.0009 -26.3111 -0.0194
# 3 65.0881 52.7967 47.0984 0.0015 -18.8967 -0.0513
# 4 0.0139 0.0009 0.0015 14.5217 -0.0006 -93.0047
# 5 -53.0507 -26.3111 -18.8967 -0.0006 33.5109 0.0169
# 6 -0.0474 -0.0194 -0.0513 -93.0047 0.0169 358.2254
#
#
#
# Elastic Compliance Matrix: (Units=1/GPa)
#
#
# Indices 1 2 3 4 5 6 
#
# 1 -0.043152 -0.005069 0.046928 -0.000081 -0.045830 -0.000018
# 2 -0.005069 0.008169 -0.003616 -0.000001 -0.003650 -0.000001
# 3 0.046928 -0.003616 -0.014086 0.000052 0.063509 0.000014
# 4 -0.000081 -0.000001 0.000052 -0.103898 -0.000088 -0.026975
# 5 -0.045830 -0.003650 0.063509 -0.000088 -0.009766 -0.000020
# 6 -0.000018 -0.000001 0.000014 -0.026975 -0.000020 -0.004212
#
#
# Mechanical properties :
#
#
# Convention : Reuss Voigt Hill
#
# Bulk Modulus (GPa) = 36.47388 75.91949 56.19669
# Shear Modulus (GPa) = -21.34092 90.24901 34.45405
#
# Velocity S-wave (km/s) = -3.16360 6.50574 4.01972
# Velocity P-wave (km/s) = 1.93930 9.59360 6.92091
#
# Compressibility (1/GPa) = 0.02741688
#
# Stress axis : x y z
#
# Youngs Moduli (GPa) = -23.17416 122.42130 -70.99249
#
# Poissons Ratio (x) = 0.62056 3.33155
# Poissons Ratio (y) = -0.11747 -0.25672
# Poissons Ratio (z) = 1.08752 0.44270
#
# Static dielectric constant tensor:
#      x y z
#    x 1.798170 0.000000 0.024350 
#    y 0.000000 1.767480 0.000000 
#    z 0.024350 0.000000 1.821920 
# 
# From -- ./inp_files/30304.got.cif
#   From: 2010.05.17/outbox.cif.g08.bks.cpg/sg15_16_cif.got.tgz:30304.got - 2010.06.03 18:47:42.
