data_PCOD9255147
_publ_section_title
;
Structure prediction by ZEFSAII (Michael W. Deem and Ramdas Pophale) SiO2 
 PCOD9255147
Probable space group: C 2/C
;
_chemical_formula_sum "Si O2"
_cell_formula_units_Z 48
_cell_length_a 12.521334
_cell_length_b 13.834429
_cell_length_c 24.090090
_cell_angle_alpha 90.000000
_cell_angle_beta 152.862234
_cell_angle_gamma 90.000000
_cell_volume 1903.445326
_symmetry_space_group_name_H-M "C 2/C"
_symmetry_group_IT_number 15
_symmetry_cell_setting 'monoclinic'
loop_
_space_group_symop_operation_xyz
x,y,z
-x,y,1/2-z
-x,-y,-z
x,-y,1/2+z
1/2+x,1/2+y,z
1/2-x,1/2+y,1/2-z
1/2-x,1/2-y,-z
1/2+x,1/2-y,1/2+z
loop_
_atom_site_type_symbol
_atom_site_label
_atom_site_fract_x
_atom_site_fract_y
_atom_site_fract_z
Si Si1 0.084537 0.610945 0.423652
Si Si2 0.259820 0.441705 0.897540
Si Si3 0.494324 0.303584 0.313888
Si Si4 0.581806 0.711587 0.491655
Si Si5 0.246116 0.364612 0.644233
Si Si6 0.082659 0.705345 0.694222
O O1 0.214933 0.543592 0.441832
O O2 0.269115 0.655141 0.551399
O O3 0.994752 0.693615 0.338887
O O4 0.890027 0.571090 0.374806
O O5 0.372087 0.338602 0.928807
O O6 0.000000 0.458745 0.750000
O O7 0.500000 0.500000 0.000000
O O8 0.500000 0.312255 0.250000
O O9 0.276070 0.350846 0.247348
O O10 0.619249 0.821688 0.531642
O O11 0.508023 0.717832 0.393521
O O12 0.843922 0.665882 0.611495
O O13 0.500000 0.406058 0.750000
O O14 0.286270 0.263349 0.696555
#
# Coordination Sequence:
#
# PCOD9255147 Si02
#       6
#     8   8   8   8   8   8
#     4  10  19  32  52  81 117 155 191 230 289 354
#     4  12  26  41  58  80 112 157 201 242 283 338
#     4  10  17  28  52  86 122 150 181 236 295 351
#     4  10  19  33  52  81 113 141 179 222 284 347
#     4   9  17  29  51  83 116 143 172 225 287 345
#     4   9  17  28  49  79 110 143 171 221 286 338
#
# _framework density 25.21743
#
# number of rings (size 3 to 8) (size 9 to 14) (size 15 to 20)
#    0.000    2.000    0.000    7.500    0.000    3.333 
#    0.000    0.000    0.000    0.000    0.000   47.833 
#    0.000    0.000    0.000    0.000    0.000    0.000 
#
# Total GULP energy -133698.435917 kJ/mol
# GULP energy per Si atom -5570.768163 kJ/mol
# Density = 2.516003 g / cm^3
# Si number density = 25.217430 Si / 1000 Ang^3
#
#
#
# Elastic Constant Matrix: (Units=GPa)
#
#
# Indices 1 2 3 4 5 6 
#
# 1 210.3601 -0.9743 45.6786 -0.0005 37.1481 0.0002
# 2 -0.9743 21.8654 -0.0678 -0.0002 6.3468 -0.0001
# 3 45.6786 -0.0678 123.1232 0.0010 12.5101 -0.0002
# 4 -0.0005 -0.0002 0.0010 11.9153 -0.0006 10.0352
# 5 37.1481 6.3468 12.5101 -0.0006 71.1921 0.0000
# 6 0.0002 -0.0001 -0.0002 10.0352 0.0000 13.0208
#
#
#
# Elastic Compliance Matrix: (Units=1/GPa)
#
#
# Indices 1 2 3 4 5 6 
#
# 1 0.005631 0.001032 -0.001813 0.000001 -0.002712 -0.000001
# 2 0.001032 0.047164 0.000127 0.000001 -0.004766 0.000000
# 3 -0.001813 0.000127 0.008858 -0.000003 -0.000622 0.000002
# 4 0.000001 0.000001 -0.000003 0.239173 0.000002 -0.184333
# 5 -0.002712 -0.004766 -0.000622 0.000002 0.015996 -0.000002
# 6 -0.000001 0.000000 0.000002 -0.184333 -0.000002 0.218868
#
#
# Mechanical properties :
#
#
# Convention : Reuss Voigt Hill
#
# Bulk Modulus (GPa) = 16.57106 49.40243 32.98674
# Shear Modulus (GPa) = 8.97485 39.93978 24.45732
#
# Velocity S-wave (km/s) = 1.88857 3.98404 3.11763
# Velocity P-wave (km/s) = 3.36766 6.38721 5.10576
#
# Compressibility (1/GPa) = 0.06034617
#
# Stress axis : x y z
#
# Youngs Moduli (GPa) = 177.58516 21.20255 112.89446
#
# Poissons Ratio (x) = -0.02189 0.20468
# Poissons Ratio (y) = -0.18334 -0.01436
# Poissons Ratio (z) = 0.32197 -0.00270
#
# Static dielectric constant tensor:
#      x y z
#    x 2.058310 0.000000 0.097260 
#    y 0.000000 2.133230 0.000000 
#    z 0.097260 0.000000 2.041140 
# 
# From -- ./inp_files/270646.got.cif
#   From: 2010.05.17/outbox.cif.g08.bks.cpg/sg15_136_cif.got.tgz:270646.got - 2010.06.03 18:47:42.
