data_PCOD9255441
_publ_section_title
;
Structure prediction by ZEFSAII (Michael W. Deem and Ramdas Pophale) SiO2 
 PCOD9255441
Probable space group: C 2/C
;
_chemical_formula_sum "Si O2"
_cell_formula_units_Z 56
_cell_length_a 12.539735
_cell_length_b 27.379262
_cell_length_c 12.382449
_cell_angle_alpha 90.000000
_cell_angle_beta 43.994702
_cell_angle_gamma 90.000000
_cell_volume 2952.883606
_symmetry_space_group_name_H-M "C 2/C"
_symmetry_group_IT_number 15
_symmetry_cell_setting 'monoclinic'
loop_
_space_group_symop_operation_xyz
x,y,z
-x,y,1/2-z
-x,-y,-z
x,-y,1/2+z
1/2+x,1/2+y,z
1/2-x,1/2+y,1/2-z
1/2-x,1/2-y,-z
1/2+x,1/2-y,1/2+z
loop_
_atom_site_type_symbol
_atom_site_label
_atom_site_fract_x
_atom_site_fract_y
_atom_site_fract_z
Si Si1 0.670760 0.641536 0.116313
Si Si2 0.877766 0.295970 0.051523
Si Si3 0.815473 0.363824 0.905291
Si Si4 0.897081 0.459805 0.929278
Si Si5 0.862586 0.359436 0.275596
Si Si6 0.434354 0.934437 0.476668
Si Si7 0.757846 0.302070 0.752556
O O1 0.500000 0.621788 0.250000
O O2 0.803467 0.605766 0.061967
O O3 0.684977 0.687260 0.188120
O O4 0.714791 0.647113 0.958408
O O5 0.852607 0.331548 0.171302
O O6 0.814119 0.243999 0.134331
O O7 0.796788 0.321202 0.007626
O O8 0.059970 0.293650 0.895711
O O9 0.778102 0.417352 0.981114
O O10 0.739899 0.347826 0.848033
O O11 0.000000 0.366051 0.750000
O O12 0.000000 0.469005 0.750000
O O13 0.999139 0.437890 0.951845
O O14 0.859776 0.514015 0.997899
O O15 0.000000 0.338387 0.250000
O O16 0.923136 0.414104 0.200346
#
# Coordination Sequence:
#
# PCOD9255441 Si02
#       7
#     8   8   8   8   8   8   8
#     4  11  23  38  56  81 120 156 187 236 291 348
#     4  11  21  37  58  83 114 150 192 245 292 338
#     4   9  18  36  57  85 117 143 190 250 286 338
#     4  10  17  30  65  93 112 145 197 240 291 342
#     4  10  19  37  56  79 119 145 191 245 283 337
#     4  10  19  36  60  93 115 149 193 242 290 342
#     4  11  23  37  58  83 112 156 197 239 290 345
#
# _framework density 18.964513
#
# number of rings (size 3 to 8) (size 9 to 14) (size 15 to 20)
#    0.000    1.714    4.286    3.429    2.000    1.143 
#    0.000    0.000    0.000   15.429    0.000    0.000 
#    0.000    0.000    0.000    0.000    0.000    0.000 
#
# Total GULP energy -155985.276415 kJ/mol
# GULP energy per Si atom -5570.902729 kJ/mol
# Density = 1.892135 g / cm^3
# Si number density = 18.964513 Si / 1000 Ang^3
#
#
#
# Elastic Constant Matrix: (Units=GPa)
#
#
# Indices 1 2 3 4 5 6 
#
# 1 29.9660 7.3140 30.0166 0.0000 19.2396 0.0000
# 2 7.3140 97.7849 23.4946 0.0000 9.8530 0.0000
# 3 30.0166 23.4946 89.8032 0.0000 17.2139 0.0000
# 4 0.0000 0.0000 0.0000 23.7828 0.0000 6.8219
# 5 19.2396 9.8530 17.2139 0.0000 28.4658 0.0000
# 6 0.0000 0.0000 0.0000 6.8219 0.0000 -11.4803
#
#
#
# Elastic Compliance Matrix: (Units=1/GPa)
#
#
# Indices 1 2 3 4 5 6 
#
# 1 0.079503 0.002992 -0.019068 0.000000 -0.043240 0.000000
# 2 0.002992 0.011162 -0.003158 0.000000 -0.003976 0.000000
# 3 -0.019068 -0.003158 0.017708 0.000000 0.003273 0.000000
# 4 0.000000 0.000000 0.000000 0.035924 0.000000 0.021347
# 5 -0.043240 -0.003976 0.003273 0.000000 0.063752 0.000000
# 6 0.000000 0.000000 0.000000 0.021347 0.000000 -0.074421
#
#
# Mechanical properties :
#
#
# Convention : Reuss Voigt Hill
#
# Bulk Modulus (GPa) = 14.30527 37.68938 25.99733
# Shear Modulus (GPa) = 25.58857 18.60225 22.09541
#
# Velocity S-wave (km/s) = 3.67725 3.13533 3.41705
# Velocity P-wave (km/s) = 5.05857 5.74663 5.41354
#
# Compressibility (1/GPa) = 0.06990431
#
# Stress axis : x y z
#
# Youngs Moduli (GPa) = 12.57807 89.58819 56.47183
#
# Poissons Ratio (x) = -0.26803 1.07682
# Poissons Ratio (y) = -0.03763 0.17835
# Poissons Ratio (z) = 0.23984 0.28294
#
# Static dielectric constant tensor:
#      x y z
#    x 1.646990 0.000000 0.026690 
#    y 0.000000 1.722290 0.000000 
#    z 0.026690 0.000000 1.698110 
# 
# From -- ./inp_files/91972.got.cif
#   From: 2010.05.17/outbox.cif.g08.bks.cpg/sg15_46_cif.got.tgz:91972.got - 2010.06.03 18:47:42.
