data_PCOD9255042
_publ_section_title
;
Structure prediction by ZEFSAII (Michael W. Deem and Ramdas Pophale) SiO2 
 PCOD9255042
Probable space group: C 2/C
;
_chemical_formula_sum "Si O2"
_cell_formula_units_Z 56
_cell_length_a 26.546102
_cell_length_b 11.492335
_cell_length_c 20.764219
_cell_angle_alpha 90.000000
_cell_angle_beta 31.628001
_cell_angle_gamma 90.000000
_cell_volume 3321.919095
_symmetry_space_group_name_H-M "C 2/C"
_symmetry_group_IT_number 15
_symmetry_cell_setting 'monoclinic'
loop_
_space_group_symop_operation_xyz
x,y,z
-x,y,1/2-z
-x,-y,-z
x,-y,1/2+z
1/2+x,1/2+y,z
1/2-x,1/2+y,1/2-z
1/2-x,1/2-y,-z
1/2+x,1/2-y,1/2+z
loop_
_atom_site_type_symbol
_atom_site_label
_atom_site_fract_x
_atom_site_fract_y
_atom_site_fract_z
Si Si1 0.272319 0.030324 0.979476
Si Si2 0.993764 0.858557 0.680181
Si Si3 0.934624 0.354159 0.756585
Si Si4 0.497822 0.027182 0.577223
Si Si5 0.655824 0.172195 0.472732
Si Si6 0.330394 0.803340 0.304977
Si Si7 0.569819 0.589283 0.735040
O O1 0.270807 0.123648 0.923016
O O2 0.341155 0.927137 0.879456
O O3 0.319376 0.098227 0.989328
O O4 0.170353 0.972312 0.107043
O O5 0.897558 0.788955 0.768077
O O6 0.000000 0.868177 0.750000
O O7 0.082111 0.778524 0.563927
O O8 0.984372 0.990127 0.663889
O O9 0.914100 0.220671 0.759024
O O10 0.000000 0.357865 0.750000
O O11 0.982360 0.421783 0.644598
O O12 0.597349 0.088946 0.489004
O O13 0.406222 0.111596 0.688861
O O14 0.500000 0.000000 0.500000
O O15 0.755608 0.231465 0.343455
O O16 0.500000 0.605778 0.750000
#
# Coordination Sequence:
#
# PCOD9255042 Si02
#       7
#     8   8   8   8   8   8   8
#     4  11  18  31  54  88 113 142 183 231 280 327
#     4  10  17  27  48  84 115 144 170 232 287 323
#     4  10  20  36  56  82 109 148 184 222 276 340
#     4  10  23  40  60  79 111 148 189 229 279 331
#     4  11  19  32  58  80 112 139 189 233 280 323
#     4  10  19  31  57  83 112 136 191 231 284 329
#     4  10  20  30  47  79 127 141 177 222 283 331
#
# _framework density 16.857724999999999
#
# number of rings (size 3 to 8) (size 9 to 14) (size 15 to 20)
#    0.000    1.714    4.286    2.571    0.000    0.000 
#    0.000    1.429    9.429    1.714    0.000    0.000 
#    0.000    0.000    0.000    0.000    0.000    0.000 
#
# Total GULP energy -155901.595869 kJ/mol
# GULP energy per Si atom -5567.914138 kJ/mol
# Density = 1.681936 g / cm^3
# Si number density = 16.857725 Si / 1000 Ang^3
#
#
#
# Elastic Constant Matrix: (Units=GPa)
#
#
# Indices 1 2 3 4 5 6 
#
# 1 87.9509 46.4429 52.7416 0.0000 -5.9359 0.0000
# 2 46.4429 146.4496 46.2236 -0.0001 -6.1197 0.0000
# 3 52.7416 46.2236 58.0747 0.0000 -14.6745 0.0000
# 4 0.0000 -0.0001 0.0000 8.9094 0.0000 -11.7493
# 5 -5.9359 -6.1197 -14.6745 0.0000 32.5356 0.0000
# 6 0.0000 0.0000 0.0000 -11.7493 0.0000 20.9711
#
#
#
# Elastic Compliance Matrix: (Units=1/GPa)
#
#
# Indices 1 2 3 4 5 6 
#
# 1 0.026266 -0.000735 -0.024934 0.000000 -0.006592 0.000000
# 2 -0.000735 0.009230 -0.007081 0.000000 -0.001592 0.000000
# 3 -0.024934 -0.007081 0.049675 0.000000 0.016524 0.000000
# 4 0.000000 0.000000 0.000000 0.429795 0.000000 0.240798
# 5 -0.006592 -0.001592 0.016524 0.000000 0.036686 0.000000
# 6 0.000000 0.000000 0.000000 0.240798 0.000000 0.182595
#
#
# Mechanical properties :
#
#
# Convention : Reuss Voigt Hill
#
# Bulk Modulus (GPa) = 50.83947 64.81017 57.82482
# Shear Modulus (GPa) = 6.20114 22.28769 14.24441
#
# Velocity S-wave (km/s) = 1.92003 3.64002 2.91000
# Velocity P-wave (km/s) = 5.92780 7.49634 6.75773
#
# Compressibility (1/GPa) = 0.01966976
#
# Stress axis : x y z
#
# Youngs Moduli (GPa) = 38.07264 108.34427 20.13080
#
# Poissons Ratio (x) = 0.07963 0.50195
# Poissons Ratio (y) = 0.02798 0.14255
# Poissons Ratio (z) = 0.94932 0.76719
#
# Static dielectric constant tensor:
#      x y z
#    x 1.563430 0.000000 -0.032870 
#    y 0.000000 1.630380 0.000000 
#    z -0.032870 0.000000 1.579630 
# 
# From -- ./inp_files/252431.got.cif
#   From: 2010.05.17/outbox.cif.g08.bks.cpg/sg15_127_cif.got.tgz:252431.got - 2010.06.03 18:47:42.
