data_PCOD9255241
_publ_section_title
;
Structure prediction by ZEFSAII (Michael W. Deem and Ramdas Pophale) SiO2 
 PCOD9255241
Probable space group: C 2/C
;
_chemical_formula_sum "Si O2"
_cell_formula_units_Z 60
_cell_length_a 28.563762
_cell_length_b 8.619752
_cell_length_c 18.473811
_cell_angle_alpha 90.000000
_cell_angle_beta 31.058083
_cell_angle_gamma 90.000000
_cell_volume 2346.593626
_symmetry_space_group_name_H-M "C 2/C"
_symmetry_group_IT_number 15
_symmetry_cell_setting 'monoclinic'
loop_
_space_group_symop_operation_xyz
x,y,z
-x,y,1/2-z
-x,-y,-z
x,-y,1/2+z
1/2+x,1/2+y,z
1/2-x,1/2+y,1/2-z
1/2-x,1/2-y,-z
1/2+x,1/2-y,1/2+z
loop_
_atom_site_type_symbol
_atom_site_label
_atom_site_fract_x
_atom_site_fract_y
_atom_site_fract_z
Si Si1 0.866987 0.037737 0.799292
Si Si2 0.605621 0.479081 0.401027
Si Si3 0.195594 0.448879 0.831704
Si Si4 0.621172 0.178702 0.722167
Si Si5 0.164890 0.359465 0.709625
Si Si6 0.930565 0.752262 0.933046
Si Si7 0.000000 0.015114 0.750000
Si Si8 0.550337 0.187097 0.981802
O O1 0.808226 0.193510 0.861131
O O2 0.914447 0.021433 0.657170
O O3 0.840594 0.853418 0.844886
O O4 0.936474 0.086274 0.771774
O O5 0.713262 0.467862 0.267919
O O6 0.564818 0.331361 0.493917
O O7 0.580743 0.644003 0.467531
O O8 0.205354 0.383607 0.736797
O O9 0.165335 0.332317 0.935707
O O10 0.108749 0.559437 0.945445
O O11 0.589369 0.176783 0.848381
O O12 0.678006 0.017176 0.644805
O O13 0.528175 0.168091 0.797341
O O14 0.055207 0.347484 0.867071
O O15 0.930469 0.899622 0.882156
#
# Coordination Sequence:
#
# PCOD9255241 Si02
#       8
#     8   8   8   8   8   8   4   8
#     4  10  21  38  59  89 121 163 207 260 316 368
#     4  11  22  34  60  91 125 163 207 261 331 373
#     4  11  20  33  57  94 124 157 203 268 323 374
#     4   9  17  31  54  85 117 151 196 257 306 355
#     4  11  18  34  61  90 120 154 208 272 312 356
#     4  11  19  39  59  89 129 159 207 265 316 375
#     4  10  24  38  64  90 122 172 214 260 314 382
#     4  10  17  29  52  86 118 144 198 258 313 364
#
# _framework density 25.568978000000001
#
# number of rings (size 3 to 8) (size 9 to 14) (size 15 to 20)
#    0.000    1.600    4.000    3.200    0.000    3.733 
#    0.000    3.333    0.000    0.800    0.000    0.000 
#    0.000    0.000    0.000    0.000    0.000    0.000 
#
# Total GULP energy -167338.724915 kJ/mol
# GULP energy per Si atom -5577.957497 kJ/mol
# Density = 2.551078 g / cm^3
# Si number density = 25.568978 Si / 1000 Ang^3
#
#
#
# Elastic Constant Matrix: (Units=GPa)
#
#
# Indices 1 2 3 4 5 6 
#
# 1 88.5260 0.6446 -0.1596 -0.0003 -0.5220 0.0001
# 2 0.6446 150.9890 12.3411 0.0000 -0.2068 0.0021
# 3 -0.1596 12.3411 42.9735 -0.0009 -2.8047 0.0016
# 4 -0.0003 0.0000 -0.0009 36.0869 0.0003 2.5478
# 5 -0.5220 -0.2068 -2.8047 0.0003 23.6106 -0.0014
# 6 0.0001 0.0021 0.0016 2.5478 -0.0014 35.2564
#
#
#
# Elastic Compliance Matrix: (Units=1/GPa)
#
#
# Indices 1 2 3 4 5 6 
#
# 1 0.011298 -0.000054 0.000074 0.000000 0.000258 0.000000
# 2 -0.000054 0.006783 -0.001960 0.000000 -0.000175 0.000000
# 3 0.000074 -0.001960 0.024018 0.000001 0.002838 -0.000001
# 4 0.000000 0.000000 0.000001 0.027853 0.000000 -0.002013
# 5 0.000258 -0.000175 0.002838 0.000000 0.042695 0.000002
# 6 0.000000 0.000000 -0.000001 -0.002013 0.000002 0.028509
#
#
# Mechanical properties :
#
#
# Convention : Reuss Voigt Hill
#
# Bulk Modulus (GPa) = 26.16345 34.23784 30.20065
# Shear Modulus (GPa) = 31.69055 36.96828 34.32942
#
# Velocity S-wave (km/s) = 3.52435 3.80653 3.66815
# Velocity P-wave (km/s) = 5.17843 5.72180 5.45688
#
# Compressibility (1/GPa) = 0.03822126
#
# Stress axis : x y z
#
# Youngs Moduli (GPa) = 88.50990 147.42400 41.63478
#
# Poissons Ratio (x) = 0.00795 -0.00309
# Poissons Ratio (y) = 0.00478 0.08159
# Poissons Ratio (z) = -0.00658 0.28889
#
# Static dielectric constant tensor:
#      x y z
#    x 2.035940 0.000000 0.051810 
#    y 0.000000 2.153100 0.000000 
#    z 0.051810 0.000000 2.090660 
# 
# From -- ./inp_files/258713.got.cif
#   From: 2010.05.17/outbox.cif.g08.bks.cpg/sg15_130_cif.got.tgz:258713.got - 2010.06.03 18:47:42.
