data_PCOD9255543
_publ_section_title
;
Structure prediction by ZEFSAII (Michael W. Deem and Ramdas Pophale) SiO2 
 PCOD9255543
Probable space group: C 2/C
;
_chemical_formula_sum "Si O2"
_cell_formula_units_Z 48
_cell_length_a 16.176573
_cell_length_b 16.845543
_cell_length_c 13.022098
_cell_angle_alpha 90.000000
_cell_angle_beta 37.189235
_cell_angle_gamma 90.000000
_cell_volume 2144.926829
_symmetry_space_group_name_H-M "C 2/C"
_symmetry_group_IT_number 15
_symmetry_cell_setting 'monoclinic'
loop_
_space_group_symop_operation_xyz
x,y,z
-x,y,1/2-z
-x,-y,-z
x,-y,1/2+z
1/2+x,1/2+y,z
1/2-x,1/2+y,1/2-z
1/2-x,1/2-y,-z
1/2+x,1/2-y,1/2+z
loop_
_atom_site_type_symbol
_atom_site_label
_atom_site_fract_x
_atom_site_fract_y
_atom_site_fract_z
Si Si1 0.289935 0.184747 0.240507
Si Si2 0.234743 0.868139 0.206211
Si Si3 0.242515 0.547304 0.589343
Si Si4 0.550162 0.565817 0.531186
Si Si5 0.347832 0.183231 0.948734
Si Si6 0.005141 0.444600 0.892653
O O1 0.249271 0.273308 0.313485
O O2 0.407036 0.136399 0.184186
O O3 0.158082 0.127342 0.374939
O O4 0.352366 0.191955 0.065221
O O5 0.245607 0.899960 0.315579
O O6 0.086912 0.888034 0.306502
O O7 0.351298 0.915690 0.029973
O O8 0.365468 0.484932 0.469756
O O9 0.231502 0.603464 0.503383
O O10 0.100485 0.499995 0.730358
O O11 0.500000 0.500000 0.500000
O O12 0.500000 0.184651 0.750000
O O13 0.250000 0.250000 0.000000
O O14 0.000000 0.500000 0.000000
#
# Coordination Sequence:
#
# PCOD9255543 Si02
#       6
#     8   8   8   8   8   8
#     4  11  21  33  54  83 120 151 194 243 302 354
#     4  10  17  31  54  82 107 145 199 249 293 331
#     4   9  19  38  50  75 114 157 200 233 280 353
#     4   9  20  34  55  76 111 156 200 248 279 347
#     4  12  25  36  53  82 126 166 188 230 300 370
#     4   9  18  33  54  73 108 156 201 241 275 349
#
# _framework density 22.378385999999999
#
# number of rings (size 3 to 8) (size 9 to 14) (size 15 to 20)
#    0.000    2.000    1.667    4.000    2.333    0.000 
#    0.000    0.000    0.000    0.000    0.000    0.000 
#    0.000  360.000    0.000    0.000    0.000    0.000 
#
# Total GULP energy -134050.564738 kJ/mol
# GULP energy per Si atom -5585.440197 kJ/mol
# Density = 2.232745 g / cm^3
# Si number density = 22.378386 Si / 1000 Ang^3
#
#
#
# Elastic Constant Matrix: (Units=GPa)
#
#
# Indices 1 2 3 4 5 6 
#
# 1 36.8009 14.0331 24.6855 0.0001 -21.8620 0.0000
# 2 14.0331 141.6981 42.3541 0.0000 -12.5971 0.0000
# 3 24.6855 42.3541 106.1743 0.0001 -43.3245 -0.0001
# 4 0.0001 0.0000 0.0001 29.4547 -0.0001 0.1573
# 5 -21.8620 -12.5971 -43.3245 -0.0001 38.1045 0.0001
# 6 0.0000 0.0000 -0.0001 0.1573 0.0001 19.7123
#
#
#
# Elastic Compliance Matrix: (Units=1/GPa)
#
#
# Indices 1 2 3 4 5 6 
#
# 1 0.041887 -0.002333 0.001275 0.000000 0.024711 0.000000
# 2 -0.002333 0.008212 -0.004052 0.000000 -0.003230 0.000000
# 3 0.001275 -0.004052 0.019569 0.000000 0.021642 0.000000
# 4 0.000000 0.000000 0.000000 0.033952 0.000000 -0.000271
# 5 0.024711 -0.003230 0.021642 0.000000 0.063960 0.000000
# 6 0.000000 0.000000 0.000000 -0.000271 0.000000 0.050732
#
#
# Mechanical properties :
#
#
# Convention : Reuss Voigt Hill
#
# Bulk Modulus (GPa) = 16.82078 49.64653 33.23365
# Shear Modulus (GPa) = 20.13302 31.02767 25.58035
#
# Velocity S-wave (km/s) = 3.00269 3.72762 3.38462
# Velocity P-wave (km/s) = 4.42204 6.38436 5.49156
#
# Compressibility (1/GPa) = 0.05945029
#
# Stress axis : x y z
#
# Youngs Moduli (GPa) = 23.87365 121.77074 51.10012
#
# Poissons Ratio (x) = 0.28404 -0.06515
# Poissons Ratio (y) = 0.05569 0.20704
# Poissons Ratio (z) = -0.03044 0.49337
#
# Static dielectric constant tensor:
#      x y z
#    x 1.871540 0.000000 0.033950 
#    y 0.000000 1.855290 0.000000 
#    z 0.033950 0.000000 1.810530 
# 
# From -- ./inp_files/163174.got.cif
#   From: 2010.05.17/outbox.cif.g08.bks.cpg/sg15_82_cif.got.tgz:163174.got - 2010.06.03 18:47:42.
