data_PCOD9255656
_publ_section_title
;
Structure prediction by ZEFSAII (Michael W. Deem and Ramdas Pophale) SiO2 
 PCOD9255656
Probable space group: C 2/C
;
_chemical_formula_sum "Si O2"
_cell_formula_units_Z 48
_cell_length_a 14.420860
_cell_length_b 8.696799
_cell_length_c 16.673783
_cell_angle_alpha 90.000000
_cell_angle_beta 94.654043
_cell_angle_gamma 90.000000
_cell_volume 2084.252889
_symmetry_space_group_name_H-M "C 2/C"
_symmetry_group_IT_number 15
_symmetry_cell_setting 'monoclinic'
loop_
_space_group_symop_operation_xyz
x,y,z
-x,y,1/2-z
-x,-y,-z
x,-y,1/2+z
1/2+x,1/2+y,z
1/2-x,1/2+y,1/2-z
1/2-x,1/2-y,-z
1/2+x,1/2-y,1/2+z
loop_
_atom_site_type_symbol
_atom_site_label
_atom_site_fract_x
_atom_site_fract_y
_atom_site_fract_z
Si Si1 0.938595 0.033712 0.919504
Si Si2 0.802022 0.605963 0.240429
Si Si3 0.776092 0.390940 0.085490
Si Si4 0.744384 0.041386 0.087406
Si Si5 0.403797 0.633827 0.667609
Si Si6 0.907555 0.174746 0.276295
O O1 0.929643 0.877146 0.867961
O O2 0.836106 0.095693 0.926099
O O3 0.000544 0.149538 0.871811
O O4 0.000000 0.000000 0.000000
O O5 0.802524 0.481912 0.168044
O O6 0.810357 0.542324 0.331573
O O7 0.879384 0.726651 0.222113
O O8 0.703744 0.701717 0.230518
O O9 0.796363 0.209125 0.090558
O O10 0.808009 0.460610 0.001882
O O11 0.819707 0.905132 0.100156
O O12 0.406884 0.480527 0.721875
O O13 0.000000 0.264071 0.250000
#
# Coordination Sequence:
#
# PCOD9255656 Si02
#       6
#     8   8   8   8   8   8
#     4  10  17  32  51  79 103 139 178 223 260 321
#     4  10  19  33  55  84 107 136 186 234 267 314
#     4  10  21  35  56  79 109 145 181 220 277 331
#     4  10  19  35  54  78 109 146 178 220 275 333
#     4  10  19  33  57  80 106 137 182 230 268 314
#     4   8  17  31  50  74 104 138 177 214 267 323
#
# _framework density 23.029834999999999
#
# number of rings (size 3 to 8) (size 9 to 14) (size 15 to 20)
#    0.000    2.333    1.667    3.000    0.000    0.667 
#    0.000    0.000    0.000   16.000    0.000    5.833 
#    0.000    0.000    0.000    0.000    0.000    0.000 
#
# Total GULP energy -133823.234308 kJ/mol
# GULP energy per Si atom -5575.968096 kJ/mol
# Density = 2.297742 g / cm^3
# Si number density = 23.029835 Si / 1000 Ang^3
#
#
#
# Elastic Constant Matrix: (Units=GPa)
#
#
# Indices 1 2 3 4 5 6 
#
# 1 62.0845 2.7906 14.3197 0.0000 -21.3515 0.0000
# 2 2.7906 40.2761 25.4976 0.0000 -6.9174 0.0000
# 3 14.3197 25.4976 175.7195 0.0000 -4.8686 0.0000
# 4 0.0000 0.0000 0.0000 29.9464 0.0000 -4.3922
# 5 -21.3515 -6.9174 -4.8686 0.0000 32.4984 0.0000
# 6 0.0000 0.0000 0.0000 -4.3922 0.0000 19.1851
#
#
#
# Elastic Compliance Matrix: (Units=1/GPa)
#
#
# Indices 1 2 3 4 5 6 
#
# 1 0.021258 0.001988 -0.001629 0.000000 0.014146 0.000000
# 2 0.001988 0.028447 -0.004103 0.000000 0.006746 0.000000
# 3 -0.001629 -0.004103 0.006392 0.000000 -0.000986 0.000000
# 4 0.000000 0.000000 0.000000 0.034553 0.000000 0.007911
# 5 0.014146 0.006746 -0.000986 0.000000 0.041353 0.000000
# 6 0.000000 0.000000 0.000000 0.007911 0.000000 0.053935
#
#
# Mechanical properties :
#
#
# Convention : Reuss Voigt Hill
#
# Bulk Modulus (GPa) = 20.57229 40.36623 30.46926
# Shear Modulus (GPa) = 23.85168 32.02411 27.93790
#
# Velocity S-wave (km/s) = 3.22170 3.73305 3.48676
# Velocity P-wave (km/s) = 4.77403 6.01222 5.42854
#
# Compressibility (1/GPa) = 0.04860907
#
# Stress axis : x y z
#
# Youngs Moduli (GPa) = 47.04044 35.15312 156.45412
#
# Poissons Ratio (x) = -0.06988 0.25485
# Poissons Ratio (y) = -0.09351 0.64191
# Poissons Ratio (z) = 0.07662 0.14423
#
# Static dielectric constant tensor:
#      x y z
#    x 1.938150 0.000000 0.022950 
#    y 0.000000 1.888960 0.000000 
#    z 0.022950 0.000000 1.978970 
# 
# From -- ./inp_files/208639.got.cif
#   From: 2010.05.17/outbox.cif.g08.bks.cpg/sg15_105_cif.got.tgz:208639.got - 2010.06.03 18:47:42.
