data_PCOD9255785
_publ_section_title
;
Structure prediction by ZEFSAII (Michael W. Deem and Ramdas Pophale) SiO2 
 PCOD9255785
Probable space group: C 2/C
;
_chemical_formula_sum "Si O2"
_cell_formula_units_Z 60
_cell_length_a 20.793312
_cell_length_b 7.065264
_cell_length_c 15.776974
_cell_angle_alpha 90.000000
_cell_angle_beta 97.181779
_cell_angle_gamma 90.000000
_cell_volume 2299.614746
_symmetry_space_group_name_H-M "C 2/C"
_symmetry_group_IT_number 15
_symmetry_cell_setting 'monoclinic'
loop_
_space_group_symop_operation_xyz
x,y,z
-x,y,1/2-z
-x,-y,-z
x,-y,1/2+z
1/2+x,1/2+y,z
1/2-x,1/2+y,1/2-z
1/2-x,1/2-y,-z
1/2+x,1/2-y,1/2+z
loop_
_atom_site_type_symbol
_atom_site_label
_atom_site_fract_x
_atom_site_fract_y
_atom_site_fract_z
Si Si1 0.742770 0.345839 0.405269
Si Si2 0.895061 0.551190 0.335815
Si Si3 0.795189 0.652739 0.726901
Si Si4 0.975341 0.302345 0.453197
Si Si5 0.000000 0.730536 0.250000
Si Si6 0.690314 0.255805 0.075029
Si Si7 0.597116 0.739162 0.897104
Si Si8 0.387880 0.205876 0.602214
O O1 0.750000 0.250000 0.500000
O O2 0.768041 0.279361 0.314599
O O3 0.779786 0.544633 0.420386
O O4 0.665939 0.349428 0.390757
O O5 0.835160 0.531285 0.263124
O O6 0.911464 0.360990 0.388970
O O7 0.962219 0.592249 0.304872
O O8 0.877876 0.732103 0.388676
O O9 0.740210 0.632352 0.644307
O O10 0.854689 0.755756 0.687044
O O11 0.942854 0.188342 0.524785
O O12 0.000000 0.500000 0.500000
O O13 0.038613 0.235814 0.411130
O O14 0.947211 0.831790 0.186813
O O15 0.664618 0.281932 0.975713
O O16 0.608688 0.971141 0.900494
#
# Coordination Sequence:
#
# PCOD9255785 Si02
#       8
#     8   8   8   8   4   8   8   8
#     4  11  23  38  59  81 120 164 198 242 289 362
#     4  11  18  32  52  84 112 148 190 241 293 339
#     4  11  24  34  54  87 125 160 193 240 295 363
#     4  10  17  32  58  85 113 141 184 256 298 336
#     4  12  18  28  58  82 116 138 190 256 294 320
#     4  11  22  37  56  83 125 159 193 230 299 368
#     4  11  19  34  56  88 114 147 194 247 300 351
#     4  11  19  36  59  88 121 146 193 248 307 343
#
# _framework density 26.091327
#
# number of rings (size 3 to 8) (size 9 to 14) (size 15 to 20)
#    0.000    1.067    8.000    2.000    1.867    0.000 
#    0.000    0.000    0.000    3.200    0.000    0.000 
#    0.000    0.000    0.000    0.000    0.000    0.000 
#
# Total GULP energy -167137.332240 kJ/mol
# GULP energy per Si atom -5571.244408 kJ/mol
# Density = 2.603194 g / cm^3
# Si number density = 26.091327 Si / 1000 Ang^3
#
#
#
# Elastic Constant Matrix: (Units=GPa)
#
#
# Indices 1 2 3 4 5 6 
#
# 1 176.3396 15.4602 90.8775 0.0000 0.0470 0.0000
# 2 15.4602 64.0035 9.6532 0.0000 -0.6206 0.0000
# 3 90.8775 9.6532 175.5188 0.0000 -13.4164 0.0000
# 4 0.0000 0.0000 0.0000 20.7761 0.0000 4.2226
# 5 0.0470 -0.6206 -13.4164 0.0000 59.5021 0.0000
# 6 0.0000 0.0000 0.0000 4.2226 0.0000 22.0789
#
#
#
# Elastic Compliance Matrix: (Units=1/GPa)
#
#
# Indices 1 2 3 4 5 6 
#
# 1 0.007891 -0.001299 -0.004086 0.000000 -0.000941 0.000000
# 2 -0.001299 0.015969 -0.000196 0.000000 0.000123 0.000000
# 3 -0.004086 -0.000196 0.007961 0.000000 0.001796 0.000000
# 4 0.000000 0.000000 0.000000 0.050079 0.000000 -0.009578
# 5 -0.000941 0.000123 0.001796 0.000000 0.017213 0.000000
# 6 0.000000 0.000000 0.000000 -0.009578 0.000000 0.047124
#
#
# Mechanical properties :
#
#
# Convention : Reuss Voigt Hill
#
# Bulk Modulus (GPa) = 48.40720 71.98261 60.19491
# Shear Modulus (GPa) = 30.43492 40.46282 35.44887
#
# Velocity S-wave (km/s) = 3.41908 3.94231 3.68998
# Velocity P-wave (km/s) = 5.84637 6.95493 6.42460
#
# Compressibility (1/GPa) = 0.02065808
#
# Stress axis : x y z
#
# Youngs Moduli (GPa) = 126.73018 62.62249 125.61058
#
# Poissons Ratio (x) = 0.08134 0.51325
# Poissons Ratio (y) = 0.16461 0.02466
# Poissons Ratio (z) = 0.51783 0.01229
#
# Static dielectric constant tensor:
#      x y z
#    x 2.069190 0.000000 -0.045900 
#    y 0.000000 2.555110 0.000000 
#    z -0.045900 0.000000 2.234240 
# 
# From -- ./inp_files/167284.got.cif
#   From: 2010.05.17/outbox.cif.g08.bks.cpg/sg15_84_cif.got.tgz:167284.got - 2010.06.03 18:47:42.
