data_PCOD9255815
_publ_section_title
;
Structure prediction by ZEFSAII (Michael W. Deem and Ramdas Pophale) SiO2 
 PCOD9255815
Probable space group: C 2/C
;
_chemical_formula_sum "Si O2"
_cell_formula_units_Z 56
_cell_length_a 16.032367
_cell_length_b 8.376166
_cell_length_c 19.201310
_cell_angle_alpha 90.000000
_cell_angle_beta 61.222582
_cell_angle_gamma 90.000000
_cell_volume 2260.080769
_symmetry_space_group_name_H-M "C 2/C"
_symmetry_group_IT_number 15
_symmetry_cell_setting 'monoclinic'
loop_
_space_group_symop_operation_xyz
x,y,z
-x,y,1/2-z
-x,-y,-z
x,-y,1/2+z
1/2+x,1/2+y,z
1/2-x,1/2+y,1/2-z
1/2-x,1/2-y,-z
1/2+x,1/2-y,1/2+z
loop_
_atom_site_type_symbol
_atom_site_label
_atom_site_fract_x
_atom_site_fract_y
_atom_site_fract_z
Si Si1 0.638726 0.319092 0.128877
Si Si2 0.714842 0.393004 0.425752
Si Si3 0.368357 0.804051 0.191877
Si Si4 0.310111 0.113571 0.274595
Si Si5 0.167831 0.581088 0.001181
Si Si6 0.617352 0.321301 0.661533
Si Si7 0.954767 0.289564 0.454142
O O1 0.619657 0.205855 0.201949
O O2 0.619656 0.222926 0.065612
O O3 0.596665 0.494113 0.155234
O O4 0.754012 0.346959 0.082137
O O5 0.743299 0.498544 0.348574
O O6 0.762906 0.486526 0.471293
O O7 0.771278 0.225939 0.393195
O O8 0.606223 0.347972 0.483906
O O9 0.261782 0.737287 0.230051
O O10 0.404974 0.729493 0.250785
O O11 0.433218 0.764243 0.098957
O O12 0.364448 0.994807 0.201790
O O13 0.089067 0.458866 0.005649
O O14 0.573266 0.218572 0.616926
#
# Coordination Sequence:
#
# PCOD9255815 Si02
#       7
#     8   8   8   8   8   8   8
#     4  10  17  32  61  82 111 150 184 216 268 347
#     4   9  17  34  61  86 115 143 183 231 282 338
#     4  11  24  40  58  76 114 154 196 232 279 343
#     4  10  23  40  58  77 108 163 194 221 282 342
#     4   9  17  31  58  91 115 143 174 229 289 332
#     4  10  18  34  60  88 116 150 179 224 287 341
#     4  11  19  36  59  91 114 140 185 244 287 321
#
# _framework density 24.777874000000001
#
# number of rings (size 3 to 8) (size 9 to 14) (size 15 to 20)
#    0.000    2.000    2.857    3.000    0.000    0.571 
#    0.000    5.000    0.000    0.000    0.000    0.000 
#    0.000    0.000    0.000    0.000    0.000    0.000 
#
# Total GULP energy -156471.130694 kJ/mol
# GULP energy per Si atom -5588.254668 kJ/mol
# Density = 2.472148 g / cm^3
# Si number density = 24.777874 Si / 1000 Ang^3
#
#
#
# Elastic Constant Matrix: (Units=GPa)
#
#
# Indices 1 2 3 4 5 6 
#
# 1 32.2606 -4.2850 0.4752 0.0000 -2.9260 0.0000
# 2 -4.2850 115.2782 9.2844 0.0000 -1.4419 0.0000
# 3 0.4752 9.2844 74.0825 0.0000 -12.7944 0.0000
# 4 0.0000 0.0000 0.0000 36.9936 0.0000 12.6329
# 5 -2.9260 -1.4419 -12.7944 0.0000 31.3223 0.0000
# 6 0.0000 0.0000 0.0000 12.6329 0.0000 17.8371
#
#
#
# Elastic Compliance Matrix: (Units=1/GPa)
#
#
# Indices 1 2 3 4 5 6 
#
# 1 0.031431 0.001192 0.000178 0.000000 0.003064 0.000000
# 2 0.001192 0.008808 -0.001100 0.000000 0.000068 0.000000
# 3 0.000178 -0.001100 0.014664 0.000000 0.005956 0.000000
# 4 0.000000 0.000000 0.000000 0.035655 0.000000 -0.025252
# 5 0.003064 0.000068 0.005956 0.000000 0.034648 0.000000
# 6 0.000000 0.000000 0.000000 -0.025252 0.000000 0.073947
#
#
# Mechanical properties :
#
#
# Convention : Reuss Voigt Hill
#
# Bulk Modulus (GPa) = 18.03609 25.84115 21.93862
# Shear Modulus (GPa) = 23.03144 31.64039 27.33591
#
# Velocity S-wave (km/s) = 3.05210 3.57734 3.32511
# Velocity P-wave (km/s) = 4.44020 5.24546 4.85954
#
# Compressibility (1/GPa) = 0.05544439
#
# Stress axis : x y z
#
# Youngs Moduli (GPa) = 31.81556 113.52778 68.19531
#
# Poissons Ratio (x) = -0.13536 -0.01215
# Poissons Ratio (y) = -0.03793 0.07501
# Poissons Ratio (z) = -0.00567 0.12487
#
# Static dielectric constant tensor:
#      x y z
#    x 1.995930 0.000000 -0.020320 
#    y 0.000000 1.960000 0.000000 
#    z -0.020320 0.000000 2.038220 
# 
# From -- ./inp_files/279349.got.cif
#   From: 2010.05.17/outbox.cif.g08.bks.cpg/sg15_140_cif.got.tgz:279349.got - 2010.06.03 18:47:42.
