data_PCOD9255255
_publ_section_title
;
Structure prediction by ZEFSAII (Michael W. Deem and Ramdas Pophale) SiO2 
 PCOD9255255
Probable space group: C 2/C
;
_chemical_formula_sum "Si O2"
_cell_formula_units_Z 56
_cell_length_a 11.373225
_cell_length_b 16.241241
_cell_length_c 14.951746
_cell_angle_alpha 90.000000
_cell_angle_beta 56.999477
_cell_angle_gamma 90.000000
_cell_volume 2316.240122
_symmetry_space_group_name_H-M "C 2/C"
_symmetry_group_IT_number 15
_symmetry_cell_setting 'monoclinic'
loop_
_space_group_symop_operation_xyz
x,y,z
-x,y,1/2-z
-x,-y,-z
x,-y,1/2+z
1/2+x,1/2+y,z
1/2-x,1/2+y,1/2-z
1/2-x,1/2-y,-z
1/2+x,1/2-y,1/2+z
loop_
_atom_site_type_symbol
_atom_site_label
_atom_site_fract_x
_atom_site_fract_y
_atom_site_fract_z
Si Si1 0.114590 0.342904 0.468447
Si Si2 0.578144 0.539822 0.579973
Si Si3 0.434790 0.284898 0.373022
Si Si4 0.891605 0.782316 0.676981
Si Si5 0.797777 0.485445 0.618312
Si Si6 0.202586 0.053484 0.348789
Si Si7 0.298240 0.310087 0.902458
O O1 0.273325 0.312221 0.423840
O O2 0.036759 0.295949 0.580478
O O3 0.077834 0.298600 0.391345
O O4 0.106042 0.440428 0.459341
O O5 0.513445 0.631625 0.600515
O O6 0.646403 0.520800 0.647414
O O7 0.704262 0.531608 0.453532
O O8 0.451111 0.480385 0.611736
O O9 0.500000 0.274732 0.250000
O O10 0.802402 0.847733 0.656899
O O11 0.809103 0.765411 0.802166
O O12 0.038818 0.825458 0.640343
O O13 0.799008 0.477669 0.726264
O O14 0.789797 0.393788 0.578459
O O15 0.250000 0.250000 0.000000
#
# Coordination Sequence:
#
# PCOD9255255 Si02
#       7
#     8   8   8   8   8   8   8
#     4  10  21  36  56  87 128 156 203 252 318 378
#     4  10  17  29  53  85 117 147 195 249 314 364
#     4  10  20  34  55  84 125 168 196 243 314 388
#     4  10  20  39  59  86 122 155 200 266 313 367
#     4  10  20  35  55  84 121 154 199 258 305 358
#     4  10  18  30  54  85 115 154 196 257 314 357
#     4  10  22  39  63  85 114 159 213 258 308 369
#
# _framework density 24.177112999999999
#
# number of rings (size 3 to 8) (size 9 to 14) (size 15 to 20)
#    0.000    2.000    2.857    2.143    0.000    2.286 
#    0.000    0.714    3.143    0.000    0.000    0.000 
#    0.000    0.000    0.000    0.000    0.000    0.000 
#
# Total GULP energy -156245.588193 kJ/mol
# GULP energy per Si atom -5580.199578 kJ/mol
# Density = 2.412208 g / cm^3
# Si number density = 24.177113 Si / 1000 Ang^3
#
#
#
# Elastic Constant Matrix: (Units=GPa)
#
#
# Indices 1 2 3 4 5 6 
#
# 1 38.2207 25.0308 -1.1362 0.0000 4.0695 0.0000
# 2 25.0308 167.9325 92.6562 0.0000 6.3946 0.0000
# 3 -1.1362 92.6562 162.0071 0.0000 23.0136 0.0000
# 4 0.0000 0.0000 0.0000 30.3714 0.0000 10.2388
# 5 4.0695 6.3946 23.0136 0.0000 20.4347 0.0000
# 6 0.0000 0.0000 0.0000 10.2388 0.0000 8.1593
#
#
#
# Elastic Compliance Matrix: (Units=1/GPa)
#
#
# Indices 1 2 3 4 5 6 
#
# 1 0.032778 -0.007985 0.006391 0.000000 -0.011227 0.000000
# 2 -0.007985 0.010852 -0.007150 0.000000 0.006246 0.000000
# 3 0.006391 -0.007150 0.012106 0.000000 -0.012670 0.000000
# 4 0.000000 0.000000 0.000000 0.057068 0.000000 -0.071612
# 5 -0.011227 0.006246 -0.012670 0.000000 0.063486 0.000000
# 6 0.000000 0.000000 0.000000 -0.071612 0.000000 0.212423
#
#
# Mechanical properties :
#
#
# Convention : Reuss Voigt Hill
#
# Bulk Modulus (GPa) = 26.14356 66.80689 46.47522
# Shear Modulus (GPa) = 11.93463 28.56705 20.25084
#
# Velocity S-wave (km/s) = 2.22420 3.44113 2.89728
# Velocity P-wave (km/s) = 4.17527 6.59400 5.51877
#
# Compressibility (1/GPa) = 0.03825034
#
# Stress axis : x y z
#
# Youngs Moduli (GPa) = 30.50802 92.14953 82.60150
#
# Poissons Ratio (x) = 0.73577 -0.52793
# Poissons Ratio (y) = 0.24359 0.59059
# Poissons Ratio (z) = -0.19499 0.65885
#
# Static dielectric constant tensor:
#      x y z
#    x 1.987020 0.000000 -0.038140 
#    y 0.000000 1.938610 0.000000 
#    z -0.038140 0.000000 1.961390 
# 
# From -- ./inp_files/154770.got.cif
#   From: 2010.05.17/outbox.cif.g08.bks.cpg/sg15_78_cif.got.tgz:154770.got - 2010.06.03 18:47:42.
