data_PCOD9255641
_publ_section_title
;
Structure prediction by ZEFSAII (Michael W. Deem and Ramdas Pophale) SiO2 
 PCOD9255641
Probable space group: C 2/C
;
_chemical_formula_sum "Si O2"
_cell_formula_units_Z 40
_cell_length_a 25.756214
_cell_length_b 16.637507
_cell_length_c 5.369191
_cell_angle_alpha 90.000000
_cell_angle_beta 90.000039
_cell_angle_gamma 90.000000
_cell_volume 2300.801382
_symmetry_space_group_name_H-M "C 2/C"
_symmetry_group_IT_number 15
_symmetry_cell_setting 'monoclinic'
loop_
_space_group_symop_operation_xyz
x,y,z
-x,y,1/2-z
-x,-y,-z
x,-y,1/2+z
1/2+x,1/2+y,z
1/2-x,1/2+y,1/2-z
1/2-x,1/2-y,-z
1/2+x,1/2-y,1/2+z
loop_
_atom_site_type_symbol
_atom_site_label
_atom_site_fract_x
_atom_site_fract_y
_atom_site_fract_z
Si Si1 0.385949 0.077262 0.250000
Si Si2 0.000000 0.575001 0.250000
Si Si3 0.221622 0.721637 0.750000
Si Si4 0.500000 0.817772 0.250000
Si Si5 0.887420 0.686693 0.750000
Si Si6 0.719756 0.029191 0.750000
O O1 0.442851 0.034608 0.250000
O O2 0.383762 0.132563 0.497587
O O3 0.336230 0.018548 0.250000
O O4 0.383762 0.132563 0.002413
O O5 1.000000 0.627885 0.500636
O O6 0.250000 0.750000 0.500000
O O7 0.161174 0.746235 0.750000
O O8 0.217685 0.624707 0.750000
O O9 0.250000 0.750000 0.000000
O O10 0.555407 0.774551 0.250000
O O11 0.746541 1.000000 0.500000
#
# Coordination Sequence:
#
# PCOD9255641 Si02
#       6
#     8   4   8   4   8   8
#     4  10  17  32  50  73  97 135 174 213 240 281
#     4   8  16  26  45  72 102 122 168 217 238 257
#     4  12  24  36  51  75 104 139 175 219 262 305
#     4   8  16  28  49  72  96 134 168 215 238 285
#     4  10  18  33  52  73 102 134 179 207 253 292
#     4  12  21  36  54  71  94 138 182 214 255 298
#
# _framework density 17.385245999999999
#
# number of rings (size 3 to 8) (size 9 to 14) (size 15 to 20)
#    0.000    1.600    4.000    2.400    0.000    0.000 
#    0.000    2.000    0.000    0.000    0.000    0.000 
#    0.000    0.000    0.000   18.000    0.000    2.000 
#
# Total GULP energy -111505.417888 kJ/mol
# GULP energy per Si atom -5575.270894 kJ/mol
# Density = 1.734568 g / cm^3
# Si number density = 17.385246 Si / 1000 Ang^3
#
#
#
# Elastic Constant Matrix: (Units=GPa)
#
#
# Indices 1 2 3 4 5 6 
#
# 1 136.6292 27.7966 45.1684 0.0000 -0.0001 0.0000
# 2 27.7966 31.9909 17.2461 0.0000 0.0000 0.0000
# 3 45.1684 17.2461 170.0228 0.0000 -0.0002 0.0000
# 4 0.0000 0.0000 0.0000 27.7123 0.0000 0.0000
# 5 -0.0001 0.0000 -0.0002 0.0000 16.8485 0.0000
# 6 0.0000 0.0000 0.0000 0.0000 0.0000 27.0674
#
#
#
# Elastic Compliance Matrix: (Units=1/GPa)
#
#
# Indices 1 2 3 4 5 6 
#
# 1 0.009363 -0.007187 -0.001758 0.000000 0.000000 0.000000
# 2 -0.007187 0.038584 -0.002004 0.000000 0.000000 0.000000
# 3 -0.001758 -0.002004 0.006552 0.000000 0.000000 0.000000
# 4 0.000000 0.000000 0.000000 0.036085 0.000000 0.000000
# 5 0.000000 0.000000 0.000000 0.000000 0.059352 0.000000
# 6 0.000000 0.000000 0.000000 0.000000 0.000000 0.036945
#
#
# Mechanical properties :
#
#
# Convention : Reuss Voigt Hill
#
# Bulk Modulus (GPa) = 30.67561 57.67388 44.17475
# Shear Modulus (GPa) = 22.76378 30.88776 26.82577
#
# Velocity S-wave (km/s) = 3.62245 4.21962 3.93239
# Velocity P-wave (km/s) = 5.93120 7.54893 6.78843
#
# Compressibility (1/GPa) = 0.03259918
#
# Stress axis : x y z
#
# Youngs Moduli (GPa) = 106.80879 25.91730 152.62580
#
# Poissons Ratio (x) = 0.18627 0.26835
# Poissons Ratio (y) = 0.76765 0.30592
# Poissons Ratio (z) = 0.18779 0.05195
#
# Static dielectric constant tensor:
#      x y z
#    x 1.681680 0.000000 0.000000 
#    y 0.000000 1.560780 0.000000 
#    z 0.000000 0.000000 1.828430 
# 
# From -- ./inp_files/15029.got.cif
#   From: 2010.05.17/outbox.cif.g08.bks.cpg/sg15_8_cif.got.tgz:15029.got - 2010.06.03 18:47:42.
