data_PCOD9255280
_publ_section_title
;
Structure prediction by ZEFSAII (Michael W. Deem and Ramdas Pophale) SiO2 
 PCOD9255280
Probable space group: C 2/C
;
_chemical_formula_sum "Si O2"
_cell_formula_units_Z 36
_cell_length_a 11.245800
_cell_length_b 27.414873
_cell_length_c 5.373490
_cell_angle_alpha 90.000000
_cell_angle_beta 94.731584
_cell_angle_gamma 90.000000
_cell_volume 1651.012893
_symmetry_space_group_name_H-M "C 2/C"
_symmetry_group_IT_number 15
_symmetry_cell_setting 'monoclinic'
loop_
_space_group_symop_operation_xyz
x,y,z
-x,y,1/2-z
-x,-y,-z
x,-y,1/2+z
1/2+x,1/2+y,z
1/2-x,1/2+y,1/2-z
1/2-x,1/2-y,-z
1/2+x,1/2-y,1/2+z
loop_
_atom_site_type_symbol
_atom_site_label
_atom_site_fract_x
_atom_site_fract_y
_atom_site_fract_z
Si Si1 0.229793 0.686393 0.267175
Si Si2 0.635638 0.295161 0.215648
Si Si3 0.000000 0.537379 0.250000
Si Si4 0.900038 0.610944 0.583664
Si Si5 0.248563 0.479457 0.309406
O O1 0.282381 0.680738 0.553517
O O2 0.157396 0.737150 0.251446
O O3 0.326911 0.692156 0.060109
O O4 0.151424 0.642166 0.152398
O O5 0.500000 0.307533 0.250000
O O6 0.122492 0.508754 0.281139
O O7 0.990488 0.571506 0.484915
O O8 0.790491 0.577546 0.672312
O O9 0.000000 0.642503 0.750000
O O10 0.309292 0.502026 0.566370
#
# Coordination Sequence:
#
# PCOD9255280 Si02
#       5
#     8   8   4   8   8
#     4  10  24  35  60  88  99 142 201 218 272 354
#     4  10  22  44  58  74 113 142 175 245 295 312
#     4  10  18  30  46  74 120 168 160 212 282 336
#     4  11  20  30  50  80 120 147 183 223 254 335
#     4  10  17  30  44  68 111 164 167 194 274 334
#
# _framework density 21.804796
#
# number of rings (size 3 to 8) (size 9 to 14) (size 15 to 20)
#    0.000    1.778    3.333    2.000    4.667    3.556 
#    0.000    0.000    0.000    0.000    0.000    0.000 
#    0.000   71.111    0.000    0.000    0.000    0.000 
#
# Total GULP energy -100267.550364 kJ/mol
# GULP energy per Si atom -5570.419465 kJ/mol
# Density = 2.175517 g / cm^3
# Si number density = 21.804796 Si / 1000 Ang^3
#
#
#
# Elastic Constant Matrix: (Units=GPa)
#
#
# Indices 1 2 3 4 5 6 
#
# 1 23.8276 1.2255 -0.5329 0.0000 0.7950 0.0000
# 2 1.2255 67.2673 23.1442 0.0000 13.1745 0.0000
# 3 -0.5329 23.1442 120.3278 0.0000 -6.8743 0.0000
# 4 0.0000 0.0000 0.0000 40.3115 0.0000 1.9867
# 5 0.7950 13.1745 -6.8743 0.0000 22.2134 0.0000
# 6 0.0000 0.0000 0.0000 1.9867 0.0000 6.4440
#
#
#
# Elastic Compliance Matrix: (Units=1/GPa)
#
#
# Indices 1 2 3 4 5 6 
#
# 1 0.042042 -0.000648 0.000251 0.000000 -0.001042 0.000000
# 2 -0.000648 0.018812 -0.004334 0.000000 -0.012475 0.000000
# 3 0.000251 -0.004334 0.009459 0.000000 0.005489 0.000000
# 4 0.000000 0.000000 0.000000 0.025190 0.000000 -0.007766
# 5 -0.001042 -0.012475 0.005489 0.000000 0.054153 0.000000
# 6 0.000000 0.000000 0.000000 -0.007766 0.000000 0.157578
#
#
# Mechanical properties :
#
#
# Convention : Reuss Voigt Hill
#
# Bulk Modulus (GPa) = 16.43351 28.78849 22.61100
# Shear Modulus (GPa) = 14.83771 26.29950 20.56861
#
# Velocity S-wave (km/s) = 2.61143 3.47671 3.07466
# Velocity P-wave (km/s) = 4.07992 5.41740 4.79552
#
# Compressibility (1/GPa) = 0.06085129
#
# Stress axis : x y z
#
# Youngs Moduli (GPa) = 23.78581 53.15637 105.72009
#
# Poissons Ratio (x) = 0.03446 -0.02657
# Poissons Ratio (y) = 0.01542 0.45819
# Poissons Ratio (z) = -0.00598 0.23038
#
# Static dielectric constant tensor:
#      x y z
#    x 1.770740 0.000000 -0.032780 
#    y 0.000000 1.826320 0.000000 
#    z -0.032780 0.000000 2.133570 
# 
# From -- ./inp_files/5129.got.cif
#   From: 2010.05.17/outbox.cif.g08.bks.cpg/sg15_3_cif.got.tgz:5129.got - 2010.06.03 18:47:42.
