data_PCOD9255512
_publ_section_title
;
Structure prediction by ZEFSAII (Michael W. Deem and Ramdas Pophale) SiO2 
 PCOD9255512
Probable space group: C 2/C
;
_chemical_formula_sum "Si O2"
_cell_formula_units_Z 60
_cell_length_a 23.823547
_cell_length_b 21.418683
_cell_length_c 8.290380
_cell_angle_alpha 90.000000
_cell_angle_beta 43.101063
_cell_angle_gamma 90.000000
_cell_volume 2890.526696
_symmetry_space_group_name_H-M "C 2/C"
_symmetry_group_IT_number 15
_symmetry_cell_setting 'monoclinic'
loop_
_space_group_symop_operation_xyz
x,y,z
-x,y,1/2-z
-x,-y,-z
x,-y,1/2+z
1/2+x,1/2+y,z
1/2-x,1/2+y,1/2-z
1/2-x,1/2-y,-z
1/2+x,1/2-y,1/2+z
loop_
_atom_site_type_symbol
_atom_site_label
_atom_site_fract_x
_atom_site_fract_y
_atom_site_fract_z
Si Si1 0.117105 0.490080 0.100161
Si Si2 0.290864 0.078217 0.811086
Si Si3 0.806655 0.679048 0.532501
Si Si4 0.064881 0.920241 0.388804
Si Si5 0.387100 0.458615 0.849795
Si Si6 0.932926 0.403986 0.589525
Si Si7 0.875244 0.214422 0.696596
Si Si8 0.500000 0.800226 0.250000
O O1 0.192803 0.528869 0.867633
O O2 0.083882 0.445934 0.030903
O O3 0.150663 0.446330 0.171337
O O4 0.055599 0.544349 0.294430
O O5 0.313039 0.145574 0.691545
O O6 0.194999 0.071577 0.048438
O O7 0.849406 0.631671 0.315693
O O8 0.855311 0.742251 0.392431
O O9 0.711955 0.692128 0.692071
O O10 0.098939 0.938543 0.494994
O O11 0.077505 0.846983 0.347353
O O12 0.968436 0.935790 0.586243
O O13 0.111959 0.966370 0.169093
O O14 0.997511 0.349579 0.406646
O O15 0.925335 0.254374 0.456968
#
# Coordination Sequence:
#
# PCOD9255512 Si02
#       8
#     8   8   8   8   8   8   8   4
#     4   9  19  31  54  81 113 132 172 217 272 312
#     4  10  17  31  52  81 107 139 170 217 262 321
#     4   9  19  33  55  77 107 133 189 211 258 307
#     4  10  20  32  50  75 105 131 171 214 265 311
#     4  10  19  30  48  77 103 132 166 210 263 311
#     4   9  19  35  53  88 104 139 171 222 268 324
#     4  10  19  34  54  78  99 145 177 225 244 315
#     4  10  20  34  58  74 108 138 188 218 262 304
#
# _framework density 20.757463000000001
#
# number of rings (size 3 to 8) (size 9 to 14) (size 15 to 20)
#    0.000    2.400    1.333    1.600    3.733    0.533 
#    0.000    0.000    0.000   16.800    0.000    0.000 
#    0.000    0.000    0.000    0.000    0.000    0.000 
#
# Total GULP energy -167200.334311 kJ/mol
# GULP energy per Si atom -5573.344477 kJ/mol
# Density = 2.071022 g / cm^3
# Si number density = 20.757463 Si / 1000 Ang^3
#
#
#
# Elastic Constant Matrix: (Units=GPa)
#
#
# Indices 1 2 3 4 5 6 
#
# 1 36.3200 34.7392 23.1505 0.0000 3.0162 0.0000
# 2 34.7392 144.3995 51.4140 0.0000 3.2149 0.0000
# 3 23.1505 51.4140 87.6156 0.0000 -13.8475 0.0000
# 4 0.0000 0.0000 0.0000 31.0391 0.0000 -6.9325
# 5 3.0162 3.2149 -13.8475 0.0000 25.6705 0.0000
# 6 0.0000 0.0000 0.0000 -6.9325 0.0000 15.8192
#
#
#
# Elastic Compliance Matrix: (Units=1/GPa)
#
#
# Indices 1 2 3 4 5 6 
#
# 1 0.039449 -0.006504 -0.007883 0.000000 -0.008073 0.000000
# 2 -0.006504 0.010268 -0.004798 0.000000 -0.003110 0.000000
# 3 -0.007883 -0.004798 0.018096 0.000000 0.011289 0.000000
# 4 0.000000 0.000000 0.000000 0.035713 0.000000 0.015651
# 5 -0.008073 -0.003110 0.011289 0.000000 0.046383 0.000000
# 6 0.000000 0.000000 0.000000 0.015651 0.000000 0.070073
#
#
# Mechanical properties :
#
#
# Convention : Reuss Voigt Hill
#
# Bulk Modulus (GPa) = 33.96419 54.10472 44.03445
# Shear Modulus (GPa) = 18.64519 25.10784 21.87651
#
# Velocity S-wave (km/s) = 3.00032 3.48168 3.24992
# Velocity P-wave (km/s) = 5.32921 6.50266 5.94496
#
# Compressibility (1/GPa) = 0.02944278
#
# Stress axis : x y z
#
# Youngs Moduli (GPa) = 25.34922 97.39373 55.26056
#
# Poissons Ratio (x) = 0.63346 0.43560
# Poissons Ratio (y) = 0.16487 0.26515
# Poissons Ratio (z) = 0.19982 0.46731
#
# Static dielectric constant tensor:
#      x y z
#    x 1.714130 0.000000 -0.002790 
#    y 0.000000 1.768230 0.000000 
#    z -0.002790 0.000000 1.812090 
# 
# From -- ./inp_files/67518.got.cif
#   From: 2010.05.17/outbox.cif.g08.bks.cpg/sg15_34_cif.got.tgz:67518.got - 2010.06.03 18:47:42.
