data_PCOD9255549
_publ_section_title
;
Structure prediction by ZEFSAII (Michael W. Deem and Ramdas Pophale) SiO2 
 PCOD9255549
Probable space group: C 2/C
;
_chemical_formula_sum "Si O2"
_cell_formula_units_Z 64
_cell_length_a 10.112654
_cell_length_b 20.774222
_cell_length_c 20.781833
_cell_angle_alpha 90.000000
_cell_angle_beta 138.430312
_cell_angle_gamma 90.000000
_cell_volume 2896.907704
_symmetry_space_group_name_H-M "C 2/C"
_symmetry_group_IT_number 15
_symmetry_cell_setting 'monoclinic'
loop_
_space_group_symop_operation_xyz
x,y,z
-x,y,1/2-z
-x,-y,-z
x,-y,1/2+z
1/2+x,1/2+y,z
1/2-x,1/2+y,1/2-z
1/2-x,1/2-y,-z
1/2+x,1/2-y,1/2+z
loop_
_atom_site_type_symbol
_atom_site_label
_atom_site_fract_x
_atom_site_fract_y
_atom_site_fract_z
Si Si1 0.915597 0.889529 0.792165
Si Si2 0.715486 0.041809 0.039039
Si Si3 0.711477 0.142440 0.794366
Si Si4 0.543265 0.586438 0.840189
Si Si5 0.165038 0.321264 0.985887
Si Si6 0.626810 0.256954 0.050555
Si Si7 0.067456 0.756386 0.653744
Si Si8 0.527214 0.054038 0.109521
O O1 0.733447 0.939520 0.722659
O O2 0.000000 0.885725 0.750000
O O3 0.107392 0.907233 0.906050
O O4 0.833437 0.821338 0.785362
O O5 0.585779 0.061210 0.054261
O O6 0.835470 0.978012 0.102606
O O7 0.579822 0.015941 0.930963
O O8 0.500000 0.125806 0.750000
O O9 0.845796 0.088255 0.811642
O O10 0.844713 0.179518 0.896335
O O11 0.669185 0.194046 0.721605
O O12 0.500000 0.588991 0.750000
O O13 0.677536 0.647783 0.907805
O O14 0.250000 0.250000 0.000000
O O15 0.950055 0.301665 0.935059
O O16 0.114486 0.384970 0.924270
O O17 0.845009 0.243336 0.102657
O O18 0.467916 0.259715 0.935030
#
# Coordination Sequence:
#
# PCOD9255549 Si02
#       8
#     8   8   8   8   8   8   8   8
#     4  10  17  31  55  81 111 151 198 251 306 360
#     4   9  19  34  54  87 115 149 204 264 310 353
#     4  10  20  36  54  79 118 160 195 245 317 382
#     4  11  21  34  56  86 119 152 202 259 309 370
#     4  11  20  32  53  81 116 155 190 244 321 377
#     4  10  19  34  49  80 116 149 202 245 311 369
#     4  10  20  32  56  81 113 157 204 250 293 391
#     4   9  18  32  52  80 119 151 192 248 315 365
#
# _framework density 22.092523
#
# number of rings (size 3 to 8) (size 9 to 14) (size 15 to 20)
#    0.000    2.000    1.250    5.250    0.000    0.000 
#    0.000    3.750    0.000    0.750    6.500    0.000 
#    0.000    0.000    0.000    0.000    0.000    0.000 
#
# Total GULP energy -178478.580981 kJ/mol
# GULP energy per Si atom -5577.455656 kJ/mol
# Density = 2.204224 g / cm^3
# Si number density = 22.092523 Si / 1000 Ang^3
#
#
#
# Elastic Constant Matrix: (Units=GPa)
#
#
# Indices 1 2 3 4 5 6 
#
# 1 48.7181 18.5627 14.8225 0.0000 5.0474 -0.0001
# 2 18.5627 82.4925 4.3483 0.0000 5.3607 0.0000
# 3 14.8225 4.3483 77.7533 0.0001 3.2607 0.0000
# 4 0.0000 0.0000 0.0001 29.5079 0.0000 14.3981
# 5 5.0474 5.3607 3.2607 0.0000 23.2797 0.0000
# 6 -0.0001 0.0000 0.0000 14.3981 0.0000 27.9921
#
#
#
# Elastic Compliance Matrix: (Units=1/GPa)
#
#
# Indices 1 2 3 4 5 6 
#
# 1 0.024045 -0.004965 -0.004160 0.000000 -0.003487 0.000000
# 2 -0.004965 0.013357 0.000285 0.000000 -0.002039 0.000000
# 3 -0.004160 0.000285 0.013684 0.000000 -0.001080 0.000000
# 4 0.000000 0.000000 0.000000 0.045245 0.000000 -0.023272
# 5 -0.003487 -0.002039 -0.001080 0.000000 0.044333 0.000000
# 6 0.000000 0.000000 0.000000 -0.023272 0.000000 0.047695
#
#
# Mechanical properties :
#
#
# Convention : Reuss Voigt Hill
#
# Bulk Modulus (GPa) = 29.93459 31.60341 30.76900
# Shear Modulus (GPa) = 23.02318 27.57130 25.29724
#
# Velocity S-wave (km/s) = 3.23170 3.53653 3.38754
# Velocity P-wave (km/s) = 5.24445 5.56885 5.40908
#
# Compressibility (1/GPa) = 0.03340617
#
# Stress axis : x y z
#
# Youngs Moduli (GPa) = 41.58886 74.86715 73.08027
#
# Poissons Ratio (x) = 0.37170 0.30401
# Poissons Ratio (y) = 0.20648 -0.02083
# Poissons Ratio (z) = 0.17301 -0.02134
#
# Static dielectric constant tensor:
#      x y z
#    x 1.824880 0.000000 0.035670 
#    y 0.000000 1.856790 0.000000 
#    z 0.035670 0.000000 1.888630 
# 
# From -- ./inp_files/270862.got.cif
#   From: 2010.05.17/outbox.cif.g08.bks.cpg/sg15_136_cif.got.tgz:270862.got - 2010.06.03 18:47:42.
