data_PCOD9255970
_publ_section_title
;
Structure prediction by ZEFSAII (Michael W. Deem and Ramdas Pophale) SiO2 
 PCOD9255970
Probable space group: C 2/C
;
_chemical_formula_sum "Si O2"
_cell_formula_units_Z 60
_cell_length_a 12.674210
_cell_length_b 14.513403
_cell_length_c 18.906654
_cell_angle_alpha 90.000000
_cell_angle_beta 63.627374
_cell_angle_gamma 90.000000
_cell_volume 3115.846426
_symmetry_space_group_name_H-M "C 2/C"
_symmetry_group_IT_number 15
_symmetry_cell_setting 'monoclinic'
loop_
_space_group_symop_operation_xyz
x,y,z
-x,y,1/2-z
-x,-y,-z
x,-y,1/2+z
1/2+x,1/2+y,z
1/2-x,1/2+y,1/2-z
1/2-x,1/2-y,-z
1/2+x,1/2-y,1/2+z
loop_
_atom_site_type_symbol
_atom_site_label
_atom_site_fract_x
_atom_site_fract_y
_atom_site_fract_z
Si Si1 0.969406 0.394785 0.174775
Si Si2 0.048353 0.586650 0.155328
Si Si3 0.305287 0.738388 0.265600
Si Si4 0.500000 0.411370 0.750000
Si Si5 0.948127 0.233667 0.688540
Si Si6 0.314810 0.516919 0.058845
Si Si7 0.214411 0.316761 0.072489
Si Si8 0.501864 0.463871 0.114694
O O1 0.860361 0.325907 0.207474
O O2 0.000000 0.400253 0.250000
O O3 0.972193 0.500234 0.148141
O O4 0.078276 0.345136 0.105418
O O5 0.186188 0.560152 0.111253
O O6 0.000000 0.595855 0.250000
O O7 0.025462 0.686388 0.128778
O O8 0.398667 0.656331 0.248836
O O9 0.180689 0.720449 0.267184
O O10 0.276106 0.769849 0.354047
O O11 0.463912 0.477353 0.826058
O O12 0.948021 0.135360 0.650566
O O13 0.000000 0.213455 0.750000
O O14 0.289660 0.409541 0.050687
O O15 0.402706 0.519406 0.099583
O O16 0.387026 0.552902 0.969868
O O17 0.250000 0.250000 0.000000
#
# Coordination Sequence:
#
# PCOD9255970 Si02
#       8
#     8   8   8   4   8   8   8   8
#     4   8  16  33  57  87 112 146 200 254 302 350
#     4   9  20  37  64  90 116 166 218 249 308 380
#     4  11  21  37  62  91 125 155 208 264 311 370
#     4  12  24  38  66 100 126 164 210 272 326 360
#     4  11  24  41  60  92 124 173 210 253 315 385
#     4  10  22  40  65  90 128 171 210 263 316 382
#     4  10  17  33  61  90 121 151 203 257 312 368
#     4  11  24  41  62  95 130 167 209 265 326 371
#
# _framework density 19.256405999999998
#
# number of rings (size 3 to 8) (size 9 to 14) (size 15 to 20)
#    0.000    1.867    4.000    1.600    3.733    0.533 
#    0.000    0.000    2.933    2.400    0.000    0.000 
#    0.000    0.000    0.000    0.000    0.000    0.000 
#
# Total GULP energy -167172.920869 kJ/mol
# GULP energy per Si atom -5572.430696 kJ/mol
# Density = 1.921258 g / cm^3
# Si number density = 19.256406 Si / 1000 Ang^3
#
#
#
# Elastic Constant Matrix: (Units=GPa)
#
#
# Indices 1 2 3 4 5 6 
#
# 1 81.3245 26.7235 25.9228 0.0000 -9.0025 0.0000
# 2 26.7235 83.5706 26.1254 0.0000 -5.1557 0.0000
# 3 25.9228 26.1254 70.2019 0.0000 -8.6706 0.0000
# 4 0.0000 0.0000 0.0000 11.4130 0.0000 -0.7283
# 5 -9.0025 -5.1557 -8.6706 0.0000 20.0392 0.0000
# 6 0.0000 0.0000 0.0000 -0.7283 0.0000 19.8695
#
#
#
# Elastic Compliance Matrix: (Units=1/GPa)
#
#
# Indices 1 2 3 4 5 6 
#
# 1 0.015086 -0.003377 -0.003786 0.000000 0.004270 0.000000
# 2 -0.003377 0.014333 -0.004035 0.000000 0.000425 0.000000
# 3 -0.003786 -0.004035 0.017755 0.000000 0.004943 0.000000
# 4 0.000000 0.000000 0.000000 0.087825 0.000000 0.003219
# 5 0.004270 0.000425 0.004943 0.000000 0.054069 0.000000
# 6 0.000000 0.000000 0.000000 0.003219 0.000000 0.050446
#
#
# Mechanical properties :
#
#
# Convention : Reuss Voigt Hill
#
# Bulk Modulus (GPa) = 40.35866 43.62672 41.99269
# Shear Modulus (GPa) = 18.50695 20.68603 19.59649
#
# Velocity S-wave (km/s) = 3.10349 3.28112 3.19354
# Velocity P-wave (km/s) = 5.81776 6.08763 5.95422
#
# Compressibility (1/GPa) = 0.02477783
#
# Stress axis : x y z
#
# Youngs Moduli (GPa) = 66.28787 69.76782 56.32271
#
# Poissons Ratio (x) = 0.23559 0.21327
# Poissons Ratio (y) = 0.22384 0.22724
# Poissons Ratio (z) = 0.25100 0.28149
#
# Static dielectric constant tensor:
#      x y z
#    x 1.706490 0.000000 -0.004550 
#    y 0.000000 1.726380 0.000000 
#    z -0.004550 0.000000 1.671910 
# 
# From -- ./inp_files/198281.got.cif
#   From: 2010.05.17/outbox.cif.g08.bks.cpg/sg15_100_cif.got.tgz:198281.got - 2010.06.03 18:47:42.
