data_PCOD9255434
_publ_section_title
;
Structure prediction by ZEFSAII (Michael W. Deem and Ramdas Pophale) SiO2 
 PCOD9255434
Probable space group: C 2/C
;
_chemical_formula_sum "Si O2"
_cell_formula_units_Z 56
_cell_length_a 8.150953
_cell_length_b 32.482736
_cell_length_c 10.575786
_cell_angle_alpha 90.000000
_cell_angle_beta 112.193501
_cell_angle_gamma 90.000000
_cell_volume 2592.650836
_symmetry_space_group_name_H-M "C 2/C"
_symmetry_group_IT_number 15
_symmetry_cell_setting 'monoclinic'
loop_
_space_group_symop_operation_xyz
x,y,z
-x,y,1/2-z
-x,-y,-z
x,-y,1/2+z
1/2+x,1/2+y,z
1/2-x,1/2+y,1/2-z
1/2-x,1/2-y,-z
1/2+x,1/2-y,1/2+z
loop_
_atom_site_type_symbol
_atom_site_label
_atom_site_fract_x
_atom_site_fract_y
_atom_site_fract_z
Si Si1 0.204143 0.596581 0.064988
Si Si2 0.716819 0.949381 0.313954
Si Si3 0.707858 0.681377 0.028910
Si Si4 0.203223 0.183581 0.316303
Si Si5 0.783544 0.543891 0.187330
Si Si6 0.226730 0.404969 0.060878
Si Si7 0.491786 0.753515 0.899780
O O1 0.267211 0.643475 0.090723
O O2 0.266251 0.571306 0.206304
O O3 0.266282 0.572922 0.958263
O O4 0.989045 0.597899 0.003859
O O5 0.500000 0.950098 0.250000
O O6 0.777150 0.923935 0.209742
O O7 0.776234 0.996679 0.322915
O O8 0.759359 0.671184 0.188529
O O9 0.858290 0.712619 0.021764
O O10 0.699253 0.640127 0.946675
O O11 0.534031 0.709803 0.973413
O O12 0.312532 0.223810 0.382915
O O13 0.000000 0.193790 0.250000
O O14 0.000000 0.543185 0.250000
O O15 0.724210 0.565029 0.040260
O O16 0.500000 0.747945 0.750000
#
# Coordination Sequence:
#
# PCOD9255434 Si02
#       7
#     8   8   8   8   8   8   8
#     4  10  18  32  53  83 121 162 202 250 297 357
#     4   9  18  29  47  89 132 154 195 255 305 345
#     4  10  19  37  63  88 112 152 204 245 299 366
#     4  11  22  37  60  85 117 156 202 249 307 366
#     4   9  16  27  52  85 120 164 205 246 292 356
#     4  10  17  30  57  85 118 163 202 245 298 359
#     4   9  20  38  63  87 113 148 197 256 302 358
#
# _framework density 21.599515
#
# number of rings (size 3 to 8) (size 9 to 14) (size 15 to 20)
#    0.000    2.286    2.857    0.857    0.000    4.000 
#    2.571    0.000    3.143    0.857    0.000    0.000 
#    0.000    0.000    0.000    0.000    0.000    3.143 
#
# Total GULP energy -156529.622474 kJ/mol
# GULP energy per Si atom -5590.343660 kJ/mol
# Density = 2.155035 g / cm^3
# Si number density = 21.599515 Si / 1000 Ang^3
#
#
#
# Elastic Constant Matrix: (Units=GPa)
#
#
# Indices 1 2 3 4 5 6 
#
# 1 54.7318 30.8843 19.3897 0.0000 4.7357 0.0000
# 2 30.8843 162.1194 64.2664 0.0000 -13.8831 0.0000
# 3 19.3897 64.2664 100.5596 0.0000 -31.4863 0.0000
# 4 0.0000 0.0000 0.0000 32.0792 0.0000 1.6521
# 5 4.7357 -13.8831 -31.4863 0.0000 21.9562 0.0000
# 6 0.0000 0.0000 0.0000 1.6521 0.0000 4.2251
#
#
#
# Elastic Compliance Matrix: (Units=1/GPa)
#
#
# Indices 1 2 3 4 5 6 
#
# 1 0.025048 -0.002746 -0.009637 0.000000 -0.020960 0.000000
# 2 -0.002746 0.008788 -0.005738 0.000000 -0.002079 0.000000
# 3 -0.009637 -0.005738 0.027196 0.000000 0.037451 0.000000
# 4 0.000000 0.000000 0.000000 0.031813 0.000000 -0.012440
# 5 -0.020960 -0.002079 0.037451 0.000000 0.102457 0.000000
# 6 0.000000 0.000000 0.000000 -0.012440 0.000000 0.241544
#
#
# Mechanical properties :
#
#
# Convention : Reuss Voigt Hill
#
# Bulk Modulus (GPa) = 40.33996 60.72127 50.53061
# Shear Modulus (GPa) = 10.38740 25.17681 17.78210
#
# Velocity S-wave (km/s) = 2.19534 3.41782 2.87237
# Velocity P-wave (km/s) = 5.01427 6.61428 5.86905
#
# Compressibility (1/GPa) = 0.02478932
#
# Stress axis : x y z
#
# Youngs Moduli (GPa) = 39.92279 113.79235 36.77056
#
# Poissons Ratio (x) = 0.31251 0.35437
# Poissons Ratio (y) = 0.10964 0.21098
# Poissons Ratio (z) = 0.38475 0.65291
#
# Static dielectric constant tensor:
#      x y z
#    x 1.808170 0.000000 0.017950 
#    y 0.000000 1.727690 0.000000 
#    z 0.017950 0.000000 1.788450 
# 
# From -- ./inp_files/81425.got.cif
#   From: 2010.05.17/outbox.cif.g08.bks.cpg/sg15_41_cif.got.tgz:81425.got - 2010.06.03 18:47:42.
