data_PCOD9255315
_publ_section_title
;
Structure prediction by ZEFSAII (Michael W. Deem and Ramdas Pophale) SiO2 
 PCOD9255315
Probable space group: C 2/C
;
_chemical_formula_sum "Si O2"
_cell_formula_units_Z 32
_cell_length_a 16.769724
_cell_length_b 6.942187
_cell_length_c 10.974646
_cell_angle_alpha 90.000000
_cell_angle_beta 109.692770
_cell_angle_gamma 90.000000
_cell_volume 1202.926518
_symmetry_space_group_name_H-M "C 2/C"
_symmetry_group_IT_number 15
_symmetry_cell_setting 'monoclinic'
loop_
_space_group_symop_operation_xyz
x,y,z
-x,y,1/2-z
-x,-y,-z
x,-y,1/2+z
1/2+x,1/2+y,z
1/2-x,1/2+y,1/2-z
1/2-x,1/2-y,-z
1/2+x,1/2-y,1/2+z
loop_
_atom_site_type_symbol
_atom_site_label
_atom_site_fract_x
_atom_site_fract_y
_atom_site_fract_z
Si Si1 0.418953 0.359709 0.428988
Si Si2 0.127885 0.800907 0.341789
Si Si3 0.096239 0.740104 0.831100
Si Si4 0.176813 0.754900 0.624468
O O1 0.500000 0.500000 0.500000
O O2 0.427895 0.250617 0.305032
O O3 0.393385 0.208143 0.519714
O O4 0.344256 0.516998 0.377102
O O5 0.124450 0.704771 0.473453
O O6 0.225723 0.777033 0.354070
O O7 0.107681 0.027531 0.343015
O O8 0.150851 0.672188 0.743622
O O9 0.000000 0.696216 0.750000
#
# Coordination Sequence:
#
# PCOD9255315 Si02
#       4
#     8   8   8   8
#     4  10  17  30  49  72  96 123 159 203 238 278
#     4   9  18  29  44  70 100 126 155 197 244 288
#     4  10  17  30  49  72  96 122 158 203 239 278
#     4   9  18  29  44  70 100 126 155 196 246 287
#
# _framework density 26.601794000000002
#
# number of rings (size 3 to 8) (size 9 to 14) (size 15 to 20)
#    0.000    2.500    5.000    0.000    0.000    1.000 
#    0.000    0.000    0.000    0.000    0.000   14.000 
#    0.000    1.000    0.000    0.000    0.000    0.000 
#
# Total GULP energy -89219.347992 kJ/mol
# GULP energy per Si atom -5576.209250 kJ/mol
# Density = 2.654125 g / cm^3
# Si number density = 26.601794 Si / 1000 Ang^3
#
#
#
# Elastic Constant Matrix: (Units=GPa)
#
#
# Indices 1 2 3 4 5 6 
#
# 1 127.6307 14.8467 46.7261 0.0000 -32.5149 0.0000
# 2 14.8467 102.4472 12.6118 0.0000 2.3531 0.0000
# 3 46.7261 12.6118 234.3711 0.0000 -60.4974 0.0000
# 4 0.0000 0.0000 0.0000 -22.3137 0.0000 3.1704
# 5 -32.5149 2.3531 -60.4974 0.0000 70.7298 0.0000
# 6 0.0000 0.0000 0.0000 3.1704 0.0000 11.2156
#
#
#
# Elastic Compliance Matrix: (Units=1/GPa)
#
#
# Indices 1 2 3 4 5 6 
#
# 1 0.009202 -0.001311 -0.000848 0.000000 0.003548 0.000000
# 2 -0.001311 0.010068 -0.000671 0.000000 -0.001511 0.000000
# 3 -0.000848 -0.000671 0.005617 0.000000 0.004437 0.000000
# 4 0.000000 0.000000 0.000000 -0.043085 0.000000 0.012179
# 5 0.003548 -0.001511 0.004437 0.000000 0.019615 0.000000
# 6 0.000000 0.000000 0.000000 0.012179 0.000000 0.085719
#
#
# Mechanical properties :
#
#
# Convention : Reuss Voigt Hill
#
# Bulk Modulus (GPa) = 52.00484 68.09092 60.04788
# Shear Modulus (GPa) = 50.40084 37.94396 44.17240
#
# Velocity S-wave (km/s) = 4.35747 3.78083 4.07935
# Velocity P-wave (km/s) = 6.70138 6.68666 6.69403
#
# Compressibility (1/GPa) = 0.01922898
#
# Stress axis : x y z
#
# Youngs Moduli (GPa) = 108.67138 99.32153 178.02420
#
# Poissons Ratio (x) = 0.13018 0.15099
# Poissons Ratio (y) = 0.14243 0.11937
# Poissons Ratio (z) = 0.09217 0.06660
#
# Static dielectric constant tensor:
#      x y z
#    x 2.215320 0.000000 -0.207690 
#    y 0.000000 2.032710 0.000000 
#    z -0.207690 0.000000 2.375290 
# 
# From -- ./inp_files/103083.got.cif
#   From: 2010.05.17/outbox.cif.g08.bks.cpg/sg15_52_cif.got.tgz:103083.got - 2010.06.03 18:47:42.
