data_PCOD9255718
_publ_section_title
;
Structure prediction by ZEFSAII (Michael W. Deem and Ramdas Pophale) SiO2 
 PCOD9255718
Probable space group: C 2/C
;
_chemical_formula_sum "Si O2"
_cell_formula_units_Z 52
_cell_length_a 14.326593
_cell_length_b 7.288060
_cell_length_c 19.546558
_cell_angle_alpha 90.000000
_cell_angle_beta 91.038064
_cell_angle_gamma 90.000000
_cell_volume 2040.581162
_symmetry_space_group_name_H-M "C 2/C"
_symmetry_group_IT_number 15
_symmetry_cell_setting 'monoclinic'
loop_
_space_group_symop_operation_xyz
x,y,z
-x,y,1/2-z
-x,-y,-z
x,-y,1/2+z
1/2+x,1/2+y,z
1/2-x,1/2+y,1/2-z
1/2-x,1/2-y,-z
1/2+x,1/2-y,1/2+z
loop_
_atom_site_type_symbol
_atom_site_label
_atom_site_fract_x
_atom_site_fract_y
_atom_site_fract_z
Si Si1 0.824953 0.821225 0.553637
Si Si2 0.630244 0.468911 0.814256
Si Si3 0.312415 0.416844 0.944018
Si Si4 0.000000 0.399708 0.750000
Si Si5 0.519928 0.721869 0.005083
Si Si6 0.917325 0.941501 0.325092
Si Si7 0.385342 0.133731 0.126487
O O1 0.750000 0.750000 0.500000
O O2 0.814391 0.838264 0.634143
O O3 0.922817 0.721048 0.538476
O O4 0.820223 0.031050 0.524113
O O5 0.641273 0.450523 0.733590
O O6 0.518511 0.458914 0.829496
O O7 0.647654 0.679554 0.835499
O O8 0.365446 0.559155 0.895369
O O9 0.208626 0.422700 0.914250
O O10 0.387852 0.250190 0.946059
O O11 0.938079 0.258839 0.795023
O O12 0.933565 0.483502 0.689443
O O13 0.540195 0.810349 0.931702
O O14 0.500000 0.500000 0.000000
#
# Coordination Sequence:
#
# PCOD9255718 Si02
#       7
#     8   8   8   4   8   8   8
#     4  11  21  34  53  76 109 142 176 215 263 323
#     4   9  16  34  52  77 103 129 177 222 260 304
#     4  11  19  32  56  79 103 133 179 218 263 303
#     4   8  16  32  52  70 108 130 170 212 266 304
#     4  10  17  32  55  74  99 130 178 218 252 297
#     4   8  16  31  55  74  96 134 174 222 253 304
#     4  10  18  31  57  82 100 131 177 225 255 309
#
# _framework density 25.482937
#
# number of rings (size 3 to 8) (size 9 to 14) (size 15 to 20)
#    0.000    2.769    4.615    3.231    0.000    0.000 
#    8.308    0.769    0.000    1.846    0.000    0.000 
#    0.000    0.000    0.000    0.000    0.000    0.000 
#
# Total GULP energy -144760.514176 kJ/mol
# GULP energy per Si atom -5567.712084 kJ/mol
# Density = 2.542494 g / cm^3
# Si number density = 25.482937 Si / 1000 Ang^3
#
#
#
# Elastic Constant Matrix: (Units=GPa)
#
#
# Indices 1 2 3 4 5 6 
#
# 1 82.2712 4.0141 32.4511 0.0000 34.3756 0.0000
# 2 4.0141 31.9251 11.4859 0.0000 8.1009 0.0000
# 3 32.4511 11.4859 157.1499 0.0000 40.0310 0.0000
# 4 0.0000 0.0000 0.0000 28.0458 0.0000 15.5737
# 5 34.3756 8.1009 40.0310 0.0000 50.5273 0.0000
# 6 0.0000 0.0000 0.0000 15.5737 0.0000 20.2013
#
#
#
# Elastic Compliance Matrix: (Units=1/GPa)
#
#
# Indices 1 2 3 4 5 6 
#
# 1 0.017073 0.000959 -0.000749 0.000000 -0.011176 0.000000
# 2 0.000959 0.032925 -0.001370 0.000000 -0.004845 0.000000
# 3 -0.000749 -0.001370 0.008059 0.000000 -0.005656 0.000000
# 4 0.000000 0.000000 0.000000 0.062346 0.000000 -0.048064
# 5 -0.011176 -0.004845 -0.005656 0.000000 0.032652 0.000000
# 6 0.000000 0.000000 0.000000 -0.048064 0.000000 0.086556
#
#
# Mechanical properties :
#
#
# Convention : Reuss Voigt Hill
#
# Bulk Modulus (GPa) = 17.94154 40.80538 29.37346
# Shear Modulus (GPa) = 19.19308 34.64787 26.92047
#
# Velocity S-wave (km/s) = 2.74738 3.69134 3.25377
# Velocity P-wave (km/s) = 4.13763 5.84941 5.06634
#
# Compressibility (1/GPa) = 0.05573659
#
# Stress axis : x y z
#
# Youngs Moduli (GPa) = 58.57130 30.37182 124.08833
#
# Poissons Ratio (x) = -0.02911 0.09291
# Poissons Ratio (y) = -0.05614 0.17002
# Poissons Ratio (z) = 0.04386 0.04161
#
# Static dielectric constant tensor:
#      x y z
#    x 2.151310 0.000000 0.054580 
#    y 0.000000 2.331420 0.000000 
#    z 0.054580 0.000000 2.028220 
# 
# From -- ./inp_files/243134.got.cif
#   From: 2010.05.17/outbox.cif.g08.bks.cpg/sg15_122_cif.got.tgz:243134.got - 2010.06.03 18:47:42.
