data_PCOD9255067
_publ_section_title
;
Structure prediction by ZEFSAII (Michael W. Deem and Ramdas Pophale) SiO2 
 PCOD9255067
Probable space group: C 2/C
;
_chemical_formula_sum "Si O2"
_cell_formula_units_Z 40
_cell_length_a 28.145918
_cell_length_b 4.952984
_cell_length_c 19.949671
_cell_angle_alpha 90.000000
_cell_angle_beta 150.082408
_cell_angle_gamma 90.000000
_cell_volume 1387.089149
_symmetry_space_group_name_H-M "C 2/C"
_symmetry_group_IT_number 15
_symmetry_cell_setting 'monoclinic'
loop_
_space_group_symop_operation_xyz
x,y,z
-x,y,1/2-z
-x,-y,-z
x,-y,1/2+z
1/2+x,1/2+y,z
1/2-x,1/2+y,1/2-z
1/2-x,1/2-y,-z
1/2+x,1/2-y,1/2+z
loop_
_atom_site_type_symbol
_atom_site_label
_atom_site_fract_x
_atom_site_fract_y
_atom_site_fract_z
Si Si1 0.088669 0.401392 0.210013
Si Si2 0.830750 0.440085 0.065120
Si Si3 0.220786 0.008950 0.809158
Si Si4 0.963231 0.036483 0.140142
Si Si5 0.885893 0.712546 0.425979
O O1 0.123203 0.582615 0.313919
O O2 0.170426 0.275518 0.264791
O O3 0.057598 0.143152 0.218858
O O4 0.984495 0.451892 0.052607
O O5 0.903352 0.270877 0.106356
O O6 0.750000 0.250000 0.000000
O O7 0.777634 0.616011 0.943415
O O8 0.298095 0.956045 0.846584
O O9 0.137115 0.191583 0.676883
O O10 0.000000 0.865195 0.250000
O O11 0.898678 0.028442 0.992894
#
# Coordination Sequence:
#
# PCOD9255067 Si02
#       5
#     8   8   8   8   8
#     4   8  15  27  45  65  88 120 159 189 214 271
#     4   8  13  23  43  66  88 108 149 196 219 246
#     4  10  17  28  43  71  93 119 150 191 236 265
#     4   7  12  23  39  63  82 106 152 183 207 253
#     4   9  18  27  45  66  95 119 150 191 230 273
#
# _framework density 28.837365999999999
#
# number of rings (size 3 to 8) (size 9 to 14) (size 15 to 20)
#    1.200    2.400    0.000    0.600    0.000    0.000 
#    0.000    1.000    0.000    0.000    5.200   47.600 
#    0.000    0.000    0.000    0.000    0.000    0.000 
#
# Total GULP energy -111422.598910 kJ/mol
# GULP energy per Si atom -5571.129945 kJ/mol
# Density = 2.877173 g / cm^3
# Si number density = 28.837366 Si / 1000 Ang^3
#
#
#
# Elastic Constant Matrix: (Units=GPa)
#
#
# Indices 1 2 3 4 5 6 
#
# 1 141.8724 24.9024 34.6476 -0.0004 18.2231 -0.0006
# 2 24.9024 75.4145 16.6920 0.0019 5.4040 0.0007
# 3 34.6476 16.6920 214.3876 -0.0007 -14.9994 -0.0004
# 4 -0.0004 0.0019 -0.0007 1.1387 0.0001 -2.0741
# 5 18.2231 5.4040 -14.9994 0.0001 50.5108 0.0000
# 6 -0.0006 0.0007 -0.0004 -2.0741 0.0000 40.0535
#
#
#
# Elastic Compliance Matrix: (Units=1/GPa)
#
#
# Indices 1 2 3 4 5 6 
#
# 1 0.008164 -0.002169 -0.001369 0.000007 -0.003120 0.000001
# 2 -0.002169 0.014230 -0.000826 -0.000028 -0.000985 -0.000002
# 3 -0.001369 -0.000826 0.005097 0.000004 0.002096 0.000000
# 4 0.000007 -0.000028 0.000004 0.969686 -0.000001 0.050213
# 5 -0.003120 -0.000985 0.002096 -0.000001 0.021651 0.000000
# 6 0.000001 -0.000002 0.000000 0.050213 0.000000 0.027567
#
#
# Mechanical properties :
#
#
# Convention : Reuss Voigt Hill
#
# Bulk Modulus (GPa) = 53.29942 64.90651 59.10297
# Shear Modulus (GPa) = 4.71086 42.03608 23.37347
#
# Velocity S-wave (km/s) = 1.27951 3.82212 2.85006
# Velocity P-wave (km/s) = 4.55036 6.48342 5.60092
#
# Compressibility (1/GPa) = 0.01876193
#
# Stress axis : x y z
#
# Youngs Moduli (GPa) = 122.48270 70.27465 196.20829
#
# Poissons Ratio (x) = 0.15245 0.26858
# Poissons Ratio (y) = 0.26572 0.16212
# Poissons Ratio (z) = 0.16766 0.05806
#
# Static dielectric constant tensor:
#      x y z
#    x 2.151650 0.000000 -0.105070 
#    y 0.000000 2.441220 0.000000 
#    z -0.105070 0.000000 2.636720 
# 
# From -- ./inp_files/224305.got.cif
#   From: 2010.05.17/outbox.cif.g08.bks.cpg/sg15_113_cif.got.tgz:224305.got - 2010.06.03 18:47:42.
