data_PCOD9255216
_publ_section_title
;
Structure prediction by ZEFSAII (Michael W. Deem and Ramdas Pophale) SiO2 
 PCOD9255216
Probable space group: C 2/C
;
_chemical_formula_sum "Si O2"
_cell_formula_units_Z 32
_cell_length_a 25.033009
_cell_length_b 9.358329
_cell_length_c 20.598273
_cell_angle_alpha 90.000000
_cell_angle_beta 163.109732
_cell_angle_gamma 90.000000
_cell_volume 1401.998705
_symmetry_space_group_name_H-M "C 2/C"
_symmetry_group_IT_number 15
_symmetry_cell_setting 'monoclinic'
loop_
_space_group_symop_operation_xyz
x,y,z
-x,y,1/2-z
-x,-y,-z
x,-y,1/2+z
1/2+x,1/2+y,z
1/2-x,1/2+y,1/2-z
1/2-x,1/2-y,-z
1/2+x,1/2-y,1/2+z
loop_
_atom_site_type_symbol
_atom_site_label
_atom_site_fract_x
_atom_site_fract_y
_atom_site_fract_z
Si Si1 0.414776 0.972461 0.831274
Si Si2 0.070006 0.718961 0.746428
Si Si3 0.484732 0.458040 0.153530
Si Si4 0.870515 0.432666 0.541826
O O1 0.379304 0.127900 0.757651
O O2 0.552893 0.896291 0.940573
O O3 0.214419 0.900016 0.598155
O O4 0.500000 0.000000 0.000000
O O5 0.991598 0.874253 0.643530
O O6 0.918017 0.604419 0.596403
O O7 0.250000 0.750000 0.000000
O O8 0.500000 0.449433 0.250000
O O9 0.664665 0.401774 0.325310
O O10 0.000000 0.373353 0.750000
#
# Coordination Sequence:
#
# PCOD9255216 Si02
#       4
#     8   8   8   8
#     4  10  23  32  42  72 121 136 162 224 276 292
#     4  10  17  29  50  76 102 134 179 206 249 317
#     4  12  17  28  53  74  98 139 177 212 250 313
#     4  10  18  27  47  72  98 130 184 198 249 314
#
# _framework density 22.824558
#
# number of rings (size 3 to 8) (size 9 to 14) (size 15 to 20)
#    1.500    0.000    7.500    2.250    0.000    1.000 
#    0.000    0.000    0.000    0.000    0.000    0.000 
#    0.000    6.000    0.000    0.000    0.000    0.000 
#
# Total GULP energy -89100.480135 kJ/mol
# GULP energy per Si atom -5568.780008 kJ/mol
# Density = 2.277261 g / cm^3
# Si number density = 22.824558 Si / 1000 Ang^3
#
#
#
# Elastic Constant Matrix: (Units=GPa)
#
#
# Indices 1 2 3 4 5 6 
#
# 1 212.0032 19.6957 132.2713 -0.0002 26.9022 -0.0002
# 2 19.6957 103.7078 6.1206 -0.0002 9.8705 -0.0002
# 3 132.2713 6.1206 163.9072 -0.0002 17.7748 -0.0002
# 4 -0.0002 -0.0002 -0.0002 13.3188 -0.0001 10.7092
# 5 26.9022 9.8705 17.7748 -0.0001 54.8200 -0.0001
# 6 -0.0002 -0.0002 -0.0002 10.7092 -0.0001 20.4478
#
#
#
# Elastic Compliance Matrix: (Units=1/GPa)
#
#
# Indices 1 2 3 4 5 6 
#
# 1 0.009928 -0.001225 -0.007733 0.000000 -0.002144 0.000000
# 2 -0.001225 0.009967 0.000773 0.000000 -0.001444 0.000000
# 3 -0.007733 0.000773 0.012351 0.000000 -0.000349 0.000000
# 4 0.000000 0.000000 0.000000 0.129701 0.000000 -0.067929
# 5 -0.002144 -0.001444 -0.000349 0.000000 0.019667 0.000000
# 6 0.000000 0.000000 0.000000 -0.067929 0.000000 0.084481
#
#
# Mechanical properties :
#
#
# Convention : Reuss Voigt Hill
#
# Bulk Modulus (GPa) = 62.99351 88.42149 75.70750
# Shear Modulus (GPa) = 17.37583 39.15269 28.26426
#
# Velocity S-wave (km/s) = 2.76212 4.14620 3.52280
# Velocity P-wave (km/s) = 6.15072 7.85780 7.05607
#
# Compressibility (1/GPa) = 0.01587465
#
# Stress axis : x y z
#
# Youngs Moduli (GPa) = 100.72894 100.33168 80.96758
#
# Poissons Ratio (x) = 0.12290 0.62614
# Poissons Ratio (y) = 0.12339 -0.06258
# Poissons Ratio (z) = 0.77896 -0.07755
#
# Static dielectric constant tensor:
#      x y z
#    x 1.883950 0.000000 0.069170 
#    y 0.000000 1.963560 0.000000 
#    z 0.069170 0.000000 1.848120 
# 
# From -- ./inp_files/219803.got.cif
#   From: 2010.05.17/outbox.cif.g08.bks.cpg/sg15_110_cif.got.tgz:219803.got - 2010.06.03 18:47:42.
