data_PCOD9255146
_publ_section_title
;
Structure prediction by ZEFSAII (Michael W. Deem and Ramdas Pophale) SiO2 
 PCOD9255146
Probable space group: C 2/C
;
_chemical_formula_sum "Si O2"
_cell_formula_units_Z 48
_cell_length_a 19.093219
_cell_length_b 11.667303
_cell_length_c 12.629545
_cell_angle_alpha 90.000000
_cell_angle_beta 104.746193
_cell_angle_gamma 90.000000
_cell_volume 2720.771295
_symmetry_space_group_name_H-M "C 2/C"
_symmetry_group_IT_number 15
_symmetry_cell_setting 'monoclinic'
loop_
_space_group_symop_operation_xyz
x,y,z
-x,y,1/2-z
-x,-y,-z
x,-y,1/2+z
1/2+x,1/2+y,z
1/2-x,1/2+y,1/2-z
1/2-x,1/2-y,-z
1/2+x,1/2-y,1/2+z
loop_
_atom_site_type_symbol
_atom_site_label
_atom_site_fract_x
_atom_site_fract_y
_atom_site_fract_z
Si Si1 0.823104 0.186775 0.495493
Si Si2 0.414355 0.317956 0.243969
Si Si3 0.490427 0.363531 0.623146
Si Si4 0.886505 0.978550 0.430002
Si Si5 0.062912 0.349636 0.064106
Si Si6 0.456709 0.076270 0.335526
O O1 0.750000 0.250000 0.500000
O O2 0.870519 0.166078 0.619491
O O3 0.820700 0.062602 0.436638
O O4 0.867713 0.275792 0.440323
O O5 0.500000 0.339228 0.250000
O O6 0.383897 0.396961 0.326519
O O7 0.410966 0.186281 0.282118
O O8 0.500000 0.391768 0.750000
O O9 0.415477 0.403980 0.540780
O O10 0.550440 0.431695 0.578333
O O11 0.509686 0.230691 0.612674
O O12 0.082389 0.468576 0.127429
O O13 0.016478 0.378564 0.941742
O O14 0.500000 0.034310 0.250000
#
# Coordination Sequence:
#
# PCOD9255146 Si02
#       6
#     8   8   8   8   8   8
#     4  11  23  39  55  80 117 149 188 229 281 335
#     4  11  18  37  61  84 108 144 188 234 286 332
#     4  10  17  28  52  86 114 128 174 239 282 321
#     4  10  19  32  54  81 107 146 181 225 282 335
#     4  10  19  33  53  84 109 142 184 228 275 328
#     4  10  18  32  57  82 108 143 184 228 277 328
#
# _framework density 17.642054999999999
#
# number of rings (size 3 to 8) (size 9 to 14) (size 15 to 20)
#    0.000    1.667    5.000    4.000    0.000    0.000 
#    3.000    0.000    0.000    1.000    0.000    0.000 
#    0.000    0.000    0.000    0.000    0.000    0.000 
#
# Total GULP energy -133739.687810 kJ/mol
# GULP energy per Si atom -5572.486992 kJ/mol
# Density = 1.760190 g / cm^3
# Si number density = 17.642055 Si / 1000 Ang^3
#
#
#
# Elastic Constant Matrix: (Units=GPa)
#
#
# Indices 1 2 3 4 5 6 
#
# 1 62.6487 34.9423 15.1685 0.0000 -7.1062 0.0000
# 2 34.9423 112.5065 28.6300 0.0000 -17.1698 0.0000
# 3 15.1685 28.6300 77.7041 0.0000 -15.4593 0.0000
# 4 0.0000 0.0000 0.0000 27.7703 0.0000 -15.5479
# 5 -7.1062 -17.1698 -15.4593 0.0000 15.6624 0.0000
# 6 0.0000 0.0000 0.0000 -15.5479 0.0000 24.8146
#
#
#
# Elastic Compliance Matrix: (Units=1/GPa)
#
#
# Indices 1 2 3 4 5 6 
#
# 1 0.019538 -0.005472 -0.001528 0.000000 0.001358 0.000000
# 2 -0.005472 0.012462 -0.001617 0.000000 0.009582 0.000000
# 3 -0.001528 -0.001617 0.016516 0.000000 0.013836 0.000000
# 4 0.000000 0.000000 0.000000 0.055468 0.000000 0.034754
# 5 0.001358 0.009582 0.013836 0.000000 0.088625 0.000000
# 6 0.000000 0.000000 0.000000 0.034754 0.000000 0.062075
#
#
# Mechanical properties :
#
#
# Convention : Reuss Voigt Hill
#
# Bulk Modulus (GPa) = 31.96674 45.59344 38.78009
# Shear Modulus (GPa) = 17.70892 25.25735 21.48314
#
# Velocity S-wave (km/s) = 3.17170 3.78783 3.49337
# Velocity P-wave (km/s) = 5.61889 6.71043 6.18877
#
# Compressibility (1/GPa) = 0.03128251
#
# Stress axis : x y z
#
# Youngs Moduli (GPa) = 51.18224 80.24552 60.54728
#
# Poissons Ratio (x) = 0.43912 0.09249
# Poissons Ratio (y) = 0.28008 0.09790
# Poissons Ratio (z) = 0.07819 0.12975
#
# Static dielectric constant tensor:
#      x y z
#    x 1.592260 0.000000 -0.015890 
#    y 0.000000 1.653920 0.000000 
#    z -0.015890 0.000000 1.610340 
# 
# From -- ./inp_files/104270.got.cif
#   From: 2010.05.17/outbox.cif.g08.bks.cpg/sg15_53_cif.got.tgz:104270.got - 2010.06.03 18:47:42.
