data_PCOD9255944
_publ_section_title
;
Structure prediction by ZEFSAII (Michael W. Deem and Ramdas Pophale) SiO2 
 PCOD9255944
Probable space group: C 2/C
;
_chemical_formula_sum "Si O2"
_cell_formula_units_Z 40
_cell_length_a 20.839524
_cell_length_b 14.297739
_cell_length_c 9.826809
_cell_angle_alpha 90.000000
_cell_angle_beta 30.790122
_cell_angle_gamma 90.000000
_cell_volume 1498.816159
_symmetry_space_group_name_H-M "C 2/C"
_symmetry_group_IT_number 15
_symmetry_cell_setting 'monoclinic'
loop_
_space_group_symop_operation_xyz
x,y,z
-x,y,1/2-z
-x,-y,-z
x,-y,1/2+z
1/2+x,1/2+y,z
1/2-x,1/2+y,1/2-z
1/2-x,1/2-y,-z
1/2+x,1/2-y,1/2+z
loop_
_atom_site_type_symbol
_atom_site_label
_atom_site_fract_x
_atom_site_fract_y
_atom_site_fract_z
Si Si1 0.501901 0.889604 0.965670
Si Si2 0.624532 0.444794 0.739684
Si Si3 0.675433 0.200225 0.949693
Si Si4 0.130199 0.245899 0.117126
Si Si5 0.354353 0.416296 0.506138
O O1 0.404865 0.850941 0.024900
O O2 0.458502 0.831546 0.178670
O O3 0.635336 0.856146 0.657589
O O4 0.500000 0.000000 0.000000
O O5 0.571480 0.349850 0.775676
O O6 0.701252 0.506408 0.492595
O O7 0.500000 0.500000 0.000000
O O8 0.698510 0.425652 0.745009
O O9 0.812177 0.219168 0.634915
O O10 0.639652 0.308112 0.044581
O O11 0.250000 0.250000 0.000000
O O12 0.500000 0.443191 0.250000
#
# Coordination Sequence:
#
# PCOD9255944 Si02
#       5
#     8   8   8   8   8
#     4  10  19  34  60  85 114 156 208 244 301 372
#     4  10  19  32  59  90 115 155 203 252 305 365
#     4  10  19  37  60  80 118 162 198 251 314 364
#     4  10  19  36  59  87 117 157 205 246 306 370
#     4  10  17  33  58  86 115 154 201 244 305 365
#
# _framework density 26.687729000000001
#
# number of rings (size 3 to 8) (size 9 to 14) (size 15 to 20)
#    0.000    2.000    6.000    1.200    0.000    1.600 
#    0.000    0.000   22.000    1.200    0.000    0.000 
#    0.000    0.000    0.000    0.000    0.000    0.000 
#
# Total GULP energy -111628.116690 kJ/mol
# GULP energy per Si atom -5581.405835 kJ/mol
# Density = 2.662699 g / cm^3
# Si number density = 26.687729 Si / 1000 Ang^3
#
#
#
# Elastic Constant Matrix: (Units=GPa)
#
#
# Indices 1 2 3 4 5 6 
#
# 1 79.1731 41.9596 36.6785 0.0000 3.1595 0.0000
# 2 41.9596 247.3320 96.3855 0.0000 29.9750 0.0000
# 3 36.6785 96.3855 182.6456 0.0000 41.1546 0.0000
# 4 0.0000 0.0000 0.0000 44.7567 0.0000 15.4248
# 5 3.1595 29.9750 41.1546 0.0000 36.7411 0.0000
# 6 0.0000 0.0000 0.0000 15.4248 0.0000 31.9496
#
#
#
# Elastic Compliance Matrix: (Units=1/GPa)
#
#
# Indices 1 2 3 4 5 6 
#
# 1 0.014737 -0.001834 -0.002733 0.000000 0.003290 0.000000
# 2 -0.001834 0.005383 -0.002031 0.000000 -0.001959 0.000000
# 3 -0.002733 -0.002031 0.008921 0.000000 -0.008101 0.000000
# 4 0.000000 0.000000 0.000000 0.026803 0.000000 -0.012940
# 5 0.003290 -0.001959 -0.008101 0.000000 0.037607 0.000000
# 6 0.000000 0.000000 0.000000 -0.012940 0.000000 0.037546
#
#
# Mechanical properties :
#
#
# Convention : Reuss Voigt Hill
#
# Bulk Modulus (GPa) = 63.10981 95.46644 79.28812
# Shear Modulus (GPa) = 33.45037 44.96461 39.20749
#
# Velocity S-wave (km/s) = 3.54418 4.10914 3.83707
# Velocity P-wave (km/s) = 6.35980 7.63955 7.02886
#
# Compressibility (1/GPa) = 0.01584540
#
# Stress axis : x y z
#
# Youngs Moduli (GPa) = 67.85502 185.76269 112.09401
#
# Poissons Ratio (x) = 0.34065 0.30637
# Poissons Ratio (y) = 0.12443 0.22768
# Poissons Ratio (z) = 0.18546 0.37731
#
# Static dielectric constant tensor:
#      x y z
#    x 3.418450 0.000000 1.399900 
#    y 0.000000 2.181570 0.000000 
#    z 1.399900 0.000000 3.171830 
# 
# From -- ./inp_files/126356.got.cif
#   From: 2010.05.17/outbox.cif.g08.bks.cpg/sg15_64_cif.got.tgz:126356.got - 2010.06.03 18:47:42.
