data_PCOD9255945
_publ_section_title
;
Structure prediction by ZEFSAII (Michael W. Deem and Ramdas Pophale) SiO2 
 PCOD9255945
Probable space group: C 2/C
;
_chemical_formula_sum "Si O2"
_cell_formula_units_Z 48
_cell_length_a 14.651349
_cell_length_b 34.775724
_cell_length_c 14.752416
_cell_angle_alpha 90.000000
_cell_angle_beta 160.371189
_cell_angle_gamma 90.000000
_cell_volume 2524.989507
_symmetry_space_group_name_H-M "C 2/C"
_symmetry_group_IT_number 15
_symmetry_cell_setting 'monoclinic'
loop_
_space_group_symop_operation_xyz
x,y,z
-x,y,1/2-z
-x,-y,-z
x,-y,1/2+z
1/2+x,1/2+y,z
1/2-x,1/2+y,1/2-z
1/2-x,1/2-y,-z
1/2+x,1/2-y,1/2+z
loop_
_atom_site_type_symbol
_atom_site_label
_atom_site_fract_x
_atom_site_fract_y
_atom_site_fract_z
Si Si1 0.674596 0.651910 0.622117
Si Si2 0.595542 0.372958 0.243889
Si Si3 0.470258 0.272162 0.831428
Si Si4 0.000000 0.507212 0.250000
Si Si5 0.807840 0.598797 0.396379
Si Si6 0.000000 0.045820 0.250000
Si Si7 0.895399 0.575082 0.284055
O O1 0.639760 0.654593 0.698605
O O2 0.597793 0.690591 0.497625
O O3 0.444281 0.622631 0.376030
O O4 0.956643 0.630054 0.862689
O O5 0.500000 0.355659 0.250000
O O6 0.882874 0.392686 0.530837
O O7 0.387278 0.407296 0.018652
O O8 0.500000 0.275036 0.750000
O O9 0.151924 0.262753 0.541955
O O10 0.991065 0.536061 0.326918
O O11 0.270821 0.481756 0.493023
O O12 0.687047 0.572940 0.362491
O O13 0.897146 0.572725 0.394701
#
# Coordination Sequence:
#
# PCOD9255945 Si02
#       7
#     8   8   8   4   8   4   8
#     4  10  21  37  62  84 112 155 182 236 285 321
#     4  10  17  33  58  87 111 137 195 240 281 328
#     4  10  21  38  59  89 119 150 191 222 268 336
#     4  12  22  36  58  78 108 153 188 237 310 332
#     4  10  23  40  54  83 114 145 199 233 282 338
#     4  12  26  38  52  80 112 153 190 235 298 358
#     4  10  20  35  58  80 106 146 190 248 281 338
#
# _framework density 19.009979999999999
#
# number of rings (size 3 to 8) (size 9 to 14) (size 15 to 20)
#    0.000    1.667    1.667    3.000    1.167    1.333 
#    0.000    0.000    0.000    1.000    0.000    0.000 
#    0.000    0.000    0.000    0.000    0.000    0.000 
#
# Total GULP energy -133741.311301 kJ/mol
# GULP energy per Si atom -5572.554638 kJ/mol
# Density = 1.896671 g / cm^3
# Si number density = 19.009980 Si / 1000 Ang^3
#
#
#
# Elastic Constant Matrix: (Units=GPa)
#
#
# Indices 1 2 3 4 5 6 
#
# 1 98.2710 59.1589 40.5543 0.0044 3.8584 -0.0038
# 2 59.1589 88.8335 40.5986 0.0042 -7.1516 -0.0034
# 3 40.5543 40.5986 111.5628 0.0168 7.4724 -0.0162
# 4 0.0044 0.0042 0.0168 11.7173 0.0057 -2.5411
# 5 3.8584 -7.1516 7.4724 0.0057 27.4248 -0.0068
# 6 -0.0038 -0.0034 -0.0162 -2.5411 -0.0068 49.0355
#
#
#
# Elastic Compliance Matrix: (Units=1/GPa)
#
#
# Indices 1 2 3 4 5 6 
#
# 1 0.018194 -0.011576 -0.002065 0.000003 -0.005016 -0.000001
# 2 -0.011576 0.021562 -0.004201 -0.000001 0.008396 0.000000
# 3 -0.002065 -0.004201 0.011507 -0.000012 -0.003940 0.000002
# 4 0.000003 -0.000001 -0.000012 0.086314 -0.000014 0.004473
# 5 -0.005016 0.008396 -0.003940 -0.000014 0.040432 0.000004
# 6 -0.000001 0.000000 0.000002 0.004473 0.000004 0.020625
#
#
# Mechanical properties :
#
#
# Convention : Reuss Voigt Hill
#
# Bulk Modulus (GPa) = 64.19115 64.36566 64.27841
# Shear Modulus (GPa) = 20.87583 28.19255 24.53419
#
# Velocity S-wave (km/s) = 3.31743 3.85520 3.59638
# Velocity P-wave (km/s) = 6.96521 7.33138 7.15064
#
# Compressibility (1/GPa) = 0.01557847
#
# Stress axis : x y z
#
# Youngs Moduli (GPa) = 54.96301 46.37751 86.90479
#
# Poissons Ratio (x) = 0.53689 0.17946
# Poissons Ratio (y) = 0.63628 0.36507
# Poissons Ratio (z) = 0.11350 0.19482
#
# Static dielectric constant tensor:
#      x y z
#    x 1.709860 0.000010 0.022340 
#    y 0.000010 1.623480 -0.000010 
#    z 0.022340 -0.000010 1.630020 
# 
# From -- ./inp_files/157739.got.cif
#   From: 2010.05.17/outbox.cif.g08.bks.cpg/sg15_79_cif.got.tgz:157739.got - 2010.06.03 18:47:42.
