data_PCOD9255053
_publ_section_title
;
Structure prediction by ZEFSAII (Michael W. Deem and Ramdas Pophale) SiO2 
 PCOD9255053
Probable space group: C 2/C
;
_chemical_formula_sum "Si O2"
_cell_formula_units_Z 64
_cell_length_a 26.373464
_cell_length_b 14.132165
_cell_length_c 14.925031
_cell_angle_alpha 90.000000
_cell_angle_beta 142.679152
_cell_angle_gamma 90.000000
_cell_volume 3372.584092
_symmetry_space_group_name_H-M "C 2/C"
_symmetry_group_IT_number 15
_symmetry_cell_setting 'monoclinic'
loop_
_space_group_symop_operation_xyz
x,y,z
-x,y,1/2-z
-x,-y,-z
x,-y,1/2+z
1/2+x,1/2+y,z
1/2-x,1/2+y,1/2-z
1/2-x,1/2-y,-z
1/2+x,1/2-y,1/2+z
loop_
_atom_site_type_symbol
_atom_site_label
_atom_site_fract_x
_atom_site_fract_y
_atom_site_fract_z
Si Si1 0.793504 0.578689 0.317798
Si Si2 0.824319 0.745155 0.853353
Si Si3 0.262340 0.416059 0.152431
Si Si4 0.959797 0.647589 0.943646
Si Si5 0.412376 0.641699 0.625806
Si Si6 0.229666 0.585095 0.409325
Si Si7 0.387600 0.737494 0.771157
Si Si8 0.025560 0.483252 0.387497
O O1 0.753930 0.683260 0.268080
O O2 0.729452 0.508444 0.276199
O O3 0.806921 0.543161 0.233582
O O4 0.883417 0.565597 0.487838
O O5 0.794574 0.657801 0.872799
O O6 0.873736 0.704332 0.837773
O O7 0.891088 0.805765 0.004096
O O8 0.347444 0.359191 0.251701
O O9 0.219634 0.444611 0.997618
O O10 0.966895 0.588426 0.861962
O O11 0.969269 0.575736 0.041715
O O12 0.040482 0.716336 0.067640
O O13 0.500000 0.588039 0.750000
O O14 0.328728 0.584714 0.530579
O O15 0.419875 0.717527 0.716599
O O16 0.190002 0.690229 0.348962
O O17 0.000000 0.504688 0.250000
#
# Coordination Sequence:
#
# PCOD9255053 Si02
#       8
#     8   8   8   8   8   8   8   8
#     4  11  23  38  60  88 119 161 200 247 298 364
#     4  11  20  36  59  89 124 153 201 237 300 359
#     4  11  20  36  59  84 122 161 192 247 302 348
#     4  11  23  37  61  91 120 153 195 258 303 353
#     4  10  17  27  54  90 110 143 186 247 297 346
#     4  10  20  35  57  85 118 152 196 248 305 354
#     4  11  18  32  58  86 117 154 190 245 309 354
#     4  11  25  39  59  91 123 153 196 251 308 357
#
# _framework density 18.976545999999999
#
# number of rings (size 3 to 8) (size 9 to 14) (size 15 to 20)
#    0.000    1.250    7.500    0.750    3.500    0.000 
#    0.000    1.250    2.750    0.000    0.000    0.000 
#    0.000    0.000    0.000    0.000    0.000    0.000 
#
# Total GULP energy -178352.948194 kJ/mol
# GULP energy per Si atom -5573.529631 kJ/mol
# Density = 1.893335 g / cm^3
# Si number density = 18.976546 Si / 1000 Ang^3
#
#
#
# Elastic Constant Matrix: (Units=GPa)
#
#
# Indices 1 2 3 4 5 6 
#
# 1 82.3211 30.6709 21.4153 0.0000 0.7819 0.0000
# 2 30.6709 40.7996 7.3028 0.0000 -14.9154 0.0000
# 3 21.4153 7.3028 51.8911 0.0000 2.9181 0.0000
# 4 0.0000 0.0000 0.0000 12.3221 0.0000 3.2963
# 5 0.7819 -14.9154 2.9181 0.0000 37.2169 0.0000
# 6 0.0000 0.0000 0.0000 3.2963 0.0000 33.1138
#
#
#
# Elastic Compliance Matrix: (Units=1/GPa)
#
#
# Indices 1 2 3 4 5 6 
#
# 1 0.019651 -0.016154 -0.005473 0.000000 -0.006458 0.000000
# 2 -0.016154 0.043190 -0.000406 0.000000 0.017680 0.000000
# 3 -0.005473 -0.000406 0.021685 0.000000 -0.001748 0.000000
# 4 0.000000 0.000000 0.000000 0.083375 0.000000 -0.008300
# 5 -0.006458 0.017680 -0.001748 0.000000 0.034228 0.000000
# 6 0.000000 0.000000 0.000000 -0.008300 0.000000 0.031025
#
#
# Mechanical properties :
#
#
# Convention : Reuss Voigt Hill
#
# Bulk Modulus (GPa) = 24.71568 32.64330 28.67949
# Shear Modulus (GPa) = 17.19935 24.23874 20.71905
#
# Velocity S-wave (km/s) = 3.01383 3.57781 3.30786
# Velocity P-wave (km/s) = 5.01632 5.85721 5.45300
#
# Compressibility (1/GPa) = 0.04046015
#
# Stress axis : x y z
#
# Youngs Moduli (GPa) = 50.88709 23.15355 46.11384
#
# Poissons Ratio (x) = 0.37402 0.25240
# Poissons Ratio (y) = 0.82202 0.01872
# Poissons Ratio (z) = 0.27853 0.00940
#
# Static dielectric constant tensor:
#      x y z
#    x 1.733590 0.000000 0.009060 
#    y 0.000000 1.662730 0.000000 
#    z 0.009060 0.000000 1.681880 
# 
# From -- ./inp_files/178174.got.cif
#   From: 2010.05.17/outbox.cif.g08.bks.cpg/sg15_90_cif.got.tgz:178174.got - 2010.06.03 18:47:42.
