data_PCOD9255043
_publ_section_title
;
Structure prediction by ZEFSAII (Michael W. Deem and Ramdas Pophale) SiO2 
 PCOD9255043
Probable space group: C 2/C
;
_chemical_formula_sum "Si O2"
_cell_formula_units_Z 60
_cell_length_a 21.665641
_cell_length_b 25.962038
_cell_length_c 13.675174
_cell_angle_alpha 90.000000
_cell_angle_beta 29.679171
_cell_angle_gamma 90.000000
_cell_volume 3808.673147
_symmetry_space_group_name_H-M "C 2/C"
_symmetry_group_IT_number 15
_symmetry_cell_setting 'monoclinic'
loop_
_space_group_symop_operation_xyz
x,y,z
-x,y,1/2-z
-x,-y,-z
x,-y,1/2+z
1/2+x,1/2+y,z
1/2-x,1/2+y,1/2-z
1/2-x,1/2-y,-z
1/2+x,1/2-y,1/2+z
loop_
_atom_site_type_symbol
_atom_site_label
_atom_site_fract_x
_atom_site_fract_y
_atom_site_fract_z
Si Si1 0.773168 0.009608 0.040174
Si Si2 0.557057 0.266336 0.776959
Si Si3 0.136251 0.430208 0.108824
Si Si4 0.207074 0.328406 0.129959
Si Si5 0.876377 0.146852 0.572718
Si Si6 0.500000 0.430012 0.750000
Si Si7 0.824675 0.036593 0.184455
Si Si8 0.892836 0.932638 0.207148
O O1 0.759389 0.027226 0.170303
O O2 0.658984 0.979820 0.147251
O O3 0.822122 0.055727 0.904950
O O4 0.884682 0.966943 0.884290
O O5 0.500000 0.250883 0.750000
O O6 0.674268 0.303291 0.589894
O O7 0.604420 0.216379 0.768200
O O8 0.454523 0.300773 0.971938
O O9 0.162138 0.379029 0.135702
O O10 0.000000 0.429801 0.250000
O O11 0.237625 0.434882 0.882138
O O12 0.257116 0.343032 0.168390
O O13 0.853837 0.119017 0.705650
O O14 0.960811 0.106632 0.393080
O O15 0.856604 0.980795 0.186938
O O16 0.957778 0.064238 0.985378
#
# Coordination Sequence:
#
# PCOD9255043 Si02
#       8
#     8   8   8   8   8   4   8   8
#     4  11  19  31  48  71  97 128 168 206 242 277
#     4   9  17  27  43  65  89 120 152 202 247 290
#     4  11  22  31  43  65  99 140 168 185 229 306
#     4  10  17  29  43  61  94 125 157 192 237 293
#     4  11  17  27  45  70  97 126 152 197 255 294
#     4  12  14  28  48  70  94 126 152 202 246 286
#     4  10  18  29  46  68  95 128 162 205 240 275
#     4  10  17  27  49  73  93 122 163 208 248 284
#
# _framework density 15.753518
#
# number of rings (size 3 to 8) (size 9 to 14) (size 15 to 20)
#    0.000    1.600    6.000    2.800    0.000    0.533 
#    0.000    0.000    0.000    0.000    0.000    0.000 
#    0.000   46.933    0.000    0.133    0.000    0.000 
#
# Total GULP energy -167356.660361 kJ/mol
# GULP energy per Si atom -5578.555345 kJ/mol
# Density = 1.571766 g / cm^3
# Si number density = 15.753518 Si / 1000 Ang^3
#
#
#
# Elastic Constant Matrix: (Units=GPa)
#
#
# Indices 1 2 3 4 5 6 
#
# 1 92.0960 42.3184 27.2975 0.0002 -7.8625 -0.0016
# 2 42.3184 71.1370 24.5191 0.0004 -8.2907 -0.0005
# 3 27.2975 24.5191 29.6081 0.0002 -11.8289 -0.0008
# 4 0.0002 0.0004 0.0002 10.3360 -0.0003 -4.4719
# 5 -7.8625 -8.2907 -11.8289 -0.0003 28.1855 0.0014
# 6 -0.0016 -0.0005 -0.0008 -4.4719 0.0014 32.2813
#
#
#
# Elastic Compliance Matrix: (Units=1/GPa)
#
#
# Indices 1 2 3 4 5 6 
#
# 1 0.016942 -0.006517 -0.010933 0.000000 -0.001780 0.000001
# 2 -0.006517 0.022217 -0.012621 -0.000001 -0.000580 0.000000
# 3 -0.010933 -0.012621 0.062000 0.000000 0.019258 0.000000
# 4 0.000000 -0.000001 0.000000 0.102917 0.000000 0.014257
# 5 -0.001780 -0.000580 0.019258 0.000000 0.042894 -0.000001
# 6 0.000001 0.000000 0.000000 0.014257 -0.000001 0.032953
#
#
# Mechanical properties :
#
#
# Convention : Reuss Voigt Hill
#
# Bulk Modulus (GPa) = 24.38132 42.34567 33.36350
# Shear Modulus (GPa) = 14.13468 20.74097 17.43783
#
# Velocity S-wave (km/s) = 2.99865 3.63243 3.33064
# Velocity P-wave (km/s) = 5.24400 6.67317 6.00128
#
# Compressibility (1/GPa) = 0.04101500
#
# Stress axis : x y z
#
# Youngs Moduli (GPa) = 59.02581 45.01025 16.12891
#
# Poissons Ratio (x) = 0.29335 0.17634
# Poissons Ratio (y) = 0.38469 0.20357
# Poissons Ratio (z) = 0.64535 0.56809
#
# Static dielectric constant tensor:
#      x y z
#    x 1.550800 0.000000 -0.015690 
#    y 0.000000 1.523330 0.000000 
#    z -0.015690 0.000000 1.519330 
# 
# From -- ./inp_files/169765.got.cif
#   From: 2010.05.17/outbox.cif.g08.bks.cpg/sg15_85_cif.got.tgz:169765.got - 2010.06.03 18:47:42.
