data_PCOD9255545
_publ_section_title
;
Structure prediction by ZEFSAII (Michael W. Deem and Ramdas Pophale) SiO2 
 PCOD9255545
Probable space group: C 2/C
;
_chemical_formula_sum "Si O2"
_cell_formula_units_Z 60
_cell_length_a 20.045211
_cell_length_b 27.406116
_cell_length_c 14.156479
_cell_angle_alpha 90.000000
_cell_angle_beta 152.189021
_cell_angle_gamma 90.000000
_cell_volume 3628.417703
_symmetry_space_group_name_H-M "C 2/C"
_symmetry_group_IT_number 15
_symmetry_cell_setting 'monoclinic'
loop_
_space_group_symop_operation_xyz
x,y,z
-x,y,1/2-z
-x,-y,-z
x,-y,1/2+z
1/2+x,1/2+y,z
1/2-x,1/2+y,1/2-z
1/2-x,1/2-y,-z
1/2+x,1/2-y,1/2+z
loop_
_atom_site_type_symbol
_atom_site_label
_atom_site_fract_x
_atom_site_fract_y
_atom_site_fract_z
Si Si1 0.886779 0.927199 0.362532
Si Si2 0.164497 0.979247 0.794178
Si Si3 0.462429 0.369906 0.101815
Si Si4 0.643344 0.629620 0.488248
Si Si5 0.833720 0.386518 0.055534
Si Si6 0.194708 0.194532 0.249306
Si Si7 0.543966 0.737646 0.412012
Si Si8 0.500000 0.462985 0.250000
O O1 0.836402 0.902075 0.393970
O O2 0.043136 0.949226 0.585162
O O3 0.909747 0.888480 0.306896
O O4 0.794546 0.973382 0.215113
O O5 0.287016 0.941453 0.972480
O O6 0.091116 0.003026 0.795105
O O7 0.500000 0.346238 0.250000
O O8 0.408306 0.423830 0.071886
O O9 0.373515 0.332767 0.926330
O O10 0.500000 0.614058 0.250000
O O11 0.778719 0.625015 0.591040
O O12 0.613263 0.684735 0.481042
O O13 0.000000 0.379037 0.250000
O O14 0.744489 0.349449 0.879085
O O15 0.334331 0.226016 0.399397
O O16 0.084979 0.227375 0.175500
O O17 0.500000 0.754239 0.250000
#
# Coordination Sequence:
#
# PCOD9255545 Si02
#       8
#     8   8   8   8   8   8   8   4
#     4  10  17  31  59  83 109 144 196 239 266 331
#     4  10  17  31  54  87 111 144 193 230 282 326
#     4   9  18  35  56  87 112 146 192 247 279 315
#     4  11  18  36  57  83 111 147 191 235 281 344
#     4  12  24  36  54  85 129 151 176 233 298 350
#     4  12  22  39  56  85 118 147 192 232 291 346
#     4  11  22  35  60  86 114 146 185 237 293 352
#     4   8  18  30  62  86 106 146 196 238 264 330
#
# _framework density 16.536133
#
# number of rings (size 3 to 8) (size 9 to 14) (size 15 to 20)
#    0.400    1.067    6.667    1.600    1.867    0.000 
#    0.000    1.333    0.000    0.000    0.000    0.000 
#    0.000    0.000    0.000    0.000    0.000    0.000 
#
# Total GULP energy -167036.001621 kJ/mol
# GULP energy per Si atom -5567.866721 kJ/mol
# Density = 1.649850 g / cm^3
# Si number density = 16.536133 Si / 1000 Ang^3
#
#
#
# Elastic Constant Matrix: (Units=GPa)
#
#
# Indices 1 2 3 4 5 6 
#
# 1 110.2566 29.0039 43.7162 0.0000 -10.1280 0.0000
# 2 29.0039 69.1628 33.8309 0.0000 -2.6279 0.0000
# 3 43.7162 33.8309 51.4289 0.0000 4.6202 0.0000
# 4 0.0000 0.0000 0.0000 -2.8567 0.0000 -64.7741
# 5 -10.1280 -2.6279 4.6202 0.0000 22.2986 0.0000
# 6 0.0000 0.0000 0.0000 -64.7741 0.0000 -141.9269
#
#
#
# Elastic Compliance Matrix: (Units=1/GPa)
#
#
# Indices 1 2 3 4 5 6 
#
# 1 0.015670 0.001170 -0.015021 0.000000 0.010368 0.000000
# 2 0.001170 0.022094 -0.016110 0.000000 0.006473 0.000000
# 3 -0.015021 -0.016110 0.044421 0.000000 -0.017925 0.000000
# 4 0.000000 0.000000 0.000000 0.037445 0.000000 -0.017090
# 5 0.010368 0.006473 -0.017925 0.000000 0.054032 0.000000
# 6 0.000000 0.000000 0.000000 -0.017090 0.000000 0.000754
#
#
# Mechanical properties :
#
#
# Convention : Reuss Voigt Hill
#
# Bulk Modulus (GPa) = 44.91851 49.32781 47.12316
# Shear Modulus (GPa) = 20.68170 -16.21050 2.23560
#
# Velocity S-wave (km/s) = 3.54036 -3.13438 1.16399
# Velocity P-wave (km/s) = 6.62835 4.09828 5.51049
#
# Compressibility (1/GPa) = 0.02226254
#
# Stress axis : x y z
#
# Youngs Moduli (GPa) = 63.81548 45.26079 22.51190
#
# Poissons Ratio (x) = -0.05296 0.33816
# Poissons Ratio (y) = -0.07468 0.36267
# Poissons Ratio (z) = 0.95859 0.72916
#
# Static dielectric constant tensor:
#      x y z
#    x 1.584710 0.000000 -0.024210 
#    y 0.000000 1.582470 0.000000 
#    z -0.024210 0.000000 1.550350 
# 
# From -- ./inp_files/164402.got.cif
#   From: 2010.05.17/outbox.cif.g08.bks.cpg/sg15_83_cif.got.tgz:164402.got - 2010.06.03 18:47:42.
