data_PCOD9255754
_publ_section_title
;
Structure prediction by ZEFSAII (Michael W. Deem and Ramdas Pophale) SiO2 
 PCOD9255754
Probable space group: C 2/C
;
_chemical_formula_sum "Si O2"
_cell_formula_units_Z 56
_cell_length_a 22.953500
_cell_length_b 10.766325
_cell_length_c 14.469251
_cell_angle_alpha 90.000000
_cell_angle_beta 38.170638
_cell_angle_gamma 90.000000
_cell_volume 2209.809607
_symmetry_space_group_name_H-M "C 2/C"
_symmetry_group_IT_number 15
_symmetry_cell_setting 'monoclinic'
loop_
_space_group_symop_operation_xyz
x,y,z
-x,y,1/2-z
-x,-y,-z
x,-y,1/2+z
1/2+x,1/2+y,z
1/2-x,1/2+y,1/2-z
1/2-x,1/2-y,-z
1/2+x,1/2-y,1/2+z
loop_
_atom_site_type_symbol
_atom_site_label
_atom_site_fract_x
_atom_site_fract_y
_atom_site_fract_z
Si Si1 0.354836 0.980529 0.346053
Si Si2 0.346059 0.514749 0.422657
Si Si3 0.173950 0.221911 0.202269
Si Si4 0.000000 0.500000 0.000000
Si Si5 0.521154 0.309034 0.025941
Si Si6 0.500000 0.692090 0.750000
Si Si7 0.133458 0.071584 0.900240
Si Si8 0.822302 0.544764 0.095560
O O1 0.257194 0.046357 0.439715
O O2 0.317948 0.837865 0.375499
O O3 0.441824 0.005747 0.173131
O O4 0.363528 0.995006 0.444636
O O5 0.357453 0.601937 0.318688
O O6 0.416167 0.400991 0.328215
O O7 0.368265 0.592902 0.487520
O O8 0.089424 0.268333 0.374698
O O9 0.262373 0.172136 0.150933
O O10 0.904487 0.551549 0.066259
O O11 0.519236 0.246399 0.128167
O O12 0.424552 0.336610 0.093239
O O13 0.576809 0.439760 0.965029
O O14 0.239663 0.048506 0.733584
#
# Coordination Sequence:
#
# PCOD9255754 Si02
#       8
#     8   8   8   4   8   4   8   8
#     4  11  23  41  62  87 121 167 213 266 314 376
#     4  10  17  32  56  87 120 151 195 258 323 369
#     4  10  21  38  59  93 127 156 203 280 325 369
#     4  12  24  42  58  92 128 182 216 250 316 402
#     4   9  17  30  52  85 120 150 202 250 322 383
#     4  10  18  30  58  88 116 160 196 250 318 394
#     4   9  16  31  54  85 116 156 195 254 316 380
#     4  10  20  39  62  87 124 162 213 261 316 378
#
# _framework density 25.341549000000001
#
# number of rings (size 3 to 8) (size 9 to 14) (size 15 to 20)
#    0.000    2.000    1.429    6.429    0.000    0.000 
#   12.857    0.000    3.143    0.000    0.000    7.000 
#    0.000    0.000    0.000    0.000    0.000    0.000 
#
# Total GULP energy -156177.798557 kJ/mol
# GULP energy per Si atom -5577.778520 kJ/mol
# Density = 2.528387 g / cm^3
# Si number density = 25.341549 Si / 1000 Ang^3
#
#
#
# Elastic Constant Matrix: (Units=GPa)
#
#
# Indices 1 2 3 4 5 6 
#
# 1 190.0967 34.6287 56.3318 0.0000 3.2046 0.0000
# 2 34.6287 67.0002 18.2109 0.0000 -8.4475 0.0000
# 3 56.3318 18.2109 168.2628 0.0000 13.9877 0.0000
# 4 0.0000 0.0000 0.0000 3.1109 0.0000 -2.2446
# 5 3.2046 -8.4475 13.9877 0.0000 61.3058 0.0000
# 6 0.0000 0.0000 0.0000 -2.2446 0.0000 20.5373
#
#
#
# Elastic Compliance Matrix: (Units=1/GPa)
#
#
# Indices 1 2 3 4 5 6 
#
# 1 0.006306 -0.002815 -0.001781 0.000000 -0.000311 0.000000
# 2 -0.002815 0.017034 -0.001130 0.000000 0.002752 0.000000
# 3 -0.001781 -0.001130 0.006796 0.000000 -0.001613 0.000000
# 4 0.000000 0.000000 0.000000 0.348973 0.000000 0.038141
# 5 -0.000311 0.002752 -0.001613 0.000000 0.017075 0.000000
# 6 0.000000 0.000000 0.000000 0.038141 0.000000 0.052860
#
#
# Mechanical properties :
#
#
# Convention : Reuss Voigt Hill
#
# Bulk Modulus (GPa) = 53.51816 71.52250 62.52033
# Shear Modulus (GPa) = 10.71298 38.07001 24.39150
#
# Velocity S-wave (km/s) = 2.05830 3.88013 3.10580
# Velocity P-wave (km/s) = 5.17817 6.95403 6.13074
#
# Compressibility (1/GPa) = 0.01868525
#
# Stress axis : x y z
#
# Youngs Moduli (GPa) = 158.57635 58.70549 147.15293
#
# Poissons Ratio (x) = 0.16523 0.26204
# Poissons Ratio (y) = 0.44632 0.16630
# Poissons Ratio (z) = 0.28238 0.06634
#
# Static dielectric constant tensor:
#      x y z
#    x 2.066060 0.000000 -0.046660 
#    y 0.000000 2.093280 0.000000 
#    z -0.046660 0.000000 2.064840 
# 
# From -- ./inp_files/168458.got.cif
#   From: 2010.05.17/outbox.cif.g08.bks.cpg/sg15_85_cif.got.tgz:168458.got - 2010.06.03 18:47:42.
