data_PCOD9255217
_publ_section_title
;
Structure prediction by ZEFSAII (Michael W. Deem and Ramdas Pophale) SiO2 
 PCOD9255217
Probable space group: C 2/C
;
_chemical_formula_sum "Si O2"
_cell_formula_units_Z 56
_cell_length_a 7.802240
_cell_length_b 18.325480
_cell_length_c 15.227630
_cell_angle_alpha 90.000000
_cell_angle_beta 83.970572
_cell_angle_gamma 90.000000
_cell_volume 2165.199043
_symmetry_space_group_name_H-M "C 2/C"
_symmetry_group_IT_number 15
_symmetry_cell_setting 'monoclinic'
loop_
_space_group_symop_operation_xyz
x,y,z
-x,y,1/2-z
-x,-y,-z
x,-y,1/2+z
1/2+x,1/2+y,z
1/2-x,1/2+y,1/2-z
1/2-x,1/2-y,-z
1/2+x,1/2-y,1/2+z
loop_
_atom_site_type_symbol
_atom_site_label
_atom_site_fract_x
_atom_site_fract_y
_atom_site_fract_z
Si Si1 0.683935 0.862772 0.183691
Si Si2 0.320616 0.811695 0.928909
Si Si3 0.517425 0.086453 0.525486
Si Si4 0.486114 0.587533 0.009965
Si Si5 0.211701 0.787223 0.743558
Si Si6 0.842256 0.923724 0.826425
Si Si7 0.316990 0.589872 0.850363
O O1 0.500000 0.866354 0.250000
O O2 0.665546 0.903060 0.091499
O O3 0.736633 0.778181 0.174581
O O4 0.815233 0.892378 0.249053
O O5 0.189672 0.881278 0.937236
O O6 0.294126 0.774159 0.834669
O O7 0.250000 0.750000 0.000000
O O8 0.496978 0.852668 0.949446
O O9 0.355229 0.115381 0.591643
O O10 0.500000 0.000000 0.500000
O O11 0.614949 0.609884 0.080151
O O12 0.500000 0.500000 0.000000
O O13 0.466534 0.612377 0.910201
O O14 0.277453 0.866981 0.715614
O O15 0.000000 0.794475 0.750000
O O16 0.000000 0.937439 0.750000
O O17 0.782623 0.003390 0.852221
#
# Coordination Sequence:
#
# PCOD9255217 Si02
#       7
#     8   8   8   8   8   8   8
#     4   9  18  34  49  76 107 136 175 223 265 308
#     4  11  19  31  53  81 107 138 180 227 269 315
#     4  10  22  35  53  79 111 143 181 221 269 325
#     4   9  17  30  45  76 108 131 166 219 272 319
#     4  10  17  29  50  79 102 128 175 226 269 304
#     4  10  18  29  51  80 103 127 174 219 265 315
#     4   9  19  32  51  72 105 142 168 213 266 317
#
# _framework density 25.863672999999999
#
# number of rings (size 3 to 8) (size 9 to 14) (size 15 to 20)
#    0.000    2.286    2.857    3.429    2.000    0.000 
#    0.000    0.000    0.000    0.857   14.857    0.000 
#    0.000    0.000    0.000    0.000    0.000    0.000 
#
# Total GULP energy -155885.584916 kJ/mol
# GULP energy per Si atom -5567.342318 kJ/mol
# Density = 2.580481 g / cm^3
# Si number density = 25.863673 Si / 1000 Ang^3
#
#
#
# Elastic Constant Matrix: (Units=GPa)
#
#
# Indices 1 2 3 4 5 6 
#
# 1 68.6433 6.7404 29.7691 0.0000 5.8723 0.0000
# 2 6.7404 97.8484 31.1408 0.0000 20.4373 0.0000
# 3 29.7691 31.1408 158.2883 0.0000 6.8731 0.0000
# 4 0.0000 0.0000 0.0000 56.5066 0.0000 3.6063
# 5 5.8723 20.4373 6.8731 0.0000 50.8930 0.0000
# 6 0.0000 0.0000 0.0000 3.6063 0.0000 17.7217
#
#
#
# Elastic Compliance Matrix: (Units=1/GPa)
#
#
# Indices 1 2 3 4 5 6 
#
# 1 0.015969 0.000159 -0.002969 0.000000 -0.001506 0.000000
# 2 0.000159 0.011833 -0.002163 0.000000 -0.004478 0.000000
# 3 -0.002969 -0.002163 0.007292 0.000000 0.000227 0.000000
# 4 0.000000 0.000000 0.000000 0.017930 0.000000 -0.003649
# 5 -0.001506 -0.004478 0.000227 0.000000 0.021590 0.000000
# 6 0.000000 0.000000 0.000000 -0.003649 0.000000 0.057171
#
#
# Mechanical properties :
#
#
# Convention : Reuss Voigt Hill
#
# Bulk Modulus (GPa) = 39.76636 51.12005 45.44320
# Shear Modulus (GPa) = 33.30821 42.16625 37.73723
#
# Velocity S-wave (km/s) = 3.59254 4.04211 3.82394
# Velocity P-wave (km/s) = 5.71115 6.44926 6.09139
#
# Compressibility (1/GPa) = 0.02514689
#
# Stress axis : x y z
#
# Youngs Moduli (GPa) = 62.62168 84.51129 137.14052
#
# Poissons Ratio (x) = -0.01347 0.40720
# Poissons Ratio (y) = -0.00998 0.29670
# Poissons Ratio (z) = 0.18594 0.18284
#
# Static dielectric constant tensor:
#      x y z
#    x 2.310650 0.000000 0.018940 
#    y 0.000000 2.012360 0.000000 
#    z 0.018940 0.000000 2.116560 
# 
# From -- ./inp_files/146798.got.cif
#   From: 2010.05.17/outbox.cif.g08.bks.cpg/sg15_74_cif.got.tgz:146798.got - 2010.06.03 18:47:42.
