data_PCOD9255184
_publ_section_title
;
Structure prediction by ZEFSAII (Michael W. Deem and Ramdas Pophale) SiO2 
 PCOD9255184
Probable space group: C 2/C
;
_chemical_formula_sum "Si O2"
_cell_formula_units_Z 52
_cell_length_a 23.369708
_cell_length_b 18.843399
_cell_length_c 17.106151
_cell_angle_alpha 90.000000
_cell_angle_beta 21.404668
_cell_angle_gamma 90.000000
_cell_volume 2749.168372
_symmetry_space_group_name_H-M "C 2/C"
_symmetry_group_IT_number 15
_symmetry_cell_setting 'monoclinic'
loop_
_space_group_symop_operation_xyz
x,y,z
-x,y,1/2-z
-x,-y,-z
x,-y,1/2+z
1/2+x,1/2+y,z
1/2-x,1/2+y,1/2-z
1/2-x,1/2-y,-z
1/2+x,1/2-y,1/2+z
loop_
_atom_site_type_symbol
_atom_site_label
_atom_site_fract_x
_atom_site_fract_y
_atom_site_fract_z
Si Si1 0.578923 0.318652 0.566708
Si Si2 0.154579 0.761881 0.244194
Si Si3 0.753501 0.803788 0.921567
Si Si4 0.959349 0.440740 0.717026
Si Si5 0.841989 0.141636 0.908521
Si Si6 0.359125 0.165416 0.619608
Si Si7 0.500000 0.922742 0.250000
O O1 0.500000 0.339300 0.750000
O O2 0.655635 0.239987 0.481054
O O3 0.437999 0.321148 0.683211
O O4 0.735169 0.359458 0.342484
O O5 0.124915 0.824150 0.218540
O O6 0.253988 0.793979 0.188541
O O7 0.996161 0.720250 0.469767
O O8 0.258066 0.703523 0.066088
O O9 0.750000 0.750000 0.000000
O O10 0.651867 0.873746 0.063459
O O11 0.003246 0.522521 0.673260
O O12 0.000000 0.405688 0.750000
O O13 0.055824 0.400701 0.528719
O O14 0.776829 0.424023 0.941404
O O15 0.000000 0.121855 0.750000
#
# Coordination Sequence:
#
# PCOD9255184 Si02
#       7
#     8   8   8   8   8   8   4
#     4  10  21  35  58  88 110 142 191 260 292 326
#     4  10  18  26  48  79 112 165 188 245 276 327
#     4  10  18  37  63  87 106 141 197 254 297 329
#     4   9  20  33  55  82 121 161 181 222 286 380
#     4  10  17  29  47  76 121 156 204 224 276 342
#     4  11  19  33  51  86 122 150 201 232 295 342
#     4  10  18  38  64  84 112 152 190 230 306 360
#
# _framework density 18.914811
#
# number of rings (size 3 to 8) (size 9 to 14) (size 15 to 20)
#    0.462    1.538    5.385    0.923    0.000    0.000 
#    0.000    3.077    0.000    3.692    0.000    0.000 
#    0.000    0.000    0.000    0.000    0.000    0.462 
#
# Total GULP energy -144783.585889 kJ/mol
# GULP energy per Si atom -5568.599457 kJ/mol
# Density = 1.887176 g / cm^3
# Si number density = 18.914811 Si / 1000 Ang^3
#
#
#
# Elastic Constant Matrix: (Units=GPa)
#
#
# Indices 1 2 3 4 5 6 
#
# 1 53.9423 21.4579 31.9075 0.0007 -21.0079 -0.0007
# 2 21.4579 84.9122 37.4711 0.0011 -11.0034 -0.0014
# 3 31.9075 37.4711 142.4911 0.0000 -19.5707 0.0001
# 4 0.0007 0.0011 0.0000 16.5597 -0.0002 1.5030
# 5 -21.0079 -11.0034 -19.5707 -0.0002 43.3927 0.0012
# 6 -0.0007 -0.0014 0.0001 1.5030 0.0012 -0.5984
#
#
#
# Elastic Compliance Matrix: (Units=1/GPa)
#
#
# Indices 1 2 3 4 5 6 
#
# 1 0.025993 -0.003739 -0.003453 0.000000 0.010079 -0.000004
# 2 -0.003739 0.014012 -0.002780 0.000001 0.000489 -0.000023
# 3 -0.003453 -0.002780 0.008737 -0.000001 0.001564 0.000013
# 4 0.000000 0.000001 -0.000001 0.049177 -0.000003 0.123511
# 5 0.010079 0.000489 0.001564 -0.000003 0.028754 0.000037
# 6 -0.000004 -0.000023 0.000013 0.123511 0.000037 -1.360785
#
#
# Mechanical properties :
#
#
# Convention : Reuss Voigt Hill
#
# Bulk Modulus (GPa) = 34.72466 51.44651 43.08559
# Shear Modulus (GPa) = -4.15087 24.57141 10.21027
#
# Velocity S-wave (km/s) = -1.48299 3.60815 2.32589
# Velocity P-wave (km/s) = 3.93268 6.67956 5.48099
#
# Compressibility (1/GPa) = 0.02879797
#
# Stress axis : x y z
#
# Youngs Moduli (GPa) = 38.47143 71.36730 114.45364
#
# Poissons Ratio (x) = 0.26683 0.39522
# Poissons Ratio (y) = 0.14384 0.31823
# Poissons Ratio (z) = 0.13285 0.19843
#
# Static dielectric constant tensor:
#      x y z
#    x 1.720420 0.000000 0.030410 
#    y 0.000000 1.642240 0.000000 
#    z 0.030410 0.000000 1.711460 
# 
# From -- ./inp_files/220093.got.cif
#   From: 2010.05.17/outbox.cif.g08.bks.cpg/sg15_111_cif.got.tgz:220093.got - 2010.06.03 18:47:42.
