data_PCOD9255231
_publ_section_title
;
Structure prediction by ZEFSAII (Michael W. Deem and Ramdas Pophale) SiO2 
 PCOD9255231
Probable space group: C 2/C
;
_chemical_formula_sum "Si O2"
_cell_formula_units_Z 44
_cell_length_a 14.152949
_cell_length_b 24.819238
_cell_length_c 11.617986
_cell_angle_alpha 90.000000
_cell_angle_beta 31.948333
_cell_angle_gamma 90.000000
_cell_volume 2159.476961
_symmetry_space_group_name_H-M "C 2/C"
_symmetry_group_IT_number 15
_symmetry_cell_setting 'monoclinic'
loop_
_space_group_symop_operation_xyz
x,y,z
-x,y,1/2-z
-x,-y,-z
x,-y,1/2+z
1/2+x,1/2+y,z
1/2-x,1/2+y,1/2-z
1/2-x,1/2-y,-z
1/2+x,1/2-y,1/2+z
loop_
_atom_site_type_symbol
_atom_site_label
_atom_site_fract_x
_atom_site_fract_y
_atom_site_fract_z
Si Si1 0.734845 0.029556 0.933969
Si Si2 0.510047 0.408046 0.992181
Si Si3 0.609049 0.931616 0.797169
Si Si4 0.025225 0.319514 0.860669
Si Si5 0.437985 0.701882 0.947219
Si Si6 0.000000 0.057853 0.250000
O O1 0.880930 0.051977 0.694970
O O2 0.827580 0.979649 0.902462
O O3 0.543516 0.022862 0.067839
O O4 0.698241 0.071164 0.076963
O O5 0.715316 0.429093 0.804022
O O6 0.473958 0.409892 0.894250
O O7 0.472796 0.347999 0.079444
O O8 0.488169 0.878664 0.948264
O O9 0.233829 0.313369 0.663127
O O10 0.000000 0.320947 0.750000
O O11 0.947242 0.263001 0.983982
O O12 0.500000 0.702691 0.750000
#
# Coordination Sequence:
#
# PCOD9255231 Si02
#       6
#     8   8   8   8   8   4
#     4  11  21  38  62  86 115 156 185 251 300 346
#     4  11  23  42  56  86 119 161 193 251 281 347
#     4  10  21  37  62  91 126 139 192 243 308 359
#     4  10  17  29  51  91 118 142 174 231 303 369
#     4  10  20  30  57  85 118 147 183 234 306 348
#     4  12  26  42  60  80 120 160 222 228 280 344
#
# _framework density 20.375304
#
# number of rings (size 3 to 8) (size 9 to 14) (size 15 to 20)
#    0.000    1.455    3.636    4.909    2.545    0.727 
#    3.273    0.000    0.000    4.364    0.000    0.000 
#    0.000    0.000    0.000    0.000    0.000    0.000 
#
# Total GULP energy -122586.314705 kJ/mol
# GULP energy per Si atom -5572.105214 kJ/mol
# Density = 2.032893 g / cm^3
# Si number density = 20.375304 Si / 1000 Ang^3
#
#
#
# Elastic Constant Matrix: (Units=GPa)
#
#
# Indices 1 2 3 4 5 6 
#
# 1 117.1441 24.4292 31.3149 -0.0033 11.3945 -0.0029
# 2 24.4292 62.7480 11.1982 0.0003 7.1249 0.0004
# 3 31.3149 11.1982 41.9088 -0.0074 -7.9347 -0.0072
# 4 -0.0033 0.0003 -0.0074 -407.0950 0.0046 -438.8065
# 5 11.3945 7.1249 -7.9347 0.0046 29.3424 0.0042
# 6 -0.0029 0.0004 -0.0072 -438.8065 0.0042 -431.6988
#
#
#
# Elastic Compliance Matrix: (Units=1/GPa)
#
#
# Indices 1 2 3 4 5 6 
#
# 1 0.012332 -0.002243 -0.009927 0.000000 -0.006929 0.000000
# 2 -0.002243 0.018049 -0.004018 0.000000 -0.004598 0.000000
# 3 -0.009927 -0.004018 0.035062 0.000000 0.014312 0.000000
# 4 0.000000 0.000000 0.000000 0.025683 0.000000 -0.026106
# 5 -0.006929 -0.004598 0.014312 0.000000 0.041758 0.000001
# 6 0.000000 0.000000 0.000000 -0.026106 0.000001 0.024219
#
#
# Mechanical properties :
#
#
# Convention : Reuss Voigt Hill
#
# Bulk Modulus (GPa) = 30.24039 39.52061 34.88050
# Shear Modulus (GPa) = 24.93757 -151.56637 -63.31440
#
# Velocity S-wave (km/s) = 3.50224 -8.63416 -5.58046
# Velocity P-wave (km/s) = 5.58822 8.94203 4.93618
#
# Compressibility (1/GPa) = 0.03306836
#
# Stress axis : x y z
#
# Youngs Moduli (GPa) = 81.09083 55.40476 28.52067
#
# Poissons Ratio (x) = 0.12426 0.28313
# Poissons Ratio (y) = 0.18186 0.11458
# Poissons Ratio (z) = 0.80500 0.22259
#
# Static dielectric constant tensor:
#      x y z
#    x 1.740040 0.000000 -0.030180 
#    y 0.000000 1.958180 0.000000 
#    z -0.030180 0.000000 1.738900 
# 
# From -- ./inp_files/101049.got.cif
#   From: 2010.05.17/outbox.cif.g08.bks.cpg/sg15_51_cif.got.tgz:101049.got - 2010.06.03 18:47:42.
