data_PCOD9255639
_publ_section_title
;
Structure prediction by ZEFSAII (Michael W. Deem and Ramdas Pophale) SiO2 
 PCOD9255639
Probable space group: C 2/C
;
_chemical_formula_sum "Si O2"
_cell_formula_units_Z 48
_cell_length_a 12.159806
_cell_length_b 18.520795
_cell_length_c 23.412972
_cell_angle_alpha 90.000000
_cell_angle_beta 25.148740
_cell_angle_gamma 90.000000
_cell_volume 2240.787605
_symmetry_space_group_name_H-M "C 2/C"
_symmetry_group_IT_number 15
_symmetry_cell_setting 'monoclinic'
loop_
_space_group_symop_operation_xyz
x,y,z
-x,y,1/2-z
-x,-y,-z
x,-y,1/2+z
1/2+x,1/2+y,z
1/2-x,1/2+y,1/2-z
1/2-x,1/2-y,-z
1/2+x,1/2-y,1/2+z
loop_
_atom_site_type_symbol
_atom_site_label
_atom_site_fract_x
_atom_site_fract_y
_atom_site_fract_z
Si Si1 0.188395 0.239905 0.095282
Si Si2 0.156868 0.649500 0.025243
Si Si3 0.772915 0.068073 0.420489
Si Si4 0.670142 0.294433 0.304877
Si Si5 0.686787 0.983116 0.830611
Si Si6 0.776049 0.278129 0.125820
O O1 0.159605 0.153053 0.116532
O O2 0.918489 0.282131 0.227988
O O3 0.250000 0.250000 0.000000
O O4 0.449825 0.262365 0.005462
O O5 0.433037 0.651242 0.926926
O O6 0.213354 0.663440 0.930549
O O7 0.981595 0.717763 0.124936
O O8 0.986677 0.579891 0.114433
O O9 0.725938 0.038801 0.378712
O O10 0.018560 0.023256 0.329887
O O11 0.506236 0.051233 0.579238
O O12 0.762776 0.308044 0.196300
O O13 0.500000 0.238321 0.250000
#
# Coordination Sequence:
#
# PCOD9255639 Si02
#       6
#     8   8   8   8   8   8
#     4  10  18  31  48  70 101 137 173 219 255 304
#     4  10  17  32  50  69 101 141 167 210 266 315
#     4  10  20  33  46  73 100 144 181 208 254 317
#     4   9  19  29  47  72  98 132 174 218 262 310
#     4  10  20  32  49  69 104 143 181 207 251 327
#     4   9  18  29  45  70  97 132 170 208 258 313
#
# _framework density 21.421040999999999
#
# number of rings (size 3 to 8) (size 9 to 14) (size 15 to 20)
#    0.000    2.333    3.333    0.000    0.000    4.667 
#    3.000    0.000    0.000    0.000    0.000    0.000 
#    0.000   65.333   32.667    0.000    0.000    0.000 
#
# Total GULP energy -133607.180085 kJ/mol
# GULP energy per Si atom -5566.965837 kJ/mol
# Density = 2.137229 g / cm^3
# Si number density = 21.421041 Si / 1000 Ang^3
#
#
#
# Elastic Constant Matrix: (Units=GPa)
#
#
# Indices 1 2 3 4 5 6 
#
# 1 64.8250 17.4791 51.9315 0.0446 -35.0949 -0.0191
# 2 17.4791 61.6830 32.3627 0.0173 -9.9230 -0.0299
# 3 51.9315 32.3627 164.7377 0.1691 -53.6317 -0.0346
# 4 0.0446 0.0173 0.1691 15.2225 -0.0566 -2.0746
# 5 -35.0949 -9.9230 -53.6317 -0.0566 63.7342 0.0250
# 6 -0.0191 -0.0299 -0.0346 -2.0746 0.0250 14.5088
#
#
#
# Elastic Compliance Matrix: (Units=1/GPa)
#
#
# Indices 1 2 3 4 5 6 
#
# 1 0.024824 -0.003374 -0.003972 0.000012 0.009802 0.000001
# 2 -0.003374 0.018536 -0.003090 0.000022 -0.001572 0.000032
# 3 -0.003972 -0.003090 0.009725 -0.000074 0.005515 -0.000008
# 4 0.000012 0.000022 -0.000074 0.066999 0.000004 0.009580
# 5 0.009802 -0.001572 0.005515 0.000004 0.025484 -0.000021
# 6 0.000001 0.000032 -0.000008 0.009580 -0.000021 0.070294
#
#
# Mechanical properties :
#
#
# Convention : Reuss Voigt Hill
#
# Bulk Modulus (GPa) = 31.04134 54.97692 43.00913
# Shear Modulus (GPa) = 20.20451 31.32459 25.76455
#
# Velocity S-wave (km/s) = 3.07450 3.82819 3.47186
# Velocity P-wave (km/s) = 5.20826 6.72760 6.01609
#
# Compressibility (1/GPa) = 0.03221511
#
# Stress axis : x y z
#
# Youngs Moduli (GPa) = 40.28349 53.94885 102.82959
#
# Poissons Ratio (x) = 0.18201 0.40840
# Poissons Ratio (y) = 0.13591 0.31769
# Poissons Ratio (z) = 0.15999 0.16668
#
# Static dielectric constant tensor:
#      x y z
#    x 1.808640 -0.000050 -0.040190 
#    y -0.000050 1.794440 -0.000130 
#    z -0.040190 -0.000130 1.900610 
# 
# From -- ./inp_files/222893.got.cif
#   From: 2010.05.17/outbox.cif.g08.bks.cpg/sg15_112_cif.got.tgz:222893.got - 2010.06.03 18:47:42.
