data_PCOD9255895
_publ_section_title
;
Structure prediction by ZEFSAII (Michael W. Deem and Ramdas Pophale) SiO2 
 PCOD9255895
Probable space group: C 2/C
;
_chemical_formula_sum "Si O2"
_cell_formula_units_Z 56
_cell_length_a 18.916194
_cell_length_b 18.822858
_cell_length_c 10.850508
_cell_angle_alpha 90.000000
_cell_angle_beta 148.648633
_cell_angle_gamma 90.000000
_cell_volume 2010.067568
_symmetry_space_group_name_H-M "C 2/C"
_symmetry_group_IT_number 15
_symmetry_cell_setting 'monoclinic'
loop_
_space_group_symop_operation_xyz
x,y,z
-x,y,1/2-z
-x,-y,-z
x,-y,1/2+z
1/2+x,1/2+y,z
1/2-x,1/2+y,1/2-z
1/2-x,1/2-y,-z
1/2+x,1/2-y,1/2+z
loop_
_atom_site_type_symbol
_atom_site_label
_atom_site_fract_x
_atom_site_fract_y
_atom_site_fract_z
Si Si1 0.107749 0.034077 0.021234
Si Si2 0.634316 0.235570 0.530572
Si Si3 0.271793 0.146075 0.118032
Si Si4 0.615831 0.605330 0.642980
Si Si5 0.614107 0.867770 0.314722
Si Si6 0.404715 0.699505 0.262429
Si Si7 0.442736 0.087857 0.030430
O O1 0.000000 0.018402 0.750000
O O2 0.218833 0.089164 0.137654
O O3 0.184429 0.963485 0.182136
O O4 0.021872 0.068560 0.002945
O O5 0.500000 0.244186 0.250000
O O6 0.755072 0.275755 0.643962
O O7 0.608257 0.279459 0.613443
O O8 0.661023 0.152670 0.591980
O O9 0.179980 0.133386 0.863403
O O10 0.422899 0.132453 0.305369
O O11 0.548667 0.662103 0.452541
O O12 0.500000 0.889099 0.250000
O O13 0.591498 0.780872 0.280056
O O14 0.779338 0.855772 0.556882
O O15 0.594117 0.926082 0.171097
O O16 0.500000 0.055634 0.250000
#
# Coordination Sequence:
#
# PCOD9255895 Si02
#       7
#     8   8   8   8   8   8   8
#     4   9  19  35  60  89 115 150 211 267 331 369
#     4  10  17  33  55  90 126 166 202 244 317 378
#     4  11  19  38  64  87 129 162 205 278 318 375
#     4  10  19  35  59  94 115 156 209 267 330 367
#     4  10  22  39  57  86 131 180 207 248 317 391
#     4  10  19  36  55  86 131 161 209 260 307 382
#     4  10  24  39  59  94 129 170 222 245 310 403
#
# _framework density 27.859760999999999
#
# number of rings (size 3 to 8) (size 9 to 14) (size 15 to 20)
#    0.000    2.000    2.857    1.286    0.000    2.857 
#   12.857    0.000    0.000    0.857    0.000    0.000 
#    0.000    0.000    0.000    0.000    0.000    0.000 
#
# Total GULP energy -156093.026880 kJ/mol
# GULP energy per Si atom -5574.750960 kJ/mol
# Density = 2.779635 g / cm^3
# Si number density = 27.859761 Si / 1000 Ang^3
#
#
#
# Elastic Constant Matrix: (Units=GPa)
#
#
# Indices 1 2 3 4 5 6 
#
# 1 102.5291 -7.7864 -36.9120 0.0000 -17.6870 0.0000
# 2 -7.7864 89.7867 -7.5853 0.0000 -10.6370 0.0000
# 3 -36.9120 -7.5853 65.0935 0.0000 -26.3267 0.0000
# 4 0.0000 0.0000 0.0000 16.4224 0.0000 -17.3592
# 5 -17.6870 -10.6370 -26.3267 0.0000 24.0091 0.0000
# 6 0.0000 0.0000 0.0000 -17.3592 0.0000 21.9404
#
#
#
# Elastic Compliance Matrix: (Units=1/GPa)
#
#
# Indices 1 2 3 4 5 6 
#
# 1 -0.038865 -0.023649 -0.072976 0.000000 -0.119129 0.000000
# 2 -0.023649 -0.001029 -0.037304 0.000000 -0.058783 0.000000
# 3 -0.072976 -0.037304 -0.105646 0.000000 -0.186130 0.000000
# 4 0.000000 0.000000 0.000000 0.372042 0.000000 0.294359
# 5 -0.119129 -0.058783 -0.186130 0.000000 -0.276249 0.000000
# 6 0.000000 0.000000 0.000000 0.294359 0.000000 0.278474
#
#
# Mechanical properties :
#
#
# Convention : Reuss Voigt Hill
#
# Bulk Modulus (GPa) = -2.41898 16.98244 7.28173
# Shear Modulus (GPa) = 13.93590 33.12059 23.52824
#
# Velocity S-wave (km/s) = 2.23898 3.45169 2.90922
# Velocity P-wave (km/s) = 2.41120 4.68982 3.72883
#
# Compressibility (1/GPa) = -0.41339723
#
# Stress axis : x y z
#
# Youngs Moduli (GPa) = -25.72980 -972.01189 -9.46561
#
# Poissons Ratio (x) = -22.98677 -0.69076
# Poissons Ratio (y) = -0.60847 -0.35311
# Poissons Ratio (z) = -1.87765 -36.26030
#
# Static dielectric constant tensor:
#      x y z
#    x 2.343180 0.000000 0.093810 
#    y 0.000000 2.188990 0.000000 
#    z 0.093810 0.000000 2.442490 
# 
# From -- ./inp_files/114954.got.cif
#   From: 2010.05.17/outbox.cif.g08.bks.cpg/sg15_58_cif.got.tgz:114954.got - 2010.06.03 18:47:42.
