data_PCOD9255628
_publ_section_title
;
Structure prediction by ZEFSAII (Michael W. Deem and Ramdas Pophale) SiO2 
 PCOD9255628
Probable space group: C 2/C
;
_chemical_formula_sum "Si O2"
_cell_formula_units_Z 52
_cell_length_a 18.897357
_cell_length_b 7.480820
_cell_length_c 14.117412
_cell_angle_alpha 90.000000
_cell_angle_beta 100.911511
_cell_angle_gamma 90.000000
_cell_volume 1959.664741
_symmetry_space_group_name_H-M "C 2/C"
_symmetry_group_IT_number 15
_symmetry_cell_setting 'monoclinic'
loop_
_space_group_symop_operation_xyz
x,y,z
-x,y,1/2-z
-x,-y,-z
x,-y,1/2+z
1/2+x,1/2+y,z
1/2-x,1/2+y,1/2-z
1/2-x,1/2-y,-z
1/2+x,1/2-y,1/2+z
loop_
_atom_site_type_symbol
_atom_site_label
_atom_site_fract_x
_atom_site_fract_y
_atom_site_fract_z
Si Si1 0.859891 0.110479 0.448729
Si Si2 0.281625 0.076035 0.617003
Si Si3 0.220906 0.583519 0.676240
Si Si4 0.877831 0.629742 0.464527
Si Si5 0.134679 0.204917 0.838840
Si Si6 0.000000 0.431043 0.750000
Si Si7 0.481470 0.186266 0.928557
O O1 0.804143 0.949299 0.418839
O O2 0.807846 0.279224 0.409447
O O3 0.883447 0.122209 0.563650
O O4 0.928372 0.146031 0.399305
O O5 0.317403 0.881096 0.632675
O O6 0.297465 0.153111 0.724447
O O7 0.324783 0.152420 0.539815
O O8 0.174270 0.408589 0.637801
O O9 0.307082 0.569982 0.692479
O O10 0.929796 0.448132 0.477149
O O11 0.946907 0.755216 0.499275
O O12 0.066719 0.292856 0.770089
O O13 0.002355 0.567387 0.660936
#
# Coordination Sequence:
#
# PCOD9255628 Si02
#       7
#     8   8   8   8   8   4   8
#     4  10  19  34  52  80 114 149 184 226 288 334
#     4  11  18  32  55  78 112 147 182 225 276 338
#     4  10  19  30  53  81 105 147 191 224 267 342
#     4  10  17  32  48  82 110 142 178 227 281 321
#     4  11  18  33  53  83 109 144 188 227 276 338
#     4  12  20  30  56  86 112 140 184 240 280 328
#     4  10  19  29  49  84 116 139 175 237 283 328
#
# _framework density 26.535153000000001
#
# number of rings (size 3 to 8) (size 9 to 14) (size 15 to 20)
#    0.000    1.538    6.154    3.692    0.000    0.000 
#    0.000    0.000    0.000   10.154    0.000    0.000 
#    0.000    0.000    0.000    0.000    0.000    0.000 
#
# Total GULP energy -145030.188655 kJ/mol
# GULP energy per Si atom -5578.084179 kJ/mol
# Density = 2.647476 g / cm^3
# Si number density = 26.535153 Si / 1000 Ang^3
#
#
#
# Elastic Constant Matrix: (Units=GPa)
#
#
# Indices 1 2 3 4 5 6 
#
# 1 202.4378 36.0500 61.2086 0.0000 25.7966 0.0000
# 2 36.0500 84.8735 25.8886 0.0000 11.9047 0.0000
# 3 61.2086 25.8886 143.1196 0.0000 -10.9160 0.0000
# 4 0.0000 0.0000 0.0000 10.1770 0.0000 6.7241
# 5 25.7966 11.9047 -10.9160 0.0000 47.0891 0.0000
# 6 0.0000 0.0000 0.0000 6.7241 0.0000 13.9658
#
#
#
# Elastic Compliance Matrix: (Units=1/GPa)
#
#
# Indices 1 2 3 4 5 6 
#
# 1 0.006540 -0.001362 -0.002848 0.000000 -0.003899 0.000000
# 2 -0.001362 0.013437 -0.002087 0.000000 -0.003134 0.000000
# 3 -0.002848 -0.002087 0.008899 0.000000 0.004151 0.000000
# 4 0.000000 0.000000 0.000000 0.144102 0.000000 -0.069381
# 5 -0.003899 -0.003134 0.004151 0.000000 0.025127 0.000000
# 6 0.000000 0.000000 0.000000 -0.069381 0.000000 0.105008
#
#
# Mechanical properties :
#
#
# Convention : Reuss Voigt Hill
#
# Bulk Modulus (GPa) = 61.41815 75.19170 68.30493
# Shear Modulus (GPa) = 15.56968 34.73197 25.15083
#
# Velocity S-wave (km/s) = 2.42493 3.62180 3.08203
# Velocity P-wave (km/s) = 5.57105 6.77408 6.20180
#
# Compressibility (1/GPa) = 0.01628183
#
# Stress axis : x y z
#
# Youngs Moduli (GPa) = 152.89674 74.42040 112.36821
#
# Poissons Ratio (x) = 0.10139 0.32003
# Poissons Ratio (y) = 0.20831 0.23451
# Poissons Ratio (z) = 0.43546 0.15532
#
# Static dielectric constant tensor:
#      x y z
#    x 2.187790 0.000000 0.038780 
#    y 0.000000 2.327800 0.000000 
#    z 0.038780 0.000000 2.074450 
# 
# From -- ./inp_files/160429.got.cif
#   From: 2010.05.17/outbox.cif.g08.bks.cpg/sg15_81_cif.got.tgz:160429.got - 2010.06.03 18:47:42.
