data_PCOD9255443
_publ_section_title
;
Structure prediction by ZEFSAII (Michael W. Deem and Ramdas Pophale) SiO2 
 PCOD9255443
Probable space group: C 2/C
;
_chemical_formula_sum "Si O2"
_cell_formula_units_Z 56
_cell_length_a 17.766056
_cell_length_b 11.492191
_cell_length_c 13.762140
_cell_angle_alpha 90.000000
_cell_angle_beta 43.678792
_cell_angle_gamma 90.000000
_cell_volume 1940.509120
_symmetry_space_group_name_H-M "C 2/C"
_symmetry_group_IT_number 15
_symmetry_cell_setting 'monoclinic'
loop_
_space_group_symop_operation_xyz
x,y,z
-x,y,1/2-z
-x,-y,-z
x,-y,1/2+z
1/2+x,1/2+y,z
1/2-x,1/2+y,1/2-z
1/2-x,1/2-y,-z
1/2+x,1/2-y,1/2+z
loop_
_atom_site_type_symbol
_atom_site_label
_atom_site_fract_x
_atom_site_fract_y
_atom_site_fract_z
Si Si1 0.278950 0.917568 0.877363
Si Si2 0.205271 0.887199 0.751349
Si Si3 0.380162 0.630012 0.676439
Si Si4 0.850106 0.319077 0.006167
Si Si5 0.500000 0.417570 0.250000
Si Si6 0.019240 0.305603 0.441956
Si Si7 0.000000 0.687173 0.750000
Si Si8 0.681736 0.614452 0.060638
O O1 0.298631 0.897834 0.744800
O O2 0.180288 0.819121 0.981450
O O3 0.354019 0.878051 0.896433
O O4 0.257270 0.056470 0.908623
O O5 0.126969 0.776607 0.830062
O O6 0.244148 0.890840 0.604954
O O7 0.123149 0.994860 0.849162
O O8 0.260974 0.644444 0.833831
O O9 0.461015 0.650667 0.691611
O O10 0.421141 0.712777 0.552668
O O11 0.947539 0.359904 0.985695
O O12 0.596230 0.509305 0.143523
O O13 0.008061 0.369475 0.349307
O O14 0.106886 0.771631 0.635178
#
# Coordination Sequence:
#
# PCOD9255443 Si02
#       8
#     8   8   8   8   4   8   4   8
#     4  10  17  31  44  70 113 142 170 208 253 317
#     4   9  17  28  47  75 103 139 172 206 266 320
#     4  11  19  31  49  77 111 143 176 216 262 318
#     4  10  21  31  47  76 115 144 174 207 270 329
#     4   9  14  22  40  66  96 133 164 188 247 300
#     4  10  20  32  50  75 110 140 175 217 261 321
#     4   9  18  32  52  80 108 141 174 210 271 332
#     4   9  15  26  45  71 104 138 163 207 254 315
#
# _framework density 28.858405000000001
#
# number of rings (size 3 to 8) (size 9 to 14) (size 15 to 20)
#    0.000    2.286    2.857    3.857    2.000    0.000 
#    0.000    0.714    0.000    0.000    0.000    4.000 
#    4.286    0.000    0.000    0.000    0.000    0.000 
#
# Total GULP energy -156394.002582 kJ/mol
# GULP energy per Si atom -5585.500092 kJ/mol
# Density = 2.879272 g / cm^3
# Si number density = 28.858405 Si / 1000 Ang^3
#
#
#
# Elastic Constant Matrix: (Units=GPa)
#
#
# Indices 1 2 3 4 5 6 
#
# 1 179.5739 20.2555 62.1379 0.0000 45.5996 0.0000
# 2 20.2555 78.9277 31.4102 0.0000 -3.6704 0.0000
# 3 62.1379 31.4102 67.0482 0.0000 18.5268 0.0000
# 4 0.0000 0.0000 0.0000 15.7361 0.0000 -3.8187
# 5 45.5996 -3.6704 18.5268 0.0000 56.5771 0.0000
# 6 0.0000 0.0000 0.0000 -3.8187 0.0000 29.1843
#
#
#
# Elastic Compliance Matrix: (Units=1/GPa)
#
#
# Indices 1 2 3 4 5 6 
#
# 1 0.009415 0.000312 -0.007455 0.000000 -0.005127 0.000000
# 2 0.000312 0.016337 -0.008979 0.000000 0.003748 0.000000
# 3 -0.007455 -0.008979 0.026971 0.000000 -0.003406 0.000000
# 4 0.000000 0.000000 0.000000 0.065632 0.000000 0.008588
# 5 -0.005127 0.003748 -0.003406 0.000000 0.023165 0.000000
# 6 0.000000 0.000000 0.000000 0.008588 0.000000 0.035389
#
#
# Mechanical properties :
#
#
# Convention : Reuss Voigt Hill
#
# Bulk Modulus (GPa) = 48.82751 61.46188 55.14470
# Shear Modulus (GPa) = 23.15030 34.41591 28.78310
#
# Velocity S-wave (km/s) = 2.83539 3.45712 3.16158
# Velocity P-wave (km/s) = 5.26077 6.10570 5.69891
#
# Compressibility (1/GPa) = 0.02048026
#
# Stress axis : x y z
#
# Youngs Moduli (GPa) = 106.21246 61.21011 37.07650
#
# Poissons Ratio (x) = -0.01911 0.27641
# Poissons Ratio (y) = -0.03317 0.33290
# Poissons Ratio (z) = 0.79184 0.54958
#
# Static dielectric constant tensor:
#      x y z
#    x 2.313420 0.000000 -0.024760 
#    y 0.000000 2.309580 0.000000 
#    z -0.024760 0.000000 2.346150 
# 
# From -- ./inp_files/161899.got.cif
#   From: 2010.05.17/outbox.cif.g08.bks.cpg/sg15_81_cif.got.tgz:161899.got - 2010.06.03 18:47:42.
