data_PCOD9255708
_publ_section_title
;
Structure prediction by ZEFSAII (Michael W. Deem and Ramdas Pophale) SiO2 
 PCOD9255708
Probable space group: C 2/C
;
_chemical_formula_sum "Si O2"
_cell_formula_units_Z 56
_cell_length_a 17.776545
_cell_length_b 9.505101
_cell_length_c 22.674047
_cell_angle_alpha 90.000000
_cell_angle_beta 132.040366
_cell_angle_gamma 90.000000
_cell_volume 2845.318596
_symmetry_space_group_name_H-M "C 2/C"
_symmetry_group_IT_number 15
_symmetry_cell_setting 'monoclinic'
loop_
_space_group_symop_operation_xyz
x,y,z
-x,y,1/2-z
-x,-y,-z
x,-y,1/2+z
1/2+x,1/2+y,z
1/2-x,1/2+y,1/2-z
1/2-x,1/2-y,-z
1/2+x,1/2-y,1/2+z
loop_
_atom_site_type_symbol
_atom_site_label
_atom_site_fract_x
_atom_site_fract_y
_atom_site_fract_z
Si Si1 0.859258 0.545503 0.252178
Si Si2 0.036706 0.653431 0.832667
Si Si3 0.074825 0.894064 0.662742
Si Si4 0.728569 0.055885 0.164257
Si Si5 0.750767 0.334867 0.108461
Si Si6 0.925413 0.039853 0.514506
Si Si7 0.797515 0.236436 0.379329
O O1 0.833922 0.573477 0.307289
O O2 0.792937 0.414020 0.190301
O O3 0.815428 0.671879 0.188840
O O4 0.974951 0.492953 0.307185
O O5 0.156589 0.653302 0.888661
O O6 0.000000 0.710466 0.750000
O O7 0.994706 0.762022 0.857567
O O8 0.142788 0.837523 0.643939
O O9 0.000822 0.023064 0.608555
O O10 0.154287 0.935462 0.754304
O O11 0.703436 0.902644 0.126492
O O12 0.715894 0.181727 0.111263
O O13 0.658817 0.419364 0.032570
O O14 0.861626 0.180344 0.468670
O O15 0.000000 0.000000 0.500000
#
# Coordination Sequence:
#
# PCOD9255708 Si02
#       7
#     8   8   8   8   8   8   8
#     4   9  16  30  52  80 108 141 183 231 270 327
#     4  10  17  32  54  81 109 139 189 230 271 333
#     4  10  18  32  56  81 108 148 182 230 278 339
#     4  11  17  31  58  87 105 138 195 239 269 317
#     4  10  20  33  56  81 110 146 184 236 278 338
#     4   9  20  36  53  79 113 148 185 229 288 335
#     4   9  18  31  54  83 110 142 187 235 273 327
#
# _framework density 19.681450999999999
#
# number of rings (size 3 to 8) (size 9 to 14) (size 15 to 20)
#    0.000    2.286    4.286    1.714    0.000    0.571 
#    0.000    2.857   18.857    0.857    0.000    0.000 
#    0.000    0.000    0.000    0.000    0.000    0.000 
#
# Total GULP energy -155926.377430 kJ/mol
# GULP energy per Si atom -5568.799194 kJ/mol
# Density = 1.963666 g / cm^3
# Si number density = 19.681451 Si / 1000 Ang^3
#
#
#
# Elastic Constant Matrix: (Units=GPa)
#
#
# Indices 1 2 3 4 5 6 
#
# 1 76.0307 6.5472 7.1012 0.0000 21.5403 0.0000
# 2 6.5472 58.1507 -4.8485 0.0000 6.0641 0.0000
# 3 7.1012 -4.8485 22.7909 0.0000 11.6514 0.0000
# 4 0.0000 0.0000 0.0000 -5.2327 0.0000 -3.5189
# 5 21.5403 6.0641 11.6514 0.0000 16.3502 0.0000
# 6 0.0000 0.0000 0.0000 -3.5189 0.0000 20.7238
#
#
#
# Elastic Compliance Matrix: (Units=1/GPa)
#
#
# Indices 1 2 3 4 5 6 
#
# 1 0.023770 0.003161 0.015535 0.000000 -0.043558 0.000000
# 2 0.003161 0.020381 0.014700 0.000000 -0.022200 0.000000
# 3 0.015535 0.014700 0.087173 0.000000 -0.088039 0.000000
# 4 0.000000 0.000000 0.000000 -0.171522 0.000000 -0.029124
# 5 -0.043558 -0.022200 -0.088039 0.000000 0.189519 0.000000
# 6 0.000000 0.000000 0.000000 -0.029124 0.000000 0.043308
#
#
# Mechanical properties :
#
#
# Convention : Reuss Voigt Hill
#
# Bulk Modulus (GPa) = 5.04754 19.39691 12.22223
# Shear Modulus (GPa) = 26.05847 16.24642 21.15245
#
# Velocity S-wave (km/s) = 3.64264 2.87621 3.28188
# Velocity P-wave (km/s) = 4.50133 4.57241 4.53701
#
# Compressibility (1/GPa) = 0.19811630
#
# Stress axis : x y z
#
# Youngs Moduli (GPa) = 42.06993 49.06424 11.47148
#
# Poissons Ratio (x) = -0.15511 -0.17821
# Poissons Ratio (y) = -0.13300 -0.16863
# Poissons Ratio (z) = -0.65354 -0.72125
#
# Static dielectric constant tensor:
#      x y z
#    x 1.745220 0.000000 0.009900 
#    y 0.000000 1.698080 0.000000 
#    z 0.009900 0.000000 1.741080 
# 
# From -- ./inp_files/298185.got.cif
#   From: 2010.05.17/outbox.cif.g08.bks.cpg/sg15_150_cif.got.tgz:298185.got - 2010.06.03 18:47:42.
