data_PCOD9255736
_publ_section_title
;
Structure prediction by ZEFSAII (Michael W. Deem and Ramdas Pophale) SiO2 
 PCOD9255736
Probable space group: C 2/C
;
_chemical_formula_sum "Si O2"
_cell_formula_units_Z 52
_cell_length_a 21.294505
_cell_length_b 8.643668
_cell_length_c 19.064985
_cell_angle_alpha 90.000000
_cell_angle_beta 51.698672
_cell_angle_gamma 90.000000
_cell_volume 2753.848616
_symmetry_space_group_name_H-M "C 2/C"
_symmetry_group_IT_number 15
_symmetry_cell_setting 'monoclinic'
loop_
_space_group_symop_operation_xyz
x,y,z
-x,y,1/2-z
-x,-y,-z
x,-y,1/2+z
1/2+x,1/2+y,z
1/2-x,1/2+y,1/2-z
1/2-x,1/2-y,-z
1/2+x,1/2-y,1/2+z
loop_
_atom_site_type_symbol
_atom_site_label
_atom_site_fract_x
_atom_site_fract_y
_atom_site_fract_z
Si Si1 0.411430 0.530809 0.226843
Si Si2 0.092549 0.197401 0.901074
Si Si3 0.156253 0.700336 0.880032
Si Si4 0.492298 0.761557 0.407381
Si Si5 0.545315 0.886455 0.577919
Si Si6 0.749710 0.612076 0.216401
Si Si7 0.500000 0.713414 0.750000
O O1 0.414329 0.440404 0.149693
O O2 0.481948 0.656938 0.175686
O O3 0.324335 0.608708 0.286876
O O4 0.430184 0.399051 0.269777
O O5 0.181689 0.262141 0.843740
O O6 0.033120 0.330970 0.911902
O O7 0.060698 0.165041 0.000800
O O8 0.076974 0.706795 0.887131
O O9 0.206804 0.551140 0.822217
O O10 0.210879 0.845431 0.819037
O O11 0.121490 0.680061 0.982288
O O12 0.452846 0.927615 0.421178
O O13 0.532800 0.814953 0.663164
#
# Coordination Sequence:
#
# PCOD9255736 Si02
#       7
#     8   8   8   8   8   8   4
#     4  10  22  34  55  81 118 153 185 230 284 334
#     4  10  17  32  55  86 115 136 181 242 297 333
#     4  10  19  32  54  91 115 139 176 237 299 341
#     4  10  18  32  59  85 107 143 190 239 290 331
#     4  10  19  36  58  78 111 156 196 227 272 339
#     4  11  18  31  56  86 120 138 171 237 300 332
#     4  10  24  42  52  76 116 164 206 224 260 336
#
# _framework density 18.882663999999998
#
# number of rings (size 3 to 8) (size 9 to 14) (size 15 to 20)
#    0.000    1.846    4.615    1.385    0.000    1.846 
#    0.000    0.769    0.000    0.923    0.000    0.000 
#    0.000    0.000    0.000    0.000    0.000    0.000 
#
# Total GULP energy -144886.411903 kJ/mol
# GULP energy per Si atom -5572.554304 kJ/mol
# Density = 1.883969 g / cm^3
# Si number density = 18.882664 Si / 1000 Ang^3
#
#
#
# Elastic Constant Matrix: (Units=GPa)
#
#
# Indices 1 2 3 4 5 6 
#
# 1 43.3263 15.4100 44.2830 0.0005 -6.2921 -0.0009
# 2 15.4100 47.1738 29.0567 0.0016 3.4288 -0.0023
# 3 44.2830 29.0567 121.6063 -0.0010 -6.9958 0.0014
# 4 0.0005 0.0016 -0.0010 24.7121 -0.0004 -8.9936
# 5 -6.2921 3.4288 -6.9958 -0.0004 27.7486 0.0006
# 6 -0.0009 -0.0023 0.0014 -8.9936 0.0006 30.3659
#
#
#
# Elastic Compliance Matrix: (Units=1/GPa)
#
#
# Indices 1 2 3 4 5 6 
#
# 1 0.038595 -0.005431 -0.012394 -0.000001 0.006298 0.000001
# 2 -0.005431 0.026223 -0.004612 -0.000001 -0.005635 0.000002
# 3 -0.012394 -0.004612 0.013912 0.000001 0.001267 -0.000001
# 4 -0.000001 -0.000001 0.000001 0.045355 0.000001 0.013433
# 5 0.006298 -0.005635 0.001267 0.000001 0.038482 -0.000001
# 6 0.000001 0.000002 -0.000001 0.013433 -0.000001 0.036910
#
#
# Mechanical properties :
#
#
# Convention : Reuss Voigt Hill
#
# Bulk Modulus (GPa) = 29.53846 43.28952 36.41399
# Shear Modulus (GPa) = 19.55909 24.78909 22.17409
#
# Velocity S-wave (km/s) = 3.22191 3.62718 3.43054
# Velocity P-wave (km/s) = 5.43305 6.36532 5.91757
#
# Compressibility (1/GPa) = 0.03385417
#
# Stress axis : x y z
#
# Youngs Moduli (GPa) = 25.91008 38.13491 71.88270
#
# Poissons Ratio (x) = 0.20711 0.89094
# Poissons Ratio (y) = 0.14072 0.33153
# Poissons Ratio (z) = 0.32114 0.17588
#
# Static dielectric constant tensor:
#      x y z
#    x 1.644330 0.000000 -0.007490 
#    y 0.000000 1.704890 0.000000 
#    z -0.007490 0.000000 1.678550 
# 
# From -- ./inp_files/176722.got.cif
#   From: 2010.05.17/outbox.cif.g08.bks.cpg/sg15_89_cif.got.tgz:176722.got - 2010.06.03 18:47:42.
