data_PCOD9255572
_publ_section_title
;
Structure prediction by ZEFSAII (Michael W. Deem and Ramdas Pophale) SiO2 
 PCOD9255572
Probable space group: C 2/C
;
_chemical_formula_sum "Si O2"
_cell_formula_units_Z 64
_cell_length_a 16.693131
_cell_length_b 12.092358
_cell_length_c 19.643787
_cell_angle_alpha 90.000000
_cell_angle_beta 135.375791
_cell_angle_gamma 90.000000
_cell_volume 2785.427155
_symmetry_space_group_name_H-M "C 2/C"
_symmetry_group_IT_number 15
_symmetry_cell_setting 'monoclinic'
loop_
_space_group_symop_operation_xyz
x,y,z
-x,y,1/2-z
-x,-y,-z
x,-y,1/2+z
1/2+x,1/2+y,z
1/2-x,1/2+y,1/2-z
1/2-x,1/2-y,-z
1/2+x,1/2-y,1/2+z
loop_
_atom_site_type_symbol
_atom_site_label
_atom_site_fract_x
_atom_site_fract_y
_atom_site_fract_z
Si Si1 0.513508 0.780193 0.867914
Si Si2 0.781956 0.721963 0.631294
Si Si3 0.633267 0.383135 0.921892
Si Si4 0.250197 0.992096 0.178851
Si Si5 0.251826 0.057270 0.899912
Si Si6 0.867562 0.601670 0.379962
Si Si7 0.692073 0.806339 0.866309
Si Si8 0.939964 0.041768 0.835076
O O1 0.478383 0.838184 0.916803
O O2 0.621063 0.826253 0.892068
O O3 0.405451 0.792897 0.750962
O O4 0.521039 0.648434 0.879964
O O5 0.692590 0.675404 0.521513
O O6 0.869748 0.794250 0.640979
O O7 0.820297 0.611870 0.692866
O O8 0.717000 0.802584 0.644071
O O9 0.708975 0.484803 0.937881
O O10 0.513020 0.432025 0.870882
O O11 0.314624 0.042043 0.282375
O O12 0.237307 0.087963 0.115270
O O13 0.130147 0.953354 0.137271
O O14 0.257683 0.189792 0.910608
O O15 0.149536 0.044949 0.781736
O O16 0.360036 0.991220 0.934099
#
# Coordination Sequence:
#
# PCOD9255572 Si02
#       8
#     8   8   8   8   8   8   8   8
#     4   9  15  29  51  77 103 137 183 219 268 319
#     4  10  21  37  52  84 114 146 179 224 287 335
#     4  10  20  34  57  79 116 147 178 227 280 327
#     4  10  20  33  54  79 115 136 180 235 273 324
#     4   9  17  31  55  80 107 142 184 224 275 322
#     4   9  18  32  55  74 108 141 178 229 269 316
#     4   9  17  29  51  77 108 139 174 226 271 320
#     4  10  17  31  56  84 104 136 189 235 261 318
#
# _framework density 22.976727
#
# number of rings (size 3 to 8) (size 9 to 14) (size 15 to 20)
#    0.000    2.500    2.500    0.375    1.750    0.500 
#    0.000    1.875   22.000    0.000    0.000    5.250 
#    0.000    0.000    0.000    0.000    0.000    0.000 
#
# Total GULP energy -178760.606981 kJ/mol
# GULP energy per Si atom -5586.268968 kJ/mol
# Density = 2.292443 g / cm^3
# Si number density = 22.976727 Si / 1000 Ang^3
#
#
#
# Elastic Constant Matrix: (Units=GPa)
#
#
# Indices 1 2 3 4 5 6 
#
# 1 41.1319 1.7149 -7.5913 0.0000 -8.0010 0.0000
# 2 1.7149 102.4377 13.6906 0.0000 -15.5584 0.0000
# 3 -7.5913 13.6906 50.2874 0.0000 -1.6268 0.0000
# 4 0.0000 0.0000 0.0000 31.3533 0.0000 -6.9845
# 5 -8.0010 -15.5584 -1.6268 0.0000 11.6087 0.0000
# 6 0.0000 0.0000 0.0000 -6.9845 0.0000 35.8494
#
#
#
# Elastic Compliance Matrix: (Units=1/GPa)
#
#
# Indices 1 2 3 4 5 6 
#
# 1 0.029869 0.002651 0.004589 0.000000 0.024782 0.000000
# 2 0.002651 0.012903 -0.002506 0.000000 0.018769 0.000000
# 3 0.004589 -0.002506 0.021351 0.000000 0.002797 0.000000
# 4 0.000000 0.000000 0.000000 0.033342 0.000000 0.006496
# 5 0.024782 0.018769 0.002797 0.000000 0.128769 0.000000
# 6 0.000000 0.000000 0.000000 0.006496 0.000000 0.029160
#
#
# Mechanical properties :
#
#
# Convention : Reuss Voigt Hill
#
# Bulk Modulus (GPa) = 13.58855 23.27617 18.43236
# Shear Modulus (GPa) = 18.48726 28.16514 23.32620
#
# Velocity S-wave (km/s) = 2.83964 3.50496 3.18969
# Velocity P-wave (km/s) = 4.08391 5.15092 4.64813
#
# Compressibility (1/GPa) = 0.07359138
#
# Stress axis : x y z
#
# Youngs Moduli (GPa) = 33.47947 77.50025 46.83612
#
# Poissons Ratio (x) = -0.20542 -0.21493
# Poissons Ratio (y) = -0.08874 0.11735
# Poissons Ratio (z) = -0.15364 0.19418
#
# Static dielectric constant tensor:
#      x y z
#    x 1.846240 0.000000 -0.005300 
#    y 0.000000 1.867800 0.000000 
#    z -0.005300 0.000000 1.889400 
# 
# From -- ./inp_files/276940.got.cif
#   From: 2010.05.17/outbox.cif.g08.bks.cpg/sg15_139_cif.got.tgz:276940.got - 2010.06.03 18:47:42.
