data_PCOD9255533
_publ_section_title
;
Structure prediction by ZEFSAII (Michael W. Deem and Ramdas Pophale) SiO2 
 PCOD9255533
Probable space group: C 2/C
;
_chemical_formula_sum "Si O2"
_cell_formula_units_Z 56
_cell_length_a 10.651385
_cell_length_b 18.710963
_cell_length_c 18.988086
_cell_angle_alpha 90.000000
_cell_angle_beta 44.153218
_cell_angle_gamma 90.000000
_cell_volume 2636.052832
_symmetry_space_group_name_H-M "C 2/C"
_symmetry_group_IT_number 15
_symmetry_cell_setting 'monoclinic'
loop_
_space_group_symop_operation_xyz
x,y,z
-x,y,1/2-z
-x,-y,-z
x,-y,1/2+z
1/2+x,1/2+y,z
1/2-x,1/2+y,1/2-z
1/2-x,1/2-y,-z
1/2+x,1/2-y,1/2+z
loop_
_atom_site_type_symbol
_atom_site_label
_atom_site_fract_x
_atom_site_fract_y
_atom_site_fract_z
Si Si1 0.656193 0.845820 0.469116
Si Si2 0.187248 0.484474 0.383676
Si Si3 0.200165 0.783286 0.340032
Si Si4 0.727284 0.638924 0.124258
Si Si5 0.957305 0.412005 0.192820
Si Si6 0.406715 0.215924 0.358763
Si Si7 0.691982 0.327464 0.494129
O O1 0.759170 0.914843 0.396779
O O2 0.448123 0.851018 0.526576
O O3 0.650501 0.840150 0.556999
O O4 0.747910 0.772387 0.406514
O O5 0.290792 0.559137 0.339924
O O6 0.139523 0.460545 0.324620
O O7 0.000000 0.500000 0.500000
O O8 0.303879 0.709598 0.316944
O O9 0.334841 0.843168 0.258716
O O10 0.113985 0.813050 0.448025
O O11 0.053147 0.763880 0.341634
O O12 0.613321 0.640782 0.097661
O O13 0.000000 0.448611 0.250000
O O14 0.141503 0.380069 0.088263
O O15 0.500000 0.188010 0.250000
O O16 0.750000 0.250000 0.500000
#
# Coordination Sequence:
#
# PCOD9255533 Si02
#       7
#     8   8   8   8   8   8   8
#     4   9  18  31  50  75 103 140 179 216 261 314
#     4  10  17  31  54  76 102 137 175 214 267 316
#     4   9  19  31  50  77 104 129 173 219 262 312
#     4   9  17  32  54  79  99 133 175 218 268 314
#     4  10  18  30  51  81 104 133 172 222 266 308
#     4  10  19  31  49  74 106 141 181 219 260 315
#     4   9  16  29  51  75  96 129 167 215 260 307
#
# _framework density 21.243884000000001
#
# number of rings (size 3 to 8) (size 9 to 14) (size 15 to 20)
#    0.000    2.571    2.857    0.857    0.000    0.000 
#    0.000    6.429    0.000   13.714    0.000    0.000 
#    0.000    0.000    0.000    0.000    0.000    0.000 
#
# Total GULP energy -155916.486067 kJ/mol
# GULP energy per Si atom -5568.445931 kJ/mol
# Density = 2.119553 g / cm^3
# Si number density = 21.243884 Si / 1000 Ang^3
#
#
#
# Elastic Constant Matrix: (Units=GPa)
#
#
# Indices 1 2 3 4 5 6 
#
# 1 64.5081 28.1564 32.8352 0.0009 19.5805 -0.0015
# 2 28.1564 103.1463 35.3247 0.0001 25.8179 -0.0006
# 3 32.8352 35.3247 82.1340 -0.0013 28.9058 -0.0014
# 4 0.0009 0.0001 -0.0013 22.0490 -0.0002 10.5938
# 5 19.5805 25.8179 28.9058 -0.0002 41.7941 0.0011
# 6 -0.0015 -0.0006 -0.0014 10.5938 0.0011 20.4114
#
#
#
# Elastic Compliance Matrix: (Units=1/GPa)
#
#
# Indices 1 2 3 4 5 6 
#
# 1 0.020846 -0.002695 -0.005715 -0.000003 -0.004150 0.000003
# 2 -0.002695 0.012501 -0.002677 0.000000 -0.004608 0.000000
# 3 -0.005715 -0.002677 0.018619 0.000001 -0.008546 0.000001
# 4 -0.000003 0.000000 0.000001 0.060420 0.000002 -0.031359
# 5 -0.004150 -0.004608 -0.008546 0.000002 0.034628 -0.000004
# 6 0.000003 0.000000 0.000001 -0.031359 -0.000004 0.065268
#
#
# Mechanical properties :
#
#
# Convention : Reuss Voigt Hill
#
# Bulk Modulus (GPa) = 33.56526 49.15790 41.36158
# Shear Modulus (GPa) = 20.45935 27.08238 23.77087
#
# Velocity S-wave (km/s) = 3.10670 3.57435 3.34870
# Velocity P-wave (km/s) = 5.35753 6.34229 5.87059
#
# Compressibility (1/GPa) = 0.02979271
#
# Stress axis : x y z
#
# Youngs Moduli (GPa) = 47.96972 79.99392 53.70870
#
# Poissons Ratio (x) = 0.21557 0.30692
# Poissons Ratio (y) = 0.12927 0.14380
# Poissons Ratio (z) = 0.27413 0.21418
#
# Static dielectric constant tensor:
#      x y z
#    x 1.811100 -0.000010 -0.031430 
#    y -0.000010 1.769330 0.000000 
#    z -0.031430 0.000000 1.903410 
# 
# From -- ./inp_files/200124.got.cif
#   From: 2010.05.17/outbox.cif.g08.bks.cpg/sg15_101_cif.got.tgz:200124.got - 2010.06.03 18:47:42.
