data_PCOD9255695
_publ_section_title
;
Structure prediction by ZEFSAII (Michael W. Deem and Ramdas Pophale) SiO2 
 PCOD9255695
Probable space group: C 2/C
;
_chemical_formula_sum "Si O2"
_cell_formula_units_Z 56
_cell_length_a 22.460082
_cell_length_b 9.015037
_cell_length_c 16.519355
_cell_angle_alpha 90.000000
_cell_angle_beta 134.131454
_cell_angle_gamma 90.000000
_cell_volume 2400.720488
_symmetry_space_group_name_H-M "C 2/C"
_symmetry_group_IT_number 15
_symmetry_cell_setting 'monoclinic'
loop_
_space_group_symop_operation_xyz
x,y,z
-x,y,1/2-z
-x,-y,-z
x,-y,1/2+z
1/2+x,1/2+y,z
1/2-x,1/2+y,1/2-z
1/2-x,1/2-y,-z
1/2+x,1/2-y,1/2+z
loop_
_atom_site_type_symbol
_atom_site_label
_atom_site_fract_x
_atom_site_fract_y
_atom_site_fract_z
Si Si1 0.900938 0.823352 0.765799
Si Si2 0.655593 0.088263 0.686895
Si Si3 0.833820 0.866549 0.417842
Si Si4 0.745043 0.430576 0.385536
Si Si5 0.612069 0.231187 0.201849
Si Si6 0.524220 0.447175 0.431744
Si Si7 0.667276 0.843544 0.440925
O O1 0.900693 0.730749 0.849091
O O2 0.821229 0.934108 0.691638
O O3 0.978567 0.930356 0.833146
O O4 0.894548 0.702685 0.688556
O O5 0.693338 0.080741 0.633042
O O6 0.613911 0.938852 0.678695
O O7 0.735967 0.112152 0.820435
O O8 0.859919 0.817972 0.353057
O O9 0.860758 0.733871 0.502153
O O10 0.878845 0.019490 0.484584
O O11 0.684112 0.288136 0.331599
O O12 0.802275 0.489797 0.513100
O O13 0.520513 0.294328 0.132943
O O14 0.500000 0.500000 0.500000
O O15 0.750000 0.750000 0.500000
#
# Coordination Sequence:
#
# PCOD9255695 Si02
#       7
#     8   8   8   8   8   8   8
#     4  10  20  33  55  81 109 145 185 240 273 335
#     4  11  17  31  57  86 108 141 191 231 282 325
#     4  10  18  32  56  81 106 148 190 225 267 339
#     4   9  16  30  51  78 109 141 182 233 269 329
#     4   9  18  31  53  81 114 144 178 237 284 327
#     4   9  20  36  53  79 112 144 185 228 285 332
#     4  10  17  32  53  83 107 135 194 236 267 322
#
# _framework density 23.326329000000001
#
# number of rings (size 3 to 8) (size 9 to 14) (size 15 to 20)
#    0.000    2.286    4.286    1.714    0.000    0.571 
#    0.000    3.571    3.143    0.000    3.714    0.000 
#    0.000    0.000    0.000    0.000    0.000    0.000 
#
# Total GULP energy -156168.727018 kJ/mol
# GULP energy per Si atom -5577.454536 kJ/mol
# Density = 2.327324 g / cm^3
# Si number density = 23.326329 Si / 1000 Ang^3
#
#
#
# Elastic Constant Matrix: (Units=GPa)
#
#
# Indices 1 2 3 4 5 6 
#
# 1 17.1295 3.2133 7.2097 0.0000 2.4046 0.0000
# 2 3.2133 67.7789 0.7211 0.0000 9.4860 0.0000
# 3 7.2097 0.7211 45.2498 0.0000 -14.6555 0.0000
# 4 0.0000 0.0000 0.0000 23.2535 0.0000 -15.5373
# 5 2.4046 9.4860 -14.6555 0.0000 23.8736 0.0000
# 6 0.0000 0.0000 0.0000 -15.5373 0.0000 20.4448
#
#
#
# Elastic Compliance Matrix: (Units=1/GPa)
#
#
# Indices 1 2 3 4 5 6 
#
# 1 0.067574 -0.000742 -0.016056 0.000000 -0.016368 0.000000
# 2 -0.000742 0.015925 -0.002697 0.000000 -0.007908 0.000000
# 3 -0.016056 -0.002697 0.031917 0.000000 0.022282 0.000000
# 4 0.000000 0.000000 0.000000 0.087369 0.000000 0.066397
# 5 -0.016368 -0.007908 0.022282 0.000000 0.060357 0.000000
# 6 0.000000 0.000000 0.000000 0.066397 0.000000 0.099371
#
#
# Mechanical properties :
#
#
# Convention : Reuss Voigt Hill
#
# Bulk Modulus (GPa) = 13.08455 16.93848 15.01151
# Shear Modulus (GPa) = 11.71023 21.44866 16.57944
#
# Velocity S-wave (km/s) = 2.24301 3.03562 2.66890
# Velocity P-wave (km/s) = 3.51136 4.42312 3.99334
#
# Compressibility (1/GPa) = 0.07642603
#
# Stress axis : x y z
#
# Youngs Moduli (GPa) = 14.79869 62.79618 31.33086
#
# Poissons Ratio (x) = 0.04660 0.50304
# Poissons Ratio (y) = 0.01098 0.08450
# Poissons Ratio (z) = 0.23760 0.16935
#
# Static dielectric constant tensor:
#      x y z
#    x 1.919550 0.000000 -0.017400 
#    y 0.000000 1.917380 0.000000 
#    z -0.017400 0.000000 1.975610 
# 
# From -- ./inp_files/218644.got.cif
#   From: 2010.05.17/outbox.cif.g08.bks.cpg/sg15_110_cif.got.tgz:218644.got - 2010.06.03 18:47:42.
