data_PCOD9255197
_publ_section_title
;
Structure prediction by ZEFSAII (Michael W. Deem and Ramdas Pophale) SiO2 
 PCOD9255197
Probable space group: C 2/C
;
_chemical_formula_sum "Si O2"
_cell_formula_units_Z 56
_cell_length_a 8.001012
_cell_length_b 19.676077
_cell_length_c 18.570309
_cell_angle_alpha 90.000000
_cell_angle_beta 119.540877
_cell_angle_gamma 90.000000
_cell_volume 2543.454044
_symmetry_space_group_name_H-M "C 2/C"
_symmetry_group_IT_number 15
_symmetry_cell_setting 'monoclinic'
loop_
_space_group_symop_operation_xyz
x,y,z
-x,y,1/2-z
-x,-y,-z
x,-y,1/2+z
1/2+x,1/2+y,z
1/2-x,1/2+y,1/2-z
1/2-x,1/2-y,-z
1/2+x,1/2-y,1/2+z
loop_
_atom_site_type_symbol
_atom_site_label
_atom_site_fract_x
_atom_site_fract_y
_atom_site_fract_z
Si Si1 0.265028 0.567449 0.427642
Si Si2 0.722733 0.321523 0.455531
Si Si3 0.766532 0.809534 0.357397
Si Si4 0.264648 0.417960 0.474744
Si Si5 0.779021 0.795186 0.200802
Si Si6 0.765964 0.863079 0.783698
Si Si7 0.725551 0.649566 0.374531
O O1 0.203410 0.621470 0.474873
O O2 0.201574 0.493207 0.439186
O O3 0.500081 0.575326 0.475810
O O4 0.204206 0.586516 0.333684
O O5 0.750000 0.250000 0.500000
O O6 0.493012 0.326380 0.399195
O O7 0.805859 0.320402 0.392531
O O8 0.698395 0.863676 0.401085
O O9 0.689502 0.813139 0.259024
O O10 0.749123 0.731669 0.381428
O O11 0.204713 0.390017 0.540204
O O12 0.782129 0.713132 0.200386
O O13 0.000000 0.818764 0.250000
O O14 0.696001 0.872963 0.687002
O O15 0.996835 0.863763 0.826813
#
# Coordination Sequence:
#
# PCOD9255197 Si02
#       7
#     8   8   8   8   8   8   8
#     4   9  17  29  46  66  95 123 150 188 227 275
#     4  10  17  29  49  70  92 120 156 191 228 269
#     4   9  18  30  47  72  93 119 153 193 232 269
#     4   9  17  30  44  68  96 121 152 184 230 276
#     4   9  17  29  46  73  92 115 153 195 233 268
#     4   9  16  29  47  72  91 119 153 191 236 271
#     4   9  17  29  48  71  93 118 157 193 230 274
#
# _framework density 22.017302000000001
#
# number of rings (size 3 to 8) (size 9 to 14) (size 15 to 20)
#    0.000    2.857    1.429    0.429    0.000    0.000 
#    2.571    0.000    0.000    0.857    7.429    0.000 
#    0.000    0.000    0.000    0.000    0.000    0.000 
#
# Total GULP energy -156296.182282 kJ/mol
# GULP energy per Si atom -5582.006510 kJ/mol
# Density = 2.196719 g / cm^3
# Si number density = 22.017302 Si / 1000 Ang^3
#
#
#
# Elastic Constant Matrix: (Units=GPa)
#
#
# Indices 1 2 3 4 5 6 
#
# 1 81.0171 26.3705 41.6990 0.0000 -18.7853 0.0000
# 2 26.3705 158.7615 129.0228 0.0000 -54.1410 0.0000
# 3 41.6990 129.0228 206.2653 0.0000 -57.8814 0.0000
# 4 0.0000 0.0000 0.0000 21.4355 0.0000 0.4731
# 5 -18.7853 -54.1410 -57.8814 0.0000 40.2768 0.0000
# 6 0.0000 0.0000 0.0000 0.4731 0.0000 14.2138
#
#
#
# Elastic Compliance Matrix: (Units=1/GPa)
#
#
# Indices 1 2 3 4 5 6 
#
# 1 0.014263 0.001103 -0.002163 0.000000 0.005027 0.000000
# 2 0.001103 0.015548 -0.006601 0.000000 0.011927 0.000000
# 3 -0.002163 -0.006601 0.011130 0.000000 0.006112 0.000000
# 4 0.000000 0.000000 0.000000 0.046686 0.000000 -0.001554
# 5 0.005027 0.011927 0.006112 0.000000 0.051989 0.000000
# 6 0.000000 0.000000 0.000000 -0.001554 0.000000 0.070406
#
#
# Mechanical properties :
#
#
# Convention : Reuss Voigt Hill
#
# Bulk Modulus (GPa) = 39.03559 93.35870 66.19715
# Shear Modulus (GPa) = 21.37818 31.78200 26.58009
#
# Velocity S-wave (km/s) = 3.11942 3.80347 3.47830
# Velocity P-wave (km/s) = 5.54458 7.86021 6.80167
#
# Compressibility (1/GPa) = 0.02561765
#
# Stress axis : x y z
#
# Youngs Moduli (GPa) = 70.11278 64.31703 89.84914
#
# Poissons Ratio (x) = -0.07091 0.19430
# Poissons Ratio (y) = -0.07730 0.59313
# Poissons Ratio (z) = 0.15162 0.42459
#
# Static dielectric constant tensor:
#      x y z
#    x 1.965140 0.000000 0.056870 
#    y 0.000000 1.733100 0.000000 
#    z 0.056870 0.000000 1.842930 
# 
# From -- ./inp_files/191017.got.cif
#   From: 2010.05.17/outbox.cif.g08.bks.cpg/sg15_96_cif.got.tgz:191017.got - 2010.06.03 18:47:42.
