data_PCOD9255303
_publ_section_title
;
Structure prediction by ZEFSAII (Michael W. Deem and Ramdas Pophale) SiO2 
 PCOD9255303
Probable space group: C 2/C
;
_chemical_formula_sum "Si O2"
_cell_formula_units_Z 56
_cell_length_a 22.906464
_cell_length_b 12.360031
_cell_length_c 12.412614
_cell_angle_alpha 90.000000
_cell_angle_beta 118.667834
_cell_angle_gamma 90.000000
_cell_volume 3083.516151
_symmetry_space_group_name_H-M "C 2/C"
_symmetry_group_IT_number 15
_symmetry_cell_setting 'monoclinic'
loop_
_space_group_symop_operation_xyz
x,y,z
-x,y,1/2-z
-x,-y,-z
x,-y,1/2+z
1/2+x,1/2+y,z
1/2-x,1/2+y,1/2-z
1/2-x,1/2-y,-z
1/2+x,1/2-y,1/2+z
loop_
_atom_site_type_symbol
_atom_site_label
_atom_site_fract_x
_atom_site_fract_y
_atom_site_fract_z
Si Si1 0.649068 0.178642 0.424274
Si Si2 0.722609 0.391686 0.929916
Si Si3 0.294514 0.627127 0.653648
Si Si4 0.636321 0.056258 0.832748
Si Si5 0.189989 0.231263 0.606957
Si Si6 0.077368 0.377109 0.067808
Si Si7 0.435167 0.123301 0.526937
O O1 0.657774 0.287232 0.363964
O O2 0.720835 0.150758 0.540978
O O3 0.600435 0.187549 0.483408
O O4 0.628831 0.074370 0.333489
O O5 0.691517 0.502049 0.859631
O O6 0.747323 0.311493 0.857730
O O7 0.792399 0.419838 0.051477
O O8 0.681363 0.331046 0.985685
O O9 0.296937 0.652851 0.782072
O O10 0.629783 0.109820 0.710884
O O11 0.580456 0.108558 0.860390
O O12 0.124570 0.302922 0.569764
O O13 0.070627 0.501138 0.022092
O O14 0.007661 0.338195 0.055544
#
# Coordination Sequence:
#
# PCOD9255303 Si02
#       7
#     8   8   8   8   8   8   8
#     4   9  19  29  46  76 101 129 174 206 250 311
#     4   9  20  33  52  77  98 131 172 200 253 313
#     4  10  19  32  50  74 104 134 164 210 253 296
#     4   9  16  30  48  71 102 132 165 212 256 301
#     4  10  19  35  52  73 107 134 162 209 253 300
#     4  10  17  30  48  71 104 135 167 212 254 295
#     4   9  19  29  46  74 101 135 172 202 252 313
#
# _framework density 18.161086999999998
#
# number of rings (size 3 to 8) (size 9 to 14) (size 15 to 20)
#    0.000    2.571    0.000    3.000    0.000    3.429 
#    0.000    2.143    0.000    0.857    0.000    6.000 
#    0.000    0.000    0.000    0.000    0.000    0.000 
#
# Total GULP energy -156095.790433 kJ/mol
# GULP energy per Si atom -5574.849658 kJ/mol
# Density = 1.811975 g / cm^3
# Si number density = 18.161087 Si / 1000 Ang^3
#
#
#
# Elastic Constant Matrix: (Units=GPa)
#
#
# Indices 1 2 3 4 5 6 
#
# 1 90.0047 33.7054 19.5186 0.0000 -17.4423 0.0000
# 2 33.7054 93.6448 22.7148 0.0000 -16.7182 0.0000
# 3 19.5186 22.7148 51.1083 0.0000 -16.9518 0.0000
# 4 0.0000 0.0000 0.0000 17.1626 0.0000 -4.7895
# 5 -17.4423 -16.7182 -16.9518 0.0000 16.5736 0.0000
# 6 0.0000 0.0000 0.0000 -4.7895 0.0000 23.1293
#
#
#
# Elastic Compliance Matrix: (Units=1/GPa)
#
#
# Indices 1 2 3 4 5 6 
#
# 1 0.014650 -0.003058 -0.000220 0.000000 0.012109 0.000000
# 2 -0.003058 0.013823 -0.002146 0.000000 0.008530 0.000000
# 3 -0.000220 -0.002146 0.029980 0.000000 0.028268 0.000000
# 4 0.000000 0.000000 0.000000 0.061840 0.000000 0.012806
# 5 0.012109 0.008530 0.028268 0.000000 0.110597 0.000000
# 6 0.000000 0.000000 0.000000 0.012806 0.000000 0.045887
#
#
# Mechanical properties :
#
#
# Convention : Reuss Voigt Hill
#
# Bulk Modulus (GPa) = 21.00624 42.95948 31.98286
# Shear Modulus (GPa) = 16.47484 21.96103 19.21793
#
# Velocity S-wave (km/s) = 3.01516 3.48118 3.25652
# Velocity P-wave (km/s) = 4.86963 6.31381 5.63815
#
# Compressibility (1/GPa) = 0.04760489
#
# Stress axis : x y z
#
# Youngs Moduli (GPa) = 68.26010 72.34478 33.35531
#
# Poissons Ratio (x) = 0.22122 0.00732
# Poissons Ratio (y) = 0.20873 0.07159
# Poissons Ratio (z) = 0.01499 0.15528
#
# Static dielectric constant tensor:
#      x y z
#    x 1.651610 0.000000 -0.010250 
#    y 0.000000 1.634360 0.000000 
#    z -0.010250 0.000000 1.643150 
# 
# From -- ./inp_files/111668.got.cif
#   From: 2010.05.17/outbox.cif.g08.bks.cpg/sg15_56_cif.got.tgz:111668.got - 2010.06.03 18:47:42.
