data_PCOD9255284
_publ_section_title
;
Structure prediction by ZEFSAII (Michael W. Deem and Ramdas Pophale) SiO2 
 PCOD9255284
Probable space group: C 2/C
;
_chemical_formula_sum "Si O2"
_cell_formula_units_Z 64
_cell_length_a 13.832557
_cell_length_b 31.535429
_cell_length_c 14.736887
_cell_angle_alpha 90.000000
_cell_angle_beta 146.713620
_cell_angle_gamma 90.000000
_cell_volume 3528.094057
_symmetry_space_group_name_H-M "C 2/C"
_symmetry_group_IT_number 15
_symmetry_cell_setting 'monoclinic'
loop_
_space_group_symop_operation_xyz
x,y,z
-x,y,1/2-z
-x,-y,-z
x,-y,1/2+z
1/2+x,1/2+y,z
1/2-x,1/2+y,1/2-z
1/2-x,1/2-y,-z
1/2+x,1/2-y,1/2+z
loop_
_atom_site_type_symbol
_atom_site_label
_atom_site_fract_x
_atom_site_fract_y
_atom_site_fract_z
Si Si1 0.050571 0.039030 0.972297
Si Si2 0.959292 0.621424 0.507166
Si Si3 0.222589 0.295390 0.586719
Si Si4 0.838117 0.114029 0.887580
Si Si5 0.895530 0.450353 0.827237
Si Si6 0.186137 0.567297 0.940701
Si Si7 0.741466 0.494705 0.377384
Si Si8 0.387909 0.700802 0.024151
O O1 0.986061 0.084345 0.960452
O O2 0.930038 0.029776 0.791018
O O3 0.261653 0.041576 0.139893
O O4 0.000000 0.000000 0.000000
O O5 0.907316 0.670281 0.472349
O O6 0.900620 0.597217 0.370625
O O7 0.859251 0.599214 0.513300
O O8 0.164264 0.613076 0.688560
O O9 0.415691 0.299635 0.781453
O O10 0.251313 0.304550 0.501488
O O11 0.154603 0.247635 0.545398
O O12 0.792781 0.090747 0.946738
O O13 0.874220 0.162548 0.942527
O O14 0.816586 0.478359 0.849407
O O15 0.094158 0.465160 0.967597
O O16 0.000000 0.553747 0.750000
O O17 0.284969 0.528088 0.062896
#
# Coordination Sequence:
#
# PCOD9255284 Si02
#       8
#     8   8   8   8   8   8   8   8
#     4  10  20  31  47  65  85 116 154 195 230 281
#     4  10  17  30  46  65  85 114 152 193 234 272
#     4  10  19  31  42  62  87 117 155 192 241 269
#     4  11  19  32  47  68  88 119 161 197 238 271
#     4   9  17  29  48  60  84 114 146 189 231 278
#     4   9  19  28  48  64  87 120 150 199 238 273
#     4   9  17  33  45  62  86 113 148 192 237 276
#     4  10  20  30  44  59  88 120 152 198 232 277
#
# _framework density 18.140105999999999
#
# number of rings (size 3 to 8) (size 9 to 14) (size 15 to 20)
#    0.000    2.250    2.500    1.500    5.250    1.000 
#    0.000    0.000    0.000    0.000    0.000    0.000 
#    0.000    0.000    0.000    0.000    0.000    5.000 
#
# Total GULP energy -178635.258228 kJ/mol
# GULP energy per Si atom -5582.351820 kJ/mol
# Density = 1.809882 g / cm^3
# Si number density = 18.140106 Si / 1000 Ang^3
#
#
#
# Elastic Constant Matrix: (Units=GPa)
#
#
# Indices 1 2 3 4 5 6 
#
# 1 18.7303 20.6350 20.2501 0.0000 1.1062 0.0000
# 2 20.6350 120.0655 47.3304 0.0000 -0.4507 0.0000
# 3 20.2501 47.3304 103.3015 0.0000 3.5107 0.0000
# 4 0.0000 0.0000 0.0000 32.4618 0.0000 -2.4888
# 5 1.1062 -0.4507 3.5107 0.0000 11.3252 0.0000
# 6 0.0000 0.0000 0.0000 -2.4888 0.0000 23.7416
#
#
#
# Elastic Compliance Matrix: (Units=1/GPa)
#
#
# Indices 1 2 3 4 5 6 
#
# 1 0.074565 -0.008699 -0.010482 0.000000 -0.004380 0.000000
# 2 -0.008699 0.011219 -0.003516 0.000000 0.002386 0.000000
# 3 -0.010482 -0.003516 0.013458 0.000000 -0.003288 0.000000
# 4 0.000000 0.000000 0.000000 0.031055 0.000000 0.003255
# 5 -0.004380 0.002386 -0.003288 0.000000 0.089841 0.000000
# 6 0.000000 0.000000 0.000000 0.003255 0.000000 0.042461
#
#
# Mechanical properties :
#
#
# Convention : Reuss Voigt Hill
#
# Bulk Modulus (GPa) = 18.57127 46.50315 32.53721
# Shear Modulus (GPa) = 15.34009 23.76449 19.55229
#
# Velocity S-wave (km/s) = 2.91115 3.62339 3.28662
# Velocity P-wave (km/s) = 4.64324 6.57240 5.69017
#
# Compressibility (1/GPa) = 0.05384661
#
# Stress axis : x y z
#
# Youngs Moduli (GPa) = 13.41112 89.13551 74.30577
#
# Poissons Ratio (x) = 0.77542 0.77889
# Poissons Ratio (y) = 0.11667 0.26126
# Poissons Ratio (z) = 0.14058 0.31340
#
# Static dielectric constant tensor:
#      x y z
#    x 1.606660 0.000000 0.011160 
#    y 0.000000 1.623710 0.000000 
#    z 0.011160 0.000000 1.648840 
# 
# From -- ./inp_files/63842.got.cif
#   From: 2010.05.17/outbox.cif.g08.bks.cpg/sg15_32_cif.got.tgz:63842.got - 2010.06.03 18:47:42.
