data_PCOD9255957
_publ_section_title
;
Structure prediction by ZEFSAII (Michael W. Deem and Ramdas Pophale) SiO2 
 PCOD9255957
Probable space group: C 2/C
;
_chemical_formula_sum "Si O2"
_cell_formula_units_Z 64
_cell_length_a 14.480984
_cell_length_b 8.983057
_cell_length_c 28.238423
_cell_angle_alpha 90.000000
_cell_angle_beta 131.812845
_cell_angle_gamma 90.000000
_cell_volume 2737.847551
_symmetry_space_group_name_H-M "C 2/C"
_symmetry_group_IT_number 15
_symmetry_cell_setting 'monoclinic'
loop_
_space_group_symop_operation_xyz
x,y,z
-x,y,1/2-z
-x,-y,-z
x,-y,1/2+z
1/2+x,1/2+y,z
1/2-x,1/2+y,1/2-z
1/2-x,1/2-y,-z
1/2+x,1/2-y,1/2+z
loop_
_atom_site_type_symbol
_atom_site_label
_atom_site_fract_x
_atom_site_fract_y
_atom_site_fract_z
Si Si1 0.667572 0.006284 0.023918
Si Si2 0.429264 0.029892 0.165321
Si Si3 0.427415 0.722531 0.827472
Si Si4 0.682236 0.956219 0.270450
Si Si5 0.421492 0.531047 0.071930
Si Si6 0.690168 0.348083 0.546621
Si Si7 0.343827 0.285828 0.853911
Si Si8 0.400094 0.977623 0.895321
O O1 0.784538 0.077136 0.039230
O O2 0.662516 0.061993 0.076306
O O3 0.686929 0.824725 0.028568
O O4 0.534396 0.039431 0.956547
O O5 0.504354 0.189665 0.192920
O O6 0.323360 0.067519 0.090949
O O7 0.551631 0.929690 0.199224
O O8 0.362820 0.962635 0.189479
O O9 0.291668 0.648716 0.789465
O O10 0.524151 0.593685 0.874248
O O11 0.422910 0.845603 0.867462
O O12 0.749159 0.117835 0.290440
O O13 0.517540 0.663557 0.109158
O O14 0.406256 0.446026 0.016276
O O15 0.667908 0.335051 0.594963
O O16 0.321160 0.111173 0.846394
#
# Coordination Sequence:
#
# PCOD9255957 Si02
#       8
#     8   8   8   8   8   8   8   8
#     4  10  19  33  54  82 125 157 193 242 299 382
#     4  10  20  39  64  87 118 160 205 262 304 352
#     4  11  21  38  67  88 116 167 199 250 315 366
#     4   9  22  41  62  91 119 155 219 258 295 377
#     4  11  19  34  58  89 117 156 209 241 298 385
#     4  10  17  33  59  87 114 163 207 243 308 380
#     4   9  21  35  54  86 121 157 201 260 305 361
#     4  10  21  36  52  84 125 158 190 245 315 362
#
# _framework density 23.376028000000002
#
# number of rings (size 3 to 8) (size 9 to 14) (size 15 to 20)
#    0.000    2.000    2.500    1.500    0.000    1.500 
#    2.250    0.000    2.750    6.000    0.000    0.000 
#    0.000    0.000    0.000    0.000    0.000    0.000 
#
# Total GULP energy -178339.374114 kJ/mol
# GULP energy per Si atom -5573.105441 kJ/mol
# Density = 2.332282 g / cm^3
# Si number density = 23.376028 Si / 1000 Ang^3
#
#
#
# Elastic Constant Matrix: (Units=GPa)
#
#
# Indices 1 2 3 4 5 6 
#
# 1 86.3533 -1.5514 12.2822 0.0000 2.2651 0.0000
# 2 -1.5514 36.5959 5.0532 0.0000 -7.2597 0.0000
# 3 12.2822 5.0532 59.6376 0.0000 11.7395 0.0000
# 4 0.0000 0.0000 0.0000 25.9803 0.0000 -0.7332
# 5 2.2651 -7.2597 11.7395 0.0000 40.9914 0.0000
# 6 0.0000 0.0000 0.0000 -0.7332 0.0000 28.7600
#
#
#
# Elastic Compliance Matrix: (Units=1/GPa)
#
#
# Indices 1 2 3 4 5 6 
#
# 1 0.011958 0.000912 -0.002588 0.000000 0.000242 0.000000
# 2 0.000912 0.029134 -0.003881 0.000000 0.006221 0.000000
# 3 -0.002588 -0.003881 0.018797 0.000000 -0.005927 0.000000
# 4 0.000000 0.000000 0.000000 0.038518 0.000000 0.000982
# 5 0.000242 0.006221 -0.005927 0.000000 0.027181 0.000000
# 6 0.000000 0.000000 0.000000 0.000982 0.000000 0.034796
#
#
# Mechanical properties :
#
#
# Convention : Reuss Voigt Hill
#
# Bulk Modulus (GPa) = 20.50186 23.79500 22.14843
# Shear Modulus (GPa) = 26.63031 30.26652 28.44842
#
# Velocity S-wave (km/s) = 3.37889 3.60219 3.49232
# Velocity P-wave (km/s) = 4.90020 5.24427 5.07515
#
# Compressibility (1/GPa) = 0.04877606
#
# Stress axis : x y z
#
# Youngs Moduli (GPa) = 83.62296 34.32408 53.20134
#
# Poissons Ratio (x) = -0.03131 0.13767
# Poissons Ratio (y) = -0.07628 0.20647
# Poissons Ratio (z) = 0.21639 0.13321
#
# Static dielectric constant tensor:
#      x y z
#    x 1.929020 0.000000 -0.006730 
#    y 0.000000 1.861200 0.000000 
#    z -0.006730 0.000000 1.933590 
# 
# From -- ./inp_files/313166.got.cif
#   From: 2010.05.17/outbox.cif.g08.bks.cpg/sg15_157_cif.got.tgz:313166.got - 2010.06.03 18:47:42.
