data_PCOD9255856
_publ_section_title
;
Structure prediction by ZEFSAII (Michael W. Deem and Ramdas Pophale) SiO2 
 PCOD9255856
Probable space group: C 2/C
;
_chemical_formula_sum "Si O2"
_cell_formula_units_Z 60
_cell_length_a 14.966275
_cell_length_b 26.843175
_cell_length_c 9.294149
_cell_angle_alpha 90.000000
_cell_angle_beta 72.371395
_cell_angle_gamma 90.000000
_cell_volume 3558.509884
_symmetry_space_group_name_H-M "C 2/C"
_symmetry_group_IT_number 15
_symmetry_cell_setting 'monoclinic'
loop_
_space_group_symop_operation_xyz
x,y,z
-x,y,1/2-z
-x,-y,-z
x,-y,1/2+z
1/2+x,1/2+y,z
1/2-x,1/2+y,1/2-z
1/2-x,1/2-y,-z
1/2+x,1/2-y,1/2+z
loop_
_atom_site_type_symbol
_atom_site_label
_atom_site_fract_x
_atom_site_fract_y
_atom_site_fract_z
Si Si1 0.124879 0.720822 0.969412
Si Si2 0.887835 0.548358 0.643125
Si Si3 0.000000 0.329869 0.750000
Si Si4 0.611818 0.694151 0.698871
Si Si5 0.602813 0.056760 0.521790
Si Si6 0.750775 0.621634 0.546470
Si Si7 0.690503 0.132990 0.279213
Si Si8 0.748076 0.754663 0.830844
O O1 0.190231 0.673226 0.967706
O O2 0.155045 0.735950 0.793008
O O3 0.144751 0.770357 0.051100
O O4 0.028743 0.702400 0.094041
O O5 0.878001 0.546730 0.819931
O O6 0.886174 0.493417 0.576182
O O7 0.808060 0.581115 0.607270
O O8 0.992126 0.570802 0.563033
O O9 0.088130 0.361762 0.755577
O O10 0.500000 0.694058 0.750000
O O11 0.651868 0.638801 0.658206
O O12 0.663484 0.720785 0.807764
O O13 0.671428 0.098613 0.425338
O O14 0.747018 0.609822 0.378779
O O15 0.726869 0.188103 0.298803
O O16 0.750000 0.750000 0.000000
#
# Coordination Sequence:
#
# PCOD9255856 Si02
#       8
#     8   8   4   8   8   8   8   8
#     4  10  17  33  53  73 104 145 183 214 257 322
#     4  10  21  36  51  79 107 136 173 213 267 323
#     4  10  18  30  56  74 100 144 188 214 256 318
#     4  11  19  36  56  76 104 149 195 219 258 326
#     4  10  21  34  53  77 109 137 168 216 263 327
#     4  10  19  32  55  74 102 142 180 219 261 317
#     4  11  19  33  50  76 103 140 177 213 265 318
#     4  11  22  33  49  78 113 142 178 231 274 312
#
# _framework density 16.860990000000001
#
# number of rings (size 3 to 8) (size 9 to 14) (size 15 to 20)
#    0.000    1.600    4.667    3.200    3.733    2.133 
#    0.000    2.000    0.000    0.000    0.000    3.733 
#    0.000    0.000    0.000    0.000    0.000    0.000 
#
# Total GULP energy -167020.630045 kJ/mol
# GULP energy per Si atom -5567.354335 kJ/mol
# Density = 1.682261 g / cm^3
# Si number density = 16.860990 Si / 1000 Ang^3
#
#
#
# Elastic Constant Matrix: (Units=GPa)
#
#
# Indices 1 2 3 4 5 6 
#
# 1 54.1422 16.9923 34.6918 0.0000 -8.2710 0.0000
# 2 16.9923 41.1868 28.2230 0.0000 -8.6821 0.0000
# 3 34.6918 28.2230 144.7413 0.0000 0.3639 0.0000
# 4 0.0000 0.0000 0.0000 26.2236 0.0000 -2.9316
# 5 -8.2710 -8.6821 0.3639 0.0000 21.7242 0.0000
# 6 0.0000 0.0000 0.0000 -2.9316 0.0000 26.6996
#
#
#
# Elastic Compliance Matrix: (Units=1/GPa)
#
#
# Indices 1 2 3 4 5 6 
#
# 1 0.024303 -0.005184 -0.004832 0.000000 0.007262 0.000000
# 2 -0.005184 0.032204 -0.005064 0.000000 0.010981 0.000000
# 3 -0.004832 -0.005064 0.009065 0.000000 -0.004016 0.000000
# 4 0.000000 0.000000 0.000000 0.038607 0.000000 0.004239
# 5 0.007262 0.010981 -0.004016 0.000000 0.053252 0.000000
# 6 0.000000 0.000000 0.000000 0.004239 0.000000 0.037919
#
#
# Mechanical properties :
#
#
# Convention : Reuss Voigt Hill
#
# Bulk Modulus (GPa) = 28.24150 44.43161 36.33655
# Shear Modulus (GPa) = 21.06906 25.60703 23.33804
#
# Velocity S-wave (km/s) = 3.53877 3.90130 3.72445
# Velocity P-wave (km/s) = 5.78646 6.83392 6.33189
#
# Compressibility (1/GPa) = 0.03540889
#
# Stress axis : x y z
#
# Youngs Moduli (GPa) = 41.14785 31.05237 110.31849
#
# Poissons Ratio (x) = 0.16099 0.53308
# Poissons Ratio (y) = 0.21333 0.55869
# Poissons Ratio (z) = 0.19884 0.15726
#
# Static dielectric constant tensor:
#      x y z
#    x 1.598350 0.000000 -0.045310 
#    y 0.000000 1.576780 0.000000 
#    z -0.045310 0.000000 1.632920 
# 
# From -- ./inp_files/43156.got.cif
#   From: 2010.05.17/outbox.cif.g08.bks.cpg/sg15_22_cif.got.tgz:43156.got - 2010.06.03 18:47:42.
