data_PCOD9255111
_publ_section_title
;
Structure prediction by ZEFSAII (Michael W. Deem and Ramdas Pophale) SiO2 
 PCOD9255111
Probable space group: C 2/C
;
_chemical_formula_sum "Si O2"
_cell_formula_units_Z 60
_cell_length_a 28.598296
_cell_length_b 22.735636
_cell_length_c 8.906964
_cell_angle_alpha 90.000000
_cell_angle_beta 136.038302
_cell_angle_gamma 90.000000
_cell_volume 4020.197545
_symmetry_space_group_name_H-M "C 2/C"
_symmetry_group_IT_number 15
_symmetry_cell_setting 'monoclinic'
loop_
_space_group_symop_operation_xyz
x,y,z
-x,y,1/2-z
-x,-y,-z
x,-y,1/2+z
1/2+x,1/2+y,z
1/2-x,1/2+y,1/2-z
1/2-x,1/2-y,-z
1/2+x,1/2-y,1/2+z
loop_
_atom_site_type_symbol
_atom_site_label
_atom_site_fract_x
_atom_site_fract_y
_atom_site_fract_z
Si Si1 0.122693 0.319625 0.574073
Si Si2 0.351993 0.287688 0.783085
Si Si3 0.038177 0.778833 0.699735
Si Si4 0.500000 0.867560 0.750000
Si Si5 0.078910 0.448256 0.447604
Si Si6 0.613889 0.936075 0.186646
Si Si7 0.416215 0.231753 0.220437
Si Si8 0.291546 0.834455 0.016786
O O1 0.072244 0.278465 0.358930
O O2 0.089369 0.382584 0.535103
O O3 0.133501 0.286618 0.757643
O O4 0.184161 0.331893 0.601682
O O5 0.403705 0.306405 0.770574
O O6 0.322485 0.224446 0.662240
O O7 0.288554 0.330473 0.654552
O O8 0.386753 0.273509 0.023090
O O9 0.000000 0.810966 0.750000
O O10 0.980308 0.760243 0.450718
O O11 0.454275 0.905968 0.533559
O O12 0.552963 0.825957 0.786978
O O13 0.105762 0.446129 0.342601
O O14 0.117541 0.500218 0.620669
O O15 0.000000 0.461614 0.250000
O O16 0.674796 0.889470 0.319285
#
# Coordination Sequence:
#
# PCOD9255111 Si02
#       8
#     8   8   8   4   8   8   8   8
#     4   9  19  30  43  61  94 119 141 190 220 253
#     4  10  17  28  48  59  82 121 153 177 215 271
#     4   9  16  29  44  68  91 113 140 182 227 256
#     4  12  18  28  42  64  86 108 152 188 224 250
#     4  11  20  30  42  63  84 117 149 191 224 243
#     4  11  22  30  43  60  88 114 151 191 216 254
#     4  11  17  26  47  65  84 113 152 181 220 263
#     4   9  19  34  39  58  87 120 152 183 222 250
#
# _framework density 14.924639000000001
#
# number of rings (size 3 to 8) (size 9 to 14) (size 15 to 20)
#    0.000    1.867    3.333    4.000    1.867    0.533 
#    0.000    0.000    0.000    0.000    0.000    0.000 
#    0.000    0.000    0.000   33.600    0.000    4.800 
#
# Total GULP energy -167002.464506 kJ/mol
# GULP energy per Si atom -5566.748817 kJ/mol
# Density = 1.489067 g / cm^3
# Si number density = 14.924639 Si / 1000 Ang^3
#
#
#
# Elastic Constant Matrix: (Units=GPa)
#
#
# Indices 1 2 3 4 5 6 
#
# 1 90.5057 19.0827 36.1431 0.0000 7.6851 0.0000
# 2 19.0827 35.9082 18.8212 0.0000 5.2264 0.0000
# 3 36.1431 18.8212 51.3905 0.0000 -2.4948 0.0000
# 4 0.0000 0.0000 0.0000 9.5806 0.0000 2.2739
# 5 7.6851 5.2264 -2.4948 0.0000 19.9499 0.0000
# 6 0.0000 0.0000 0.0000 2.2739 0.0000 19.5106
#
#
#
# Elastic Compliance Matrix: (Units=1/GPa)
#
#
# Indices 1 2 3 4 5 6 
#
# 1 0.016590 -0.001788 -0.011369 0.000000 -0.007344 0.000000
# 2 -0.001788 0.037074 -0.012836 0.000000 -0.010629 0.000000
# 3 -0.011369 -0.012836 0.032731 0.000000 0.011836 0.000000
# 4 0.000000 0.000000 0.000000 0.107347 0.000000 -0.012511
# 5 -0.007344 -0.010629 0.011836 0.000000 0.057219 0.000000
# 6 0.000000 0.000000 0.000000 -0.012511 0.000000 0.052712
#
#
# Mechanical properties :
#
#
# Convention : Reuss Voigt Hill
#
# Bulk Modulus (GPa) = 29.06383 36.21093 32.63738
# Shear Modulus (GPa) = 13.61915 16.72540 15.17227
#
# Velocity S-wave (km/s) = 3.02408 3.35125 3.19186
# Velocity P-wave (km/s) = 5.63111 6.26815 5.95815
#
# Compressibility (1/GPa) = 0.03440703
#
# Stress axis : x y z
#
# Youngs Moduli (GPa) = 60.27729 26.97279 30.55236
#
# Poissons Ratio (x) = 0.04823 0.34736
# Poissons Ratio (y) = 0.10779 0.39218
# Poissons Ratio (z) = 0.68532 0.34623
#
# Static dielectric constant tensor:
#      x y z
#    x 1.597030 0.000000 0.063200 
#    y 0.000000 1.508100 0.000000 
#    z 0.063200 0.000000 1.593000 
# 
# From -- ./inp_files/67675.got.cif
#   From: 2010.05.17/outbox.cif.g08.bks.cpg/sg15_34_cif.got.tgz:67675.got - 2010.06.03 18:47:42.
