data_PCOD9255156
_publ_section_title
;
Structure prediction by ZEFSAII (Michael W. Deem and Ramdas Pophale) SiO2 
 PCOD9255156
Probable space group: C 2/C
;
_chemical_formula_sum "Si O2"
_cell_formula_units_Z 64
_cell_length_a 21.827981
_cell_length_b 23.985843
_cell_length_c 9.369340
_cell_angle_alpha 90.000000
_cell_angle_beta 43.933135
_cell_angle_gamma 90.000000
_cell_volume 3403.481365
_symmetry_space_group_name_H-M "C 2/C"
_symmetry_group_IT_number 15
_symmetry_cell_setting 'monoclinic'
loop_
_space_group_symop_operation_xyz
x,y,z
-x,y,1/2-z
-x,-y,-z
x,-y,1/2+z
1/2+x,1/2+y,z
1/2-x,1/2+y,1/2-z
1/2-x,1/2-y,-z
1/2+x,1/2-y,1/2+z
loop_
_atom_site_type_symbol
_atom_site_label
_atom_site_fract_x
_atom_site_fract_y
_atom_site_fract_z
Si Si1 0.016806 0.576246 0.385929
Si Si2 0.775199 0.436532 0.898849
Si Si3 0.242926 0.632724 0.339068
Si Si4 0.558762 0.799025 0.772454
Si Si5 0.660644 0.943074 0.215371
Si Si6 0.682030 0.702776 0.058560
Si Si7 0.279768 0.137580 0.643011
Si Si8 0.585049 0.785010 0.042854
O O1 0.117846 0.571924 0.268219
O O2 0.005587 0.643866 0.401060
O O3 0.000000 0.557044 0.250000
O O4 0.944536 0.548001 0.609094
O O5 0.736245 0.409905 0.821548
O O6 0.775866 0.503385 0.900594
O O7 0.735669 0.399452 0.093109
O O8 0.186655 0.598262 0.547443
O O9 0.320581 0.661415 0.301360
O O10 0.174720 0.678769 0.393208
O O11 0.500000 0.769782 0.750000
O O12 0.650532 0.820343 0.548378
O O13 0.572151 0.768521 0.899695
O O14 0.673161 0.910210 0.342239
O O15 0.721932 0.670825 0.854355
O O16 0.750000 0.750000 0.000000
O O17 0.599357 0.735539 0.133193
O O18 0.500000 0.816812 0.250000
#
# Coordination Sequence:
#
# PCOD9255156 Si02
#       8
#     8   8   8   8   8   8   8   8
#     4  10  17  29  40  62 101 140 179 213 237 268
#     4  11  20  31  46  72  96 139 185 201 250 289
#     4  10  21  33  49  73 103 133 174 216 251 300
#     4  10  18  31  50  72  98 139 178 211 255 279
#     4  11  19  30  46  66 104 144 174 215 238 294
#     4   9  22  38  52  73  95 133 170 218 280 306
#     4  10  19  35  49  64 105 134 168 220 246 297
#     4  11  21  36  55  74  98 132 178 217 267 325
#
# _framework density 18.804275000000001
#
# number of rings (size 3 to 8) (size 9 to 14) (size 15 to 20)
#    0.000    1.750    6.250    1.875    3.500    0.500 
#    0.000    0.000    0.000    0.000    0.000    0.000 
#    0.000   16.000    0.000    0.000    0.000    0.000 
#
# Total GULP energy -178151.968058 kJ/mol
# GULP energy per Si atom -5567.249002 kJ/mol
# Density = 1.876148 g / cm^3
# Si number density = 18.804275 Si / 1000 Ang^3
#
#
#
# Elastic Constant Matrix: (Units=GPa)
#
#
# Indices 1 2 3 4 5 6 
#
# 1 71.6329 15.1555 17.0476 0.0000 31.8956 0.0000
# 2 15.1555 39.4231 2.1157 0.0000 5.7252 0.0000
# 3 17.0476 2.1157 38.4614 0.0000 24.1767 0.0000
# 4 0.0000 0.0000 0.0000 11.2337 0.0000 -0.9496
# 5 31.8956 5.7252 24.1767 0.0000 28.7709 0.0000
# 6 0.0000 0.0000 0.0000 -0.9496 0.0000 8.3955
#
#
#
# Elastic Compliance Matrix: (Units=1/GPa)
#
#
# Indices 1 2 3 4 5 6 
#
# 1 0.033785 -0.006563 0.017188 0.000000 -0.050591 0.000000
# 2 -0.006563 0.027672 0.000582 0.000000 0.001280 0.000000
# 3 0.017188 0.000582 0.064437 0.000000 -0.073318 0.000000
# 4 0.000000 0.000000 0.000000 0.089877 0.000000 0.010166
# 5 -0.050591 0.001280 -0.073318 0.000000 0.152198 0.000000
# 6 0.000000 0.000000 0.000000 0.010166 0.000000 0.120261
#
#
# Mechanical properties :
#
#
# Convention : Reuss Voigt Hill
#
# Bulk Modulus (GPa) = 6.74280 24.23943 15.49112
# Shear Modulus (GPa) = 9.70398 17.35993 13.53195
#
# Velocity S-wave (km/s) = 2.27414 3.04170 2.68549
# Velocity P-wave (km/s) = 3.23870 5.02537 4.22750
#
# Compressibility (1/GPa) = 0.14830631
#
# Stress axis : x y z
#
# Youngs Moduli (GPa) = 29.59925 36.13794 15.51900
#
# Poissons Ratio (x) = 0.23718 -0.26674
# Poissons Ratio (y) = 0.19427 -0.00903
# Poissons Ratio (z) = -0.50874 -0.02103
#
# Static dielectric constant tensor:
#      x y z
#    x 1.727970 0.000000 0.022680 
#    y 0.000000 1.714660 0.000000 
#    z 0.022680 0.000000 1.674430 
# 
# From -- ./inp_files/58914.got.cif
#   From: 2010.05.17/outbox.cif.g08.bks.cpg/sg15_30_cif.got.tgz:58914.got - 2010.06.03 18:47:42.
