data_PCOD9255446
_publ_section_title
;
Structure prediction by ZEFSAII (Michael W. Deem and Ramdas Pophale) SiO2 
 PCOD9255446
Probable space group: C 2/C
;
_chemical_formula_sum "Si O2"
_cell_formula_units_Z 64
_cell_length_a 9.232110
_cell_length_b 17.455989
_cell_length_c 23.283852
_cell_angle_alpha 90.000000
_cell_angle_beta 78.716465
_cell_angle_gamma 90.000000
_cell_volume 3679.794453
_symmetry_space_group_name_H-M "C 2/C"
_symmetry_group_IT_number 15
_symmetry_cell_setting 'monoclinic'
loop_
_space_group_symop_operation_xyz
x,y,z
-x,y,1/2-z
-x,-y,-z
x,-y,1/2+z
1/2+x,1/2+y,z
1/2-x,1/2+y,1/2-z
1/2-x,1/2-y,-z
1/2+x,1/2-y,1/2+z
loop_
_atom_site_type_symbol
_atom_site_label
_atom_site_fract_x
_atom_site_fract_y
_atom_site_fract_z
Si Si1 0.639352 0.867218 0.969346
Si Si2 0.864001 0.985359 0.594148
Si Si3 0.824014 0.485339 0.108950
Si Si4 0.453114 0.576467 0.319014
Si Si5 0.586789 0.721399 0.105846
Si Si6 0.116005 0.601324 0.604652
Si Si7 0.862674 0.923192 0.474373
Si Si8 0.915653 0.235042 0.006390
O O1 0.620634 0.938962 0.928934
O O2 0.786442 0.819222 0.942704
O O3 0.510908 0.805403 0.976979
O O4 0.643201 0.898298 0.033675
O O5 0.803081 0.939333 0.543314
O O6 0.913193 0.942956 0.647672
O O7 0.750773 0.052139 0.618406
O O8 0.020681 0.014312 0.556587
O O9 0.686166 0.519633 0.156416
O O10 0.762378 0.427583 0.064421
O O11 0.959941 0.441433 0.128086
O O12 0.500000 0.569306 0.250000
O O13 0.420055 0.664151 0.339955
O O14 0.617089 0.809051 0.120629
O O15 0.448977 0.725629 0.071816
O O16 0.952673 0.844748 0.472682
O O17 0.750000 0.250000 0.000000
#
# Coordination Sequence:
#
# PCOD9255446 Si02
#       8
#     8   8   8   8   8   8   8   8
#     4  10  19  31  49  77 118 150 170 202 264 335
#     4  10  19  30  56  75 105 139 177 217 267 320
#     4  10  21  33  54  82 113 142 175 219 278 325
#     4  10  22  42  58  71  98 146 195 230 260 320
#     4  10  20  35  53  78 106 148 183 212 262 328
#     4  11  19  31  53  86 116 138 166 223 277 326
#     4  10  17  31  46  80 111 143 172 208 261 331
#     4  11  20  27  47  79 116 141 168 209 262 325
#
# _framework density 17.392277
#
# number of rings (size 3 to 8) (size 9 to 14) (size 15 to 20)
#    0.000    1.750    2.500    4.875    1.750    0.000 
#    0.000    1.875    0.000    0.000    0.000    0.000 
#    0.000    0.000    0.000    0.000    0.000    0.000 
#
# Total GULP energy -178309.402640 kJ/mol
# GULP energy per Si atom -5572.168832 kJ/mol
# Density = 1.735269 g / cm^3
# Si number density = 17.392277 Si / 1000 Ang^3
#
#
#
# Elastic Constant Matrix: (Units=GPa)
#
#
# Indices 1 2 3 4 5 6 
#
# 1 55.8335 19.6418 25.5702 0.0000 2.1254 0.0000
# 2 19.6418 87.3195 22.7044 0.0000 -8.3466 0.0000
# 3 25.5702 22.7044 79.6322 0.0000 -13.3088 0.0000
# 4 0.0000 0.0000 0.0000 8.9944 0.0000 0.1103
# 5 2.1254 -8.3466 -13.3088 0.0000 11.6998 0.0000
# 6 0.0000 0.0000 0.0000 0.1103 0.0000 28.0483
#
#
#
# Elastic Compliance Matrix: (Units=1/GPa)
#
#
# Indices 1 2 3 4 5 6 
#
# 1 0.024828 -0.004869 -0.009777 0.000000 -0.019106 0.000000
# 2 -0.004869 0.013668 -0.000687 0.000000 0.009854 0.000000
# 3 -0.009777 -0.000687 0.019889 0.000000 0.023911 0.000000
# 4 0.000000 0.000000 0.000000 0.111186 0.000000 -0.000437
# 5 -0.019106 0.009854 0.023911 0.000000 0.123171 0.000000
# 6 0.000000 0.000000 0.000000 -0.000437 0.000000 0.035654
#
#
# Mechanical properties :
#
#
# Convention : Reuss Voigt Hill
#
# Bulk Modulus (GPa) = 36.07553 39.84643 37.96098
# Shear Modulus (GPa) = 13.57581 20.07309 16.82445
#
# Velocity S-wave (km/s) = 2.79689 3.40095 3.11360
# Velocity P-wave (km/s) = 5.58726 6.19533 5.89913
#
# Compressibility (1/GPa) = 0.02771962
#
# Stress axis : x y z
#
# Youngs Moduli (GPa) = 40.27661 73.16437 50.27846
#
# Poissons Ratio (x) = 0.35623 0.49159
# Poissons Ratio (y) = 0.19610 0.03452
# Poissons Ratio (z) = 0.39380 0.05024
#
# Static dielectric constant tensor:
#      x y z
#    x 1.638130 0.000000 0.007200 
#    y 0.000000 1.676230 0.000000 
#    z 0.007200 0.000000 1.568380 
# 
# From -- ./inp_files/265253.got.cif
#   From: 2010.05.17/outbox.cif.g08.bks.cpg/sg15_133_cif.got.tgz:265253.got - 2010.06.03 18:47:42.
