data_PCOD9255383
_publ_section_title
;
Structure prediction by ZEFSAII (Michael W. Deem and Ramdas Pophale) SiO2 
 PCOD9255383
Probable space group: C 2/C
;
_chemical_formula_sum "Si O2"
_cell_formula_units_Z 48
_cell_length_a 14.719499
_cell_length_b 8.463349
_cell_length_c 18.846419
_cell_angle_alpha 90.000000
_cell_angle_beta 63.926372
_cell_angle_gamma 90.000000
_cell_volume 2108.879012
_symmetry_space_group_name_H-M "C 2/C"
_symmetry_group_IT_number 15
_symmetry_cell_setting 'monoclinic'
loop_
_space_group_symop_operation_xyz
x,y,z
-x,y,1/2-z
-x,-y,-z
x,-y,1/2+z
1/2+x,1/2+y,z
1/2-x,1/2+y,1/2-z
1/2-x,1/2-y,-z
1/2+x,1/2-y,1/2+z
loop_
_atom_site_type_symbol
_atom_site_label
_atom_site_fract_x
_atom_site_fract_y
_atom_site_fract_z
Si Si1 0.491936 0.913642 0.393944
Si Si2 0.805128 0.184207 0.671837
Si Si3 0.371793 0.060051 0.263553
Si Si4 0.763191 0.748924 0.411226
Si Si5 0.563210 0.417522 0.915365
Si Si6 0.336969 0.053950 0.059281
O O1 0.506780 0.724586 0.394477
O O2 0.382254 0.949997 0.464604
O O3 0.526863 0.993222 0.308925
O O4 0.573005 0.988851 0.421290
O O5 0.819997 0.318306 0.725079
O O6 0.814759 0.270712 0.592761
O O7 0.700036 0.093286 0.710103
O O8 0.894799 0.057020 0.648264
O O9 0.355508 0.161510 0.341207
O O10 0.750000 0.750000 0.500000
O O11 0.663114 0.662340 0.415252
O O12 0.754802 0.934731 0.395711
O O13 0.500000 0.500000 0.000000
#
# Coordination Sequence:
#
# PCOD9255383 Si02
#       6
#     8   8   8   8   8   8
#     4   9  17  30  52  84 105 134 183 238 279 315
#     4  10  17  30  53  84 112 135 185 239 282 321
#     4  10  19  31  51  81 110 144 182 236 279 326
#     4  10  22  37  52  78 113 154 189 221 289 355
#     4  10  18  32  58  86 108 139 187 237 280 332
#     4   9  17  31  54  75 108 143 180 228 280 332
#
# _framework density 22.760908000000001
#
# number of rings (size 3 to 8) (size 9 to 14) (size 15 to 20)
#    0.000    2.333    1.667    4.000    2.333    0.000 
#    0.000    4.167    0.000    0.000    4.333    0.000 
#    0.000    0.000    0.000    0.000    0.000    0.000 
#
# Total GULP energy -133915.998214 kJ/mol
# GULP energy per Si atom -5579.833259 kJ/mol
# Density = 2.270910 g / cm^3
# Si number density = 22.760908 Si / 1000 Ang^3
#
#
#
# Elastic Constant Matrix: (Units=GPa)
#
#
# Indices 1 2 3 4 5 6 
#
# 1 12.5081 26.2142 29.1217 0.0000 -10.9992 0.0000
# 2 26.2142 148.9517 72.6775 0.0000 -24.0427 0.0000
# 3 29.1217 72.6775 182.4544 0.0000 -10.0912 0.0000
# 4 0.0000 0.0000 0.0000 54.7036 0.0000 -8.5784
# 5 -10.9992 -24.0427 -10.0912 0.0000 39.3222 0.0000
# 6 0.0000 0.0000 0.0000 -8.5784 0.0000 14.5880
#
#
#
# Elastic Compliance Matrix: (Units=1/GPa)
#
#
# Indices 1 2 3 4 5 6 
#
# 1 0.212015 -0.018879 -0.024019 0.000000 0.041598 0.000000
# 2 -0.018879 0.010800 -0.001233 0.000000 0.001006 0.000000
# 3 -0.024019 -0.001233 0.009528 0.000000 -0.005028 0.000000
# 4 0.000000 0.000000 0.000000 0.020137 0.000000 0.011842
# 5 0.041598 0.001006 -0.005028 0.000000 0.036392 0.000000
# 6 0.000000 0.000000 0.000000 0.011842 0.000000 0.075513
#
#
# Mechanical properties :
#
#
# Convention : Reuss Voigt Hill
#
# Bulk Modulus (GPa) = 6.94054 66.66011 36.80032
# Shear Modulus (GPa) = 9.98653 36.11616 23.05135
#
# Velocity S-wave (km/s) = 2.09693 3.98774 3.18584
# Velocity P-wave (km/s) = 2.98643 7.11009 5.45308
#
# Compressibility (1/GPa) = 0.14408104
#
# Stress axis : x y z
#
# Youngs Moduli (GPa) = 4.71664 92.59085 104.95730
#
# Poissons Ratio (x) = 1.74800 2.52099
# Poissons Ratio (y) = 0.08904 0.12943
# Poissons Ratio (z) = 0.11329 0.11418
#
# Static dielectric constant tensor:
#      x y z
#    x 1.887370 0.000000 -0.003940 
#    y 0.000000 1.869120 0.000000 
#    z -0.003940 0.000000 1.899020 
# 
# From -- ./inp_files/251468.got.cif
#   From: 2010.05.17/outbox.cif.g08.bks.cpg/sg15_126_cif.got.tgz:251468.got - 2010.06.03 18:47:42.
