data_PCOD9255454
_publ_section_title
;
Structure prediction by ZEFSAII (Michael W. Deem and Ramdas Pophale) SiO2 
 PCOD9255454
Probable space group: C 2/C
;
_chemical_formula_sum "Si O2"
_cell_formula_units_Z 44
_cell_length_a 26.586871
_cell_length_b 7.318624
_cell_length_c 9.444657
_cell_angle_alpha 90.000000
_cell_angle_beta 112.884067
_cell_angle_gamma 90.000000
_cell_volume 1693.093329
_symmetry_space_group_name_H-M "C 2/C"
_symmetry_group_IT_number 15
_symmetry_cell_setting 'monoclinic'
loop_
_space_group_symop_operation_xyz
x,y,z
-x,y,1/2-z
-x,-y,-z
x,-y,1/2+z
1/2+x,1/2+y,z
1/2-x,1/2+y,1/2-z
1/2-x,1/2-y,-z
1/2+x,1/2-y,1/2+z
loop_
_atom_site_type_symbol
_atom_site_label
_atom_site_fract_x
_atom_site_fract_y
_atom_site_fract_z
Si Si1 0.201659 0.161615 0.352178
Si Si2 0.589498 0.250039 0.672494
Si Si3 0.059755 0.778421 0.339935
Si Si4 0.500000 0.090465 0.750000
Si Si5 0.209910 0.566933 0.603174
Si Si6 0.855181 0.361105 0.756308
O O1 0.250000 0.250000 0.500000
O O2 0.138205 0.169190 0.323783
O O3 0.201919 0.269829 0.203984
O O4 0.225776 0.961786 0.353252
O O5 0.585834 0.342842 0.515023
O O6 0.530038 0.222498 0.673309
O O7 0.608512 0.040913 0.675976
O O8 0.044712 0.560342 0.350338
O O9 0.099820 0.784325 0.248561
O O10 0.000000 0.861145 0.250000
O O11 0.184939 0.385818 0.653577
O O12 0.180038 0.599926 0.423560
#
# Coordination Sequence:
#
# PCOD9255454 Si02
#       6
#     8   8   8   4   8   8
#     4  11  22  38  56  83 120 150 189 235 278 335
#     4  10  17  31  48  75 113 142 181 232 277 335
#     4   9  17  26  45  76 112 143 174 225 285 339
#     4   8  18  24  48  72 104 144 176 214 294 328
#     4  11  21  37  56  79 117 153 189 228 279 328
#     4  10  18  31  52  76 114 149 179 228 280 332
#
# _framework density 25.987935
#
# number of rings (size 3 to 8) (size 9 to 14) (size 15 to 20)
#    0.545    1.455    7.273    0.545    0.000    0.727 
#    0.000    0.000    0.000    0.000    0.000    1.273 
#    2.727    0.000    0.000    0.000    0.000    0.000 
#
# Total GULP energy -122630.402041 kJ/mol
# GULP energy per Si atom -5574.109184 kJ/mol
# Density = 2.592879 g / cm^3
# Si number density = 25.987935 Si / 1000 Ang^3
#
#
#
# Elastic Constant Matrix: (Units=GPa)
#
#
# Indices 1 2 3 4 5 6 
#
# 1 112.8234 7.7369 22.4815 0.0000 -10.3692 0.0000
# 2 7.7369 55.0711 14.2575 0.0000 0.4478 0.0000
# 3 22.4815 14.2575 146.4759 0.0000 11.5818 0.0000
# 4 0.0000 0.0000 0.0000 15.8630 0.0000 -5.9842
# 5 -10.3692 0.4478 11.5818 0.0000 38.5956 0.0000
# 6 0.0000 0.0000 0.0000 -5.9842 0.0000 19.1680
#
#
#
# Elastic Compliance Matrix: (Units=1/GPa)
#
#
# Indices 1 2 3 4 5 6 
#
# 1 0.009530 -0.000946 -0.001612 0.000000 0.003055 0.000000
# 2 -0.000946 0.018726 -0.001680 0.000000 0.000033 0.000000
# 3 -0.001612 -0.001680 0.007447 0.000000 -0.002648 0.000000
# 4 0.000000 0.000000 0.000000 0.071455 0.000000 0.022308
# 5 0.003055 0.000033 -0.002648 0.000000 0.027525 0.000000
# 6 0.000000 0.000000 0.000000 0.022308 0.000000 0.059135
#
#
# Mechanical properties :
#
#
# Convention : Reuss Voigt Hill
#
# Bulk Modulus (GPa) = 36.72888 44.81358 40.77123
# Shear Modulus (GPa) = 23.65501 32.71827 28.18664
#
# Velocity S-wave (km/s) = 3.02028 3.55206 3.29691
# Velocity P-wave (km/s) = 5.13093 5.83989 5.49685
#
# Compressibility (1/GPa) = 0.02722653
#
# Stress axis : x y z
#
# Youngs Moduli (GPa) = 104.92791 53.40170 134.27408
#
# Poissons Ratio (x) = 0.05054 0.21648
# Poissons Ratio (y) = 0.09930 0.22559
# Poissons Ratio (z) = 0.16916 0.08972
#
# Static dielectric constant tensor:
#      x y z
#    x 2.238900 0.000000 -0.070060 
#    y 0.000000 2.132040 0.000000 
#    z -0.070060 0.000000 1.983080 
# 
# From -- ./inp_files/64915.got.cif
#   From: 2010.05.17/outbox.cif.g08.bks.cpg/sg15_33_cif.got.tgz:64915.got - 2010.06.03 18:47:42.
