data_PCOD9255435
_publ_section_title
;
Structure prediction by ZEFSAII (Michael W. Deem and Ramdas Pophale) SiO2 
 PCOD9255435
Probable space group: C 2/C
;
_chemical_formula_sum "Si O2"
_cell_formula_units_Z 64
_cell_length_a 12.188963
_cell_length_b 16.546118
_cell_length_c 26.291057
_cell_angle_alpha 90.000000
_cell_angle_beta 48.164755
_cell_angle_gamma 90.000000
_cell_volume 3950.622920
_symmetry_space_group_name_H-M "C 2/C"
_symmetry_group_IT_number 15
_symmetry_cell_setting 'monoclinic'
loop_
_space_group_symop_operation_xyz
x,y,z
-x,y,1/2-z
-x,-y,-z
x,-y,1/2+z
1/2+x,1/2+y,z
1/2-x,1/2+y,1/2-z
1/2-x,1/2-y,-z
1/2+x,1/2-y,1/2+z
loop_
_atom_site_type_symbol
_atom_site_label
_atom_site_fract_x
_atom_site_fract_y
_atom_site_fract_z
Si Si1 0.766139 0.521741 0.098425
Si Si2 0.089785 0.264261 0.074244
Si Si3 0.450197 0.249510 0.103110
Si Si4 0.137266 0.807854 0.670319
Si Si5 0.655176 0.636469 0.594125
Si Si6 0.554901 0.949965 0.061229
Si Si7 0.836163 0.608777 0.433544
Si Si8 0.868367 0.777247 0.557818
O O1 0.693223 0.600526 0.144455
O O2 0.652469 0.449242 0.122414
O O3 0.896660 0.483225 0.091889
O O4 0.844309 0.548007 0.021074
O O5 0.094252 0.229720 0.129327
O O6 0.054590 0.359694 0.082211
O O7 0.968767 0.221039 0.076165
O O8 0.250000 0.250000 0.000000
O O9 0.277992 0.239892 0.148907
O O10 0.505250 0.320945 0.123020
O O11 0.523609 0.167681 0.102884
O O12 0.526409 0.263156 0.024113
O O13 0.000000 0.805242 0.750000
O O14 0.745259 0.621905 0.513934
O O15 0.755494 0.701474 0.593090
O O16 0.618928 0.015767 0.080724
O O17 0.731225 0.644273 0.422433
#
# Coordination Sequence:
#
# PCOD9255435 Si02
#       8
#     8   8   8   8   8   8   8   8
#     4  10  17  32  55  86 110 133 184 236 272 315
#     4  12  21  34  54  81 113 143 184 235 273 323
#     4   9  15  31  52  79 110 144 173 214 271 328
#     4  12  25  38  52  76 116 154 180 218 286 343
#     4   8  15  26  54  85 109 129 173 232 271 311
#     4  10  17  30  57  87 109 136 182 233 275 316
#     4   8  15  26  52  86 111 131 169 226 280 318
#     4   9  15  29  52  86 111 132 173 228 277 312
#
# _framework density 16.199975999999999
#
# number of rings (size 3 to 8) (size 9 to 14) (size 15 to 20)
#    0.000    2.250    5.000    1.500    0.000    0.000 
#    0.000    3.125    0.000    2.250    0.000    0.000 
#    0.000    0.000    0.000    0.000    0.000    0.000 
#
# Total GULP energy -178338.071032 kJ/mol
# GULP energy per Si atom -5573.064720 kJ/mol
# Density = 1.616310 g / cm^3
# Si number density = 16.199976 Si / 1000 Ang^3
#
#
#
# Elastic Constant Matrix: (Units=GPa)
#
#
# Indices 1 2 3 4 5 6 
#
# 1 146.3424 59.2855 48.5404 0.0000 -6.1496 0.0000
# 2 59.2855 96.4223 35.4172 0.0000 -0.6989 0.0000
# 3 48.5404 35.4172 65.0044 0.0000 -5.0198 0.0000
# 4 0.0000 0.0000 0.0000 9.5864 0.0000 -0.5672
# 5 -6.1496 -0.6989 -5.0198 0.0000 11.7871 0.0000
# 6 0.0000 0.0000 0.0000 -0.5672 0.0000 27.0511
#
#
#
# Elastic Compliance Matrix: (Units=1/GPa)
#
#
# Indices 1 2 3 4 5 6 
#
# 1 0.010507 -0.004554 -0.005131 0.000000 0.003027 0.000000
# 2 -0.004554 0.015001 -0.005054 0.000000 -0.003639 0.000000
# 3 -0.005131 -0.005054 0.022478 0.000000 0.006596 0.000000
# 4 0.000000 0.000000 0.000000 0.104444 0.000000 0.002190
# 5 0.003027 -0.003639 0.006596 0.000000 0.089011 0.000000
# 6 0.000000 0.000000 0.000000 0.002190 0.000000 0.037013
#
#
# Mechanical properties :
#
#
# Convention : Reuss Voigt Hill
#
# Bulk Modulus (GPa) = 54.02836 66.02836 60.02836
# Shear Modulus (GPa) = 15.91847 20.65334 18.28591
#
# Velocity S-wave (km/s) = 3.13808 3.57445 3.36335
# Velocity P-wave (km/s) = 6.82300 7.60805 7.22619
#
# Compressibility (1/GPa) = 0.01850880
#
# Stress axis : x y z
#
# Youngs Moduli (GPa) = 95.17265 66.66307 44.48786
#
# Poissons Ratio (x) = 0.30356 0.22828
# Poissons Ratio (y) = 0.43339 0.22483
# Poissons Ratio (z) = 0.48835 0.33690
#
# Static dielectric constant tensor:
#      x y z
#    x 1.553200 0.000000 -0.002730 
#    y 0.000000 1.557730 0.000000 
#    z -0.002730 0.000000 1.511100 
# 
# From -- ./inp_files/270419.got.cif
#   From: 2010.05.17/outbox.cif.g08.bks.cpg/sg15_136_cif.got.tgz:270419.got - 2010.06.03 18:47:42.
