data_PCOD9255335
_publ_section_title
;
Structure prediction by ZEFSAII (Michael W. Deem and Ramdas Pophale) SiO2 
 PCOD9255335
Probable space group: C 2/C
;
_chemical_formula_sum "Si O2"
_cell_formula_units_Z 40
_cell_length_a 11.108059
_cell_length_b 20.131366
_cell_length_c 26.416674
_cell_angle_alpha 90.000000
_cell_angle_beta 157.945396
_cell_angle_gamma 90.000000
_cell_volume 2218.135076
_symmetry_space_group_name_H-M "C 2/C"
_symmetry_group_IT_number 15
_symmetry_cell_setting 'monoclinic'
loop_
_space_group_symop_operation_xyz
x,y,z
-x,y,1/2-z
-x,-y,-z
x,-y,1/2+z
1/2+x,1/2+y,z
1/2-x,1/2+y,1/2-z
1/2-x,1/2-y,-z
1/2+x,1/2-y,1/2+z
loop_
_atom_site_type_symbol
_atom_site_label
_atom_site_fract_x
_atom_site_fract_y
_atom_site_fract_z
Si Si1 0.772814 0.661910 0.992522
Si Si2 0.706709 0.316357 0.934125
Si Si3 0.817977 0.560085 0.402986
Si Si4 0.708378 0.720952 0.780183
Si Si5 0.651041 0.720312 0.599565
O O1 0.510695 0.685754 0.848001
O O2 0.612411 0.667836 0.985020
O O3 0.931292 0.593939 0.037930
O O4 0.055890 0.716212 0.097257
O O5 0.713414 0.381321 0.901602
O O6 0.370358 0.290250 0.825188
O O7 0.827832 0.253716 0.946811
O O8 0.981094 0.323029 0.083531
O O9 0.500000 0.537969 0.250000
O O10 0.000000 0.500000 0.500000
O O11 0.500000 0.728151 0.750000
O O12 0.000000 0.695300 0.750000
#
# Coordination Sequence:
#
# PCOD9255335 Si02
#       5
#     8   8   8   8   8
#     4  10  20  31  56  78 116 141 189 227 286 337
#     4  10  21  33  54  86 116 145 186 229 289 341
#     4  11  25  39  58  80 114 156 198 232 270 341
#     4  11  19  31  54  86 119 144 171 239 297 336
#     4  10  17  30  50  80 111 136 177 232 282 338
#
# _framework density 18.033166999999999
#
# number of rings (size 3 to 8) (size 9 to 14) (size 15 to 20)
#    0.000    1.600    6.000    2.400    5.600    0.000 
#    0.000    0.000    0.000    1.200    0.000    5.600 
#    0.000    0.000    0.000    0.000    0.000    0.000 
#
# Total GULP energy -111420.796971 kJ/mol
# GULP energy per Si atom -5571.039849 kJ/mol
# Density = 1.799212 g / cm^3
# Si number density = 18.033167 Si / 1000 Ang^3
#
#
#
# Elastic Constant Matrix: (Units=GPa)
#
#
# Indices 1 2 3 4 5 6 
#
# 1 69.8017 22.7012 29.8710 -0.0059 8.7173 -0.0023
# 2 22.7012 65.8156 37.9394 0.0075 1.0563 -0.0038
# 3 29.8710 37.9394 110.6603 -0.0085 0.4397 0.0002
# 4 -0.0059 0.0075 -0.0085 21.2419 -0.0016 -4.1473
# 5 8.7173 1.0563 0.4397 -0.0016 33.7659 -0.0056
# 6 -0.0023 -0.0038 0.0002 -4.1473 -0.0056 19.6294
#
#
#
# Elastic Compliance Matrix: (Units=1/GPa)
#
#
# Indices 1 2 3 4 5 6 
#
# 1 0.017632 -0.004085 -0.003341 0.000005 -0.004381 0.000001
# 2 -0.004085 0.019892 -0.005719 -0.000010 0.000507 0.000001
# 3 -0.003341 -0.005719 0.011896 0.000006 0.000887 0.000000
# 4 0.000005 -0.000010 0.000006 0.049102 0.000003 0.010374
# 5 -0.004381 0.000507 0.000887 0.000003 0.030719 0.000009
# 6 0.000001 0.000001 0.000000 0.010374 0.000009 0.053136
#
#
# Mechanical properties :
#
#
# Convention : Reuss Voigt Hill
#
# Bulk Modulus (GPa) = 43.23745 47.47787 45.35766
# Shear Modulus (GPa) = 23.10773 25.31182 24.20977
#
# Velocity S-wave (km/s) = 3.58355 3.75056 3.66801
# Velocity P-wave (km/s) = 6.41491 6.71870 6.56856
#
# Compressibility (1/GPa) = 0.02312810
#
# Stress axis : x y z
#
# Youngs Moduli (GPa) = 56.71525 50.27241 84.06280
#
# Poissons Ratio (x) = 0.20537 0.28089
# Poissons Ratio (y) = 0.23169 0.48076
# Poissons Ratio (z) = 0.18951 0.28751
#
# Static dielectric constant tensor:
#      x y z
#    x 1.709270 0.000000 -0.019750 
#    y 0.000000 1.594190 -0.000010 
#    z -0.019750 -0.000010 1.699870 
# 
# From -- ./inp_files/88083.got.cif
#   From: 2010.05.17/outbox.cif.g08.bks.cpg/sg15_45_cif.got.tgz:88083.got - 2010.06.03 18:47:42.
