data_PCOD9255449
_publ_section_title
;
Structure prediction by ZEFSAII (Michael W. Deem and Ramdas Pophale) SiO2 
 PCOD9255449
Probable space group: C 2/C
;
_chemical_formula_sum "Si O2"
_cell_formula_units_Z 60
_cell_length_a 23.715959
_cell_length_b 11.002402
_cell_length_c 12.259066
_cell_angle_alpha 90.000000
_cell_angle_beta 122.742541
_cell_angle_gamma 90.000000
_cell_volume 2690.531532
_symmetry_space_group_name_H-M "C 2/C"
_symmetry_group_IT_number 15
_symmetry_cell_setting 'monoclinic'
loop_
_space_group_symop_operation_xyz
x,y,z
-x,y,1/2-z
-x,-y,-z
x,-y,1/2+z
1/2+x,1/2+y,z
1/2-x,1/2+y,1/2-z
1/2-x,1/2-y,-z
1/2+x,1/2-y,1/2+z
loop_
_atom_site_type_symbol
_atom_site_label
_atom_site_fract_x
_atom_site_fract_y
_atom_site_fract_z
Si Si1 0.261523 0.431188 0.599109
Si Si2 0.786845 0.083754 0.895133
Si Si3 0.326796 0.328657 0.883026
Si Si4 0.500000 0.897423 0.750000
Si Si5 0.921291 0.644711 0.364093
Si Si6 0.395686 0.895165 0.077434
Si Si7 0.702095 0.701967 0.817574
Si Si8 0.371941 0.121663 0.793366
O O1 0.287313 0.367858 0.516995
O O2 0.288398 0.362267 0.731158
O O3 0.181361 0.434860 0.523344
O O4 0.291850 0.567240 0.627774
O O5 0.807325 0.170966 0.820750
O O6 0.705746 0.070159 0.789558
O O7 0.833994 0.964301 0.936926
O O8 0.274164 0.263859 0.907736
O O9 0.376784 0.226021 0.890425
O O10 0.520800 0.825492 0.662462
O O11 0.559653 0.986638 0.850997
O O12 0.922988 0.671888 0.496451
O O13 0.857569 0.703036 0.232865
O O14 0.914858 0.498158 0.360685
O O15 0.392356 0.831926 0.193816
#
# Coordination Sequence:
#
# PCOD9255449 Si02
#       8
#     8   8   8   4   8   8   8   8
#     4  10  20  32  52  82 115 144 173 213 275 335
#     4   9  18  30  45  75 110 147 168 205 260 325
#     4  10  17  31  47  75 113 144 172 206 257 341
#     4  10  24  36  52  76 108 140 202 222 258 318
#     4  11  19  38  53  80 108 148 172 234 270 315
#     4  10  19  35  55  75 108 151 176 221 268 310
#     4  10  19  31  52  78 113 143 173 215 268 340
#     4   9  19  30  49  79 109 142 179 205 261 335
#
# _framework density 22.300425000000001
#
# number of rings (size 3 to 8) (size 9 to 14) (size 15 to 20)
#    0.000    2.133    2.667    2.000    1.867    2.133 
#    4.800    0.000    0.000    0.000    0.000   15.867 
#    0.000    0.000    0.000    0.000    0.000    0.000 
#
# Total GULP energy -167114.141011 kJ/mol
# GULP energy per Si atom -5570.471367 kJ/mol
# Density = 2.224967 g / cm^3
# Si number density = 22.300425 Si / 1000 Ang^3
#
#
#
# Elastic Constant Matrix: (Units=GPa)
#
#
# Indices 1 2 3 4 5 6 
#
# 1 99.5341 9.5064 21.3435 0.0000 -27.8649 0.0000
# 2 9.5064 80.2261 -8.7950 0.0000 -0.3576 0.0000
# 3 21.3435 -8.7950 45.0511 0.0000 -8.8164 0.0000
# 4 0.0000 0.0000 0.0000 16.5046 0.0000 6.7483
# 5 -27.8649 -0.3576 -8.8164 0.0000 26.8410 0.0000
# 6 0.0000 0.0000 0.0000 6.7483 0.0000 12.7278
#
#
#
# Elastic Compliance Matrix: (Units=1/GPa)
#
#
# Indices 1 2 3 4 5 6 
#
# 1 0.015307 -0.002289 -0.004910 0.000000 0.014247 0.000000
# 2 -0.002289 0.013108 0.003433 0.000000 -0.001074 0.000000
# 3 -0.004910 0.003433 0.025868 0.000000 0.003445 0.000000
# 4 0.000000 0.000000 0.000000 0.077359 0.000000 -0.041016
# 5 0.014247 -0.001074 0.003445 0.000000 0.053165 0.000000
# 6 0.000000 0.000000 0.000000 -0.041016 0.000000 0.100315
#
#
# Mechanical properties :
#
#
# Convention : Reuss Voigt Hill
#
# Bulk Modulus (GPa) = 21.39030 29.88014 25.63522
# Shear Modulus (GPa) = 16.22131 24.73177 20.47654
#
# Velocity S-wave (km/s) = 2.69996 3.33382 3.03349
# Velocity P-wave (km/s) = 4.39686 5.31480 4.87748
#
# Compressibility (1/GPa) = 0.04675016
#
# Stress axis : x y z
#
# Youngs Moduli (GPa) = 65.32958 76.29197 38.65817
#
# Poissons Ratio (x) = 0.17460 0.18983
# Poissons Ratio (y) = 0.14952 -0.13272
# Poissons Ratio (z) = 0.32080 -0.26191
#
# Static dielectric constant tensor:
#      x y z
#    x 1.885410 0.000000 -0.041310 
#    y 0.000000 1.862850 0.000000 
#    z -0.041310 0.000000 1.896520 
# 
# From -- ./inp_files/172983.got.cif
#   From: 2010.05.17/outbox.cif.g08.bks.cpg/sg15_87_cif.got.tgz:172983.got - 2010.06.03 18:47:42.
