data_PCOD9255153
_publ_section_title
;
Structure prediction by ZEFSAII (Michael W. Deem and Ramdas Pophale) SiO2 
 PCOD9255153
Probable space group: C 2/C
;
_chemical_formula_sum "Si O2"
_cell_formula_units_Z 56
_cell_length_a 15.339773
_cell_length_b 22.144450
_cell_length_c 9.092022
_cell_angle_alpha 90.000000
_cell_angle_beta 60.067773
_cell_angle_gamma 90.000000
_cell_volume 2676.523906
_symmetry_space_group_name_H-M "C 2/C"
_symmetry_group_IT_number 15
_symmetry_cell_setting 'monoclinic'
loop_
_space_group_symop_operation_xyz
x,y,z
-x,y,1/2-z
-x,-y,-z
x,-y,1/2+z
1/2+x,1/2+y,z
1/2-x,1/2+y,1/2-z
1/2-x,1/2-y,-z
1/2+x,1/2-y,1/2+z
loop_
_atom_site_type_symbol
_atom_site_label
_atom_site_fract_x
_atom_site_fract_y
_atom_site_fract_z
Si Si1 0.683179 0.887474 0.897438
Si Si2 0.382869 0.580979 0.848236
Si Si3 0.144859 0.273771 0.260111
Si Si4 0.224070 0.806769 0.920679
Si Si5 0.000000 0.634264 0.750000
Si Si6 0.156838 0.019694 0.319723
Si Si7 0.665575 0.322506 0.504402
Si Si8 0.000000 0.905688 0.750000
O O1 0.690778 0.838745 0.755945
O O2 0.735992 0.948950 0.800454
O O3 0.760353 0.858886 0.949669
O O4 0.581279 0.897434 0.074900
O O5 0.500000 0.595910 0.750000
O O6 0.347922 0.548995 0.728275
O O7 0.320339 0.638825 0.947546
O O8 0.366874 0.531330 0.990785
O O9 0.138783 0.220547 0.383176
O O10 0.139024 0.240117 0.107789
O O11 0.062882 0.325035 0.313334
O O12 0.256676 0.302473 0.187023
O O13 0.250000 0.750000 0.000000
O O14 0.072480 0.055047 0.293983
O O15 0.566008 0.362509 0.587054
#
# Coordination Sequence:
#
# PCOD9255153 Si02
#       8
#     8   8   8   8   4   8   8   4
#     4   8  18  35  56  81 114 147 195 247 288 344
#     4  11  23  39  59  87 118 156 198 239 298 370
#     4   9  17  30  48  77 116 148 194 232 280 349
#     4  10  22  38  53  83 126 163 188 239 305 372
#     4  10  17  32  60  86 106 149 202 254 290 334
#     4  10  21  38  57  86 119 148 195 247 299 357
#     4   8  15  27  46  78 108 145 186 232 286 337
#     4  10  17  28  54  82 116 147 186 248 300 346
#
# _framework density 20.92266
#
# number of rings (size 3 to 8) (size 9 to 14) (size 15 to 20)
#    0.000    2.571    0.714    2.571    0.000    2.286 
#    5.143    0.000    0.000    3.429    1.857    0.000 
#    0.000    0.000    0.000    0.000    0.000    0.000 
#
# Total GULP energy -156095.306847 kJ/mol
# GULP energy per Si atom -5574.832387 kJ/mol
# Density = 2.087504 g / cm^3
# Si number density = 20.922660 Si / 1000 Ang^3
#
#
#
# Elastic Constant Matrix: (Units=GPa)
#
#
# Indices 1 2 3 4 5 6 
#
# 1 42.7172 20.2739 38.8681 0.0000 -12.3115 0.0000
# 2 20.2739 81.9204 48.6149 0.0000 -5.1599 0.0000
# 3 38.8681 48.6149 107.9619 0.0000 -18.5176 0.0000
# 4 0.0000 0.0000 0.0000 36.9144 0.0000 0.9086
# 5 -12.3115 -5.1599 -18.5176 0.0000 36.0378 0.0000
# 6 0.0000 0.0000 0.0000 0.9086 0.0000 12.0138
#
#
#
# Elastic Compliance Matrix: (Units=1/GPa)
#
#
# Indices 1 2 3 4 5 6 
#
# 1 0.036271 -0.002015 -0.011049 0.000000 0.006425 0.000000
# 2 -0.002015 0.016856 -0.007204 0.000000 -0.001977 0.000000
# 3 -0.011049 -0.007204 0.017173 0.000000 0.004018 0.000000
# 4 0.000000 0.000000 0.000000 0.027140 0.000000 -0.002053
# 5 0.006425 -0.001977 0.004018 0.000000 0.031726 0.000000
# 6 0.000000 0.000000 0.000000 -0.002053 0.000000 0.083393
#
#
# Mechanical properties :
#
#
# Convention : Reuss Voigt Hill
#
# Bulk Modulus (GPa) = 33.59595 49.79037 41.69316
# Shear Modulus (GPa) = 19.01018 25.31602 22.16310
#
# Velocity S-wave (km/s) = 3.01756 3.48225 3.25820
# Velocity P-wave (km/s) = 5.31347 6.32591 5.84166
#
# Compressibility (1/GPa) = 0.02976549
#
# Stress axis : x y z
#
# Youngs Moduli (GPa) = 27.57001 59.32528 58.22960
#
# Poissons Ratio (x) = 0.11954 0.64337
# Poissons Ratio (y) = 0.05555 0.41948
# Poissons Ratio (z) = 0.30462 0.42737
#
# Static dielectric constant tensor:
#      x y z
#    x 1.771180 0.000000 0.007270 
#    y 0.000000 1.806120 0.000000 
#    z 0.007270 0.000000 1.828220 
# 
# From -- ./inp_files/42564.got.cif
#   From: 2010.05.17/outbox.cif.g08.bks.cpg/sg15_22_cif.got.tgz:42564.got - 2010.06.03 18:47:42.
