data_PCOD9255698
_publ_section_title
;
Structure prediction by ZEFSAII (Michael W. Deem and Ramdas Pophale) SiO2 
 PCOD9255698
Probable space group: C 2/C
;
_chemical_formula_sum "Si O2"
_cell_formula_units_Z 44
_cell_length_a 26.607037
_cell_length_b 19.614689
_cell_length_c 5.447832
_cell_angle_alpha 90.000000
_cell_angle_beta 55.186526
_cell_angle_gamma 90.000000
_cell_volume 2334.278794
_symmetry_space_group_name_H-M "C 2/C"
_symmetry_group_IT_number 15
_symmetry_cell_setting 'monoclinic'
loop_
_space_group_symop_operation_xyz
x,y,z
-x,y,1/2-z
-x,-y,-z
x,-y,1/2+z
1/2+x,1/2+y,z
1/2-x,1/2+y,1/2-z
1/2-x,1/2-y,-z
1/2+x,1/2-y,1/2+z
loop_
_atom_site_type_symbol
_atom_site_label
_atom_site_fract_x
_atom_site_fract_y
_atom_site_fract_z
Si Si1 0.922834 0.039480 0.252453
Si Si2 0.618847 0.713297 0.631455
Si Si3 0.285298 0.407202 0.128420
Si Si4 0.673444 0.249534 0.478989
Si Si5 0.763287 0.122590 0.189829
Si Si6 0.500000 0.649328 0.750000
O O1 0.851364 0.058037 0.440926
O O2 0.934684 0.014766 0.498069
O O3 0.961647 0.103757 0.050441
O O4 0.641719 0.756512 0.332625
O O5 0.664988 0.647296 0.507899
O O6 0.550500 0.690726 0.761135
O O7 0.629105 0.748012 0.866247
O O8 0.252805 0.419735 0.474709
O O9 0.295375 0.324383 0.103237
O O10 0.252189 0.419225 0.966104
O O11 0.723260 0.191055 0.303401
#
# Coordination Sequence:
#
# PCOD9255698 Si02
#       6
#     8   8   8   8   8   4
#     4  12  26  39  50  64  91 137 186 223 251 275
#     4  10  20  30  49  68  92 118 151 205 256 286
#     4  10  18  33  49  70  89 111 156 209 263 281
#     4  10  18  32  52  73  90 108 146 206 267 305
#     4  10  17  32  54  72  89 109 142 210 266 308
#     4  12  24  40  50  64  98 134 184 220 256 274
#
# _framework density 18.849506000000002
#
# number of rings (size 3 to 8) (size 9 to 14) (size 15 to 20)
#    0.000    1.455    3.636    7.091    2.545    2.182 
#    0.000    0.000    0.000    0.000    0.000    0.000 
#    0.000    0.000    0.000    0.000    0.000    0.000 
#
# Total GULP energy -122914.919556 kJ/mol
# GULP energy per Si atom -5587.041798 kJ/mol
# Density = 1.880660 g / cm^3
# Si number density = 18.849506 Si / 1000 Ang^3
#
#
#
# Elastic Constant Matrix: (Units=GPa)
#
#
# Indices 1 2 3 4 5 6 
#
# 1 104.0552 18.2945 33.8813 0.0000 24.3718 0.0000
# 2 18.2945 41.3004 15.0742 0.0000 -4.3356 0.0000
# 3 33.8813 15.0742 94.1804 0.0000 41.4621 0.0000
# 4 0.0000 0.0000 0.0000 10.8393 0.0000 -10.7834
# 5 24.3718 -4.3356 41.4621 0.0000 43.8858 0.0000
# 6 0.0000 0.0000 0.0000 -10.7834 0.0000 19.4309
#
#
#
# Elastic Compliance Matrix: (Units=1/GPa)
#
#
# Indices 1 2 3 4 5 6 
#
# 1 0.012499 -0.006185 -0.000311 0.000000 -0.007258 0.000000
# 2 -0.006185 0.032308 -0.010039 0.000000 0.016111 0.000000
# 3 -0.000311 -0.010039 0.021739 0.000000 -0.021358 0.000000
# 4 0.000000 0.000000 0.000000 0.205975 0.000000 0.114308
# 5 -0.007258 0.016111 -0.021358 0.000000 0.048587 0.000000
# 6 0.000000 0.000000 0.000000 0.114308 0.000000 0.114900
#
#
# Mechanical properties :
#
#
# Convention : Reuss Voigt Hill
#
# Bulk Modulus (GPa) = 29.87196 41.55956 35.71576
# Shear Modulus (GPa) = 10.41152 26.31692 18.36422
#
# Velocity S-wave (km/s) = 2.35276 3.74058 3.12469
# Velocity P-wave (km/s) = 4.82314 6.38372 5.65749
#
# Compressibility (1/GPa) = 0.03347621
#
# Stress axis : x y z
#
# Youngs Moduli (GPa) = 80.00589 30.95215 46.00004
#
# Poissons Ratio (x) = 0.19144 0.01431
# Poissons Ratio (y) = 0.49484 0.46179
# Poissons Ratio (z) = 0.02489 0.31072
#
# Static dielectric constant tensor:
#      x y z
#    x 1.705200 0.000000 0.082750 
#    y 0.000000 1.669150 0.000000 
#    z 0.082750 0.000000 1.739650 
# 
# From -- ./inp_files/12914.got.cif
#   From: 2010.05.17/outbox.cif.g08.bks.cpg/sg15_7_cif.got.tgz:12914.got - 2010.06.03 18:47:42.
