data_PCOD9255486
_publ_section_title
;
Structure prediction by ZEFSAII (Michael W. Deem and Ramdas Pophale) SiO2 
 PCOD9255486
Probable space group: C 2/C
;
_chemical_formula_sum "Si O2"
_cell_formula_units_Z 56
_cell_length_a 17.946420
_cell_length_b 13.356791
_cell_length_c 19.323888
_cell_angle_alpha 90.000000
_cell_angle_beta 43.759363
_cell_angle_gamma 90.000000
_cell_volume 3203.678878
_symmetry_space_group_name_H-M "C 2/C"
_symmetry_group_IT_number 15
_symmetry_cell_setting 'monoclinic'
loop_
_space_group_symop_operation_xyz
x,y,z
-x,y,1/2-z
-x,-y,-z
x,-y,1/2+z
1/2+x,1/2+y,z
1/2-x,1/2+y,1/2-z
1/2-x,1/2-y,-z
1/2+x,1/2-y,1/2+z
loop_
_atom_site_type_symbol
_atom_site_label
_atom_site_fract_x
_atom_site_fract_y
_atom_site_fract_z
Si Si1 0.804020 0.408586 0.590898
Si Si2 0.282978 0.114072 0.824469
Si Si3 0.055845 0.423638 0.518455
Si Si4 0.420506 0.293246 0.987303
Si Si5 0.330091 0.093548 0.230717
Si Si6 0.378998 0.721009 0.354043
Si Si7 0.155301 0.258601 0.353566
O O1 0.853670 0.499752 0.514159
O O2 0.888817 0.316379 0.537700
O O3 0.785761 0.436986 0.683431
O O4 0.699564 0.360616 0.626790
O O5 0.340920 0.172019 0.848838
O O6 0.318534 0.175513 0.732078
O O7 0.313706 0.999882 0.792242
O O8 0.155507 0.129138 0.922065
O O9 0.117638 0.333301 0.439595
O O10 0.000000 0.500000 0.500000
O O11 0.958482 0.390821 0.633469
O O12 0.380995 0.286234 0.934923
O O13 0.547966 0.306025 0.908337
O O14 0.258189 0.188997 0.299402
O O15 0.500000 0.703606 0.250000
#
# Coordination Sequence:
#
# PCOD9255486 Si02
#       7
#     8   8   8   8   8   8   8
#     4  10  17  31  51  76 105 142 176 219 267 325
#     4  11  20  32  50  77 112 144 178 220 271 329
#     4  10  18  32  52  75 108 142 185 221 266 333
#     4  11  20  34  51  81 115 139 178 223 274 328
#     4  11  20  32  51  77 109 145 184 221 268 328
#     4  11  21  33  54  82 115 144 173 224 280 326
#     4  12  18  33  54  77 112 143 180 225 272 322
#
# _framework density 17.479904999999999
#
# number of rings (size 3 to 8) (size 9 to 14) (size 15 to 20)
#    0.000    1.143   10.000    1.714    0.000    0.571 
#    0.000    0.000    0.000    0.000    0.000    5.000 
#    0.000    0.000    0.000    0.000    0.000    0.000 
#
# Total GULP energy -156039.146456 kJ/mol
# GULP energy per Si atom -5572.826659 kJ/mol
# Density = 1.744012 g / cm^3
# Si number density = 17.479905 Si / 1000 Ang^3
#
#
#
# Elastic Constant Matrix: (Units=GPa)
#
#
# Indices 1 2 3 4 5 6 
#
# 1 35.3709 23.8618 9.1693 0.0000 -11.5592 0.0000
# 2 23.8618 79.2910 50.4477 0.0000 -16.1219 0.0000
# 3 9.1693 50.4477 96.8292 0.0000 -17.7330 0.0000
# 4 0.0000 0.0000 0.0000 36.5333 0.0000 -10.7094
# 5 -11.5592 -16.1219 -17.7330 0.0000 25.6664 0.0000
# 6 0.0000 0.0000 0.0000 -10.7094 0.0000 9.5276
#
#
#
# Elastic Compliance Matrix: (Units=1/GPa)
#
#
# Indices 1 2 3 4 5 6 
#
# 1 0.039862 -0.012572 0.005285 0.000000 0.013707 0.000000
# 2 -0.012572 0.023613 -0.010799 0.000000 0.001709 0.000000
# 3 0.005285 -0.010799 0.016769 0.000000 0.007183 0.000000
# 4 0.000000 0.000000 0.000000 0.040824 0.000000 0.045887
# 5 0.013707 0.001709 0.007183 0.000000 0.051171 0.000000
# 6 0.000000 0.000000 0.000000 0.045887 0.000000 0.156537
#
#
# Mechanical properties :
#
#
# Convention : Reuss Voigt Hill
#
# Bulk Modulus (GPa) = 22.68931 42.04986 32.36958
# Shear Modulus (GPa) = 13.17046 22.87962 18.02504
#
# Velocity S-wave (km/s) = 2.74791 3.62181 3.21469
# Velocity P-wave (km/s) = 4.80379 6.44968 5.68660
#
# Compressibility (1/GPa) = 0.04407362
#
# Stress axis : x y z
#
# Youngs Moduli (GPa) = 25.08632 42.34896 59.63540
#
# Poissons Ratio (x) = 0.53240 -0.31520
# Poissons Ratio (y) = 0.31538 0.64400
# Poissons Ratio (z) = -0.13259 0.45732
#
# Static dielectric constant tensor:
#      x y z
#    x 1.620300 0.000000 -0.014980 
#    y 0.000000 1.614830 0.000000 
#    z -0.014980 0.000000 1.662430 
# 
# From -- ./inp_files/181534.got.cif
#   From: 2010.05.17/outbox.cif.g08.bks.cpg/sg15_91_cif.got.tgz:181534.got - 2010.06.03 18:47:42.
