data_PCOD9255861
_publ_section_title
;
Structure prediction by ZEFSAII (Michael W. Deem and Ramdas Pophale) SiO2 
 PCOD9255861
Probable space group: C 2/C
;
_chemical_formula_sum "Si O2"
_cell_formula_units_Z 60
_cell_length_a 24.890095
_cell_length_b 8.110480
_cell_length_c 21.896713
_cell_angle_alpha 90.000000
_cell_angle_beta 136.972596
_cell_angle_gamma 90.000000
_cell_volume 3016.185256
_symmetry_space_group_name_H-M "C 2/C"
_symmetry_group_IT_number 15
_symmetry_cell_setting 'monoclinic'
loop_
_space_group_symop_operation_xyz
x,y,z
-x,y,1/2-z
-x,-y,-z
x,-y,1/2+z
1/2+x,1/2+y,z
1/2-x,1/2+y,1/2-z
1/2-x,1/2-y,-z
1/2+x,1/2-y,1/2+z
loop_
_atom_site_type_symbol
_atom_site_label
_atom_site_fract_x
_atom_site_fract_y
_atom_site_fract_z
Si Si1 0.822618 0.406844 0.382762
Si Si2 0.236477 0.440109 0.785843
Si Si3 0.109207 0.074018 0.552831
Si Si4 0.251927 0.599209 0.072439
Si Si5 0.623532 0.156189 0.758137
Si Si6 0.137760 0.105686 0.439635
Si Si7 0.043100 0.752301 0.563182
Si Si8 0.000000 0.738876 0.750000
O O1 0.796585 0.535212 0.309061
O O2 0.777559 0.234072 0.331585
O O3 0.792491 0.471009 0.421873
O O4 0.915466 0.372654 0.449598
O O5 0.302542 0.582594 0.849645
O O6 0.169620 0.490432 0.778571
O O7 0.118573 0.026855 0.489134
O O8 0.050766 0.229098 0.509181
O O9 0.072277 0.928958 0.562642
O O10 0.315214 0.708762 0.163734
O O11 0.302059 0.522041 0.058172
O O12 0.185129 0.724981 0.993325
O O13 0.582802 0.219317 0.661845
O O14 0.556612 0.135423 0.753153
O O15 0.056852 0.149127 0.338743
#
# Coordination Sequence:
#
# PCOD9255861 Si02
#       8
#     8   8   8   8   8   8   8   4
#     4  10  20  37  55  88 113 150 183 236 275 348
#     4  10  20  33  59  83 115 146 187 228 290 327
#     4  10  17  33  53  82 108 150 183 229 275 339
#     4  10  20  35  57  81 112 143 198 222 278 332
#     4  10  18  35  56  85 110 151 183 235 277 343
#     4  10  20  34  58  81 107 151 188 238 267 339
#     4   9  19  31  54  81 116 142 187 227 284 328
#     4  10  20  34  58  80 110 146 194 232 284 328
#
# _framework density 19.892678
#
# number of rings (size 3 to 8) (size 9 to 14) (size 15 to 20)
#    0.000    2.133    2.667    2.400    0.000    0.000 
#    0.000    4.667    0.000    3.200    0.000    0.000 
#    0.000    0.000    0.000    0.000    0.000    0.000 
#
# Total GULP energy -167246.582580 kJ/mol
# GULP energy per Si atom -5574.886086 kJ/mol
# Density = 1.984740 g / cm^3
# Si number density = 19.892678 Si / 1000 Ang^3
#
#
#
# Elastic Constant Matrix: (Units=GPa)
#
#
# Indices 1 2 3 4 5 6 
#
# 1 140.2465 19.9407 13.8672 0.0000 -4.5718 0.0000
# 2 19.9407 44.6419 7.7752 0.0000 -5.0412 0.0000
# 3 13.8672 7.7752 65.9121 0.0000 12.5571 0.0000
# 4 0.0000 0.0000 0.0000 11.0001 0.0000 -7.2022
# 5 -4.5718 -5.0412 12.5571 0.0000 24.4385 0.0000
# 6 0.0000 0.0000 0.0000 -7.2022 0.0000 31.9104
#
#
#
# Elastic Compliance Matrix: (Units=1/GPa)
#
#
# Indices 1 2 3 4 5 6 
#
# 1 0.007769 -0.003006 -0.001595 0.000000 0.001653 0.000000
# 2 -0.003006 0.025089 -0.003554 0.000000 0.006439 0.000000
# 3 -0.001595 -0.003554 0.017873 0.000000 -0.010215 0.000000
# 4 0.000000 0.000000 0.000000 0.106671 0.000000 0.024076
# 5 0.001653 0.006439 -0.010215 0.000000 0.047805 0.000000
# 6 0.000000 0.000000 0.000000 0.024076 0.000000 0.036772
#
#
# Mechanical properties :
#
#
# Convention : Reuss Voigt Hill
#
# Bulk Modulus (GPa) = 29.05154 37.10742 33.07948
# Shear Modulus (GPa) = 18.53480 27.41761 22.97620
#
# Velocity S-wave (km/s) = 3.05575 3.71654 3.40223
# Velocity P-wave (km/s) = 5.20442 6.09190 5.66556
#
# Compressibility (1/GPa) = 0.03442158
#
# Stress axis : x y z
#
# Youngs Moduli (GPa) = 128.71210 39.85757 55.95168
#
# Poissons Ratio (x) = 0.11981 0.08924
# Poissons Ratio (y) = 0.38690 0.19885
# Poissons Ratio (z) = 0.20528 0.14165
#
# Static dielectric constant tensor:
#      x y z
#    x 1.764840 0.000000 0.009620 
#    y 0.000000 1.699310 0.000000 
#    z 0.009620 0.000000 1.711220 
# 
# From -- ./inp_files/257215.got.cif
#   From: 2010.05.17/outbox.cif.g08.bks.cpg/sg15_129_cif.got.tgz:257215.got - 2010.06.03 18:47:42.
