data_PCOD9255567
_publ_section_title
;
Structure prediction by ZEFSAII (Michael W. Deem and Ramdas Pophale) SiO2 
 PCOD9255567
Probable space group: C 2/C
;
_chemical_formula_sum "Si O2"
_cell_formula_units_Z 60
_cell_length_a 15.609503
_cell_length_b 8.624668
_cell_length_c 23.152489
_cell_angle_alpha 90.000000
_cell_angle_beta 107.544659
_cell_angle_gamma 90.000000
_cell_volume 2971.951879
_symmetry_space_group_name_H-M "C 2/C"
_symmetry_group_IT_number 15
_symmetry_cell_setting 'monoclinic'
loop_
_space_group_symop_operation_xyz
x,y,z
-x,y,1/2-z
-x,-y,-z
x,-y,1/2+z
1/2+x,1/2+y,z
1/2-x,1/2+y,1/2-z
1/2-x,1/2-y,-z
1/2+x,1/2-y,1/2+z
loop_
_atom_site_type_symbol
_atom_site_label
_atom_site_fract_x
_atom_site_fract_y
_atom_site_fract_z
Si Si1 0.451619 0.958679 0.075233
Si Si2 0.276621 0.939216 0.322667
Si Si3 0.934381 0.809123 0.856248
Si Si4 0.633016 0.099657 0.058757
Si Si5 0.664130 0.401532 0.126782
Si Si6 0.844417 0.709552 0.263781
Si Si7 0.623597 0.032838 0.816833
Si Si8 0.500000 0.694369 0.250000
O O1 0.487331 0.784408 0.095501
O O2 0.412906 0.016357 0.128036
O O3 0.537630 0.055827 0.070169
O O4 0.379295 0.950740 0.009481
O O5 0.362527 0.827980 0.327842
O O6 0.195098 0.829477 0.290330
O O7 0.292218 0.004879 0.389843
O O8 0.275162 0.088091 0.280366
O O9 0.964828 0.883198 0.801379
O O10 0.888810 0.938022 0.886530
O O11 0.652692 0.280864 0.072333
O O12 0.626323 0.307212 0.174881
O O13 0.768965 0.441666 0.158298
O O14 0.901131 0.590700 0.237572
O O15 0.578200 0.193540 0.789626
#
# Coordination Sequence:
#
# PCOD9255567 Si02
#       8
#     8   8   8   8   8   8   8   4
#     4   9  21  41  62  77 115 156 200 231 290 349
#     4  10  17  31  56  80 110 149 188 229 286 343
#     4  10  18  35  56  82 112 152 189 237 286 343
#     4   9  21  40  60  81 112 159 194 236 291 346
#     4  11  22  34  61  87 115 147 198 235 291 339
#     4  11  18  32  53  84 117 146 186 236 289 350
#     4  11  21  34  60  85 112 153 193 233 281 353
#     4  10  20  36  54  84 122 152 184 230 296 354
#
# _framework density 20.188752000000001
#
# number of rings (size 3 to 8) (size 9 to 14) (size 15 to 20)
#    0.000    1.867    4.000    0.000    1.867    1.067 
#    2.400    0.667    0.000    0.000    0.000    0.000 
#    0.000    0.000    0.000    0.000    0.000    0.000 
#
# Total GULP energy -167227.438194 kJ/mol
# GULP energy per Si atom -5574.247940 kJ/mol
# Density = 2.014280 g / cm^3
# Si number density = 20.188752 Si / 1000 Ang^3
#
#
#
# Elastic Constant Matrix: (Units=GPa)
#
#
# Indices 1 2 3 4 5 6 
#
# 1 19.5189 2.6924 2.6790 0.0000 -4.4551 0.0000
# 2 2.6924 66.9265 -14.0725 0.0000 4.9812 0.0000
# 3 2.6790 -14.0725 48.9242 0.0000 -2.5347 0.0000
# 4 0.0000 0.0000 0.0000 19.6077 0.0000 -0.1915
# 5 -4.4551 4.9812 -2.5347 0.0000 25.1218 0.0000
# 6 0.0000 0.0000 0.0000 -0.1915 0.0000 19.2846
#
#
#
# Elastic Compliance Matrix: (Units=1/GPa)
#
#
# Indices 1 2 3 4 5 6 
#
# 1 0.054516 -0.003681 -0.003524 0.000000 0.010042 0.000000
# 2 -0.003681 0.016337 0.004724 0.000000 -0.003416 0.000000
# 3 -0.003524 0.004724 0.022026 0.000000 0.000661 0.000000
# 4 0.000000 0.000000 0.000000 0.051005 0.000000 0.000506
# 5 0.010042 -0.003416 0.000661 0.000000 0.042331 0.000000
# 6 0.000000 0.000000 0.000000 0.000506 0.000000 0.051860
#
#
# Mechanical properties :
#
#
# Convention : Reuss Voigt Hill
#
# Bulk Modulus (GPa) = 11.37449 13.10749 12.24099
# Shear Modulus (GPa) = 18.35917 22.40752 20.38334
#
# Velocity S-wave (km/s) = 3.01886 3.33513 3.18093
# Velocity P-wave (km/s) = 4.21873 4.61924 4.42352
#
# Compressibility (1/GPa) = 0.08791600
#
# Stress axis : x y z
#
# Youngs Moduli (GPa) = 18.34329 61.20935 45.40141
#
# Poissons Ratio (x) = 0.22534 0.15999
# Poissons Ratio (y) = 0.06753 -0.21447
# Poissons Ratio (z) = 0.06464 -0.28915
#
# Static dielectric constant tensor:
#      x y z
#    x 1.758500 0.000000 0.003950 
#    y 0.000000 1.714570 0.000000 
#    z 0.003950 0.000000 1.726520 
# 
# From -- ./inp_files/273215.got.cif
#   From: 2010.05.17/outbox.cif.g08.bks.cpg/sg15_137_cif.got.tgz:273215.got - 2010.06.03 18:47:42.
