data_PCOD9255333
_publ_section_title
;
Structure prediction by ZEFSAII (Michael W. Deem and Ramdas Pophale) SiO2 
 PCOD9255333
Probable space group: C 2/C
;
_chemical_formula_sum "Si O2"
_cell_formula_units_Z 56
_cell_length_a 31.467045
_cell_length_b 7.254293
_cell_length_c 11.886828
_cell_angle_alpha 90.000000
_cell_angle_beta 116.550544
_cell_angle_gamma 90.000000
_cell_volume 2427.263861
_symmetry_space_group_name_H-M "C 2/C"
_symmetry_group_IT_number 15
_symmetry_cell_setting 'monoclinic'
loop_
_space_group_symop_operation_xyz
x,y,z
-x,y,1/2-z
-x,-y,-z
x,-y,1/2+z
1/2+x,1/2+y,z
1/2-x,1/2+y,1/2-z
1/2-x,1/2-y,-z
1/2+x,1/2-y,1/2+z
loop_
_atom_site_type_symbol
_atom_site_label
_atom_site_fract_x
_atom_site_fract_y
_atom_site_fract_z
Si Si1 0.008604 0.801889 0.951904
Si Si2 0.931908 0.877119 0.698659
Si Si3 0.201639 0.765522 0.221318
Si Si4 0.456068 0.813350 0.775019
Si Si5 0.648814 0.872961 0.859654
Si Si6 0.329481 0.469188 0.523288
Si Si7 0.740199 0.028786 0.068506
O O1 0.046411 0.822085 0.896113
O O2 0.959017 0.765745 0.828711
O O3 0.027665 0.678124 0.075971
O O4 0.000000 0.000000 0.000000
O O5 0.875406 0.865406 0.627034
O O6 0.945260 0.095048 0.734195
O O7 0.160584 0.664262 0.242470
O O8 0.231080 0.643951 0.169778
O O9 0.238219 0.838278 0.357547
O O10 0.177929 0.923198 0.116315
O O11 0.500000 0.872801 0.750000
O O12 0.406465 0.914017 0.691352
O O13 0.659478 0.682329 0.939010
O O14 0.689313 0.008230 0.950894
O O15 0.281516 0.412696 0.531854
#
# Coordination Sequence:
#
# PCOD9255333 Si02
#       7
#     8   8   8   8   8   8   8
#     4   9  14  26  43  71 112 141 176 222 282 327
#     4   9  16  27  46  78 116 143 176 227 286 337
#     4  11  21  38  60  81 116 153 186 236 288 335
#     4  10  17  30  50  78 107 146 185 234 282 337
#     4  10  22  37  56  84 116 150 192 235 289 341
#     4  10  20  34  56  88 115 147 187 231 286 353
#     4  11  22  39  56  83 115 151 197 236 281 342
#
# _framework density 23.071247
#
# number of rings (size 3 to 8) (size 9 to 14) (size 15 to 20)
#    0.000    2.000    2.857    4.714    0.000    1.143 
#    2.571    0.000    0.000    0.857    3.714    0.000 
#    0.000    0.000    0.000    0.000    0.000    0.000 
#
# Total GULP energy -156530.767269 kJ/mol
# GULP energy per Si atom -5590.384545 kJ/mol
# Density = 2.301874 g / cm^3
# Si number density = 23.071247 Si / 1000 Ang^3
#
#
#
# Elastic Constant Matrix: (Units=GPa)
#
#
# Indices 1 2 3 4 5 6 
#
# 1 163.5665 26.3726 96.2954 0.0000 37.2955 0.0000
# 2 26.3726 40.8248 23.2829 0.0000 13.7384 0.0000
# 3 96.2954 23.2829 162.3189 0.0000 14.9733 0.0000
# 4 0.0000 0.0000 0.0000 23.5076 0.0000 8.6952
# 5 37.2955 13.7384 14.9733 0.0000 51.3251 0.0000
# 6 0.0000 0.0000 0.0000 8.6952 0.0000 20.6023
#
#
#
# Elastic Compliance Matrix: (Units=1/GPa)
#
#
# Indices 1 2 3 4 5 6 
#
# 1 0.011204 -0.001921 -0.005824 0.000000 -0.005928 0.000000
# 2 -0.001921 0.029069 -0.002508 0.000000 -0.005653 0.000000
# 3 -0.005824 -0.002508 0.009787 0.000000 0.002049 0.000000
# 4 0.000000 0.000000 0.000000 0.050409 0.000000 -0.021275
# 5 -0.005928 -0.005653 0.002049 0.000000 0.024707 0.000000
# 6 0.000000 0.000000 0.000000 -0.021275 0.000000 0.057517
#
#
# Mechanical properties :
#
#
# Convention : Reuss Voigt Hill
#
# Bulk Modulus (GPa) = 33.83868 73.17911 53.50890
# Shear Modulus (GPa) = 23.46848 33.80428 28.63638
#
# Velocity S-wave (km/s) = 3.19284 3.83196 3.52691
# Velocity P-wave (km/s) = 5.31895 7.16702 6.31100
#
# Compressibility (1/GPa) = 0.02955198
#
# Stress axis : x y z
#
# Youngs Moduli (GPa) = 89.25271 34.40096 102.17769
#
# Poissons Ratio (x) = 0.06609 0.59513
# Poissons Ratio (y) = 0.17147 0.25631
# Poissons Ratio (z) = 0.51985 0.08629
#
# Static dielectric constant tensor:
#      x y z
#    x 1.838750 0.000000 0.038350 
#    y 0.000000 1.960410 0.000000 
#    z 0.038350 0.000000 1.842410 
# 
# From -- ./inp_files/125985.got.cif
#   From: 2010.05.17/outbox.cif.g08.bks.cpg/sg15_63_cif.got.tgz:125985.got - 2010.06.03 18:47:42.
