data_PCOD9255379
_publ_section_title
;
Structure prediction by ZEFSAII (Michael W. Deem and Ramdas Pophale) SiO2 
 PCOD9255379
Probable space group: C 2/C
;
_chemical_formula_sum "Si O2"
_cell_formula_units_Z 64
_cell_length_a 14.780238
_cell_length_b 12.230432
_cell_length_c 21.242006
_cell_angle_alpha 90.000000
_cell_angle_beta 109.081114
_cell_angle_gamma 90.000000
_cell_volume 3628.913582
_symmetry_space_group_name_H-M "C 2/C"
_symmetry_group_IT_number 15
_symmetry_cell_setting 'monoclinic'
loop_
_space_group_symop_operation_xyz
x,y,z
-x,y,1/2-z
-x,-y,-z
x,-y,1/2+z
1/2+x,1/2+y,z
1/2-x,1/2+y,1/2-z
1/2-x,1/2-y,-z
1/2+x,1/2-y,1/2+z
loop_
_atom_site_type_symbol
_atom_site_label
_atom_site_fract_x
_atom_site_fract_y
_atom_site_fract_z
Si Si1 0.245748 0.639213 0.640094
Si Si2 0.675695 0.352837 0.475162
Si Si3 0.349288 0.802622 0.949445
Si Si4 0.364034 0.053110 0.330381
Si Si5 0.078607 0.530774 0.400182
Si Si6 0.757588 0.083574 0.965225
Si Si7 0.107827 0.685014 0.288224
Si Si8 0.934730 0.683928 0.985576
O O1 0.312107 0.614361 0.594436
O O2 0.217562 0.534375 0.673989
O O3 0.307496 0.727650 0.691057
O O4 0.144540 0.681855 0.587338
O O5 0.750000 0.250000 0.500000
O O6 0.698477 0.462171 0.519118
O O7 0.579887 0.295038 0.477320
O O8 0.355494 0.851309 0.880785
O O9 0.320930 0.675700 0.946803
O O10 0.271097 0.868891 0.972562
O O11 0.453626 0.822217 0.004472
O O12 0.468485 0.000085 0.366561
O O13 0.368017 0.099803 0.261424
O O14 0.155778 0.436562 0.408495
O O15 0.101564 0.624855 0.354270
O O16 0.088791 0.583269 0.472323
O O17 0.000000 0.728377 0.250000
#
# Coordination Sequence:
#
# PCOD9255379 Si02
#       8
#     8   8   8   8   8   8   8   8
#     4  11  18  34  60  77 104 138 182 221 269 317
#     4  10  17  30  53  82 100 134 176 217 263 311
#     4  10  22  33  51  85 119 139 170 214 281 333
#     4  10  21  35  54  78 106 144 180 219 261 324
#     4  10  17  34  57  80 104 133 185 225 259 310
#     4  11  19  33  54  81 115 142 164 222 280 322
#     4  10  22  36  54  77 102 139 188 228 259 306
#     4  10  18  33  57  86 104 136 179 227 268 318
#
# _framework density 17.636133000000001
#
# number of rings (size 3 to 8) (size 9 to 14) (size 15 to 20)
#    0.000    1.750    5.000    1.500    0.000    3.500 
#    0.000    0.000    2.750    0.000    0.000    0.000 
#    0.000    0.000    0.000    0.000    0.000    0.000 
#
# Total GULP energy -178325.185990 kJ/mol
# GULP energy per Si atom -5572.662062 kJ/mol
# Density = 1.759599 g / cm^3
# Si number density = 17.636133 Si / 1000 Ang^3
#
#
#
# Elastic Constant Matrix: (Units=GPa)
#
#
# Indices 1 2 3 4 5 6 
#
# 1 69.3880 37.1870 20.6895 0.0000 1.7679 0.0000
# 2 37.1870 88.3828 21.1278 0.0000 6.9421 0.0000
# 3 20.6895 21.1278 49.1879 0.0000 11.7889 0.0000
# 4 0.0000 0.0000 0.0000 16.2957 0.0000 0.3386
# 5 1.7679 6.9421 11.7889 0.0000 18.5329 0.0000
# 6 0.0000 0.0000 0.0000 0.3386 0.0000 40.2921
#
#
#
# Elastic Compliance Matrix: (Units=1/GPa)
#
#
# Indices 1 2 3 4 5 6 
#
# 1 0.020147 -0.007307 -0.006526 0.000000 0.004966 0.000000
# 2 -0.007307 0.015295 -0.002702 0.000000 -0.003313 0.000000
# 3 -0.006526 -0.002702 0.028133 0.000000 -0.016261 0.000000
# 4 0.000000 0.000000 0.000000 0.061377 0.000000 -0.000516
# 5 0.004966 -0.003313 -0.016261 0.000000 0.065069 0.000000
# 6 0.000000 0.000000 0.000000 -0.000516 0.000000 0.024823
#
#
# Mechanical properties :
#
#
# Convention : Reuss Voigt Hill
#
# Bulk Modulus (GPa) = 32.78152 40.55192 36.66672
# Shear Modulus (GPa) = 19.37365 23.55442 21.46403
#
# Velocity S-wave (km/s) = 3.31799 3.65852 3.49241
# Velocity P-wave (km/s) = 5.77120 6.39452 6.09084
#
# Compressibility (1/GPa) = 0.03050500
#
# Stress axis : x y z
#
# Youngs Moduli (GPa) = 49.63510 65.38089 35.54535
#
# Poissons Ratio (x) = 0.47773 0.23197
# Poissons Ratio (y) = 0.36268 0.09605
# Poissons Ratio (z) = 0.32392 0.17667
#
# Static dielectric constant tensor:
#      x y z
#    x 1.640290 0.000000 -0.001940 
#    y 0.000000 1.617110 0.000000 
#    z -0.001940 0.000000 1.622430 
# 
# From -- ./inp_files/243756.got.cif
#   From: 2010.05.17/outbox.cif.g08.bks.cpg/sg15_122_cif.got.tgz:243756.got - 2010.06.03 18:47:42.
