data_PCOD9255640
_publ_section_title
;
Structure prediction by ZEFSAII (Michael W. Deem and Ramdas Pophale) SiO2 
 PCOD9255640
Probable space group: C 2/C
;
_chemical_formula_sum "Si O2"
_cell_formula_units_Z 60
_cell_length_a 25.804901
_cell_length_b 11.705234
_cell_length_c 17.478493
_cell_angle_alpha 90.000000
_cell_angle_beta 26.854268
_cell_angle_gamma 90.000000
_cell_volume 2384.834530
_symmetry_space_group_name_H-M "C 2/C"
_symmetry_group_IT_number 15
_symmetry_cell_setting 'monoclinic'
loop_
_space_group_symop_operation_xyz
x,y,z
-x,y,1/2-z
-x,-y,-z
x,-y,1/2+z
1/2+x,1/2+y,z
1/2-x,1/2+y,1/2-z
1/2-x,1/2-y,-z
1/2+x,1/2-y,1/2+z
loop_
_atom_site_type_symbol
_atom_site_label
_atom_site_fract_x
_atom_site_fract_y
_atom_site_fract_z
Si Si1 0.812083 0.917049 0.523128
Si Si2 0.237129 0.865504 0.236543
Si Si3 0.227578 0.162746 0.128630
Si Si4 0.640773 0.896779 0.271407
Si Si5 0.563569 0.797610 0.045971
Si Si6 0.824879 0.916787 0.341533
Si Si7 0.500000 0.385069 0.750000
Si Si8 0.091851 0.097745 0.451488
O O1 0.689470 0.976677 0.694647
O O2 0.818360 0.859518 0.432603
O O3 0.899618 0.025735 0.402453
O O4 0.855516 0.849435 0.540202
O O5 0.339232 0.875226 0.163981
O O6 0.153187 0.764097 0.372266
O O7 0.252241 0.870225 0.125818
O O8 0.159295 0.978164 0.356328
O O9 0.217299 0.298054 0.126072
O O10 0.207062 0.050739 0.105833
O O11 0.127450 0.154696 0.325321
O O12 0.352376 0.144935 0.002721
O O13 0.517988 0.878459 0.395132
O O14 0.493138 0.700636 0.186227
O O15 0.956718 0.911690 0.139798
#
# Coordination Sequence:
#
# PCOD9255640 Si02
#       8
#     8   8   8   8   8   8   4   8
#     4  11  20  32  51  83 107 135 169 217 271 308
#     4   9  18  34  47  73  98 137 179 205 248 312
#     4  10  20  31  51  78  98 140 180 206 258 317
#     4  10  20  34  50  73 110 139 166 215 258 313
#     4  11  21  33  51  75 110 141 169 211 261 319
#     4  11  19  30  54  74 103 135 173 223 262 298
#     4  12  18  32  50  78 116 130 164 216 266 320
#     4  10  17  32  50  73 104 133 173 217 259 306
#
# _framework density 25.158977
#
# number of rings (size 3 to 8) (size 9 to 14) (size 15 to 20)
#    0.000    1.600    5.333    4.000    1.867    1.067 
#    0.000    6.000    0.000    3.200    0.000    1.867 
#    0.000    0.000    0.000    0.000    0.000    0.267 
#
# Total GULP energy -167692.517240 kJ/mol
# GULP energy per Si atom -5589.750575 kJ/mol
# Density = 2.510171 g / cm^3
# Si number density = 25.158977 Si / 1000 Ang^3
#
#
#
# Elastic Constant Matrix: (Units=GPa)
#
#
# Indices 1 2 3 4 5 6 
#
# 1 91.4720 -4.0394 23.2972 0.0000 9.7306 0.0000
# 2 -4.0394 35.5329 9.5706 0.0000 -6.6292 0.0000
# 3 23.2972 9.5706 50.6715 0.0000 -1.1308 0.0000
# 4 0.0000 0.0000 0.0000 26.1996 0.0000 -2.4153
# 5 9.7306 -6.6292 -1.1308 0.0000 51.9638 0.0000
# 6 0.0000 0.0000 0.0000 -2.4153 0.0000 41.5964
#
#
#
# Elastic Compliance Matrix: (Units=1/GPa)
#
#
# Indices 1 2 3 4 5 6 
#
# 1 0.012958 0.002822 -0.006540 0.000000 -0.002209 0.000000
# 2 0.002822 0.030980 -0.007076 0.000000 0.003270 0.000000
# 3 -0.006540 -0.007076 0.024097 0.000000 0.000846 0.000000
# 4 0.000000 0.000000 0.000000 0.038374 0.000000 0.002228
# 5 -0.002209 0.003270 0.000846 0.000000 0.020093 0.000000
# 6 0.000000 0.000000 0.000000 0.002228 0.000000 0.024170
#
#
# Mechanical properties :
#
#
# Convention : Reuss Voigt Hill
#
# Bulk Modulus (GPa) = 21.52968 26.14814 23.83891
# Shear Modulus (GPa) = 26.63245 33.87517 30.25381
#
# Velocity S-wave (km/s) = 3.25709 3.67337 3.47148
# Velocity P-wave (km/s) = 4.76664 5.32985 5.05609
#
# Compressibility (1/GPa) = 0.04644752
#
# Stress axis : x y z
#
# Youngs Moduli (GPa) = 77.17516 32.27921 41.49867
#
# Poissons Ratio (x) = -0.09111 0.27140
# Poissons Ratio (y) = -0.21782 0.29365
# Poissons Ratio (z) = 0.50471 0.22841
#
# Static dielectric constant tensor:
#      x y z
#    x 2.096470 0.000000 0.039520 
#    y 0.000000 2.067820 0.000000 
#    z 0.039520 0.000000 2.002250 
# 
# From -- ./inp_files/215448.got.cif
#   From: 2010.05.17/outbox.cif.g08.bks.cpg/sg15_108_cif.got.tgz:215448.got - 2010.06.03 18:47:42.
