data_PCOD9255661
_publ_section_title
;
Structure prediction by ZEFSAII (Michael W. Deem and Ramdas Pophale) SiO2 
 PCOD9255661
Probable space group: C 2/C
;
_chemical_formula_sum "Si O2"
_cell_formula_units_Z 64
_cell_length_a 11.198587
_cell_length_b 21.263415
_cell_length_c 18.021618
_cell_angle_alpha 90.000000
_cell_angle_beta 122.037233
_cell_angle_gamma 90.000000
_cell_volume 3637.759873
_symmetry_space_group_name_H-M "C 2/C"
_symmetry_group_IT_number 15
_symmetry_cell_setting 'monoclinic'
loop_
_space_group_symop_operation_xyz
x,y,z
-x,y,1/2-z
-x,-y,-z
x,-y,1/2+z
1/2+x,1/2+y,z
1/2-x,1/2+y,1/2-z
1/2-x,1/2-y,-z
1/2+x,1/2-y,1/2+z
loop_
_atom_site_type_symbol
_atom_site_label
_atom_site_fract_x
_atom_site_fract_y
_atom_site_fract_z
Si Si1 0.936288 0.877346 0.806588
Si Si2 0.787528 0.820670 0.536627
Si Si3 0.187412 0.805608 0.380812
Si Si4 0.348051 0.835866 0.580845
Si Si5 0.343448 0.416040 0.424288
Si Si6 0.357019 0.674229 0.800464
Si Si7 0.153729 0.059494 0.080383
Si Si8 0.834886 0.313899 0.847650
O O1 0.899572 0.931232 0.853000
O O2 0.794012 0.841024 0.741303
O O3 0.000000 0.901238 0.750000
O O4 0.052716 0.830448 0.880240
O O5 0.750000 0.750000 0.500000
O O6 0.781355 0.870627 0.467607
O O7 0.688770 0.833785 0.574939
O O8 0.288232 0.834037 0.476916
O O9 0.194125 0.730260 0.394753
O O10 0.213879 0.821895 0.303791
O O11 0.026288 0.825975 0.344267
O O12 0.275895 0.892165 0.600667
O O13 0.516076 0.837224 0.633404
O O14 0.311293 0.384335 0.335027
O O15 0.300144 0.488324 0.418538
O O16 0.514170 0.420341 0.488442
O O17 0.330573 0.738437 0.837485
#
# Coordination Sequence:
#
# PCOD9255661 Si02
#       8
#     8   8   8   8   8   8   8   8
#     4   9  20  36  54  82 106 142 190 232 272 335
#     4  10  19  35  59  81 111 144 184 235 281 337
#     4   9  19  30  52  84 112 138 178 238 287 325
#     4  10  19  34  55  81 111 147 186 227 286 337
#     4  10  20  35  56  82 111 150 190 224 282 347
#     4  10  17  32  51  84 115 136 180 234 286 331
#     4  10  20  36  56  79 114 153 186 228 281 345
#     4  10  20  33  57  82 108 145 189 232 283 328
#
# _framework density 17.593243999999999
#
# number of rings (size 3 to 8) (size 9 to 14) (size 15 to 20)
#    0.000    2.250    2.500    0.750    0.000    2.500 
#    2.250    1.875    0.000    4.500    0.000    0.000 
#    0.000    0.000    0.000    0.000    0.000    0.000 
#
# Total GULP energy -178414.737634 kJ/mol
# GULP energy per Si atom -5575.460551 kJ/mol
# Density = 1.755320 g / cm^3
# Si number density = 17.593244 Si / 1000 Ang^3
#
#
#
# Elastic Constant Matrix: (Units=GPa)
#
#
# Indices 1 2 3 4 5 6 
#
# 1 62.2439 40.2300 33.7251 0.0000 -11.9131 0.0000
# 2 40.2300 84.7974 29.8124 0.0000 -22.4909 0.0000
# 3 33.7251 29.8124 91.5431 0.0000 -25.9826 0.0000
# 4 0.0000 0.0000 0.0000 14.1759 0.0000 -3.6836
# 5 -11.9131 -22.4909 -25.9826 0.0000 25.6239 0.0000
# 6 0.0000 0.0000 0.0000 -3.6836 0.0000 21.2171
#
#
#
# Elastic Compliance Matrix: (Units=1/GPa)
#
#
# Indices 1 2 3 4 5 6 
#
# 1 0.026453 -0.011291 -0.007569 0.000000 -0.005287 0.000000
# 2 -0.011291 0.020371 0.001559 0.000000 0.014212 0.000000
# 3 -0.007569 0.001559 0.017683 0.000000 0.015781 0.000000
# 4 0.000000 0.000000 0.000000 0.073875 0.000000 0.012826
# 5 -0.005287 0.014212 0.015781 0.000000 0.065044 0.000000
# 6 0.000000 0.000000 0.000000 0.012826 0.000000 0.049359
#
#
# Mechanical properties :
#
#
# Convention : Reuss Voigt Hill
#
# Bulk Modulus (GPa) = 33.43824 49.56882 41.50353
# Shear Modulus (GPa) = 16.81498 21.19117 19.00307
#
# Velocity S-wave (km/s) = 3.09490 3.47436 3.29011
# Velocity P-wave (km/s) = 5.64081 6.65816 6.17048
#
# Compressibility (1/GPa) = 0.02990588
#
# Stress axis : x y z
#
# Youngs Moduli (GPa) = 37.80338 49.09000 56.55012
#
# Poissons Ratio (x) = 0.55428 0.42802
# Poissons Ratio (y) = 0.42684 -0.08818
# Poissons Ratio (z) = 0.28613 -0.07655
#
# Static dielectric constant tensor:
#      x y z
#    x 1.589790 0.000000 -0.017230 
#    y 0.000000 1.571560 0.000000 
#    z -0.017230 0.000000 1.632880 
# 
# From -- ./inp_files/200189.got.cif
#   From: 2010.05.17/outbox.cif.g08.bks.cpg/sg15_101_cif.got.tgz:200189.got - 2010.06.03 18:47:42.
