data_PCOD9255082
_publ_section_title
;
Structure prediction by ZEFSAII (Michael W. Deem and Ramdas Pophale) SiO2 
 PCOD9255082
Probable space group: C 2/C
;
_chemical_formula_sum "Si O2"
_cell_formula_units_Z 60
_cell_length_a 18.276541
_cell_length_b 13.511565
_cell_length_c 23.052535
_cell_angle_alpha 90.000000
_cell_angle_beta 41.164992
_cell_angle_gamma 90.000000
_cell_volume 3747.104142
_symmetry_space_group_name_H-M "C 2/C"
_symmetry_group_IT_number 15
_symmetry_cell_setting 'monoclinic'
loop_
_space_group_symop_operation_xyz
x,y,z
-x,y,1/2-z
-x,-y,-z
x,-y,1/2+z
1/2+x,1/2+y,z
1/2-x,1/2+y,1/2-z
1/2-x,1/2-y,-z
1/2+x,1/2-y,1/2+z
loop_
_atom_site_type_symbol
_atom_site_label
_atom_site_fract_x
_atom_site_fract_y
_atom_site_fract_z
Si Si1 0.500000 0.604429 0.250000
Si Si2 0.494954 0.963532 0.320946
Si Si3 0.199026 0.392546 0.273849
Si Si4 0.801148 0.757690 0.123296
Si Si5 0.895682 0.534891 0.488722
Si Si6 0.980624 0.337451 0.036931
Si Si7 0.847289 0.270581 0.395935
Si Si8 0.288215 0.534607 0.320804
O O1 0.421812 0.675439 0.335847
O O2 0.417431 0.543363 0.258432
O O3 0.500000 0.989515 0.250000
O O4 0.615543 0.947917 0.278765
O O5 0.423582 0.037063 0.404378
O O6 0.429358 0.858707 0.364197
O O7 0.287491 0.328419 0.185973
O O8 0.120693 0.319658 0.359074
O O9 0.252500 0.468206 0.287742
O O10 0.717440 0.797286 0.124324
O O11 0.759329 0.645527 0.160748
O O12 0.924852 0.744379 0.024662
O O13 0.938244 0.629471 0.498916
O O14 0.773361 0.509706 0.585295
O O15 0.964321 0.438417 0.470447
O O16 0.750000 0.250000 0.500000
#
# Coordination Sequence:
#
# PCOD9255082 Si02
#       8
#     4   8   8   8   8   8   8   8
#     4  10  18  32  46  70  94 122 166 196 236 290
#     4  11  16  25  39  68 103 125 144 185 235 293
#     4  10  18  30  46  70  98 126 158 195 238 281
#     4  10  17  28  45  72  96 126 158 188 239 287
#     4   8  15  27  44  66  89 121 156 193 233 271
#     4   8  15  28  45  64  90 120 160 196 222 275
#     4  11  19  27  43  70 104 130 149 185 241 301
#     4   9  18  31  49  71  92 122 163 201 236 285
#
# _framework density 16.012364999999999
#
# number of rings (size 3 to 8) (size 9 to 14) (size 15 to 20)
#    0.000    2.400    2.000    6.400    0.000    0.000 
#    0.000    0.000    0.000    3.200   10.400    1.867 
#    0.000    0.000    0.000    0.000    0.000    0.000 
#
# Total GULP energy -167033.592469 kJ/mol
# GULP energy per Si atom -5567.786416 kJ/mol
# Density = 1.597592 g / cm^3
# Si number density = 16.012365 Si / 1000 Ang^3
#
#
#
# Elastic Constant Matrix: (Units=GPa)
#
#
# Indices 1 2 3 4 5 6 
#
# 1 86.5641 19.6553 41.6412 0.0000 8.2768 0.0000
# 2 19.6553 11.0254 5.3995 0.0000 1.2643 0.0000
# 3 41.6412 5.3995 75.8738 0.0000 12.3338 0.0000
# 4 0.0000 0.0000 0.0000 8.9475 0.0000 7.0014
# 5 8.2768 1.2643 12.3338 0.0000 29.3160 0.0000
# 6 0.0000 0.0000 0.0000 7.0014 0.0000 18.3475
#
#
#
# Elastic Compliance Matrix: (Units=1/GPa)
#
#
# Indices 1 2 3 4 5 6 
#
# 1 0.026669 -0.041801 -0.011518 0.000000 -0.000881 0.000000
# 2 -0.041801 0.159543 0.011580 0.000000 0.000049 0.000000
# 3 -0.011518 0.011580 0.019568 0.000000 -0.005480 0.000000
# 4 0.000000 0.000000 0.000000 0.159344 0.000000 -0.060805
# 5 -0.000881 0.000049 -0.005480 0.000000 0.036663 0.000000
# 6 0.000000 0.000000 0.000000 -0.060805 0.000000 0.077707
#
#
# Mechanical properties :
#
#
# Convention : Reuss Voigt Hill
#
# Bulk Modulus (GPa) = 8.17661 34.09504 21.13582
# Shear Modulus (GPa) = 8.28172 18.44000 13.36086
#
# Velocity S-wave (km/s) = 2.27669 3.39722 2.89175
# Velocity P-wave (km/s) = 3.46823 6.06031 4.93740
#
# Compressibility (1/GPa) = 0.12230005
#
# Stress axis : x y z
#
# Youngs Moduli (GPa) = 37.49735 6.26791 51.10349
#
# Poissons Ratio (x) = 0.26200 0.58863
# Poissons Ratio (y) = 1.56742 -0.59176
# Poissons Ratio (z) = 0.43191 -0.07258
#
# Static dielectric constant tensor:
#      x y z
#    x 1.561570 0.000000 0.012620 
#    y 0.000000 1.513400 0.000000 
#    z 0.012620 0.000000 1.586550 
# 
# From -- ./inp_files/277413.got.cif
#   From: 2010.05.17/outbox.cif.g08.bks.cpg/sg15_139_cif.got.tgz:277413.got - 2010.06.03 18:47:42.
