data_PCOD9255005
_publ_section_title
;
Structure prediction by ZEFSAII (Michael W. Deem and Ramdas Pophale) SiO2 
 PCOD9255005
Probable space group: C 2/C
;
_chemical_formula_sum "Si O2"
_cell_formula_units_Z 64
_cell_length_a 24.280983
_cell_length_b 20.791467
_cell_length_c 12.590210
_cell_angle_alpha 90.000000
_cell_angle_beta 29.275643
_cell_angle_gamma 90.000000
_cell_volume 3108.161714
_symmetry_space_group_name_H-M "C 2/C"
_symmetry_group_IT_number 15
_symmetry_cell_setting 'monoclinic'
loop_
_space_group_symop_operation_xyz
x,y,z
-x,y,1/2-z
-x,-y,-z
x,-y,1/2+z
1/2+x,1/2+y,z
1/2-x,1/2+y,1/2-z
1/2-x,1/2-y,-z
1/2+x,1/2-y,1/2+z
loop_
_atom_site_type_symbol
_atom_site_label
_atom_site_fract_x
_atom_site_fract_y
_atom_site_fract_z
Si Si1 0.900990 0.337151 0.739580
Si Si2 0.616817 0.513797 0.714642
Si Si3 0.597796 0.590400 0.402617
Si Si4 0.260945 0.601600 0.137641
Si Si5 0.555248 0.701270 0.766353
Si Si6 0.056248 0.466968 0.255695
Si Si7 0.389544 0.923236 0.116955
Si Si8 0.769706 0.423441 0.115421
O O1 0.901556 0.260717 0.738235
O O2 0.023722 0.365850 0.556969
O O3 0.857198 0.371957 0.705602
O O4 0.817379 0.361962 0.972561
O O5 0.618050 0.441214 0.754112
O O6 0.706770 0.535055 0.475460
O O7 0.653353 0.555622 0.757855
O O8 0.494074 0.540737 0.890998
O O9 0.707815 0.593939 0.292180
O O10 0.535347 0.658494 0.517478
O O11 0.349029 0.652911 0.938173
O O12 0.500000 0.727215 0.750000
O O13 0.115416 0.426358 0.247860
O O14 0.000000 0.431953 0.250000
O O15 0.955380 0.511061 0.473565
O O16 0.145751 0.519269 0.062727
O O17 0.283455 0.916096 0.217741
#
# Coordination Sequence:
#
# PCOD9255005 Si02
#       8
#     8   8   8   8   8   8   8   8
#     4  10  17  27  44  66  92 120 146 179 226 276
#     4   9  17  29  45  63  89 119 148 185 222 266
#     4   9  18  31  45  66  91 118 151 187 226 267
#     4   9  18  29  44  68  93 120 151 185 227 271
#     4   9  16  28  44  63  91 120 149 185 224 271
#     4   8  15  26  38  56  85 115 145 179 218 268
#     4   9  16  26  39  61  89 115 145 182 223 270
#     4   9  17  26  40  63  88 115 146 182 225 269
#
# _framework density 20.590948999999998
#
# number of rings (size 3 to 8) (size 9 to 14) (size 15 to 20)
#    0.000    3.000    0.000    3.375    0.000    5.000 
#    0.000    0.000    0.000    0.000    0.000    6.125 
#    0.000    0.000    0.000    0.750    0.000    0.000 
#
# Total GULP energy -178445.000201 kJ/mol
# GULP energy per Si atom -5576.406256 kJ/mol
# Density = 2.054408 g / cm^3
# Si number density = 20.590949 Si / 1000 Ang^3
#
#
#
# Elastic Constant Matrix: (Units=GPa)
#
#
# Indices 1 2 3 4 5 6 
#
# 1 109.3763 17.1381 3.5769 0.0000 5.5778 0.0000
# 2 17.1381 91.1538 19.7319 0.0000 11.8820 0.0000
# 3 3.5769 19.7319 26.7618 0.0000 1.4135 0.0000
# 4 0.0000 0.0000 0.0000 19.1873 0.0000 1.8386
# 5 5.5778 11.8820 1.4135 0.0000 22.9563 0.0000
# 6 0.0000 0.0000 0.0000 1.8386 0.0000 19.2209
#
#
#
# Elastic Compliance Matrix: (Units=1/GPa)
#
#
# Indices 1 2 3 4 5 6 
#
# 1 0.009467 -0.001583 -0.000020 0.000000 -0.001480 0.000000
# 2 -0.001583 0.014256 -0.009963 0.000000 -0.006381 0.000000
# 3 -0.000020 -0.009963 0.044588 0.000000 0.002416 0.000000
# 4 0.000000 0.000000 0.000000 0.052600 0.000000 -0.005032
# 5 -0.001480 -0.006381 0.002416 0.000000 0.047075 0.000000
# 6 0.000000 0.000000 0.000000 -0.005032 0.000000 0.052508
#
#
# Mechanical properties :
#
#
# Convention : Reuss Voigt Hill
#
# Bulk Modulus (GPa) = 22.13404 34.24285 28.18844
# Shear Modulus (GPa) = 19.32853 24.72923 22.02888
#
# Velocity S-wave (km/s) = 3.06713 3.46927 3.27438
# Velocity P-wave (km/s) = 4.82864 5.71961 5.29291
#
# Compressibility (1/GPa) = 0.04517929
#
# Stress axis : x y z
#
# Youngs Moduli (GPa) = 105.63170 70.14370 22.42776
#
# Poissons Ratio (x) = 0.11101 0.00046
# Poissons Ratio (y) = 0.16717 0.22345
# Poissons Ratio (z) = 0.00214 0.69884
#
# Static dielectric constant tensor:
#      x y z
#    x 1.833350 0.000000 -0.016940 
#    y 0.000000 1.720080 0.000000 
#    z -0.016940 0.000000 1.787570 
# 
# From -- ./inp_files/119707.got.cif
#   From: 2010.05.17/outbox.cif.g08.bks.cpg/sg15_60_cif.got.tgz:119707.got - 2010.06.03 18:47:42.
