data_PCOD9255252
_publ_section_title
;
Structure prediction by ZEFSAII (Michael W. Deem and Ramdas Pophale) SiO2 
 PCOD9255252
Probable space group: C 2/C
;
_chemical_formula_sum "Si O2"
_cell_formula_units_Z 48
_cell_length_a 8.912255
_cell_length_b 17.750165
_cell_length_c 20.793153
_cell_angle_alpha 90.000000
_cell_angle_beta 125.181900
_cell_angle_gamma 90.000000
_cell_volume 2688.476037
_symmetry_space_group_name_H-M "C 2/C"
_symmetry_group_IT_number 15
_symmetry_cell_setting 'monoclinic'
loop_
_space_group_symop_operation_xyz
x,y,z
-x,y,1/2-z
-x,-y,-z
x,-y,1/2+z
1/2+x,1/2+y,z
1/2-x,1/2+y,1/2-z
1/2-x,1/2-y,-z
1/2+x,1/2-y,1/2+z
loop_
_atom_site_type_symbol
_atom_site_label
_atom_site_fract_x
_atom_site_fract_y
_atom_site_fract_z
Si Si1 0.184600 0.901566 0.031934
Si Si2 0.787307 0.046634 0.377500
Si Si3 0.637577 0.931736 0.549735
Si Si4 0.969926 0.172423 0.582309
Si Si5 0.091711 0.662486 0.407223
Si Si6 0.998762 0.977548 0.324940
O O1 0.132039 0.836685 0.069473
O O2 0.258633 0.973432 0.090395
O O3 0.318404 0.886786 0.005422
O O4 0.987783 0.926951 0.953442
O O5 0.646330 0.112796 0.358993
O O6 0.823800 0.020063 0.313724
O O7 0.554276 0.880449 0.584604
O O8 0.500000 0.000000 0.500000
O O9 0.825551 0.970689 0.617649
O O10 0.970720 0.251924 0.618531
O O11 0.778106 0.166084 0.496274
O O12 0.982914 0.100332 0.631512
O O13 0.000000 0.963578 0.250000
#
# Coordination Sequence:
#
# PCOD9255252 Si02
#       6
#     8   8   8   8   8   8
#     4   8  14  26  46  70 100 128 158 198 251 289
#     4   8  14  28  47  68  95 130 161 198 241 299
#     4  11  17  29  53  79  98 125 172 222 239 283
#     4   9  18  31  49  76 105 132 160 203 260 309
#     4  10  17  29  53  82 100 120 170 220 248 282
#     4  10  20  35  51  68  98 141 169 196 258 318
#
# _framework density 17.853981999999998
#
# number of rings (size 3 to 8) (size 9 to 14) (size 15 to 20)
#    0.000    2.667    3.333    2.000    0.000    0.667 
#    0.000    2.500    0.000    0.000    0.000    0.000 
#    0.000    0.000    0.000    0.000    0.000    0.000 
#
# Total GULP energy -133668.598024 kJ/mol
# GULP energy per Si atom -5569.524918 kJ/mol
# Density = 1.781335 g / cm^3
# Si number density = 17.853982 Si / 1000 Ang^3
#
#
#
# Elastic Constant Matrix: (Units=GPa)
#
#
# Indices 1 2 3 4 5 6 
#
# 1 109.2425 51.9286 13.9165 0.0000 -24.6565 0.0000
# 2 51.9286 103.3467 6.5269 0.0000 -12.0571 0.0000
# 3 13.9165 6.5269 25.6940 0.0000 -18.6291 0.0000
# 4 0.0000 0.0000 0.0000 5.4862 0.0000 -2.6278
# 5 -24.6565 -12.0571 -18.6291 0.0000 22.0868 0.0000
# 6 0.0000 0.0000 0.0000 -2.6278 0.0000 27.0707
#
#
#
# Elastic Compliance Matrix: (Units=1/GPa)
#
#
# Indices 1 2 3 4 5 6 
#
# 1 0.015766 -0.005940 0.008700 0.000000 0.021695 0.000000
# 2 -0.005940 0.012716 0.000546 0.000000 0.000771 0.000000
# 3 0.008700 0.000546 0.106382 0.000000 0.099738 0.000000
# 4 0.000000 0.000000 0.000000 0.191162 0.000000 0.018556
# 5 0.021695 0.000771 0.099738 0.000000 0.154040 0.000000
# 6 0.000000 0.000000 0.000000 0.018556 0.000000 0.038742
#
#
# Mechanical properties :
#
#
# Convention : Reuss Voigt Hill
#
# Bulk Modulus (GPa) = 7.06835 42.55860 24.81347
# Shear Modulus (GPa) = 8.93884 21.98949 15.46416
#
# Velocity S-wave (km/s) = 2.23998 3.51327 2.94623
# Velocity P-wave (km/s) = 3.26459 6.35186 5.04994
#
# Compressibility (1/GPa) = 0.14147580
#
# Stress axis : x y z
#
# Youngs Moduli (GPa) = 63.42685 78.63815 9.40005
#
# Poissons Ratio (x) = 0.46714 -0.08178
# Poissons Ratio (y) = 0.37678 -0.00513
# Poissons Ratio (z) = -0.55178 -0.04295
#
# Static dielectric constant tensor:
#      x y z
#    x 1.638100 0.000000 -0.016660 
#    y 0.000000 1.600470 0.000000 
#    z -0.016660 0.000000 1.599710 
# 
# From -- ./inp_files/189782.got.cif
#   From: 2010.05.17/outbox.cif.g08.bks.cpg/sg15_95_cif.got.tgz:189782.got - 2010.06.03 18:47:42.
