data_PCOD9255650
_publ_section_title
;
Structure prediction by ZEFSAII (Michael W. Deem and Ramdas Pophale) SiO2 
 PCOD9255650
Probable space group: C 2/C
;
_chemical_formula_sum "Si O2"
_cell_formula_units_Z 48
_cell_length_a 21.425705
_cell_length_b 18.107506
_cell_length_c 16.056401
_cell_angle_alpha 90.000000
_cell_angle_beta 153.374591
_cell_angle_gamma 90.000000
_cell_volume 2791.712995
_symmetry_space_group_name_H-M "C 2/C"
_symmetry_group_IT_number 15
_symmetry_cell_setting 'monoclinic'
loop_
_space_group_symop_operation_xyz
x,y,z
-x,y,1/2-z
-x,-y,-z
x,-y,1/2+z
1/2+x,1/2+y,z
1/2-x,1/2+y,1/2-z
1/2-x,1/2-y,-z
1/2+x,1/2-y,1/2+z
loop_
_atom_site_type_symbol
_atom_site_label
_atom_site_fract_x
_atom_site_fract_y
_atom_site_fract_z
Si Si1 0.365426 0.869881 0.200776
Si Si2 0.900343 0.983260 0.302850
Si Si3 0.851660 0.246416 0.324633
Si Si4 0.130289 0.832495 0.154936
Si Si5 0.179857 0.387214 0.545393
Si Si6 0.916732 0.915944 0.574951
O O1 0.356149 0.797313 0.247115
O O2 0.523627 0.898458 0.392600
O O3 0.332647 0.857750 0.064390
O O4 0.243830 0.923326 0.090399
O O5 0.857891 0.898735 0.265015
O O6 0.768800 0.037836 0.149247
O O7 0.000000 0.000000 0.500000
O O8 0.996489 0.010052 0.341253
O O9 0.772441 0.291550 0.301719
O O10 0.761694 0.173684 0.196253
O O11 0.006962 0.222361 0.532475
O O12 0.081796 0.867397 0.007365
O O13 0.000000 0.877649 0.750000
#
# Coordination Sequence:
#
# PCOD9255650 Si02
#       6
#     8   8   8   8   8   8
#     4  10  21  29  48  81 105 135 169 215 260 317
#     4  10  19  34  51  71 106 146 176 212 246 316
#     4  11  18  33  47  73 108 145 170 203 256 314
#     4  10  21  32  51  74 108 140 180 206 256 311
#     4  11  19  32  49  74 114 136 171 212 264 304
#     4  10  17  32  51  74 102 134 175 209 254 313
#
# _framework density 17.193745
#
# number of rings (size 3 to 8) (size 9 to 14) (size 15 to 20)
#    0.000    1.667    6.667    0.500    0.000    1.333 
#    0.000    9.167    0.000    0.000    0.000    1.167 
#    0.000    0.000    0.000    0.000    0.000    0.000 
#
# Total GULP energy -133715.338650 kJ/mol
# GULP energy per Si atom -5571.472444 kJ/mol
# Density = 1.715461 g / cm^3
# Si number density = 17.193745 Si / 1000 Ang^3
#
#
#
# Elastic Constant Matrix: (Units=GPa)
#
#
# Indices 1 2 3 4 5 6 
#
# 1 67.5670 41.4009 35.7868 0.0000 41.8495 0.0000
# 2 41.4009 89.2209 31.6203 0.0000 25.8125 0.0000
# 3 35.7868 31.6203 68.1741 0.0000 37.7889 0.0000
# 4 0.0000 0.0000 0.0000 21.7042 0.0000 3.2208
# 5 41.8495 25.8125 37.7889 0.0000 38.2923 0.0000
# 6 0.0000 0.0000 0.0000 3.2208 0.0000 16.5732
#
#
#
# Elastic Compliance Matrix: (Units=1/GPa)
#
#
# Indices 1 2 3 4 5 6 
#
# 1 0.055698 -0.011272 0.012186 0.000000 -0.065299 0.000000
# 2 -0.011272 0.016446 -0.005286 0.000000 0.006450 0.000000
# 3 0.012186 -0.005286 0.035609 0.000000 -0.044896 0.000000
# 4 0.000000 0.000000 0.000000 0.047442 0.000000 -0.009220
# 5 -0.065299 0.006450 -0.044896 0.000000 0.137438 0.000000
# 6 0.000000 0.000000 0.000000 -0.009220 0.000000 0.062130
#
#
# Mechanical properties :
#
#
# Convention : Reuss Voigt Hill
#
# Bulk Modulus (GPa) = 10.10013 49.17533 29.63773
# Shear Modulus (GPa) = 12.61004 23.05756 17.83380
#
# Velocity S-wave (km/s) = 2.71109 3.66600 3.22409
# Velocity P-wave (km/s) = 3.96069 6.82512 5.57984
#
# Compressibility (1/GPa) = 0.09900859
#
# Stress axis : x y z
#
# Youngs Moduli (GPa) = 17.95411 60.80439 28.08292
#
# Poissons Ratio (x) = 0.68540 -0.34222
# Poissons Ratio (y) = 0.20238 0.14844
# Poissons Ratio (z) = -0.21879 0.32140
#
# Static dielectric constant tensor:
#      x y z
#    x 1.615090 0.000000 0.021970 
#    y 0.000000 1.602570 0.000000 
#    z 0.021970 0.000000 1.583620 
# 
# From -- ./inp_files/62382.got.cif
#   From: 2010.05.17/outbox.cif.g08.bks.cpg/sg15_32_cif.got.tgz:62382.got - 2010.06.03 18:47:42.
