data_PCOD9255682
_publ_section_title
;
Structure prediction by ZEFSAII (Michael W. Deem and Ramdas Pophale) SiO2 
 PCOD9255682
Probable space group: C 2/C
;
_chemical_formula_sum "Si O2"
_cell_formula_units_Z 56
_cell_length_a 10.583950
_cell_length_b 21.277885
_cell_length_c 13.465404
_cell_angle_alpha 90.000000
_cell_angle_beta 110.015553
_cell_angle_gamma 90.000000
_cell_volume 2849.302209
_symmetry_space_group_name_H-M "C 2/C"
_symmetry_group_IT_number 15
_symmetry_cell_setting 'monoclinic'
loop_
_space_group_symop_operation_xyz
x,y,z
-x,y,1/2-z
-x,-y,-z
x,-y,1/2+z
1/2+x,1/2+y,z
1/2-x,1/2+y,1/2-z
1/2-x,1/2-y,-z
1/2+x,1/2-y,1/2+z
loop_
_atom_site_type_symbol
_atom_site_label
_atom_site_fract_x
_atom_site_fract_y
_atom_site_fract_z
Si Si1 0.815414 0.409890 0.599563
Si Si2 0.500000 0.982376 0.250000
Si Si3 0.706357 0.429509 0.861068
Si Si4 0.639855 0.804220 0.589096
Si Si5 0.500000 0.191077 0.250000
Si Si6 0.950645 0.888561 0.878990
Si Si7 0.111082 0.544884 0.580018
Si Si8 0.439256 0.251020 0.633409
O O1 0.654776 0.406586 0.565042
O O2 0.856936 0.405206 0.495823
O O3 0.886037 0.471117 0.670663
O O4 0.879480 0.352385 0.676708
O O5 0.440019 0.941654 0.323496
O O6 0.826825 0.378679 0.896127
O O7 0.599422 0.418137 0.920308
O O8 0.626874 0.413328 0.739478
O O9 0.760926 0.499225 0.874997
O O10 0.562677 0.779556 0.666395
O O11 0.564511 0.790118 0.466338
O O12 0.786598 0.772124 0.618221
O O13 0.977902 0.814621 0.870364
O O14 0.000000 0.500000 0.500000
O O15 0.500000 0.222724 0.750000
#
# Coordination Sequence:
#
# PCOD9255682 Si02
#       8
#     8   4   8   8   4   8   8   8
#     4  10  18  30  53  76 103 138 182 223 258 325
#     4   9  16  30  44  72 106 134 170 222 264 310
#     4  10  17  32  53  77 107 142 180 219 274 323
#     4  10  19  31  58  81 107 143 182 227 276 332
#     4  11  18  34  54  80 102 140 184 222 270 324
#     4  10  17  32  55  78 106 140 181 226 265 336
#     4  10  19  29  51  79 103 139 182 221 266 315
#     4  10  18  34  55  84 108 138 182 229 278 332
#
# _framework density 19.653935000000001
#
# number of rings (size 3 to 8) (size 9 to 14) (size 15 to 20)
#    0.000    2.000    5.714    1.714    0.000    0.571 
#    0.000    2.857   15.714    0.000    7.429    0.000 
#    0.000    0.000    0.000    0.000    0.000    0.000 
#
# Total GULP energy -156046.161638 kJ/mol
# GULP energy per Si atom -5573.077201 kJ/mol
# Density = 1.960920 g / cm^3
# Si number density = 19.653935 Si / 1000 Ang^3
#
#
#
# Elastic Constant Matrix: (Units=GPa)
#
#
# Indices 1 2 3 4 5 6 
#
# 1 122.2797 9.6340 41.4341 0.0000 -31.8612 0.0000
# 2 9.6340 15.5134 19.9427 0.0000 -2.0906 0.0000
# 3 41.4341 19.9427 125.3503 0.0000 -28.0748 0.0000
# 4 0.0000 0.0000 0.0000 -25.4550 0.0000 8.8620
# 5 -31.8612 -2.0906 -28.0748 0.0000 40.8383 0.0000
# 6 0.0000 0.0000 0.0000 8.8620 0.0000 13.8648
#
#
#
# Elastic Compliance Matrix: (Units=1/GPa)
#
#
# Indices 1 2 3 4 5 6 
#
# 1 0.010859 -0.004097 -0.001285 0.000000 0.007379 0.000000
# 2 -0.004097 0.083667 -0.013845 0.000000 -0.008432 0.000000
# 3 -0.001285 -0.013845 0.012082 0.000000 0.006595 0.000000
# 4 0.000000 0.000000 0.000000 -0.032134 0.000000 0.020539
# 5 0.007379 -0.008432 0.006595 0.000000 0.034346 0.000000
# 6 0.000000 0.000000 0.000000 0.020539 0.000000 0.058997
#
#
# Mechanical properties :
#
#
# Convention : Reuss Voigt Hill
#
# Bulk Modulus (GPa) = 14.67284 45.01832 29.84558
# Shear Modulus (GPa) = 21.83517 18.65845 20.24681
#
# Velocity S-wave (km/s) = 3.33676 3.08449 3.21310
# Velocity P-wave (km/s) = 4.72515 5.96998 5.38367
#
# Compressibility (1/GPa) = 0.06815313
#
# Stress axis : x y z
#
# Youngs Moduli (GPa) = 92.09157 11.95216 82.76724
#
# Poissons Ratio (x) = 0.04897 0.10634
# Poissons Ratio (y) = 0.37734 1.14592
# Poissons Ratio (z) = 0.11832 0.16548
#
# Static dielectric constant tensor:
#      x y z
#    x 1.800180 0.000000 -0.037080 
#    y 0.000000 1.695670 0.000000 
#    z -0.037080 0.000000 1.711020 
# 
# From -- ./inp_files/147708.got.cif
#   From: 2010.05.17/outbox.cif.g08.bks.cpg/sg15_74_cif.got.tgz:147708.got - 2010.06.03 18:47:42.
