data_PCOD9255243
_publ_section_title
;
Structure prediction by ZEFSAII (Michael W. Deem and Ramdas Pophale) SiO2 
 PCOD9255243
Probable space group: C 2/C
;
_chemical_formula_sum "Si O2"
_cell_formula_units_Z 48
_cell_length_a 25.451696
_cell_length_b 5.563803
_cell_length_c 13.491347
_cell_angle_alpha 90.000000
_cell_angle_beta 104.410095
_cell_angle_gamma 90.000000
_cell_volume 1850.380508
_symmetry_space_group_name_H-M "C 2/C"
_symmetry_group_IT_number 15
_symmetry_cell_setting 'monoclinic'
loop_
_space_group_symop_operation_xyz
x,y,z
-x,y,1/2-z
-x,-y,-z
x,-y,1/2+z
1/2+x,1/2+y,z
1/2-x,1/2+y,1/2-z
1/2-x,1/2-y,-z
1/2+x,1/2-y,1/2+z
loop_
_atom_site_type_symbol
_atom_site_label
_atom_site_fract_x
_atom_site_fract_y
_atom_site_fract_z
Si Si1 0.635833 0.844781 0.234789
Si Si2 0.452553 0.687899 0.002088
Si Si3 0.301890 0.133671 0.934362
Si Si4 0.810895 0.850360 0.228588
Si Si5 0.329648 0.626525 0.974697
Si Si6 0.025643 0.477698 0.667782
O O1 0.648071 0.846898 0.121330
O O2 0.661250 0.601184 0.289573
O O3 0.660397 0.097721 0.284271
O O4 0.571703 0.837396 0.222931
O O5 0.394619 0.605689 0.014404
O O6 0.442673 0.802608 0.889950
O O7 0.500000 0.500000 0.000000
O O8 0.478822 0.888616 0.085066
O O9 0.250426 0.140406 0.837798
O O10 0.303698 0.377760 0.998761
O O11 0.309131 0.887957 0.998192
O O12 0.812979 0.860502 0.349871
O O13 0.000000 0.350928 0.750000
#
# Coordination Sequence:
#
# PCOD9255243 Si02
#       6
#     8   8   8   8   8   8
#     4  10  18  33  51  83 124 157 209 263 308 384
#     4  11  23  41  65  91 131 172 220 277 322 390
#     4  10  17  29  52  89 122 156 207 266 318 377
#     4  10  17  29  53  86 123 158 206 269 316 375
#     4  10  18  30  52  83 123 154 203 265 311 378
#     4  11  25  42  63  94 132 177 221 270 331 393
#
# _framework density 25.940614
#
# number of rings (size 3 to 8) (size 9 to 14) (size 15 to 20)
#    0.000    1.667    3.333    7.000    2.333    0.667 
#    0.000    0.000    0.000    0.000    0.000   12.833 
#    0.000    0.000    0.000    0.000    0.000    0.000 
#
# Total GULP energy -134428.621278 kJ/mol
# GULP energy per Si atom -5601.192553 kJ/mol
# Density = 2.588157 g / cm^3
# Si number density = 25.940614 Si / 1000 Ang^3
#
#
#
# Elastic Constant Matrix: (Units=GPa)
#
#
# Indices 1 2 3 4 5 6 
#
# 1 80.7772 13.6576 31.2980 0.0000 15.0467 0.0000
# 2 13.6576 204.6894 32.8263 0.0000 16.3092 0.0000
# 3 31.2980 32.8263 54.1340 0.0000 -0.1596 0.0000
# 4 0.0000 0.0000 0.0000 37.1185 0.0000 12.3063
# 5 15.0467 16.3092 -0.1596 0.0000 42.0470 0.0000
# 6 0.0000 0.0000 0.0000 12.3063 0.0000 42.3472
#
#
#
# Elastic Compliance Matrix: (Units=1/GPa)
#
#
# Indices 1 2 3 4 5 6 
#
# 1 0.017691 0.001114 -0.010924 0.000000 -0.006804 0.000000
# 2 0.001114 0.005676 -0.004093 0.000000 -0.002616 0.000000
# 3 -0.010924 -0.004093 0.027287 0.000000 0.005600 0.000000
# 4 0.000000 0.000000 0.000000 0.029813 0.000000 -0.008664
# 5 -0.006804 -0.002616 0.005600 0.000000 0.027254 0.000000
# 6 0.000000 0.000000 0.000000 -0.008664 0.000000 0.026132
#
#
# Mechanical properties :
#
#
# Convention : Reuss Voigt Hill
#
# Bulk Modulus (GPa) = 43.76883 55.01827 49.39355
# Shear Modulus (GPa) = 29.53745 41.75712 35.64729
#
# Velocity S-wave (km/s) = 3.37806 4.01648 3.71103
# Velocity P-wave (km/s) = 5.66784 6.53949 6.11920
#
# Compressibility (1/GPa) = 0.02284731
#
# Stress axis : x y z
#
# Youngs Moduli (GPa) = 56.52441 176.17960 36.64735
#
# Poissons Ratio (x) = -0.19619 0.40033
# Poissons Ratio (y) = -0.06294 0.15001
# Poissons Ratio (z) = 0.61746 0.72118
#
# Static dielectric constant tensor:
#      x y z
#    x 1.991410 0.000000 -0.010750 
#    y 0.000000 2.133070 0.000000 
#    z -0.010750 0.000000 2.054940 
# 
# From -- ./inp_files/221008.got.cif
#   From: 2010.05.17/outbox.cif.g08.bks.cpg/sg15_111_cif.got.tgz:221008.got - 2010.06.03 18:47:42.
