data_PCOD9255124
_publ_section_title
;
Structure prediction by ZEFSAII (Michael W. Deem and Ramdas Pophale) SiO2 
 PCOD9255124
Probable space group: C 2/C
;
_chemical_formula_sum "Si O2"
_cell_formula_units_Z 64
_cell_length_a 11.380945
_cell_length_b 13.949629
_cell_length_c 19.330751
_cell_angle_alpha 90.000000
_cell_angle_beta 48.098019
_cell_angle_gamma 90.000000
_cell_volume 2284.183507
_symmetry_space_group_name_H-M "C 2/C"
_symmetry_group_IT_number 15
_symmetry_cell_setting 'monoclinic'
loop_
_space_group_symop_operation_xyz
x,y,z
-x,y,1/2-z
-x,-y,-z
x,-y,1/2+z
1/2+x,1/2+y,z
1/2-x,1/2+y,1/2-z
1/2-x,1/2-y,-z
1/2+x,1/2-y,1/2+z
loop_
_atom_site_type_symbol
_atom_site_label
_atom_site_fract_x
_atom_site_fract_y
_atom_site_fract_z
Si Si1 0.888171 0.813864 0.659524
Si Si2 0.982650 0.034236 0.642539
Si Si3 0.295287 0.741516 0.400806
Si Si4 0.800456 0.146525 0.049213
Si Si5 0.541811 0.177501 0.314671
Si Si6 0.711152 0.033626 0.426291
Si Si7 0.826354 0.557474 0.893203
Si Si8 0.637898 0.962470 0.319819
O O1 0.875778 0.790830 0.581684
O O2 0.716863 0.778604 0.753575
O O3 0.018943 0.778808 0.662115
O O4 0.940860 0.926155 0.633751
O O5 0.068852 0.105804 0.554895
O O6 0.813700 0.067622 0.734855
O O7 0.115469 0.013496 0.647348
O O8 0.250000 0.750000 0.500000
O O9 0.216975 0.645398 0.401296
O O10 0.246749 0.847410 0.394923
O O11 0.635055 0.190858 0.083642
O O12 0.730047 0.045364 0.111136
O O13 0.500000 0.190266 0.250000
O O14 0.594726 0.070630 0.314426
O O15 0.694890 0.040387 0.515440
O O16 0.613626 0.966530 0.412286
O O17 0.009551 0.586168 0.822451
#
# Coordination Sequence:
#
# PCOD9255124 Si02
#       8
#     8   8   8   8   8   8   8   8
#     4   9  16  29  51  72  98 140 175 205 260 329
#     4   9  17  26  44  72 101 129 170 216 256 297
#     4   9  18  32  50  78 109 134 164 212 271 320
#     4   9  16  29  50  75  99 132 177 219 255 307
#     4   8  16  29  48  73  94 124 178 223 249 298
#     4   9  17  30  48  71  99 137 171 199 250 324
#     4   9  18  31  50  78 105 129 166 221 267 300
#     4  10  17  28  49  73 101 135 173 213 254 311
#
# _framework density 28.018764000000001
#
# number of rings (size 3 to 8) (size 9 to 14) (size 15 to 20)
#    0.000    3.000    0.000    1.875    0.000    0.000 
#    0.000    0.000    0.000   66.000    0.000   56.875 
#    0.000    0.000    0.000    0.000    0.000    0.000 
#
# Total GULP energy -178232.332039 kJ/mol
# GULP energy per Si atom -5569.760376 kJ/mol
# Density = 2.795499 g / cm^3
# Si number density = 28.018764 Si / 1000 Ang^3
#
#
#
# Elastic Constant Matrix: (Units=GPa)
#
#
# Indices 1 2 3 4 5 6 
#
# 1 102.3732 18.2072 27.7030 0.0000 0.6517 0.0000
# 2 18.2072 96.0532 0.4807 0.0000 0.6232 0.0000
# 3 27.7030 0.4807 132.6109 0.0000 -12.4470 0.0000
# 4 0.0000 0.0000 0.0000 0.6124 0.0000 -4.8895
# 5 0.6517 0.6232 -12.4470 0.0000 46.3713 0.0000
# 6 0.0000 0.0000 0.0000 -4.8895 0.0000 -7.1963
#
#
#
# Elastic Compliance Matrix: (Units=1/GPa)
#
#
# Indices 1 2 3 4 5 6 
#
# 1 0.010758 -0.002023 -0.002310 0.000000 -0.000744 0.000000
# 2 -0.002023 0.010793 0.000382 0.000000 -0.000014 0.000000
# 3 -0.002310 0.000382 0.008232 0.000000 0.002237 0.000000
# 4 0.000000 0.000000 0.000000 0.254157 0.000000 -0.172686
# 5 -0.000744 -0.000014 0.002237 0.000000 0.022176 0.000000
# 6 0.000000 0.000000 0.000000 -0.172686 0.000000 -0.021629
#
#
# Mechanical properties :
#
#
# Convention : Reuss Voigt Hill
#
# Bulk Modulus (GPa) = 45.70124 47.09097 46.39611
# Shear Modulus (GPa) = 16.68439 26.93391 21.80915
#
# Velocity S-wave (km/s) = 2.44288 3.10382 2.79297
# Velocity P-wave (km/s) = 4.92983 5.44870 5.19575
#
# Compressibility (1/GPa) = 0.02188124
#
# Stress axis : x y z
#
# Youngs Moduli (GPa) = 92.95638 92.65691 121.47758
#
# Poissons Ratio (x) = 0.18742 0.28059
# Poissons Ratio (y) = 0.18803 -0.04642
# Poissons Ratio (z) = 0.21471 -0.03541
#
# Static dielectric constant tensor:
#      x y z
#    x 2.245750 0.000000 -0.220600 
#    y 0.000000 2.231880 0.000000 
#    z -0.220600 0.000000 2.654660 
# 
# From -- ./inp_files/239790.got.cif
#   From: 2010.05.17/outbox.cif.g08.bks.cpg/sg15_120_cif.got.tgz:239790.got - 2010.06.03 18:47:42.
