data_PCOD9255225
_publ_section_title
;
Structure prediction by ZEFSAII (Michael W. Deem and Ramdas Pophale) SiO2 
 PCOD9255225
Probable space group: C 2/C
;
_chemical_formula_sum "Si O2"
_cell_formula_units_Z 56
_cell_length_a 12.846032
_cell_length_b 30.060150
_cell_length_c 10.173806
_cell_angle_alpha 90.000000
_cell_angle_beta 69.684410
_cell_angle_gamma 90.000000
_cell_volume 3684.268527
_symmetry_space_group_name_H-M "C 2/C"
_symmetry_group_IT_number 15
_symmetry_cell_setting 'monoclinic'
loop_
_space_group_symop_operation_xyz
x,y,z
-x,y,1/2-z
-x,-y,-z
x,-y,1/2+z
1/2+x,1/2+y,z
1/2-x,1/2+y,1/2-z
1/2-x,1/2-y,-z
1/2+x,1/2-y,1/2+z
loop_
_atom_site_type_symbol
_atom_site_label
_atom_site_fract_x
_atom_site_fract_y
_atom_site_fract_z
Si Si1 0.952478 0.274606 0.124349
Si Si2 0.904650 0.908302 0.179144
Si Si3 0.097591 0.734328 0.314600
Si Si4 0.579833 0.505342 0.340351
Si Si5 0.688831 0.311290 0.895812
Si Si6 0.276174 0.678859 0.806981
Si Si7 0.436699 0.397571 0.640131
O O1 0.895413 0.228024 0.107047
O O2 0.853027 0.310439 0.159306
O O3 0.000000 0.272339 0.250000
O O4 0.047599 0.281816 0.974189
O O5 0.817298 0.869584 0.246040
O O6 0.000000 0.906382 0.250000
O O7 0.855753 0.958627 0.198917
O O8 0.969718 0.900116 0.014594
O O9 0.193559 0.702666 0.216589
O O10 0.152272 0.783401 0.299893
O O11 0.000000 0.736504 0.250000
O O12 0.500000 0.507206 0.250000
O O13 0.500000 0.500000 0.500000
O O14 0.628225 0.554940 0.329580
O O15 0.643361 0.357202 0.859129
O O16 0.698955 0.314043 0.048998
O O17 0.500000 0.391105 0.750000
#
# Coordination Sequence:
#
# PCOD9255225 Si02
#       7
#     8   8   8   8   8   8   8
#     4  11  23  35  48  73 103 126 161 206 242 276
#     4  10  17  29  51  71  96 130 161 193 238 292
#     4  11  19  34  52  67 100 131 158 204 239 274
#     4   8  16  28  43  68  98 126 151 191 244 288
#     4  11  20  32  52  74  93 133 171 192 237 291
#     4  11  20  32  53  74  92 131 174 193 232 294
#     4  10  19  30  45  72 105 125 155 200 242 287
#
# _framework density 15.199761000000001
#
# number of rings (size 3 to 8) (size 9 to 14) (size 15 to 20)
#    0.000    1.714    4.286    2.571    0.000    3.429 
#    0.000    0.000    0.000    0.000    0.000    2.000 
#    0.000    0.000    0.000    0.000    0.000    0.000 
#
# Total GULP energy -156072.616153 kJ/mol
# GULP energy per Si atom -5574.022005 kJ/mol
# Density = 1.516517 g / cm^3
# Si number density = 15.199761 Si / 1000 Ang^3
#
#
#
# Elastic Constant Matrix: (Units=GPa)
#
#
# Indices 1 2 3 4 5 6 
#
# 1 51.7881 36.1311 31.2904 0.0000 -0.7385 0.0000
# 2 36.1311 132.3751 20.8869 0.0000 -16.4496 0.0000
# 3 31.2904 20.8869 103.6440 0.0000 9.0223 0.0000
# 4 0.0000 0.0000 0.0000 21.0848 0.0000 -1.4241
# 5 -0.7385 -16.4496 9.0223 0.0000 27.1701 0.0000
# 6 0.0000 0.0000 0.0000 -1.4241 0.0000 19.1453
#
#
#
# Elastic Compliance Matrix: (Units=1/GPa)
#
#
# Indices 1 2 3 4 5 6 
#
# 1 0.028269 -0.006712 -0.007100 0.000000 -0.000938 0.000000
# 2 -0.006712 0.010250 -0.000580 0.000000 0.006216 0.000000
# 3 -0.007100 -0.000580 0.012312 0.000000 -0.004633 0.000000
# 4 0.000000 0.000000 0.000000 0.047667 0.000000 0.003546
# 5 -0.000938 0.006216 -0.004633 0.000000 0.042082 0.000000
# 6 0.000000 0.000000 0.000000 0.003546 0.000000 0.052496
#
#
# Mechanical properties :
#
#
# Convention : Reuss Voigt Hill
#
# Bulk Modulus (GPa) = 45.35951 51.60268 48.48110
# Shear Modulus (GPa) = 21.81407 26.77996 24.29701
#
# Velocity S-wave (km/s) = 3.79246 4.20201 4.00248
# Velocity P-wave (km/s) = 7.00600 7.58722 7.30240
#
# Compressibility (1/GPa) = 0.02204609
#
# Stress axis : x y z
#
# Youngs Moduli (GPa) = 35.37470 97.55769 81.21988
#
# Poissons Ratio (x) = 0.65481 0.57668
# Poissons Ratio (y) = 0.23744 0.04714
# Poissons Ratio (z) = 0.25117 0.05663
#
# Static dielectric constant tensor:
#      x y z
#    x 1.477490 0.000000 0.004450 
#    y 0.000000 1.542120 0.000000 
#    z 0.004450 0.000000 1.510870 
# 
# From -- ./inp_files/35153.got.cif
#   From: 2010.05.17/outbox.cif.g08.bks.cpg/sg15_18_cif.got.tgz:35153.got - 2010.06.03 18:47:42.
