data_PCOD9255807
_publ_section_title
;
Structure prediction by ZEFSAII (Michael W. Deem and Ramdas Pophale) SiO2 
 PCOD9255807
Probable space group: C 2/C
;
_chemical_formula_sum "Si O2"
_cell_formula_units_Z 56
_cell_length_a 11.224515
_cell_length_b 19.907709
_cell_length_c 20.657178
_cell_angle_alpha 90.000000
_cell_angle_beta 141.230053
_cell_angle_gamma 90.000000
_cell_volume 2890.476327
_symmetry_space_group_name_H-M "C 2/C"
_symmetry_group_IT_number 15
_symmetry_cell_setting 'monoclinic'
loop_
_space_group_symop_operation_xyz
x,y,z
-x,y,1/2-z
-x,-y,-z
x,-y,1/2+z
1/2+x,1/2+y,z
1/2-x,1/2+y,1/2-z
1/2-x,1/2-y,-z
1/2+x,1/2-y,1/2+z
loop_
_atom_site_type_symbol
_atom_site_label
_atom_site_fract_x
_atom_site_fract_y
_atom_site_fract_z
Si Si1 0.697488 0.942790 0.697853
Si Si2 0.811944 0.056690 0.644927
Si Si3 0.731296 0.982262 0.336788
Si Si4 0.959882 0.636268 0.548477
Si Si5 0.728167 0.696320 0.337301
Si Si6 0.225415 0.497282 0.478334
Si Si7 0.830922 0.336827 0.231097
O O1 0.722483 0.866432 0.687686
O O2 0.476984 0.964136 0.608356
O O3 0.783714 0.990887 0.678460
O O4 0.779998 0.963109 0.802860
O O5 0.621215 0.099511 0.573701
O O6 0.838541 0.033341 0.583021
O O7 0.000000 0.093131 0.750000
O O8 0.500000 0.983428 0.250000
O O9 0.771169 0.908262 0.324071
O O10 0.806168 0.994975 0.440579
O O11 0.836782 0.684450 0.451097
O O12 0.824394 0.578009 0.519645
O O13 0.071887 0.665743 0.657324
O O14 0.500000 0.694407 0.250000
O O15 0.781614 0.768600 0.330442
O O16 0.000000 0.337403 0.250000
#
# Coordination Sequence:
#
# PCOD9255807 Si02
#       7
#     8   8   8   8   8   8   8
#     4  10  17  33  54  85 111 140 180 237 280 328
#     4  11  20  32  58  84 110 144 197 232 270 330
#     4   9  16  32  57  82 110 148 186 220 288 340
#     4  11  19  37  57  78 111 153 185 226 283 333
#     4  11  23  33  56  89 116 142 186 232 279 340
#     4  10  17  32  60  82 109 146 186 229 285 333
#     4  10  19  35  55  83 113 152 181 223 287 350
#
# _framework density 19.373968999999999
#
# number of rings (size 3 to 8) (size 9 to 14) (size 15 to 20)
#    0.000    1.714    8.571    1.286    0.000    2.286 
#    0.000    0.714    6.286    3.429    0.000    0.000 
#    0.000    0.000    0.000    0.000    0.000    0.000 
#
# Total GULP energy -156266.396133 kJ/mol
# GULP energy per Si atom -5580.942719 kJ/mol
# Density = 1.932987 g / cm^3
# Si number density = 19.373969 Si / 1000 Ang^3
#
#
#
# Elastic Constant Matrix: (Units=GPa)
#
#
# Indices 1 2 3 4 5 6 
#
# 1 71.5400 30.5050 55.8173 0.0000 -19.5409 0.0000
# 2 30.5050 64.1171 19.5440 0.0000 -29.4991 0.0000
# 3 55.8173 19.5440 124.2742 0.0001 -47.0716 0.0000
# 4 0.0000 0.0000 0.0001 27.5245 0.0000 -2.7041
# 5 -19.5409 -29.4991 -47.0716 0.0000 44.3122 0.0000
# 6 0.0000 0.0000 0.0000 -2.7041 0.0000 0.7057
#
#
#
# Elastic Compliance Matrix: (Units=1/GPa)
#
#
# Indices 1 2 3 4 5 6 
#
# 1 0.029508 -0.015972 -0.016465 0.000000 -0.015111 0.000000
# 2 -0.015972 0.032116 0.012639 0.000000 0.027762 0.000000
# 3 -0.016465 0.012639 0.023243 0.000000 0.025843 0.000000
# 4 0.000000 0.000000 0.000000 0.058263 0.000000 0.223245
# 5 -0.015111 0.027762 0.025843 0.000000 0.061838 0.000001
# 6 0.000000 0.000000 0.000000 0.223245 0.000001 2.272389
#
#
# Mechanical properties :
#
#
# Convention : Reuss Voigt Hill
#
# Bulk Modulus (GPa) = 22.08983 52.40710 37.24846
# Shear Modulus (GPa) = 1.97469 24.77950 13.37709
#
# Velocity S-wave (km/s) = 1.01067 3.58020 2.63053
# Velocity P-wave (km/s) = 3.57610 6.64827 5.33798
#
# Compressibility (1/GPa) = 0.04526971
#
# Stress axis : x y z
#
# Youngs Moduli (GPa) = 33.88935 31.13710 43.02366
#
# Poissons Ratio (x) = 0.49733 0.70838
# Poissons Ratio (y) = 0.54129 -0.54377
# Poissons Ratio (z) = 0.55799 -0.39353
#
# Static dielectric constant tensor:
#      x y z
#    x 1.698820 0.000000 0.016560 
#    y 0.000000 1.669870 0.000000 
#    z 0.016560 0.000000 1.752020 
# 
# From -- ./inp_files/240300.got.cif
#   From: 2010.05.17/outbox.cif.g08.bks.cpg/sg15_121_cif.got.tgz:240300.got - 2010.06.03 18:47:42.
