data_PCOD9255678
_publ_section_title
;
Structure prediction by ZEFSAII (Michael W. Deem and Ramdas Pophale) SiO2 
 PCOD9255678
Probable space group: C 2/C
;
_chemical_formula_sum "Si O2"
_cell_formula_units_Z 60
_cell_length_a 13.824434
_cell_length_b 23.238368
_cell_length_c 9.099935
_cell_angle_alpha 90.000000
_cell_angle_beta 97.785856
_cell_angle_gamma 90.000000
_cell_volume 2896.470311
_symmetry_space_group_name_H-M "C 2/C"
_symmetry_group_IT_number 15
_symmetry_cell_setting 'monoclinic'
loop_
_space_group_symop_operation_xyz
x,y,z
-x,y,1/2-z
-x,-y,-z
x,-y,1/2+z
1/2+x,1/2+y,z
1/2-x,1/2+y,1/2-z
1/2-x,1/2-y,-z
1/2+x,1/2-y,1/2+z
loop_
_atom_site_type_symbol
_atom_site_label
_atom_site_fract_x
_atom_site_fract_y
_atom_site_fract_z
Si Si1 0.379506 0.342135 0.536486
Si Si2 0.000000 0.352250 0.250000
Si Si3 0.985816 0.060683 0.573963
Si Si4 0.714557 0.805147 0.287853
Si Si5 0.031747 0.766667 0.422231
Si Si6 0.304481 0.357357 0.028426
Si Si7 0.021388 0.362987 0.588625
Si Si8 0.765229 0.670704 0.273885
O O1 0.434015 0.395492 0.475315
O O2 0.278162 0.323914 0.440322
O O3 0.452431 0.289657 0.521097
O O4 0.339978 0.352838 0.690297
O O5 0.901059 0.314109 0.226041
O O6 0.001867 0.384302 0.413764
O O7 0.000000 0.054980 0.750000
O O8 0.880173 0.090444 0.533286
O O9 0.000000 0.000000 0.500000
O O10 0.752439 0.848826 0.171561
O O11 0.749833 0.739707 0.266335
O O12 0.033919 0.698622 0.421265
O O13 0.000000 0.785682 0.250000
O O14 0.130893 0.799254 0.475956
O O15 0.226437 0.356625 0.884797
O O16 0.136420 0.347316 0.623382
O O17 0.000000 0.389919 0.750000
#
# Coordination Sequence:
#
# PCOD9255678 Si02
#       8
#     8   4   8   8   8   8   8   8
#     4  11  20  37  58  82 124 160 203 262 322 385
#     4  12  24  32  54  76 114 164 212 248 294 360
#     4  11  25  44  70  96 127 164 215 280 341 396
#     4  12  20  39  54  85 124 175 216 253 318 380
#     4  10  17  32  53  74 110 159 201 248 304 373
#     4  11  22  38  60  88 123 168 210 265 329 389
#     4  11  21  35  49  79 116 165 213 254 295 361
#     4  12  23  33  56  86 127 168 216 261 306 394
#
# _framework density 20.714867999999999
#
# number of rings (size 3 to 8) (size 9 to 14) (size 15 to 20)
#    0.000    0.800    5.333    4.800    1.867    2.667 
#    0.000    0.000    0.000    0.000    0.000    0.933 
#    4.000    0.000    0.000    0.000    0.000    0.000 
#
# Total GULP energy -167373.700707 kJ/mol
# GULP energy per Si atom -5579.123357 kJ/mol
# Density = 2.066772 g / cm^3
# Si number density = 20.714868 Si / 1000 Ang^3
#
#
#
# Elastic Constant Matrix: (Units=GPa)
#
#
# Indices 1 2 3 4 5 6 
#
# 1 117.7104 21.2425 11.4811 0.0000 -3.4225 0.0000
# 2 21.2425 57.9361 16.3528 0.0000 -6.6115 0.0000
# 3 11.4811 16.3528 101.1989 0.0000 -3.5104 0.0000
# 4 0.0000 0.0000 0.0000 17.0117 0.0000 -9.6370
# 5 -3.4225 -6.6115 -3.5104 0.0000 43.2441 0.0000
# 6 0.0000 0.0000 0.0000 -9.6370 0.0000 6.1428
#
#
#
# Elastic Compliance Matrix: (Units=1/GPa)
#
#
# Indices 1 2 3 4 5 6 
#
# 1 0.009125 -0.003178 -0.000515 0.000000 0.000194 0.000000
# 2 -0.003178 0.019474 -0.002699 0.000000 0.002507 0.000000
# 3 -0.000515 -0.002699 0.010390 0.000000 0.000390 0.000000
# 4 0.000000 0.000000 0.000000 0.528308 0.000000 0.828826
# 5 0.000194 0.002507 0.000390 0.000000 0.023555 0.000000
# 6 0.000000 0.000000 0.000000 0.828826 0.000000 1.463080
#
#
# Mechanical properties :
#
#
# Convention : Reuss Voigt Hill
#
# Bulk Modulus (GPa) = 38.16283 41.66647 39.91465
# Shear Modulus (GPa) = 2.40912 28.46433 15.43672
#
# Velocity S-wave (km/s) = 1.07959 3.71091 2.73280
# Velocity P-wave (km/s) = 4.47403 6.20637 5.40999
#
# Compressibility (1/GPa) = 0.02620351
#
# Stress axis : x y z
#
# Youngs Moduli (GPa) = 109.59094 51.35159 96.24961
#
# Poissons Ratio (x) = 0.16320 0.04956
# Poissons Ratio (y) = 0.34829 0.25980
# Poissons Ratio (z) = 0.05643 0.13861
#
# Static dielectric constant tensor:
#      x y z
#    x 1.767980 0.000000 -0.019750 
#    y 0.000000 1.675090 0.000000 
#    z -0.019750 0.000000 1.891150 
# 
# From -- ./inp_files/43188.got.cif
#   From: 2010.05.17/outbox.cif.g08.bks.cpg/sg15_22_cif.got.tgz:43188.got - 2010.06.03 18:47:42.
