data_PCOD9255531
_publ_section_title
;
Structure prediction by ZEFSAII (Michael W. Deem and Ramdas Pophale) SiO2 
 PCOD9255531
Probable space group: C 2/C
;
_chemical_formula_sum "Si O2"
_cell_formula_units_Z 40
_cell_length_a 20.225838
_cell_length_b 7.217873
_cell_length_c 18.672462
_cell_angle_alpha 90.000000
_cell_angle_beta 146.065543
_cell_angle_gamma 90.000000
_cell_volume 1521.743794
_symmetry_space_group_name_H-M "C 2/C"
_symmetry_group_IT_number 15
_symmetry_cell_setting 'monoclinic'
loop_
_space_group_symop_operation_xyz
x,y,z
-x,y,1/2-z
-x,-y,-z
x,-y,1/2+z
1/2+x,1/2+y,z
1/2-x,1/2+y,1/2-z
1/2-x,1/2-y,-z
1/2+x,1/2-y,1/2+z
loop_
_atom_site_type_symbol
_atom_site_label
_atom_site_fract_x
_atom_site_fract_y
_atom_site_fract_z
Si Si1 0.611654 0.619209 0.076341
Si Si2 0.305811 0.573301 0.135257
Si Si3 0.341777 0.916482 0.277140
Si Si4 0.957682 0.484231 0.128393
Si Si5 0.436755 0.443690 0.604039
O O1 0.602810 0.815289 0.104683
O O2 0.731600 0.524975 0.211172
O O3 0.500000 0.500000 0.000000
O O4 0.624188 0.585011 0.003486
O O5 0.297632 0.760144 0.177766
O O6 0.428992 0.476255 0.269934
O O7 0.352673 0.600284 0.095925
O O8 0.179359 0.473742 0.012020
O O9 0.433302 0.055414 0.321022
O O10 0.000000 0.497973 0.250000
O O11 0.962128 0.268276 0.106173
#
# Coordination Sequence:
#
# PCOD9255531 Si02
#       5
#     8   8   8   8   8
#     4  12  22  39  58  87 123 160 195 243 296 355
#     4  10  17  31  53  89 111 146 193 247 297 335
#     4  11  22  35  60  85 122 155 197 240 298 354
#     4  11  17  29  54  90 116 137 192 265 298 328
#     4  10  18  28  56  84 114 148 186 247 294 344
#
# _framework density 26.285634000000002
#
# number of rings (size 3 to 8) (size 9 to 14) (size 15 to 20)
#    0.000    1.200   10.000    1.800    0.000    0.000 
#    0.000    4.000    0.000    1.200    0.000    4.200 
#    0.000    0.000    0.000    0.000    0.000    0.000 
#
# Total GULP energy -111473.059420 kJ/mol
# GULP energy per Si atom -5573.652971 kJ/mol
# Density = 2.622581 g / cm^3
# Si number density = 26.285634 Si / 1000 Ang^3
#
#
#
# Elastic Constant Matrix: (Units=GPa)
#
#
# Indices 1 2 3 4 5 6 
#
# 1 124.2890 33.1413 32.5682 0.0000 20.7894 0.0000
# 2 33.1413 65.2519 16.2486 0.0000 3.8934 0.0000
# 3 32.5682 16.2486 113.8561 0.0000 19.2672 0.0000
# 4 0.0000 0.0000 0.0000 2.9474 0.0000 3.8476
# 5 20.7894 3.8934 19.2672 0.0000 62.9331 0.0000
# 6 0.0000 0.0000 0.0000 3.8476 0.0000 10.4732
#
#
#
# Elastic Compliance Matrix: (Units=1/GPa)
#
#
# Indices 1 2 3 4 5 6 
#
# 1 0.010161 -0.004555 -0.001831 0.000000 -0.002514 0.000000
# 2 -0.004555 0.017937 -0.001396 0.000000 0.000822 0.000000
# 3 -0.001831 -0.001396 0.009902 0.000000 -0.002340 0.000000
# 4 0.000000 0.000000 0.000000 0.651959 0.000000 -0.239515
# 5 -0.002514 0.000822 -0.002340 0.000000 0.017386 0.000000
# 6 0.000000 0.000000 0.000000 -0.239515 0.000000 0.183475
#
#
# Mechanical properties :
#
#
# Convention : Reuss Voigt Hill
#
# Bulk Modulus (GPa) = 44.57065 51.92368 48.24717
# Shear Modulus (GPa) = 5.47129 30.03333 17.75231
#
# Velocity S-wave (km/s) = 1.44430 3.38387 2.60159
# Velocity P-wave (km/s) = 4.44684 5.92148 5.23633
#
# Compressibility (1/GPa) = 0.02243629
#
# Stress axis : x y z
#
# Youngs Moduli (GPa) = 98.42011 55.75044 100.98924
#
# Poissons Ratio (x) = 0.25392 0.18491
# Poissons Ratio (y) = 0.44826 0.14100
# Poissons Ratio (z) = 0.18020 0.07784
#
# Static dielectric constant tensor:
#      x y z
#    x 2.190210 0.000000 -0.047180 
#    y 0.000000 2.213800 0.000000 
#    z -0.047180 0.000000 2.256670 
# 
# From -- ./inp_files/255107.got.cif
#   From: 2010.05.17/outbox.cif.g08.bks.cpg/sg15_128_cif.got.tgz:255107.got - 2010.06.03 18:47:42.
