data_PCOD9255547
_publ_section_title
;
Structure prediction by ZEFSAII (Michael W. Deem and Ramdas Pophale) SiO2 
 PCOD9255547
Probable space group: C 2/C
;
_chemical_formula_sum "Si O2"
_cell_formula_units_Z 44
_cell_length_a 14.488577
_cell_length_b 7.082254
_cell_length_c 20.408995
_cell_angle_alpha 90.000000
_cell_angle_beta 45.827544
_cell_angle_gamma 90.000000
_cell_volume 1502.058299
_symmetry_space_group_name_H-M "C 2/C"
_symmetry_group_IT_number 15
_symmetry_cell_setting 'monoclinic'
loop_
_space_group_symop_operation_xyz
x,y,z
-x,y,1/2-z
-x,-y,-z
x,-y,1/2+z
1/2+x,1/2+y,z
1/2-x,1/2+y,1/2-z
1/2-x,1/2-y,-z
1/2+x,1/2-y,1/2+z
loop_
_atom_site_type_symbol
_atom_site_label
_atom_site_fract_x
_atom_site_fract_y
_atom_site_fract_z
Si Si1 0.229918 0.979098 0.087768
Si Si2 0.000000 0.249124 0.250000
Si Si3 0.164094 0.196406 0.740193
Si Si4 0.649561 0.510775 0.483095
Si Si5 0.912876 0.271742 0.581077
Si Si6 0.930714 0.788364 0.660602
O O1 0.236633 0.962387 0.005230
O O2 0.355330 0.062499 0.063358
O O3 0.118984 0.135771 0.157612
O O4 0.165471 0.799458 0.159149
O O5 0.953568 0.354427 0.209218
O O6 0.111806 0.307277 0.829553
O O7 0.313974 0.214985 0.678246
O O8 0.110586 0.986261 0.783696
O O9 0.559428 0.691404 0.513660
O O10 0.674938 0.409855 0.400688
O O11 0.550436 0.347577 0.558047
#
# Coordination Sequence:
#
# PCOD9255547 Si02
#       6
#     8   4   8   8   8   8
#     4  10  18  32  56  79 105 146 191 227 276 341
#     4   8  14  28  48  74  94 126 182 224 248 322
#     4  10  17  31  55  77 103 143 183 226 278 331
#     4   9  20  33  55  82 108 145 187 228 283 345
#     4  10  18  33  55  83 110 140 189 236 278 335
#     4   9  17  30  52  75 102 136 179 225 271 330
#
# _framework density 29.293140000000001
#
# number of rings (size 3 to 8) (size 9 to 14) (size 15 to 20)
#    0.000    2.545    3.636    1.636    0.000    0.000 
#    0.000    0.909    4.000    9.818    0.000    0.000 
#    0.000    0.000    0.000    0.000    0.000    0.000 
#
# Total GULP energy -122474.882670 kJ/mol
# GULP energy per Si atom -5567.040121 kJ/mol
# Density = 2.922647 g / cm^3
# Si number density = 29.293140 Si / 1000 Ang^3
#
#
#
# Elastic Constant Matrix: (Units=GPa)
#
#
# Indices 1 2 3 4 5 6 
#
# 1 144.7797 30.9192 32.3446 0.0000 49.3080 0.0001
# 2 30.9192 94.5937 17.5293 0.0001 18.9837 0.0001
# 3 32.3446 17.5293 92.9236 0.0000 25.1338 0.0000
# 4 0.0000 0.0001 0.0000 21.5850 0.0000 6.4343
# 5 49.3080 18.9837 25.1338 0.0000 61.5313 0.0000
# 6 0.0001 0.0001 0.0000 6.4343 0.0000 44.2525
#
#
#
# Elastic Compliance Matrix: (Units=1/GPa)
#
#
# Indices 1 2 3 4 5 6 
#
# 1 0.009887 -0.001610 -0.001269 0.000000 -0.006908 0.000000
# 2 -0.001610 0.011680 -0.001144 0.000000 -0.001846 0.000000
# 3 -0.001269 -0.001144 0.012421 0.000000 -0.003704 0.000000
# 4 0.000000 0.000000 0.000000 0.048427 0.000000 -0.007041
# 5 -0.006908 -0.001846 -0.003704 0.000000 0.023870 0.000000
# 6 0.000000 0.000000 0.000000 -0.007041 0.000000 0.023621
#
#
# Mechanical properties :
#
#
# Convention : Reuss Voigt Hill
#
# Bulk Modulus (GPa) = 38.54760 54.87589 46.71174
# Shear Modulus (GPa) = 34.10635 42.24070 38.17353
#
# Velocity S-wave (km/s) = 3.41590 3.80149 3.61384
# Velocity P-wave (km/s) = 5.36150 6.16785 5.77876
#
# Compressibility (1/GPa) = 0.02594196
#
# Stress axis : x y z
#
# Youngs Moduli (GPa) = 101.14219 85.61449 80.51007
#
# Poissons Ratio (x) = 0.13786 0.10219
# Poissons Ratio (y) = 0.16286 0.09207
# Poissons Ratio (z) = 0.12838 0.09791
#
# Static dielectric constant tensor:
#      x y z
#    x 2.477860 0.000000 0.083730 
#    y 0.000000 2.335320 0.000000 
#    z 0.083730 0.000000 2.421130 
# 
# From -- ./inp_files/241944.got.cif
#   From: 2010.05.17/outbox.cif.g08.bks.cpg/sg15_121_cif.got.tgz:241944.got - 2010.06.03 18:47:42.
