data_PCOD9255515
_publ_section_title
;
Structure prediction by ZEFSAII (Michael W. Deem and Ramdas Pophale) SiO2 
 PCOD9255515
Probable space group: C 2/C
;
_chemical_formula_sum "Si O2"
_cell_formula_units_Z 56
_cell_length_a 14.377277
_cell_length_b 9.447309
_cell_length_c 24.201429
_cell_angle_alpha 90.000000
_cell_angle_beta 66.064099
_cell_angle_gamma 90.000000
_cell_volume 3004.498056
_symmetry_space_group_name_H-M "C 2/C"
_symmetry_group_IT_number 15
_symmetry_cell_setting 'monoclinic'
loop_
_space_group_symop_operation_xyz
x,y,z
-x,y,1/2-z
-x,-y,-z
x,-y,1/2+z
1/2+x,1/2+y,z
1/2-x,1/2+y,1/2-z
1/2-x,1/2-y,-z
1/2+x,1/2-y,1/2+z
loop_
_atom_site_type_symbol
_atom_site_label
_atom_site_fract_x
_atom_site_fract_y
_atom_site_fract_z
Si Si1 0.998337 0.033467 0.916346
Si Si2 0.422100 0.802730 0.565305
Si Si3 0.428696 0.321131 0.319753
Si Si4 0.486500 0.797428 0.075988
Si Si5 0.417751 0.047504 0.393034
Si Si6 0.720219 0.585831 0.499616
Si Si7 0.721404 0.041440 0.891847
O O1 0.016980 0.867867 0.910668
O O2 0.972918 0.092433 0.861482
O O3 0.899349 0.064536 0.978909
O O4 0.083739 0.138012 0.919144
O O5 0.442245 0.822203 0.495231
O O6 0.521778 0.867957 0.572346
O O7 0.327631 0.891138 0.612005
O O8 0.500000 0.335444 0.250000
O O9 0.424169 0.156664 0.340640
O O10 0.316463 0.388006 0.338085
O O11 0.374484 0.852987 0.087576
O O12 0.528934 0.894625 0.115817
O O13 0.299467 0.028899 0.436334
O O14 0.750000 0.750000 0.500000
O O15 0.743644 0.519915 0.553582
#
# Coordination Sequence:
#
# PCOD9255515 Si02
#       7
#     8   8   8   8   8   8   8
#     4  10  22  32  52  83 119 138 174 220 271 321
#     4  10  17  31  52  83 114 142 165 203 275 346
#     4  10  22  41  57  71  99 149 198 227 260 317
#     4  11  19  32  51  90 117 136 163 223 280 328
#     4  10  18  32  57  76 107 141 184 210 264 331
#     4  11  15  31  51  78 109 144 173 211 262 335
#     4  10  18  32  57  77 104 145 176 214 274 332
#
# _framework density 18.638719999999999
#
# number of rings (size 3 to 8) (size 9 to 14) (size 15 to 20)
#    0.000    1.714    7.143    1.286    0.000    0.571 
#    0.000    5.000    0.000    0.000    0.000    0.000 
#    0.000    0.000    0.000    0.000    0.000    0.000 
#
# Total GULP energy -156082.358166 kJ/mol
# GULP energy per Si atom -5574.369935 kJ/mol
# Density = 1.859630 g / cm^3
# Si number density = 18.638720 Si / 1000 Ang^3
#
#
#
# Elastic Constant Matrix: (Units=GPa)
#
#
# Indices 1 2 3 4 5 6 
#
# 1 56.5754 42.2718 30.2463 0.0000 -15.4997 0.0000
# 2 42.2718 157.5053 29.5440 0.0000 -11.1111 0.0000
# 3 30.2463 29.5440 89.6830 0.0000 -22.2478 0.0000
# 4 0.0000 0.0000 0.0000 12.1316 0.0000 1.8173
# 5 -15.4997 -11.1111 -22.2478 0.0000 18.1467 0.0000
# 6 0.0000 0.0000 0.0000 1.8173 0.0000 21.6584
#
#
#
# Elastic Compliance Matrix: (Units=1/GPa)
#
#
# Indices 1 2 3 4 5 6 
#
# 1 0.028402 -0.005794 -0.003639 0.000000 0.016250 0.000000
# 2 -0.005794 0.008001 -0.000998 0.000000 -0.001272 0.000000
# 3 -0.003639 -0.000998 0.016934 0.000000 0.017042 0.000000
# 4 0.000000 0.000000 0.000000 0.083479 0.000000 -0.007005
# 5 0.016250 -0.001272 0.017042 0.000000 0.089100 0.000000
# 6 0.000000 0.000000 0.000000 -0.007005 0.000000 0.046759
#
#
# Mechanical properties :
#
#
# Convention : Reuss Voigt Hill
#
# Bulk Modulus (GPa) = 30.79130 56.43198 43.61164
# Shear Modulus (GPa) = 16.42787 23.83412 20.13100
#
# Velocity S-wave (km/s) = 2.97203 3.57983 3.29000
# Velocity P-wave (km/s) = 5.32290 6.88690 6.15478
#
# Compressibility (1/GPa) = 0.03247670
#
# Stress axis : x y z
#
# Youngs Moduli (GPa) = 35.20898 124.98038 59.05334
#
# Poissons Ratio (x) = 0.72409 0.21489
# Poissons Ratio (y) = 0.20399 0.05891
# Poissons Ratio (z) = 0.12812 0.12467
#
# Static dielectric constant tensor:
#      x y z
#    x 1.701530 0.000000 0.012210 
#    y 0.000000 1.709600 0.000000 
#    z 0.012210 0.000000 1.620820 
# 
# From -- ./inp_files/272620.got.cif
#   From: 2010.05.17/outbox.cif.g08.bks.cpg/sg15_137_cif.got.tgz:272620.got - 2010.06.03 18:47:42.
