data_PCOD9255802
_publ_section_title
;
Structure prediction by ZEFSAII (Michael W. Deem and Ramdas Pophale) SiO2 
 PCOD9255802
Probable space group: C 2/C
;
_chemical_formula_sum "Si O2"
_cell_formula_units_Z 56
_cell_length_a 20.498079
_cell_length_b 17.400605
_cell_length_c 9.105248
_cell_angle_alpha 90.000000
_cell_angle_beta 115.696541
_cell_angle_gamma 90.000000
_cell_volume 2926.468287
_symmetry_space_group_name_H-M "C 2/C"
_symmetry_group_IT_number 15
_symmetry_cell_setting 'monoclinic'
loop_
_space_group_symop_operation_xyz
x,y,z
-x,y,1/2-z
-x,-y,-z
x,-y,1/2+z
1/2+x,1/2+y,z
1/2-x,1/2+y,1/2-z
1/2-x,1/2-y,-z
1/2+x,1/2-y,1/2+z
loop_
_atom_site_type_symbol
_atom_site_label
_atom_site_fract_x
_atom_site_fract_y
_atom_site_fract_z
Si Si1 0.314082 0.574135 0.116572
Si Si2 0.787735 0.697477 0.412896
Si Si3 0.390356 0.975613 0.806066
Si Si4 0.554159 0.535268 0.671819
Si Si5 0.827878 0.846982 0.312398
Si Si6 0.795552 0.438278 0.461824
Si Si7 0.568419 0.893042 0.379387
O O1 0.274153 0.634696 0.186232
O O2 0.386449 0.531710 0.239109
O O3 0.256441 0.506814 0.035680
O O4 0.325350 0.616122 0.973182
O O5 0.750000 0.750000 0.500000
O O6 0.820389 0.755715 0.325317
O O7 0.855856 0.651778 0.546464
O O8 0.344597 0.921214 0.651393
O O9 0.341880 0.025352 0.872958
O O10 0.425285 0.036019 0.728215
O O11 0.439620 0.925241 0.962792
O O12 0.500000 0.552427 0.750000
O O13 0.500000 0.500000 0.500000
O O14 0.600951 0.611675 0.682676
O O15 0.757358 0.874136 0.153373
O O16 0.500000 0.846655 0.250000
#
# Coordination Sequence:
#
# PCOD9255802 Si02
#       7
#     8   8   8   8   8   8   8
#     4  10  18  34  61  86 116 160 206 259 298 364
#     4  10  20  39  59  91 122 156 207 247 312 380
#     4  10  18  33  60  85 119 145 198 250 294 359
#     4  11  22  38  61  91 126 163 214 261 315 364
#     4  10  20  34  60  90 123 157 207 257 309 361
#     4  10  17  32  59  89 114 152 200 252 300 348
#     4  11  22  38  60  89 120 156 197 253 307 363
#
# _framework density 19.135693
#
# number of rings (size 3 to 8) (size 9 to 14) (size 15 to 20)
#    0.000    1.714    5.714    1.286    0.000    0.000 
#    5.143    0.714    0.000    2.571    0.000    0.000 
#    0.000    0.000    0.000    0.000    0.000    0.000 
#
# Total GULP energy -155984.286668 kJ/mol
# GULP energy per Si atom -5570.867381 kJ/mol
# Density = 1.909214 g / cm^3
# Si number density = 19.135693 Si / 1000 Ang^3
#
#
#
# Elastic Constant Matrix: (Units=GPa)
#
#
# Indices 1 2 3 4 5 6 
#
# 1 103.5424 42.0895 45.0927 0.0000 5.9151 0.0000
# 2 42.0895 84.9939 32.2693 0.0000 10.7243 0.0000
# 3 45.0927 32.2693 126.4026 0.0000 12.0648 0.0000
# 4 0.0000 0.0000 0.0000 12.0533 0.0000 -4.2493
# 5 5.9151 10.7243 12.0648 0.0000 31.4154 0.0000
# 6 0.0000 0.0000 0.0000 -4.2493 0.0000 23.0166
#
#
#
# Elastic Compliance Matrix: (Units=1/GPa)
#
#
# Indices 1 2 3 4 5 6 
#
# 1 0.013297 -0.005362 -0.003436 0.000000 0.000646 0.000000
# 2 -0.005362 0.015526 -0.001704 0.000000 -0.003636 0.000000
# 3 -0.003436 -0.001704 0.009815 0.000000 -0.002540 0.000000
# 4 0.000000 0.000000 0.000000 0.088740 0.000000 0.016383
# 5 0.000646 -0.003636 -0.002540 0.000000 0.033927 0.000000
# 6 0.000000 0.000000 0.000000 0.016383 0.000000 0.046472
#
#
# Mechanical properties :
#
#
# Convention : Reuss Voigt Hill
#
# Bulk Modulus (GPa) = 56.70880 61.53800 59.12340
# Shear Modulus (GPa) = 21.30753 26.32956 23.81855
#
# Velocity S-wave (km/s) = 3.34053 3.71339 3.53188
# Velocity P-wave (km/s) = 6.67670 7.11437 6.89900
#
# Compressibility (1/GPa) = 0.01763395
#
# Stress axis : x y z
#
# Youngs Moduli (GPa) = 75.20485 64.40638 101.88850
#
# Poissons Ratio (x) = 0.34532 0.35014
# Poissons Ratio (y) = 0.40322 0.17361
# Poissons Ratio (z) = 0.25844 0.10975
#
# Static dielectric constant tensor:
#      x y z
#    x 1.712370 0.000000 0.009360 
#    y 0.000000 1.684280 0.000000 
#    z 0.009360 0.000000 1.682560 
# 
# From -- ./inp_files/56729.got.cif
#   From: 2010.05.17/outbox.cif.g08.bks.cpg/sg15_29_cif.got.tgz:56729.got - 2010.06.03 18:47:42.
