data_PCOD9255007
_publ_section_title
;
Structure prediction by ZEFSAII (Michael W. Deem and Ramdas Pophale) SiO2 
 PCOD9255007
Probable space group: C 2/C
;
_chemical_formula_sum "Si O2"
_cell_formula_units_Z 40
_cell_length_a 12.179578
_cell_length_b 8.641328
_cell_length_c 14.066294
_cell_angle_alpha 90.000000
_cell_angle_beta 97.054900
_cell_angle_gamma 90.000000
_cell_volume 1469.236923
_symmetry_space_group_name_H-M "C 2/C"
_symmetry_group_IT_number 15
_symmetry_cell_setting 'monoclinic'
loop_
_space_group_symop_operation_xyz
x,y,z
-x,y,1/2-z
-x,-y,-z
x,-y,1/2+z
1/2+x,1/2+y,z
1/2-x,1/2+y,1/2-z
1/2-x,1/2-y,-z
1/2+x,1/2-y,1/2+z
loop_
_atom_site_type_symbol
_atom_site_label
_atom_site_fract_x
_atom_site_fract_y
_atom_site_fract_z
Si Si1 0.870516 0.369642 0.249678
Si Si2 0.366852 0.397878 0.620997
Si Si3 0.703920 0.462285 0.081126
Si Si4 0.581261 0.781642 0.056177
Si Si5 0.507009 0.718708 0.855909
O O1 0.838307 0.192948 0.214167
O O2 0.802276 0.463623 0.166093
O O3 0.860245 0.392747 0.361362
O O4 0.000000 0.385699 0.250000
O O5 0.280408 0.403113 0.525297
O O6 0.469409 0.295763 0.588667
O O7 0.412792 0.568528 0.645631
O O8 0.660494 0.633990 0.059375
O O9 0.607586 0.357708 0.119535
O O10 0.550820 0.827400 0.945866
O O11 0.500000 0.786352 0.750000
#
# Coordination Sequence:
#
# PCOD9255007 Si02
#       5
#     8   8   8   8   8
#     4  10  17  27  44  68  92 116 145 182 220 262
#     4   8  14  25  43  67  88 106 142 193 231 253
#     4   9  16  26  43  67  91 116 145 182 224 260
#     4   8  16  27  41  66  93 112 143 185 220 258
#     4   9  15  27  45  64  88 116 145 184 224 255
#
# _framework density 27.225017999999999
#
# number of rings (size 3 to 8) (size 9 to 14) (size 15 to 20)
#    0.000    3.200    0.000    6.000    0.000    0.000 
#    0.000    1.000    0.000    1.200    0.000   36.400 
#    0.000    0.000    0.000    0.200    0.000    0.000 
#
# Total GULP energy -111882.442260 kJ/mol
# GULP energy per Si atom -5594.122113 kJ/mol
# Density = 2.716305 g / cm^3
# Si number density = 27.225018 Si / 1000 Ang^3
#
#
#
# Elastic Constant Matrix: (Units=GPa)
#
#
# Indices 1 2 3 4 5 6 
#
# 1 59.9088 13.3439 63.6880 0.0000 15.6267 0.0000
# 2 13.3439 32.0653 45.6609 0.0000 -9.8588 0.0000
# 3 63.6880 45.6609 321.3904 0.0000 23.4785 0.0000
# 4 0.0000 0.0000 0.0000 39.8590 0.0000 -2.6836
# 5 15.6267 -9.8588 23.4785 0.0000 37.7593 0.0000
# 6 0.0000 0.0000 0.0000 -2.6836 0.0000 7.9061
#
#
#
# Elastic Compliance Matrix: (Units=1/GPa)
#
#
# Indices 1 2 3 4 5 6 
#
# 1 0.024621 -0.009864 -0.002666 0.000000 -0.011107 0.000000
# 2 -0.009864 0.052149 -0.007068 0.000000 0.022093 0.000000
# 3 -0.002666 -0.007068 0.004922 0.000000 -0.003802 0.000000
# 4 0.000000 0.000000 0.000000 0.025675 0.000000 0.008715
# 5 -0.011107 0.022093 -0.003802 0.000000 0.039213 0.000000
# 6 0.000000 0.000000 0.000000 0.008715 0.000000 0.129443
#
#
# Mechanical properties :
#
#
# Convention : Reuss Voigt Hill
#
# Bulk Modulus (GPa) = 23.53247 73.19445 48.36346
# Shear Modulus (GPa) = 15.17978 36.48297 25.83138
#
# Velocity S-wave (km/s) = 2.36385 3.66465 3.08362
# Velocity P-wave (km/s) = 4.01408 6.69698 5.52098
#
# Compressibility (1/GPa) = 0.04249448
#
# Stress axis : x y z
#
# Youngs Moduli (GPa) = 40.61634 19.17568 203.17827
#
# Poissons Ratio (x) = 0.18916 0.54169
# Poissons Ratio (y) = 0.40065 1.43611
# Poissons Ratio (z) = 0.10829 0.13554
#
# Static dielectric constant tensor:
#      x y z
#    x 2.151970 0.000000 -0.054870 
#    y 0.000000 2.090890 0.000000 
#    z -0.054870 0.000000 2.174280 
# 
# From -- ./inp_files/142361.got.cif
#   From: 2010.05.17/outbox.cif.g08.bks.cpg/sg15_72_cif.got.tgz:142361.got - 2010.06.03 18:47:42.
