data_PCOD9255490
_publ_section_title
;
Structure prediction by ZEFSAII (Michael W. Deem and Ramdas Pophale) SiO2 
 PCOD9255490
Probable space group: C 2/C
;
_chemical_formula_sum "Si O2"
_cell_formula_units_Z 48
_cell_length_a 7.279953
_cell_length_b 16.066472
_cell_length_c 18.074899
_cell_angle_alpha 90.000000
_cell_angle_beta 105.676075
_cell_angle_gamma 90.000000
_cell_volume 2035.462748
_symmetry_space_group_name_H-M "C 2/C"
_symmetry_group_IT_number 15
_symmetry_cell_setting 'monoclinic'
loop_
_space_group_symop_operation_xyz
x,y,z
-x,y,1/2-z
-x,-y,-z
x,-y,1/2+z
1/2+x,1/2+y,z
1/2-x,1/2+y,1/2-z
1/2-x,1/2-y,-z
1/2+x,1/2-y,1/2+z
loop_
_atom_site_type_symbol
_atom_site_label
_atom_site_fract_x
_atom_site_fract_y
_atom_site_fract_z
Si Si1 0.991521 0.836766 0.962565
Si Si2 0.630923 0.093655 0.465354
Si Si3 0.665408 0.995774 0.322642
Si Si4 0.411623 0.505189 0.606076
Si Si5 0.790100 0.877962 0.720464
Si Si6 0.168967 0.280097 0.586062
O O1 0.075835 0.803395 0.048249
O O2 0.036082 0.931651 0.946400
O O3 0.111485 0.783735 0.916510
O O4 0.765312 0.834982 0.943425
O O5 0.603597 0.022514 0.399232
O O6 0.439518 0.142015 0.465851
O O7 0.753460 0.060204 0.547753
O O8 0.500000 0.958599 0.250000
O O9 0.712686 0.082875 0.286096
O O10 0.879676 0.957137 0.350006
O O11 0.326349 0.456057 0.667775
O O12 0.660116 0.808880 0.669012
O O13 0.000000 0.841321 0.750000
#
# Coordination Sequence:
#
# PCOD9255490 Si02
#       6
#     8   8   8   8   8   8
#     4   9  19  33  51  81 109 137 176 238 279 324
#     4  11  20  35  57  87 110 146 193 241 277 341
#     4  10  17  31  51  80 109 143 187 229 282 331
#     4   9  20  35  54  83 114 140 192 242 280 330
#     4   9  18  33  52  80 107 144 185 235 271 335
#     4  10  19  33  54  80 110 143 185 226 290 330
#
# _framework density 23.581862000000001
#
# number of rings (size 3 to 8) (size 9 to 14) (size 15 to 20)
#    0.000    2.333    1.667    3.500    0.000    2.667 
#    3.000    0.000    0.000    4.000   82.333    0.000 
#    0.000    0.000    0.000    0.000    0.000    0.000 
#
# Total GULP energy -133722.947145 kJ/mol
# GULP energy per Si atom -5571.789464 kJ/mol
# Density = 2.352819 g / cm^3
# Si number density = 23.581862 Si / 1000 Ang^3
#
#
#
# Elastic Constant Matrix: (Units=GPa)
#
#
# Indices 1 2 3 4 5 6 
#
# 1 81.1603 -0.4456 21.0609 0.0000 19.4482 0.0000
# 2 -0.4456 15.6997 32.0652 0.0000 -0.2174 0.0000
# 3 21.0609 32.0652 141.6764 0.0000 21.9642 0.0000
# 4 0.0000 0.0000 0.0000 48.5060 0.0000 7.6649
# 5 19.4482 -0.2174 21.9642 0.0000 41.4185 0.0000
# 6 0.0000 0.0000 0.0000 7.6649 0.0000 18.0073
#
#
#
# Elastic Compliance Matrix: (Units=1/GPa)
#
#
# Indices 1 2 3 4 5 6 
#
# 1 0.014291 0.005550 -0.002555 0.000000 -0.005327 0.000000
# 2 0.005550 0.131449 -0.032991 0.000000 0.015579 0.000000
# 3 -0.002555 -0.032991 0.016067 0.000000 -0.007494 0.000000
# 4 0.000000 0.000000 0.000000 0.022103 0.000000 -0.009408
# 5 -0.005327 0.015579 -0.007494 0.000000 0.030701 0.000000
# 6 0.000000 0.000000 0.000000 -0.009408 0.000000 0.059538
#
#
# Mechanical properties :
#
#
# Convention : Reuss Voigt Hill
#
# Bulk Modulus (GPa) = 9.82171 38.21082 24.01627
# Shear Modulus (GPa) = 13.58408 33.97674 23.78041
#
# Velocity S-wave (km/s) = 2.40269 3.79990 3.17901
# Velocity P-wave (km/s) = 3.44546 5.95743 4.86632
#
# Compressibility (1/GPa) = 0.10181522
#
# Stress axis : x y z
#
# Youngs Moduli (GPa) = 69.97375 7.60750 62.24113
#
# Poissons Ratio (x) = -0.04222 0.15901
# Poissons Ratio (y) = -0.38832 2.05338
# Poissons Ratio (z) = 0.17876 0.25098
#
# Static dielectric constant tensor:
#      x y z
#    x 1.989550 0.000000 0.047970 
#    y 0.000000 1.859650 0.000000 
#    z 0.047970 0.000000 1.980920 
# 
# From -- ./inp_files/191323.got.cif
#   From: 2010.05.17/outbox.cif.g08.bks.cpg/sg15_96_cif.got.tgz:191323.got - 2010.06.03 18:47:42.
