data_PCOD9255390
_publ_section_title
;
Structure prediction by ZEFSAII (Michael W. Deem and Ramdas Pophale) SiO2 
 PCOD9255390
Probable space group: C 2/C
;
_chemical_formula_sum "Si O2"
_cell_formula_units_Z 56
_cell_length_a 12.903458
_cell_length_b 28.458891
_cell_length_c 9.247366
_cell_angle_alpha 90.000000
_cell_angle_beta 109.093894
_cell_angle_gamma 90.000000
_cell_volume 3208.976119
_symmetry_space_group_name_H-M "C 2/C"
_symmetry_group_IT_number 15
_symmetry_cell_setting 'monoclinic'
loop_
_space_group_symop_operation_xyz
x,y,z
-x,y,1/2-z
-x,-y,-z
x,-y,1/2+z
1/2+x,1/2+y,z
1/2-x,1/2+y,1/2-z
1/2-x,1/2-y,-z
1/2+x,1/2-y,1/2+z
loop_
_atom_site_type_symbol
_atom_site_label
_atom_site_fract_x
_atom_site_fract_y
_atom_site_fract_z
Si Si1 0.655141 0.156999 0.653234
Si Si2 0.281811 0.741999 0.679457
Si Si3 0.941088 0.707862 0.439221
Si Si4 0.610972 0.052856 0.599844
Si Si5 0.121480 0.785389 0.850255
Si Si6 0.141808 0.539306 0.953237
Si Si7 0.293666 0.861703 0.999763
O O1 0.767326 0.186213 0.693541
O O2 0.561952 0.190245 0.538778
O O3 0.651919 0.105264 0.584591
O O4 0.641465 0.147065 0.818931
O O5 0.250000 0.750000 0.500000
O O6 0.397703 0.764205 0.779132
O O7 0.193263 0.765831 0.748840
O O8 0.896375 0.742555 0.545839
O O9 0.871334 0.659972 0.412734
O O10 0.636452 0.039309 0.777411
O O11 0.478163 0.052796 0.536513
O O12 0.661206 0.012547 0.522349
O O13 0.000000 0.799857 0.750000
O O14 0.186921 0.829008 0.947618
O O15 0.220692 0.582895 0.027081
#
# Coordination Sequence:
#
# PCOD9255390 Si02
#       7
#     8   8   8   8   8   8   8
#     4  11  18  33  55  74 103 143 179 203 268 316
#     4  11  23  34  45  75 111 134 172 219 263 314
#     4  11  18  33  53  73  98 142 181 211 242 319
#     4   9  18  30  49  71 101 137 167 209 256 319
#     4  11  19  34  56  74 100 139 183 219 253 313
#     4   9  17  31  46  72 103 128 170 214 258 306
#     4  10  17  30  54  77  95 135 183 222 247 304
#
# _framework density 17.451048
#
# number of rings (size 3 to 8) (size 9 to 14) (size 15 to 20)
#    0.000    1.714    5.714    1.286    0.000    0.571 
#    5.143    1.429    0.000    0.000    0.000    4.000 
#    4.286    0.000    0.000    0.000    0.000    0.000 
#
# Total GULP energy -155915.724604 kJ/mol
# GULP energy per Si atom -5568.418736 kJ/mol
# Density = 1.741133 g / cm^3
# Si number density = 17.451048 Si / 1000 Ang^3
#
#
#
# Elastic Constant Matrix: (Units=GPa)
#
#
# Indices 1 2 3 4 5 6 
#
# 1 53.5550 37.1923 27.4620 0.0000 12.4833 0.0000
# 2 37.1923 161.6507 50.5368 0.0000 8.9211 0.0000
# 3 27.4620 50.5368 85.4664 0.0000 8.0047 0.0000
# 4 0.0000 0.0000 0.0000 28.0443 0.0000 4.9498
# 5 12.4833 8.9211 8.0047 0.0000 22.6004 0.0000
# 6 0.0000 0.0000 0.0000 4.9498 0.0000 18.7766
#
#
#
# Elastic Compliance Matrix: (Units=1/GPa)
#
#
# Indices 1 2 3 4 5 6 
#
# 1 0.026693 -0.003884 -0.005216 0.000000 -0.011363 0.000000
# 2 -0.003884 0.008201 -0.003619 0.000000 0.000190 0.000000
# 3 -0.005216 -0.003619 0.015631 0.000000 -0.001227 0.000000
# 4 0.000000 0.000000 0.000000 0.037398 0.000000 -0.009859
# 5 -0.011363 0.000190 -0.001227 0.000000 0.050883 0.000000
# 6 0.000000 0.000000 0.000000 -0.009859 0.000000 0.055857
#
#
# Mechanical properties :
#
#
# Convention : Reuss Voigt Hill
#
# Bulk Modulus (GPa) = 39.86087 59.00604 49.43346
# Shear Modulus (GPa) = 21.88538 26.24965 24.06751
#
# Velocity S-wave (km/s) = 3.54517 3.88259 3.71771
# Velocity P-wave (km/s) = 6.29673 7.34746 6.84229
#
# Compressibility (1/GPa) = 0.02508726
#
# Stress axis : x y z
#
# Youngs Moduli (GPa) = 37.46310 121.94181 63.97372
#
# Poissons Ratio (x) = 0.47357 0.33371
# Poissons Ratio (y) = 0.14549 0.23152
# Poissons Ratio (z) = 0.19542 0.44131
#
# Static dielectric constant tensor:
#      x y z
#    x 1.616330 0.000000 0.001100 
#    y 0.000000 1.625260 0.000000 
#    z 0.001100 0.000000 1.660770 
# 
# From -- ./inp_files/43202.got.cif
#   From: 2010.05.17/outbox.cif.g08.bks.cpg/sg15_22_cif.got.tgz:43202.got - 2010.06.03 18:47:42.
