data_PCOD9255015
_publ_section_title
;
Structure prediction by ZEFSAII (Michael W. Deem and Ramdas Pophale) SiO2 
 PCOD9255015
Probable space group: C 2/C
;
_chemical_formula_sum "Si O2"
_cell_formula_units_Z 60
_cell_length_a 22.415646
_cell_length_b 10.396739
_cell_length_c 15.883513
_cell_angle_alpha 90.000000
_cell_angle_beta 134.146818
_cell_angle_gamma 90.000000
_cell_volume 2656.144001
_symmetry_space_group_name_H-M "C 2/C"
_symmetry_group_IT_number 15
_symmetry_cell_setting 'monoclinic'
loop_
_space_group_symop_operation_xyz
x,y,z
-x,y,1/2-z
-x,-y,-z
x,-y,1/2+z
1/2+x,1/2+y,z
1/2-x,1/2+y,1/2-z
1/2-x,1/2-y,-z
1/2+x,1/2-y,1/2+z
loop_
_atom_site_type_symbol
_atom_site_label
_atom_site_fract_x
_atom_site_fract_y
_atom_site_fract_z
Si Si1 0.318264 0.994797 0.410869
Si Si2 0.132535 0.047976 0.244128
Si Si3 0.017830 0.188602 0.013871
Si Si4 0.000000 0.092353 0.250000
Si Si5 0.587695 0.051254 0.668866
Si Si6 0.879755 0.785854 0.492357
Si Si7 0.964048 0.659916 0.121745
Si Si8 0.212981 0.687651 0.880378
O O1 0.219183 0.971683 0.321941
O O2 0.349549 0.137962 0.467665
O O3 0.349212 0.983547 0.344536
O O4 0.371388 0.895915 0.519489
O O5 0.072112 0.074348 0.105985
O O6 0.171359 0.190994 0.294566
O O7 0.070540 0.022154 0.262282
O O8 0.043376 0.321249 0.088644
O O9 0.922275 0.184376 0.945942
O O10 0.031561 0.211079 0.929439
O O11 0.945585 0.177187 0.130268
O O12 0.640347 0.084354 0.804449
O O13 0.522117 0.943286 0.629029
O O14 0.795360 0.866145 0.417885
O O15 0.000000 0.673520 0.250000
O O16 0.250000 0.750000 0.000000
#
# Coordination Sequence:
#
# PCOD9255015 Si02
#       8
#     8   8   8   4   8   8   8   8
#     4  10  19  31  47  71 102 141 166 200 267 317
#     4   9  19  29  49  69 103 136 170 213 252 314
#     4   9  17  34  45  69 102 134 171 209 254 312
#     4  10  18  26  44  74 104 122 170 212 250 302
#     4  10  19  32  45  72 110 134 162 210 263 327
#     4  10  17  27  45  69 102 131 166 201 259 311
#     4  11  21  28  50  77 108 134 164 211 270 311
#     4  10  19  27  44  76 103 130 167 204 260 318
#
# _framework density 22.589136
#
# number of rings (size 3 to 8) (size 9 to 14) (size 15 to 20)
#    0.000    2.133    4.000    0.800    4.667    0.000 
#    0.000    0.000    0.000    4.000    0.000    0.000 
#    2.000    0.000    0.000    0.000    0.000    0.133 
#
# Total GULP energy -167299.591990 kJ/mol
# GULP energy per Si atom -5576.653066 kJ/mol
# Density = 2.253772 g / cm^3
# Si number density = 22.589136 Si / 1000 Ang^3
#
#
#
# Elastic Constant Matrix: (Units=GPa)
#
#
# Indices 1 2 3 4 5 6 
#
# 1 151.2974 26.4556 56.3660 0.0000 20.3721 0.0000
# 2 26.4556 25.1784 21.4676 0.0000 -2.0048 0.0000
# 3 56.3660 21.4676 142.4599 0.0000 6.6320 0.0000
# 4 0.0000 0.0000 0.0000 20.4454 0.0000 7.0696
# 5 20.3721 -2.0048 6.6320 0.0000 45.3201 0.0000
# 6 0.0000 0.0000 0.0000 7.0696 0.0000 11.4244
#
#
#
# Elastic Compliance Matrix: (Units=1/GPa)
#
#
# Indices 1 2 3 4 5 6 
#
# 1 0.009511 -0.008375 -0.002301 0.000000 -0.004309 0.000000
# 2 -0.008375 0.053367 -0.005048 0.000000 0.006864 0.000000
# 3 -0.002301 -0.005048 0.008712 0.000000 -0.000464 0.000000
# 4 0.000000 0.000000 0.000000 0.062225 0.000000 -0.038506
# 5 -0.004309 0.006864 -0.000464 0.000000 0.024374 0.000000
# 6 0.000000 0.000000 0.000000 -0.038506 0.000000 0.111360
#
#
# Mechanical properties :
#
#
# Convention : Reuss Voigt Hill
#
# Bulk Modulus (GPa) = 24.91085 58.61266 41.76176
# Shear Modulus (GPa) = 15.90441 29.74774 22.82608
#
# Velocity S-wave (km/s) = 2.65632 3.63286 3.18227
# Velocity P-wave (km/s) = 4.52325 6.60306 5.65952
#
# Compressibility (1/GPa) = 0.04014315
#
# Stress axis : x y z
#
# Youngs Moduli (GPa) = 105.13767 18.73807 114.78398
#
# Poissons Ratio (x) = 0.15694 0.26407
# Poissons Ratio (y) = 0.88057 0.57940
# Poissons Ratio (z) = 0.24187 0.09459
#
# Static dielectric constant tensor:
#      x y z
#    x 1.883680 0.000000 -0.025390 
#    y 0.000000 1.938830 0.000000 
#    z -0.025390 0.000000 1.881420 
# 
# From -- ./inp_files/168287.got.cif
#   From: 2010.05.17/outbox.cif.g08.bks.cpg/sg15_85_cif.got.tgz:168287.got - 2010.06.03 18:47:42.
