data_PCOD9255452
_publ_section_title
;
Structure prediction by ZEFSAII (Michael W. Deem and Ramdas Pophale) SiO2 
 PCOD9255452
Probable space group: C 2/C
;
_chemical_formula_sum "Si O2"
_cell_formula_units_Z 44
_cell_length_a 9.665198
_cell_length_b 24.014042
_cell_length_c 13.301895
_cell_angle_alpha 90.000000
_cell_angle_beta 132.739475
_cell_angle_gamma 90.000000
_cell_volume 2267.514694
_symmetry_space_group_name_H-M "C 2/C"
_symmetry_group_IT_number 15
_symmetry_cell_setting 'monoclinic'
loop_
_space_group_symop_operation_xyz
x,y,z
-x,y,1/2-z
-x,-y,-z
x,-y,1/2+z
1/2+x,1/2+y,z
1/2-x,1/2+y,1/2-z
1/2-x,1/2-y,-z
1/2+x,1/2-y,1/2+z
loop_
_atom_site_type_symbol
_atom_site_label
_atom_site_fract_x
_atom_site_fract_y
_atom_site_fract_z
Si Si1 0.668755 0.518128 0.464023
Si Si2 0.966185 0.658461 0.355314
Si Si3 0.541281 0.724348 0.888315
Si Si4 0.000000 0.485344 0.250000
Si Si5 0.253060 0.552787 0.222679
Si Si6 0.630536 0.390775 0.412909
O O1 0.459293 0.541243 0.368116
O O2 0.739962 0.528898 0.386177
O O3 0.657134 0.451279 0.474140
O O4 0.820794 0.544744 0.613755
O O5 0.923602 0.722202 0.365481
O O6 0.157716 0.633434 0.499955
O O7 0.000000 0.657565 0.250000
O O8 0.799338 0.617244 0.300205
O O9 0.500000 0.716541 0.750000
O O10 0.537391 0.661379 0.927696
O O11 0.750000 0.750000 0.000000
O O12 0.908157 0.522402 0.292578
O O13 0.500000 0.400585 0.250000
#
# Coordination Sequence:
#
# PCOD9255452 Si02
#       6
#     8   8   8   4   8   8
#     4  11  23  35  53  81 115 150 188 225 282 335
#     4  10  18  32  51  76 107 144 180 222 274 325
#     4   8  16  27  47  72 102 134 175 221 274 314
#     4  12  22  36  54  74 112 154 190 228 272 334
#     4  11  21  36  53  78 115 153 184 227 279 339
#     4  10  17  31  48  74 109 139 176 228 273 323
#
# _framework density 19.404505
#
# number of rings (size 3 to 8) (size 9 to 14) (size 15 to 20)
#    0.000    1.818    4.545    1.091    0.000    0.000 
#    0.000    0.000    0.000    0.000    0.000    2.545 
#    0.000  103.273    0.000    0.182    0.000    0.182 
#
# Total GULP energy -122542.853538 kJ/mol
# GULP energy per Si atom -5570.129706 kJ/mol
# Density = 1.936034 g / cm^3
# Si number density = 19.404505 Si / 1000 Ang^3
#
#
#
# Elastic Constant Matrix: (Units=GPa)
#
#
# Indices 1 2 3 4 5 6 
#
# 1 69.1590 31.5693 9.1088 0.0000 -1.2599 0.0000
# 2 31.5693 126.0761 11.3755 0.0000 12.0180 0.0000
# 3 9.1088 11.3755 127.9882 0.0000 16.0913 0.0000
# 4 0.0000 0.0000 0.0000 20.7744 0.0000 9.1467
# 5 -1.2599 12.0180 16.0913 0.0000 28.9851 0.0000
# 6 0.0000 0.0000 0.0000 9.1467 0.0000 14.1676
#
#
#
# Elastic Compliance Matrix: (Units=1/GPa)
#
#
# Indices 1 2 3 4 5 6 
#
# 1 0.016671 -0.004372 -0.001201 0.000000 0.003204 0.000000
# 2 -0.004372 0.009417 -0.000012 0.000000 -0.004088 0.000000
# 3 -0.001201 -0.000012 0.008499 0.000000 -0.004765 0.000000
# 4 0.000000 0.000000 0.000000 0.067253 0.000000 -0.043419
# 5 0.003204 -0.004088 -0.004765 0.000000 0.038980 0.000000
# 6 0.000000 0.000000 0.000000 -0.043419 0.000000 0.098615
#
#
# Mechanical properties :
#
#
# Convention : Reuss Voigt Hill
#
# Bulk Modulus (GPa) = 42.70042 47.48119 45.09081
# Shear Modulus (GPa) = 19.34905 30.86339 25.10622
#
# Velocity S-wave (km/s) = 3.16118 3.99247 3.60089
# Velocity P-wave (km/s) = 5.94788 6.76575 6.36995
#
# Compressibility (1/GPa) = 0.02341898
#
# Stress axis : x y z
#
# Youngs Moduli (GPa) = 59.98277 106.18973 117.66265
#
# Poissons Ratio (x) = 0.46422 0.14128
# Poissons Ratio (y) = 0.26222 0.00140
# Poissons Ratio (z) = 0.07202 0.00126
#
# Static dielectric constant tensor:
#      x y z
#    x 1.663010 0.000000 -0.012620 
#    y 0.000000 1.744120 0.000000 
#    z -0.012620 0.000000 1.764320 
# 
# From -- ./inp_files/138336.got.cif
#   From: 2010.05.17/outbox.cif.g08.bks.cpg/sg15_70_cif.got.tgz:138336.got - 2010.06.03 18:47:42.
