data_PCOD9255866
_publ_section_title
;
Structure prediction by ZEFSAII (Michael W. Deem and Ramdas Pophale) SiO2 
 PCOD9255866
Probable space group: C 2/C
;
_chemical_formula_sum "Si O2"
_cell_formula_units_Z 36
_cell_length_a 12.704387
_cell_length_b 7.810620
_cell_length_c 17.518636
_cell_angle_alpha 90.000000
_cell_angle_beta 59.336106
_cell_angle_gamma 90.000000
_cell_volume 1495.291063
_symmetry_space_group_name_H-M "C 2/C"
_symmetry_group_IT_number 15
_symmetry_cell_setting 'monoclinic'
loop_
_space_group_symop_operation_xyz
x,y,z
-x,y,1/2-z
-x,-y,-z
x,-y,1/2+z
1/2+x,1/2+y,z
1/2-x,1/2+y,1/2-z
1/2-x,1/2-y,-z
1/2+x,1/2-y,1/2+z
loop_
_atom_site_type_symbol
_atom_site_label
_atom_site_fract_x
_atom_site_fract_y
_atom_site_fract_z
Si Si1 0.291116 0.586776 0.938429
Si Si2 0.207009 0.996400 0.298723
Si Si3 0.879589 0.357035 0.123772
Si Si4 0.098186 0.848298 0.481522
Si Si5 0.500000 0.564485 0.750000
O O1 0.183676 0.540090 0.920551
O O2 0.411883 0.641210 0.846752
O O3 0.250000 0.750000 0.000000
O O4 0.319434 0.428512 0.982519
O O5 0.340316 0.954711 0.214953
O O6 0.169466 0.849864 0.374166
O O7 0.105106 0.014634 0.268142
O O8 0.198931 0.180031 0.341667
O O9 0.014105 0.299449 0.049773
O O10 0.000000 0.000000 0.500000
#
# Coordination Sequence:
#
# PCOD9255866 Si02
#       5
#     8   8   8   8   4
#     4  11  17  30  57  88 117 156 208 243 304 363
#     4  10  19  33  55  86 120 156 205 248 305 365
#     4  10  20  33  57  90 118 164 201 252 308 366
#     4  10  17  33  53  88 121 156 204 256 298 366
#     4  10  18  28  52  86 110 156 190 246 294 358
#
# _framework density 24.075579999999999
#
# number of rings (size 3 to 8) (size 9 to 14) (size 15 to 20)
#    0.000    1.778    8.889    0.000    0.000    0.000 
#    0.000    1.111    0.000   10.667    0.000    0.000 
#    0.000    0.000    0.000    0.000    0.000    0.000 
#
# Total GULP energy -100325.290252 kJ/mol
# GULP energy per Si atom -5573.627236 kJ/mol
# Density = 2.402078 g / cm^3
# Si number density = 24.075580 Si / 1000 Ang^3
#
#
#
# Elastic Constant Matrix: (Units=GPa)
#
#
# Indices 1 2 3 4 5 6 
#
# 1 92.4291 39.6494 52.5036 0.0000 8.9662 0.0000
# 2 39.6494 60.1648 41.8506 0.0000 -15.6219 0.0000
# 3 52.5036 41.8506 164.3339 0.0000 -4.9974 0.0000
# 4 0.0000 0.0000 0.0000 43.8904 0.0000 -3.2456
# 5 8.9662 -15.6219 -4.9974 0.0000 36.5275 0.0000
# 6 0.0000 0.0000 0.0000 -3.2456 0.0000 20.6860
#
#
#
# Elastic Compliance Matrix: (Units=1/GPa)
#
#
# Indices 1 2 3 4 5 6 
#
# 1 0.019437 -0.013496 -0.003107 0.000000 -0.010968 0.000000
# 2 -0.013496 0.032178 -0.003378 0.000000 0.016613 0.000000
# 3 -0.003107 -0.003378 0.007950 0.000000 0.000406 0.000000
# 4 0.000000 0.000000 0.000000 0.023052 0.000000 0.003617
# 5 -0.010968 0.016613 0.000406 0.000000 0.037229 0.000000
# 6 0.000000 0.000000 0.000000 0.003617 0.000000 0.048909
#
#
# Mechanical properties :
#
#
# Convention : Reuss Voigt Hill
#
# Bulk Modulus (GPa) = 51.00823 64.99276 58.00049
# Shear Modulus (GPa) = 23.22860 32.41573 27.82217
#
# Velocity S-wave (km/s) = 3.10953 3.67333 3.40313
# Velocity P-wave (km/s) = 5.84165 6.71156 6.29166
#
# Compressibility (1/GPa) = 0.01960468
#
# Stress axis : x y z
#
# Youngs Moduli (GPa) = 51.44742 31.07686 125.78343
#
# Poissons Ratio (x) = 0.41943 0.39075
# Poissons Ratio (y) = 0.69436 0.42484
# Poissons Ratio (z) = 0.15982 0.10496
#
# Static dielectric constant tensor:
#      x y z
#    x 1.766950 0.000000 -0.063790 
#    y 0.000000 1.990950 0.000000 
#    z -0.063790 0.000000 1.956480 
# 
# From -- ./inp_files/202155.got.cif
#   From: 2010.05.17/outbox.cif.g08.bks.cpg/sg15_102_cif.got.tgz:202155.got - 2010.06.03 18:47:42.
