data_PCOD9255563
_publ_section_title
;
Structure prediction by ZEFSAII (Michael W. Deem and Ramdas Pophale) SiO2 
 PCOD9255563
Probable space group: C 2/C
;
_chemical_formula_sum "Si O2"
_cell_formula_units_Z 60
_cell_length_a 12.644973
_cell_length_b 20.033726
_cell_length_c 20.324002
_cell_angle_alpha 90.000000
_cell_angle_beta 32.909875
_cell_angle_gamma 90.000000
_cell_volume 2797.331132
_symmetry_space_group_name_H-M "C 2/C"
_symmetry_group_IT_number 15
_symmetry_cell_setting 'monoclinic'
loop_
_space_group_symop_operation_xyz
x,y,z
-x,y,1/2-z
-x,-y,-z
x,-y,1/2+z
1/2+x,1/2+y,z
1/2-x,1/2+y,1/2-z
1/2-x,1/2-y,-z
1/2+x,1/2-y,1/2+z
loop_
_atom_site_type_symbol
_atom_site_label
_atom_site_fract_x
_atom_site_fract_y
_atom_site_fract_z
Si Si1 0.816347 0.173771 0.665592
Si Si2 0.542112 0.810357 0.876974
Si Si3 0.264882 0.950029 0.732264
Si Si4 0.873981 0.001698 0.429373
Si Si5 0.000000 0.673562 0.250000
Si Si6 0.991043 0.570177 0.834041
Si Si7 0.125049 0.859658 0.119811
Si Si8 0.117813 0.091439 0.450624
O O1 0.835348 0.252847 0.651417
O O2 0.607798 0.139292 0.783253
O O3 0.969445 0.153471 0.643097
O O4 0.925370 0.136469 0.549132
O O5 0.624428 0.884142 0.848841
O O6 0.558867 0.794769 0.789280
O O7 0.314624 0.812565 0.016115
O O8 0.173270 0.928333 0.849291
O O9 0.075676 0.974259 0.792311
O O10 0.394710 0.012946 0.684902
O O11 0.722215 0.060401 0.523732
O O12 0.805298 0.936723 0.424310
O O13 0.907175 0.968035 0.484532
O O14 0.186714 0.630662 0.129511
O O15 0.000000 0.555551 0.750000
O O16 0.000000 0.850297 0.250000
#
# Coordination Sequence:
#
# PCOD9255563 Si02
#       8
#     8   8   8   8   4   8   8   8
#     4  11  24  38  55  93 130 165 210 246 318 392
#     4  11  23  39  58  90 130 163 207 260 325 383
#     4  11  20  35  63  93 120 157 202 262 326 371
#     4  11  19  36  57  93 124 151 207 260 314 370
#     4  10  18  32  60  88 116 156 186 260 330 356
#     4  12  21  36  66  97 131 158 200 272 323 373
#     4  11  23  38  61  89 126 167 210 264 314 373
#     4  10  17  31  55  89 124 142 188 257 320 367
#
# _framework density 21.449017000000001
#
# number of rings (size 3 to 8) (size 9 to 14) (size 15 to 20)
#    0.000    1.067    8.000    2.400    1.867    1.067 
#    0.000    3.333    0.000    0.800    0.000    0.000 
#    0.000    0.000    0.000    0.000    0.000    0.000 
#
# Total GULP energy -167329.374504 kJ/mol
# GULP energy per Si atom -5577.645817 kJ/mol
# Density = 2.140020 g / cm^3
# Si number density = 21.449017 Si / 1000 Ang^3
#
#
#
# Elastic Constant Matrix: (Units=GPa)
#
#
# Indices 1 2 3 4 5 6 
#
# 1 21.5731 23.6657 17.4310 -0.0024 -15.9308 0.0007
# 2 23.6657 102.6677 35.6407 0.0080 -27.2413 0.0041
# 3 17.4310 35.6407 89.5014 0.0265 -16.1771 -0.0132
# 4 -0.0024 0.0080 0.0265 23.9827 -0.0104 -16.6709
# 5 -15.9308 -27.2413 -16.1771 -0.0104 27.6964 0.0010
# 6 0.0007 0.0041 -0.0132 -16.6709 0.0010 23.6429
#
#
#
# Elastic Compliance Matrix: (Units=1/GPa)
#
#
# Indices 1 2 3 4 5 6 
#
# 1 0.090261 -0.007619 -0.007285 0.000063 0.040169 0.000037
# 2 -0.007619 0.014725 -0.002856 -0.000004 0.008433 -0.000007
# 3 -0.007285 -0.002856 0.013935 -0.000017 0.001140 -0.000004
# 4 0.000063 -0.000004 -0.000017 0.081780 0.000051 0.057664
# 5 0.040169 0.008433 0.001140 0.000051 0.068172 0.000031
# 6 0.000037 -0.000007 -0.000004 0.057664 0.000031 0.082956
#
#
# Mechanical properties :
#
#
# Convention : Reuss Voigt Hill
#
# Bulk Modulus (GPa) = 11.98998 40.80189 26.39594
# Shear Modulus (GPa) = 12.04390 24.19803 18.12096
#
# Velocity S-wave (km/s) = 2.37220 3.36246 2.90976
# Velocity P-wave (km/s) = 3.62011 5.84285 4.86025
#
# Compressibility (1/GPa) = 0.08340298
#
# Stress axis : x y z
#
# Youngs Moduli (GPa) = 11.07901 67.91036 71.76139
#
# Poissons Ratio (x) = 0.51739 0.52275
# Poissons Ratio (y) = 0.08441 0.20493
# Poissons Ratio (z) = 0.08071 0.19394
#
# Static dielectric constant tensor:
#      x y z
#    x 1.966290 0.000000 -0.050920 
#    y 0.000000 1.872330 0.000010 
#    z -0.050920 0.000010 1.812460 
# 
# From -- ./inp_files/274717.got.cif
#   From: 2010.05.17/outbox.cif.g08.bks.cpg/sg15_138_cif.got.tgz:274717.got - 2010.06.03 18:47:42.
