data_PCOD9255820
_publ_section_title
;
Structure prediction by ZEFSAII (Michael W. Deem and Ramdas Pophale) SiO2 
 PCOD9255820
Probable space group: C 2/C
;
_chemical_formula_sum "Si O2"
_cell_formula_units_Z 56
_cell_length_a 16.000926
_cell_length_b 11.070721
_cell_length_c 21.453459
_cell_angle_alpha 90.000000
_cell_angle_beta 47.492856
_cell_angle_gamma 90.000000
_cell_volume 2801.557920
_symmetry_space_group_name_H-M "C 2/C"
_symmetry_group_IT_number 15
_symmetry_cell_setting 'monoclinic'
loop_
_space_group_symop_operation_xyz
x,y,z
-x,y,1/2-z
-x,-y,-z
x,-y,1/2+z
1/2+x,1/2+y,z
1/2-x,1/2+y,1/2-z
1/2-x,1/2-y,-z
1/2+x,1/2-y,1/2+z
loop_
_atom_site_type_symbol
_atom_site_label
_atom_site_fract_x
_atom_site_fract_y
_atom_site_fract_z
Si Si1 0.404983 0.209523 0.252246
Si Si2 0.068190 0.748579 0.054803
Si Si3 0.797834 0.481821 0.336918
Si Si4 0.410416 0.626159 0.385561
Si Si5 0.258702 0.946815 0.997047
Si Si6 0.500000 0.435133 0.250000
Si Si7 0.000000 0.326020 0.250000
Si Si8 0.063119 0.125672 0.980618
O O1 0.500000 0.150538 0.250000
O O2 0.468419 0.233029 0.155754
O O3 0.395725 0.341141 0.290470
O O4 0.302688 0.114887 0.302769
O O5 0.148072 0.632192 0.015769
O O6 0.009581 0.776087 0.019159
O O7 0.151560 0.858956 0.033763
O O8 0.805010 0.510680 0.407023
O O9 0.686151 0.400022 0.388254
O O10 0.906971 0.406316 0.261886
O O11 0.287103 0.563537 0.443765
O O12 0.488743 0.522244 0.314744
O O13 0.432267 0.742566 0.332976
O O14 0.429698 0.646295 0.449051
O O15 0.000000 0.000000 0.000000
#
# Coordination Sequence:
#
# PCOD9255820 Si02
#       8
#     8   8   8   8   8   4   4   8
#     4  10  17  32  61  90 109 146 211 265 285 349
#     4  11  19  34  58  89 125 148 204 261 309 355
#     4  11  21  38  63  89 118 163 208 247 309 368
#     4  10  21  35  61  85 121 157 204 247 303 361
#     4  10  18  34  61  88 110 162 211 249 290 365
#     4   9  15  30  54  90 111 143 204 266 284 337
#     4  11  23  42  62  84 121 165 212 240 290 393
#     4  11  22  37  56  89 129 161 189 254 322 367
#
# _framework density 19.988878
#
# number of rings (size 3 to 8) (size 9 to 14) (size 15 to 20)
#    0.429    1.143    6.429    0.000    2.000    2.286 
#    2.571    0.000    6.286    4.286    0.000    0.000 
#    0.000    0.000    0.000    0.000    0.000    0.000 
#
# Total GULP energy -156017.363371 kJ/mol
# GULP energy per Si atom -5572.048692 kJ/mol
# Density = 1.994338 g / cm^3
# Si number density = 19.988878 Si / 1000 Ang^3
#
#
#
# Elastic Constant Matrix: (Units=GPa)
#
#
# Indices 1 2 3 4 5 6 
#
# 1 74.8380 25.9515 16.7538 0.0000 2.4722 0.0000
# 2 25.9515 75.0982 23.5737 0.0000 1.6723 0.0000
# 3 16.7538 23.5737 69.5216 0.0000 4.6459 0.0000
# 4 0.0000 0.0000 0.0000 38.5613 0.0000 -7.3782
# 5 2.4722 1.6723 4.6459 0.0000 26.2871 0.0000
# 6 0.0000 0.0000 0.0000 -7.3782 0.0000 26.9571
#
#
#
# Elastic Compliance Matrix: (Units=1/GPa)
#
#
# Indices 1 2 3 4 5 6 
#
# 1 0.015478 -0.004674 -0.002092 0.000000 -0.000788 0.000000
# 2 -0.004674 0.016314 -0.004418 0.000000 0.000182 0.000000
# 3 -0.002092 -0.004418 0.016550 0.000000 -0.002447 0.000000
# 4 0.000000 0.000000 0.000000 0.027366 0.000000 0.007490
# 5 -0.000788 0.000182 -0.002447 0.000000 0.038537 0.000000
# 6 0.000000 0.000000 0.000000 0.007490 0.000000 0.039146
#
#
# Mechanical properties :
#
#
# Convention : Reuss Voigt Hill
#
# Bulk Modulus (GPa) = 38.50150 39.11288 38.80719
# Shear Modulus (GPa) = 27.11277 28.57301 27.84289
#
# Velocity S-wave (km/s) = 3.68692 3.78490 3.73623
# Velocity P-wave (km/s) = 6.11782 6.22177 6.17002
#
# Compressibility (1/GPa) = 0.02597301
#
# Stress axis : x y z
#
# Youngs Moduli (GPa) = 64.60991 61.29796 60.42421
#
# Poissons Ratio (x) = 0.28652 0.12642
# Poissons Ratio (y) = 0.30200 0.26692
# Poissons Ratio (z) = 0.13518 0.27078
#
# Static dielectric constant tensor:
#      x y z
#    x 1.699380 0.000000 -0.019270 
#    y 0.000000 1.772770 0.000000 
#    z -0.019270 0.000000 1.722430 
# 
# From -- ./inp_files/277053.got.cif
#   From: 2010.05.17/outbox.cif.g08.bks.cpg/sg15_139_cif.got.tgz:277053.got - 2010.06.03 18:47:42.
