data_PCOD9255596
_publ_section_title
;
Structure prediction by ZEFSAII (Michael W. Deem and Ramdas Pophale) SiO2 
 PCOD9255596
Probable space group: C 2/C
;
_chemical_formula_sum "Si O2"
_cell_formula_units_Z 36
_cell_length_a 22.941979
_cell_length_b 5.093499
_cell_length_c 22.375132
_cell_angle_alpha 90.000000
_cell_angle_beta 146.976406
_cell_angle_gamma 90.000000
_cell_volume 1424.940526
_symmetry_space_group_name_H-M "C 2/C"
_symmetry_group_IT_number 15
_symmetry_cell_setting 'monoclinic'
loop_
_space_group_symop_operation_xyz
x,y,z
-x,y,1/2-z
-x,-y,-z
x,-y,1/2+z
1/2+x,1/2+y,z
1/2-x,1/2+y,1/2-z
1/2-x,1/2-y,-z
1/2+x,1/2-y,1/2+z
loop_
_atom_site_type_symbol
_atom_site_label
_atom_site_fract_x
_atom_site_fract_y
_atom_site_fract_z
Si Si1 0.017169 0.417023 0.144055
Si Si2 0.000000 0.814707 0.750000
Si Si3 0.847875 0.900399 0.426440
Si Si4 0.658255 0.341843 0.465013
Si Si5 0.622335 0.075076 0.621099
O O1 0.920176 0.624691 0.071478
O O2 0.117074 0.484144 0.187280
O O3 0.050809 0.349629 0.239939
O O4 0.960555 0.178616 0.057857
O O5 0.915170 0.984798 0.641283
O O6 0.789276 0.003167 0.434723
O O7 0.860055 0.134429 0.389153
O O8 0.811919 0.640351 0.360173
O O9 0.750000 0.250000 0.500000
O O10 0.500000 0.000000 0.500000
#
# Coordination Sequence:
#
# PCOD9255596 Si02
#       5
#     8   4   8   8   8
#     4  10  20  36  59  93 124 162 213 266 322 383
#     4  10  24  38  60  96 130 176 216 268 332 388
#     4  10  19  33  59  96 120 160 214 264 320 384
#     4  11  23  40  64  97 132 175 216 267 328 392
#     4  10  17  31  59  92 120 154 217 267 313 389
#
# _framework density 25.264213999999999
#
# number of rings (size 3 to 8) (size 9 to 14) (size 15 to 20)
#    0.000    1.778    4.444    3.333    3.111    3.556 
#    0.000    0.000    0.000    0.000   28.889    0.000 
#    0.000    0.000    0.000    0.000    0.000    0.000 
#
# Total GULP energy -100482.232350 kJ/mol
# GULP energy per Si atom -5582.346242 kJ/mol
# Density = 2.520671 g / cm^3
# Si number density = 25.264214 Si / 1000 Ang^3
#
#
#
# Elastic Constant Matrix: (Units=GPa)
#
#
# Indices 1 2 3 4 5 6 
#
# 1 210.9823 67.2972 66.0745 0.0039 -56.7240 0.0048
# 2 67.2972 130.9652 32.2201 -0.0029 -20.9010 -0.0028
# 3 66.0745 32.2201 109.8272 0.0022 -32.0062 0.0019
# 4 0.0039 -0.0029 0.0022 16.3261 0.0002 -20.4608
# 5 -56.7240 -20.9010 -32.0062 0.0002 60.3968 0.0001
# 6 0.0048 -0.0028 0.0019 -20.4608 0.0001 47.9910
#
#
#
# Elastic Compliance Matrix: (Units=1/GPa)
#
#
# Indices 1 2 3 4 5 6 
#
# 1 0.007655 -0.002540 -0.002390 -0.000007 0.005043 -0.000004
# 2 -0.002540 0.009252 -0.001121 0.000007 0.000222 0.000004
# 3 -0.002390 -0.001121 0.011950 -0.000004 0.003700 -0.000002
# 4 -0.000007 0.000007 -0.000004 0.131533 -0.000006 0.056079
# 5 0.005043 0.000222 0.003700 -0.000006 0.023331 -0.000003
# 6 -0.000004 0.000004 -0.000002 0.056079 -0.000003 0.044746
#
#
# Mechanical properties :
#
#
# Convention : Reuss Voigt Hill
#
# Bulk Modulus (GPa) = 59.68935 86.99536 73.34236
# Shear Modulus (GPa) = 20.31232 44.02163 32.16697
#
# Velocity S-wave (km/s) = 2.83856 4.17879 3.57210
# Velocity P-wave (km/s) = 5.86690 7.60211 6.79016
#
# Compressibility (1/GPa) = 0.01675341
#
# Stress axis : x y z
#
# Youngs Moduli (GPa) = 130.64209 108.08136 83.67904
#
# Poissons Ratio (x) = 0.27457 0.20000
# Poissons Ratio (y) = 0.33189 0.09384
# Poissons Ratio (z) = 0.31225 0.12120
#
# Static dielectric constant tensor:
#      x y z
#    x 2.254040 0.000000 -0.015120 
#    y 0.000000 2.137750 0.000000 
#    z -0.015120 0.000000 2.200380 
# 
# From -- ./inp_files/250736.got.cif
#   From: 2010.05.17/outbox.cif.g08.bks.cpg/sg15_126_cif.got.tgz:250736.got - 2010.06.03 18:47:42.
