data_PCOD9255997
_publ_section_title
;
Structure prediction by ZEFSAII (Michael W. Deem and Ramdas Pophale) SiO2 
 PCOD9255997
Probable space group: C 2/C
;
_chemical_formula_sum "Si O2"
_cell_formula_units_Z 48
_cell_length_a 25.549931
_cell_length_b 13.462184
_cell_length_c 10.807574
_cell_angle_alpha 90.000000
_cell_angle_beta 146.011438
_cell_angle_gamma 90.000000
_cell_volume 2078.100560
_symmetry_space_group_name_H-M "C 2/C"
_symmetry_group_IT_number 15
_symmetry_cell_setting 'monoclinic'
loop_
_space_group_symop_operation_xyz
x,y,z
-x,y,1/2-z
-x,-y,-z
x,-y,1/2+z
1/2+x,1/2+y,z
1/2-x,1/2+y,1/2-z
1/2-x,1/2-y,-z
1/2+x,1/2-y,1/2+z
loop_
_atom_site_type_symbol
_atom_site_label
_atom_site_fract_x
_atom_site_fract_y
_atom_site_fract_z
Si Si1 0.671571 0.357624 0.491692
Si Si2 0.299158 0.050432 0.765968
Si Si3 0.108996 0.906367 0.621168
Si Si4 0.169965 0.562447 0.937231
Si Si5 0.042140 0.874841 0.000284
Si Si6 0.176354 0.236663 0.591214
O O1 0.718831 0.466162 0.595426
O O2 0.611916 0.344083 0.500777
O O3 0.608961 0.353582 0.249050
O O4 0.759247 0.284358 0.673618
O O5 0.362611 0.045156 0.766950
O O6 0.246419 0.155457 0.670457
O O7 0.348448 0.019737 0.992593
O O8 0.216655 0.933954 0.855250
O O9 0.060636 0.857128 0.645259
O O10 0.052957 0.008635 0.489400
O O11 0.148093 0.670779 0.949723
O O12 0.087904 0.815185 0.979143
#
# Coordination Sequence:
#
# PCOD9255997 Si02
#       6
#     8   8   8   8   8   8
#     4  10  19  31  49  72 106 146 180 216 273 318
#     4  10  17  34  48  72 107 135 185 217 268 319
#     4   9  19  29  47  73 105 142 171 215 270 320
#     4  10  20  33  51  75 106 145 176 222 271 318
#     4  11  17  31  48  73 108 141 179 217 267 331
#     4  10  19  30  48  74 102 143 182 222 262 317
#
# _framework density 23.098016999999999
#
# number of rings (size 3 to 8) (size 9 to 14) (size 15 to 20)
#    0.000    2.333    5.000    1.500    0.000    1.333 
#    0.000    0.833    0.000    0.000    0.000   18.667 
#    0.000   42.667    0.000    0.000    0.000    0.000 
#
# Total GULP energy -134050.635990 kJ/mol
# GULP energy per Si atom -5585.443166 kJ/mol
# Density = 2.304544 g / cm^3
# Si number density = 23.098017 Si / 1000 Ang^3
#
#
#
# Elastic Constant Matrix: (Units=GPa)
#
#
# Indices 1 2 3 4 5 6 
#
# 1 162.6346 38.8936 16.1981 0.0000 -36.9656 0.0000
# 2 38.8936 64.6060 3.3410 0.0000 -7.5771 0.0000
# 3 16.1981 3.3410 48.3705 0.0000 -17.7857 0.0000
# 4 0.0000 0.0000 0.0000 11.6042 0.0000 -0.9232
# 5 -36.9656 -7.5771 -17.7857 0.0000 35.9478 0.0000
# 6 0.0000 0.0000 0.0000 -0.9232 0.0000 14.2517
#
#
#
# Elastic Compliance Matrix: (Units=1/GPa)
#
#
# Indices 1 2 3 4 5 6 
#
# 1 0.009159 -0.004518 0.000437 0.000000 0.008683 0.000000
# 2 -0.004518 0.018101 -0.000052 0.000000 -0.000857 0.000000
# 3 0.000437 -0.000052 0.025294 0.000000 0.012953 0.000000
# 4 0.000000 0.000000 0.000000 0.086622 0.000000 0.005611
# 5 0.008683 -0.000857 0.012953 0.000000 0.042975 0.000000
# 6 0.000000 0.000000 0.000000 0.005611 0.000000 0.070530
#
#
# Mechanical properties :
#
#
# Convention : Reuss Voigt Hill
#
# Bulk Modulus (GPa) = 22.57963 43.60852 33.09408
# Shear Modulus (GPa) = 18.13503 26.83931 22.48717
#
# Velocity S-wave (km/s) = 2.80506 3.41247 3.12357
# Velocity P-wave (km/s) = 4.50422 5.86919 5.23141
#
# Compressibility (1/GPa) = 0.04428770
#
# Stress axis : x y z
#
# Youngs Moduli (GPa) = 109.17989 55.24645 39.53541
#
# Poissons Ratio (x) = 0.24962 -0.01730
# Poissons Ratio (y) = 0.49330 0.00206
# Poissons Ratio (z) = -0.04776 0.00288
#
# Static dielectric constant tensor:
#      x y z
#    x 1.933130 0.000000 -0.085720 
#    y 0.000000 1.860510 0.000000 
#    z -0.085720 0.000000 1.935490 
# 
# From -- ./inp_files/117727.got.cif
#   From: 2010.05.17/outbox.cif.g08.bks.cpg/sg15_59_cif.got.tgz:117727.got - 2010.06.03 18:47:42.
