data_PCOD9255045
_publ_section_title
;
Structure prediction by ZEFSAII (Michael W. Deem and Ramdas Pophale) SiO2 
 PCOD9255045
Probable space group: C 2/C
;
_chemical_formula_sum "Si O2"
_cell_formula_units_Z 48
_cell_length_a 17.755870
_cell_length_b 17.110620
_cell_length_c 26.804762
_cell_angle_alpha 90.000000
_cell_angle_beta 18.193005
_cell_angle_gamma 90.000000
_cell_volume 2542.605024
_symmetry_space_group_name_H-M "C 2/C"
_symmetry_group_IT_number 15
_symmetry_cell_setting 'monoclinic'
loop_
_space_group_symop_operation_xyz
x,y,z
-x,y,1/2-z
-x,-y,-z
x,-y,1/2+z
1/2+x,1/2+y,z
1/2-x,1/2+y,1/2-z
1/2-x,1/2-y,-z
1/2+x,1/2-y,1/2+z
loop_
_atom_site_type_symbol
_atom_site_label
_atom_site_fract_x
_atom_site_fract_y
_atom_site_fract_z
Si Si1 0.330266 0.795732 0.593316
Si Si2 0.179968 0.953358 0.507992
Si Si3 0.384319 0.052086 0.116433
Si Si4 0.608521 0.027265 0.274474
Si Si5 0.263939 0.678798 0.453792
Si Si6 0.414346 0.613867 0.541307
O O1 0.427350 0.858337 0.571667
O O2 0.401778 0.809375 0.490342
O O3 0.361078 0.704417 0.585949
O O4 0.051012 0.820364 0.764971
O O5 0.289941 0.898372 0.481670
O O6 0.175365 0.907607 0.458472
O O7 0.902760 0.967489 0.697503
O O8 0.372813 0.022815 0.387725
O O9 0.473172 0.038703 0.116834
O O10 0.500000 0.000000 0.000000
O O11 0.775558 0.949173 0.162801
O O12 0.800849 0.094513 0.138670
O O13 0.250000 0.750000 0.500000
#
# Coordination Sequence:
#
# PCOD9255045 Si02
#       6
#     8   8   8   8   8   8
#     4  10  20  31  52  82 119 143 183 233 290 353
#     4  10  19  34  58  83 115 145 187 238 286 348
#     4  10  22  38  52  84 117 156 192 230 293 346
#     4  10  21  35  55  85 116 152 190 229 292 345
#     4  10  17  27  49  84 112 140 171 225 301 348
#     4  10  20  35  56  89 112 149 187 238 294 335
#
# _framework density 18.878276
#
# number of rings (size 3 to 8) (size 9 to 14) (size 15 to 20)
#    0.000    2.000    1.667    2.500    2.333    2.000 
#    0.000    0.000    0.000    1.000   13.000    0.000 
#    0.000    0.000    0.000    0.000    0.000    0.000 
#
# Total GULP energy -133628.317528 kJ/mol
# GULP energy per Si atom -5567.846564 kJ/mol
# Density = 1.883531 g / cm^3
# Si number density = 18.878276 Si / 1000 Ang^3
#
#
#
# Elastic Constant Matrix: (Units=GPa)
#
#
# Indices 1 2 3 4 5 6 
#
# 1 68.0684 46.6429 21.1015 -0.0308 14.9579 -0.0260
# 2 46.6429 98.7844 20.0592 -0.0368 8.9688 0.0476
# 3 21.1015 20.0592 51.2137 -0.0102 5.3939 -0.0163
# 4 -0.0308 -0.0368 -0.0102 23.7659 0.0017 7.9209
# 5 14.9579 8.9688 5.3939 0.0017 32.5297 0.0358
# 6 -0.0260 0.0476 -0.0163 7.9209 0.0358 28.3671
#
#
#
# Elastic Compliance Matrix: (Units=1/GPa)
#
#
# Indices 1 2 3 4 5 6 
#
# 1 0.024941 -0.009938 -0.005561 0.000000 -0.007806 0.000046
# 2 -0.009938 0.015139 -0.001910 0.000024 0.000713 -0.000043
# 3 -0.005561 -0.001910 0.022636 -0.000005 -0.000670 0.000013
# 4 0.000000 0.000024 -0.000005 0.046395 0.000006 -0.012955
# 5 -0.007806 0.000713 -0.000670 0.000006 0.034245 -0.000054
# 6 0.000046 -0.000043 0.000013 -0.012955 -0.000054 0.038870
#
#
# Mechanical properties :
#
#
# Convention : Reuss Voigt Hill
#
# Bulk Modulus (GPa) = 35.84678 43.74152 39.79415
# Shear Modulus (GPa) = 22.09041 25.61672 23.85357
#
# Velocity S-wave (km/s) = 3.42446 3.68767 3.55850
# Velocity P-wave (km/s) = 5.88774 6.43059 6.16514
#
# Compressibility (1/GPa) = 0.02789651
#
# Stress axis : x y z
#
# Youngs Moduli (GPa) = 40.09541 66.05616 44.17737
#
# Poissons Ratio (x) = 0.65647 0.24569
# Poissons Ratio (y) = 0.39847 0.08437
# Poissons Ratio (z) = 0.22299 0.12615
#
# Static dielectric constant tensor:
#      x y z
#    x 1.730000 0.000040 0.074680 
#    y 0.000040 1.666990 0.000040 
#    z 0.074680 0.000040 1.737810 
# 
# From -- ./inp_files/299250.got.cif
#   From: 2010.05.17/outbox.cif.g08.bks.cpg/sg15_150_cif.got.tgz:299250.got - 2010.06.03 18:47:42.
