data_PCOD9255305
_publ_section_title
;
Structure prediction by ZEFSAII (Michael W. Deem and Ramdas Pophale) SiO2 
 PCOD9255305
Probable space group: C 2/C
;
_chemical_formula_sum "Si O2"
_cell_formula_units_Z 56
_cell_length_a 16.622650
_cell_length_b 30.072485
_cell_length_c 5.223861
_cell_angle_alpha 90.000000
_cell_angle_beta 88.997689
_cell_angle_gamma 90.000000
_cell_volume 2610.927026
_symmetry_space_group_name_H-M "C 2/C"
_symmetry_group_IT_number 15
_symmetry_cell_setting 'monoclinic'
loop_
_space_group_symop_operation_xyz
x,y,z
-x,y,1/2-z
-x,-y,-z
x,-y,1/2+z
1/2+x,1/2+y,z
1/2-x,1/2+y,1/2-z
1/2-x,1/2-y,-z
1/2+x,1/2-y,1/2+z
loop_
_atom_site_type_symbol
_atom_site_label
_atom_site_fract_x
_atom_site_fract_y
_atom_site_fract_z
Si Si1 0.119864 0.891938 0.645578
Si Si2 0.918831 0.159575 0.847609
Si Si3 0.500000 0.530258 0.250000
Si Si4 0.500000 0.963073 0.750000
Si Si5 0.208422 0.653482 0.343119
Si Si6 0.750394 0.203857 0.845101
Si Si7 0.573619 0.897004 0.131549
Si Si8 0.335156 0.018555 0.748576
O O1 0.091662 0.880050 0.359674
O O2 0.079393 0.938213 0.726737
O O3 0.215433 0.880663 0.641544
O O4 0.084721 0.858301 0.863747
O O5 0.843317 0.190969 0.819207
O O6 0.000000 0.182429 0.750000
O O7 0.500000 0.500000 0.500000
O O8 0.483188 0.931680 0.514749
O O9 0.419078 0.990964 0.784646
O O10 0.218954 0.692701 0.559212
O O11 0.127204 0.629265 0.427262
O O12 0.208412 0.670667 0.052202
O O13 0.750000 0.250000 0.000000
O O14 0.500000 0.867887 0.250000
O O15 0.639504 0.929606 0.269078
O O16 0.291945 0.995796 0.512277
#
# Coordination Sequence:
#
# PCOD9255305 Si02
#       8
#     8   8   4   4   8   8   8   8
#     4  10  20  38  55  85 119 145 198 237 284 351
#     4  10  17  34  65  90 103 149 197 236 267 346
#     4  12  22  34  60  84 122 156 186 240 310 350
#     4  10  18  32  52  78 106 154 208 236 278 302
#     4  10  24  38  62  86 113 157 193 234 295 352
#     4  10  22  42  62  86 122 146 180 235 306 353
#     4  11  20  34  55  81 117 155 207 242 279 333
#     4  10  17  30  48  73 100 142 201 235 268 301
#
# _framework density 21.448322000000001
#
# number of rings (size 3 to 8) (size 9 to 14) (size 15 to 20)
#    0.000    1.714    3.571    2.143    2.000    0.000 
#    0.000    4.286    0.000    0.000    0.000    0.000 
#    0.000    0.000    0.000    0.000    0.000    0.000 
#
# Total GULP energy -155917.356694 kJ/mol
# GULP energy per Si atom -5568.477025 kJ/mol
# Density = 2.139951 g / cm^3
# Si number density = 21.448322 Si / 1000 Ang^3
#
#
#
# Elastic Constant Matrix: (Units=GPa)
#
#
# Indices 1 2 3 4 5 6 
#
# 1 37.5406 1.1447 31.4638 0.0000 -30.7072 0.0000
# 2 1.1447 46.5048 10.2181 0.0000 -14.5414 0.0000
# 3 31.4638 10.2181 121.1701 0.0000 -13.1978 0.0000
# 4 0.0000 0.0000 0.0000 32.8204 0.0000 -9.7171
# 5 -30.7072 -14.5414 -13.1978 0.0000 41.7597 0.0000
# 6 0.0000 0.0000 0.0000 -9.7171 0.0000 7.5711
#
#
#
# Elastic Compliance Matrix: (Units=1/GPa)
#
#
# Indices 1 2 3 4 5 6 
#
# 1 0.122129 0.031425 -0.024223 0.000000 0.093092 0.000000
# 2 0.031425 0.032375 -0.007400 0.000000 0.032042 0.000000
# 3 -0.024223 -0.007400 0.013408 0.000000 -0.016152 0.000000
# 4 0.000000 0.000000 0.000000 0.049143 0.000000 0.063072
# 5 0.093092 0.032042 -0.016152 0.000000 0.098454 0.000000
# 6 0.000000 0.000000 0.000000 0.063072 0.000000 0.213031
#
#
# Mechanical properties :
#
#
# Convention : Reuss Voigt Hill
#
# Bulk Modulus (GPa) = 5.96964 32.31876 19.14420
# Shear Modulus (GPa) = 8.55033 27.25615 17.90324
#
# Velocity S-wave (km/s) = 1.99878 3.56867 2.89228
# Velocity P-wave (km/s) = 2.84889 5.66405 4.48317
#
# Compressibility (1/GPa) = 0.16751437
#
# Stress axis : x y z
#
# Youngs Moduli (GPa) = 8.18808 30.88823 74.58445
#
# Poissons Ratio (x) = -0.97066 1.80667
# Poissons Ratio (y) = -0.25731 0.55193
# Poissons Ratio (z) = 0.19834 0.22857
#
# Static dielectric constant tensor:
#      x y z
#    x 1.327470 0.000000 0.518580 
#    y 0.000000 1.816100 0.000000 
#    z 0.518580 0.000000 1.423660 
# 
# From -- ./inp_files/11987.got.cif
#   From: 2010.05.17/outbox.cif.g08.bks.cpg/sg15_6_cif.got.tgz:11987.got - 2010.06.03 18:47:42.
