data_PCOD9255480
_publ_section_title
;
Structure prediction by ZEFSAII (Michael W. Deem and Ramdas Pophale) SiO2 
 PCOD9255480
Probable space group: C 2/C
;
_chemical_formula_sum "Si O2"
_cell_formula_units_Z 56
_cell_length_a 17.354330
_cell_length_b 29.975189
_cell_length_c 21.076411
_cell_angle_alpha 90.000000
_cell_angle_beta 160.603387
_cell_angle_gamma 90.000000
_cell_volume 3641.181629
_symmetry_space_group_name_H-M "C 2/C"
_symmetry_group_IT_number 15
_symmetry_cell_setting 'monoclinic'
loop_
_space_group_symop_operation_xyz
x,y,z
-x,y,1/2-z
-x,-y,-z
x,-y,1/2+z
1/2+x,1/2+y,z
1/2-x,1/2+y,1/2-z
1/2-x,1/2-y,-z
1/2+x,1/2-y,1/2+z
loop_
_atom_site_type_symbol
_atom_site_label
_atom_site_fract_x
_atom_site_fract_y
_atom_site_fract_z
Si Si1 0.790794 0.292094 0.637743
Si Si2 0.526010 0.131340 0.400705
Si Si3 0.124121 0.807610 0.276670
Si Si4 0.875580 0.933745 0.934859
Si Si5 0.764565 0.463254 0.149810
Si Si6 0.245097 0.071023 0.023138
Si Si7 0.302304 0.470441 0.548727
O O1 0.883116 0.327419 0.760060
O O2 0.759119 0.241483 0.636477
O O3 0.567859 0.308702 0.426695
O O4 0.000000 0.289584 0.750000
O O5 0.688061 0.153015 0.579598
O O6 0.332081 0.093479 0.260276
O O7 0.704831 0.109514 0.488402
O O8 0.000000 0.809178 0.250000
O O9 0.900198 0.917169 0.026952
O O10 0.795135 0.985196 0.880002
O O11 0.111030 0.933762 0.077889
O O12 0.042046 0.458951 0.369487
O O13 0.686754 0.455429 0.016386
O O14 0.500000 0.061763 0.250000
O O15 0.172074 0.024442 0.935939
O O16 0.500000 0.453705 0.750000
#
# Coordination Sequence:
#
# PCOD9255480 Si02
#       7
#     8   8   8   8   8   8   8
#     4  11  18  32  41  58  84 117 160 196 223 252
#     4  11  19  31  45  65  89 120 161 195 223 251
#     4  11  20  28  44  59  82 119 159 196 223 252
#     4   9  17  31  50  60  92 121 146 192 234 266
#     4   9  17  35  47  64  89 118 147 189 236 270
#     4   9  16  31  43  62  88 116 150 191 222 256
#     4  10  17  31  51  66  84 114 153 186 230 280
#
# _framework density 15.379623
#
# number of rings (size 3 to 8) (size 9 to 14) (size 15 to 20)
#    0.000    2.000    7.143    2.143    0.000    0.571 
#    2.571    7.857    0.000    0.000    0.000    0.000 
#    0.000    0.000    0.000    5.143    0.000    1.714 
#
# Total GULP energy -155967.295996 kJ/mol
# GULP energy per Si atom -5570.260571 kJ/mol
# Density = 1.534462 g / cm^3
# Si number density = 15.379623 Si / 1000 Ang^3
#
#
#
# Elastic Constant Matrix: (Units=GPa)
#
#
# Indices 1 2 3 4 5 6 
#
# 1 71.6834 21.4673 46.7883 -0.0008 18.4210 -0.0005
# 2 21.4673 43.8574 22.3600 0.0005 6.2316 -0.0003
# 3 46.7883 22.3600 115.5324 -0.0028 -5.0740 -0.0014
# 4 -0.0008 0.0005 -0.0028 24.6811 -0.0015 -1.4412
# 5 18.4210 6.2316 -5.0740 -0.0015 16.3649 -0.0007
# 6 -0.0005 -0.0003 -0.0014 -1.4412 -0.0007 8.6771
#
#
#
# Elastic Compliance Matrix: (Units=1/GPa)
#
#
# Indices 1 2 3 4 5 6 
#
# 1 0.037780 -0.003394 -0.016681 -0.000004 -0.046406 -0.000005
# 2 -0.003394 0.027848 -0.004373 -0.000002 -0.008140 -0.000001
# 3 -0.016681 -0.004373 0.017392 0.000003 0.025835 0.000004
# 4 -0.000004 -0.000002 0.000003 0.040914 0.000010 0.006796
# 5 -0.046406 -0.008140 0.025835 0.000010 0.124453 0.000013
# 6 -0.000005 -0.000001 0.000004 0.006796 0.000013 0.116374
#
#
# Mechanical properties :
#
#
# Convention : Reuss Voigt Hill
#
# Bulk Modulus (GPa) = 29.30465 45.81159 37.55812
# Shear Modulus (GPa) = 11.76381 19.30848 15.53614
#
# Velocity S-wave (km/s) = 2.76868 3.54709 3.18178
# Velocity P-wave (km/s) = 5.41446 6.82844 6.16214
#
# Compressibility (1/GPa) = 0.03412428
#
# Stress axis : x y z
#
# Youngs Moduli (GPa) = 26.46897 35.90878 57.49733
#
# Poissons Ratio (x) = 0.12188 0.95914
# Poissons Ratio (y) = 0.08984 0.25142
# Poissons Ratio (z) = 0.44154 0.15702
#
# Static dielectric constant tensor:
#      x y z
#    x 1.554590 0.000000 -0.008270 
#    y 0.000000 1.546150 0.000000 
#    z -0.008270 0.000000 1.535270 
# 
# From -- ./inp_files/250477.got.cif
#   From: 2010.05.17/outbox.cif.g08.bks.cpg/sg15_126_cif.got.tgz:250477.got - 2010.06.03 18:47:42.
