data_PCOD9255018
_publ_section_title
;
Structure prediction by ZEFSAII (Michael W. Deem and Ramdas Pophale) SiO2 
 PCOD9255018
Probable space group: C 2/C
;
_chemical_formula_sum "Si O2"
_cell_formula_units_Z 40
_cell_length_a 17.265709
_cell_length_b 8.086936
_cell_length_c 12.822769
_cell_angle_alpha 90.000000
_cell_angle_beta 125.692736
_cell_angle_gamma 90.000000
_cell_volume 1454.087369
_symmetry_space_group_name_H-M "C 2/C"
_symmetry_group_IT_number 15
_symmetry_cell_setting 'monoclinic'
loop_
_space_group_symop_operation_xyz
x,y,z
-x,y,1/2-z
-x,-y,-z
x,-y,1/2+z
1/2+x,1/2+y,z
1/2-x,1/2+y,1/2-z
1/2-x,1/2-y,-z
1/2+x,1/2-y,1/2+z
loop_
_atom_site_type_symbol
_atom_site_label
_atom_site_fract_x
_atom_site_fract_y
_atom_site_fract_z
Si Si1 0.193038 0.043756 0.027623
Si Si2 0.501745 0.661498 0.626952
Si Si3 0.607077 0.035067 0.847326
Si Si4 0.641536 0.383587 0.763724
Si Si5 0.845069 0.691400 0.394912
O O1 0.170171 0.984690 0.890704
O O2 0.304854 0.084285 0.112074
O O3 0.177412 0.874240 0.078835
O O4 0.109097 0.168778 0.992706
O O5 0.500000 0.668479 0.750000
O O6 0.550643 0.479870 0.646815
O O7 0.570512 0.787502 0.621128
O O8 0.500000 0.979774 0.750000
O O9 0.616201 0.200300 0.783062
O O10 0.621657 0.088717 0.978649
O O11 0.741000 0.375403 0.778058
#
# Coordination Sequence:
#
# PCOD9255018 Si02
#       5
#     8   8   8   8   8
#     4   8  15  25  41  69  96 116 153 204 241 271
#     4  10  17  27  45  74 100 121 154 195 232 283
#     4   9  15  26  43  69  97 122 154 201 244 273
#     4   8  15  26  40  66 100 121 148 197 241 276
#     4   9  16  26  43  70  97 126 155 189 238 285
#
# _framework density 27.508662999999999
#
# number of rings (size 3 to 8) (size 9 to 14) (size 15 to 20)
#    0.000    3.200    0.000    6.000    0.000    0.000 
#    0.000    0.000    0.000    0.000    0.000  163.800 
#    0.000    0.000    0.000    0.000    0.000    0.000 
#
# Total GULP energy -112038.077090 kJ/mol
# GULP energy per Si atom -5601.903855 kJ/mol
# Density = 2.744605 g / cm^3
# Si number density = 27.508663 Si / 1000 Ang^3
#
#
#
# Elastic Constant Matrix: (Units=GPa)
#
#
# Indices 1 2 3 4 5 6 
#
# 1 296.8416 64.2265 94.4600 0.0000 34.6474 0.0000
# 2 64.2265 72.8902 29.3664 0.0000 20.5012 0.0000
# 3 94.4600 29.3664 138.2484 0.0000 50.4443 0.0000
# 4 0.0000 0.0000 0.0000 9.6025 0.0000 8.1193
# 5 34.6474 20.5012 50.4443 0.0000 69.5928 0.0000
# 6 0.0000 0.0000 0.0000 8.1193 0.0000 49.8544
#
#
#
# Elastic Compliance Matrix: (Units=1/GPa)
#
#
# Indices 1 2 3 4 5 6 
#
# 1 0.004945 -0.003368 -0.002892 0.000000 0.000626 0.000000
# 2 -0.003368 0.017731 -0.000233 0.000000 -0.003378 0.000000
# 3 -0.002892 -0.000233 0.011840 0.000000 -0.007074 0.000000
# 4 0.000000 0.000000 0.000000 0.120771 0.000000 -0.019669
# 5 0.000626 -0.003378 -0.007074 0.000000 0.020180 0.000000
# 6 0.000000 0.000000 0.000000 -0.019669 0.000000 0.023262
#
#
# Mechanical properties :
#
#
# Convention : Reuss Voigt Hill
#
# Bulk Modulus (GPa) = 46.44568 98.23178 72.33873
# Shear Modulus (GPa) = 22.84266 47.13842 34.99054
#
# Velocity S-wave (km/s) = 2.88476 4.14404 3.57036
# Velocity P-wave (km/s) = 5.29306 7.66057 6.58410
#
# Compressibility (1/GPa) = 0.02153053
#
# Stress axis : x y z
#
# Youngs Moduli (GPa) = 202.24220 56.39917 84.46262
#
# Poissons Ratio (x) = 0.18996 0.24423
# Poissons Ratio (y) = 0.68117 0.01964
# Poissons Ratio (z) = 0.58480 0.01311
#
# Static dielectric constant tensor:
#      x y z
#    x 2.145670 0.000000 -0.038960 
#    y 0.000000 2.108820 0.000000 
#    z -0.038960 0.000000 2.248660 
# 
# From -- ./inp_files/153118.got.cif
#   From: 2010.05.17/outbox.cif.g08.bks.cpg/sg15_77_cif.got.tgz:153118.got - 2010.06.03 18:47:42.
