data_PCOD9255991
_publ_section_title
;
Structure prediction by ZEFSAII (Michael W. Deem and Ramdas Pophale) SiO2 
 PCOD9255991
Probable space group: C 2/C
;
_chemical_formula_sum "Si O2"
_cell_formula_units_Z 44
_cell_length_a 8.473017
_cell_length_b 14.189675
_cell_length_c 21.681828
_cell_angle_alpha 90.000000
_cell_angle_beta 38.190792
_cell_angle_gamma 90.000000
_cell_volume 1611.732967
_symmetry_space_group_name_H-M "C 2/C"
_symmetry_group_IT_number 15
_symmetry_cell_setting 'monoclinic'
loop_
_space_group_symop_operation_xyz
x,y,z
-x,y,1/2-z
-x,-y,-z
x,-y,1/2+z
1/2+x,1/2+y,z
1/2-x,1/2+y,1/2-z
1/2-x,1/2-y,-z
1/2+x,1/2-y,1/2+z
loop_
_atom_site_type_symbol
_atom_site_label
_atom_site_fract_x
_atom_site_fract_y
_atom_site_fract_z
Si Si1 0.109173 0.795547 0.958327
Si Si2 0.000000 0.491867 0.750000
Si Si3 0.237737 0.900053 0.042040
Si Si4 0.500000 0.748339 0.750000
Si Si5 0.568845 0.594610 0.096267
Si Si6 0.783900 0.643169 0.745451
Si Si7 0.500000 0.692867 0.250000
O O1 0.086056 0.687320 0.989855
O O2 0.396367 0.802661 0.840657
O O3 0.914592 0.833028 0.966379
O O4 0.127361 0.865473 0.010435
O O5 0.276943 0.444649 0.673002
O O6 0.005159 0.565870 0.805907
O O7 0.997680 0.899798 0.162429
O O8 0.280262 0.012058 0.024540
O O9 0.757615 0.693261 0.688609
O O10 0.558942 0.634399 0.169690
O O11 0.796099 0.728914 0.790399
#
# Coordination Sequence:
#
# PCOD9255991 Si02
#       7
#     8   4   8   4   8   8   4
#     4  10  19  36  62  87 115 158 197 250 308 366
#     4   9  21  34  55  87 112 148 203 239 302 350
#     4   9  21  36  60  86 120 154 204 243 314 366
#     4  10  17  33  69  81 110 154 200 240 308 346
#     4  11  21  37  59  89 121 160 199 258 295 366
#     4   9  19  38  57  85 116 153 195 252 288 366
#     4  11  22  35  58  90 122 150 211 239 296 354
#
# _framework density 27.299809
#
# number of rings (size 3 to 8) (size 9 to 14) (size 15 to 20)
#    0.000    2.182    1.818    1.091    2.545    6.545 
#    0.000    0.909    4.000    5.455    0.000    0.000 
#    0.000    0.000    0.000    0.000    0.000    0.000 
#
# Total GULP energy -122545.044934 kJ/mol
# GULP energy per Si atom -5570.229315 kJ/mol
# Density = 2.723767 g / cm^3
# Si number density = 27.299809 Si / 1000 Ang^3
#
#
#
# Elastic Constant Matrix: (Units=GPa)
#
#
# Indices 1 2 3 4 5 6 
#
# 1 143.8926 68.7625 33.4133 -0.0021 29.0663 -0.0003
# 2 68.7625 146.5720 6.3972 0.0009 21.5731 0.0001
# 3 33.4133 6.3972 63.7182 -0.0072 13.7155 0.0022
# 4 -0.0021 0.0009 -0.0072 24.1677 0.0046 -4.0504
# 5 29.0663 21.5731 13.7155 0.0046 53.2810 0.0002
# 6 -0.0003 0.0001 0.0022 -4.0504 0.0002 58.7519
#
#
#
# Elastic Compliance Matrix: (Units=1/GPa)
#
#
# Indices 1 2 3 4 5 6 
#
# 1 0.010684 -0.004390 -0.004542 0.000000 -0.002882 0.000000
# 2 -0.004390 0.009059 0.001764 0.000000 -0.001727 0.000000
# 3 -0.004542 0.001764 0.018547 0.000006 -0.003011 0.000000
# 4 0.000000 0.000000 0.000006 0.041861 -0.000005 0.002886
# 5 -0.002882 -0.001727 -0.003011 -0.000005 0.021815 0.000000
# 6 0.000000 0.000000 0.000000 0.002886 0.000000 0.017220
#
#
# Mechanical properties :
#
#
# Convention : Reuss Voigt Hill
#
# Bulk Modulus (GPa) = 41.74365 63.48099 52.61232
# Shear Modulus (GPa) = 35.33416 43.61409 39.47412
#
# Velocity S-wave (km/s) = 3.60154 4.00133 3.80669
# Velocity P-wave (km/s) = 5.71129 6.68216 6.21571
#
# Compressibility (1/GPa) = 0.02395574
#
# Stress axis : x y z
#
# Youngs Moduli (GPa) = 93.59554 110.38339 53.91793
#
# Poissons Ratio (x) = 0.48458 0.24488
# Poissons Ratio (y) = 0.41088 -0.09513
# Poissons Ratio (z) = 0.42508 -0.19475
#
# Static dielectric constant tensor:
#      x y z
#    x 2.183780 0.000000 0.044040 
#    y 0.000000 2.602690 0.000000 
#    z 0.044040 0.000000 2.094020 
# 
# From -- ./inp_files/188852.got.cif
#   From: 2010.05.17/outbox.cif.g08.bks.cpg/sg15_95_cif.got.tgz:188852.got - 2010.06.03 18:47:42.
