data_PCOD9255297
_publ_section_title
;
Structure prediction by ZEFSAII (Michael W. Deem and Ramdas Pophale) SiO2 
 PCOD9255297
Probable space group: C 2/C
;
_chemical_formula_sum "Si O2"
_cell_formula_units_Z 64
_cell_length_a 19.428258
_cell_length_b 21.198366
_cell_length_c 10.932229
_cell_angle_alpha 90.000000
_cell_angle_beta 135.765808
_cell_angle_gamma 90.000000
_cell_volume 3140.848300
_symmetry_space_group_name_H-M "C 2/C"
_symmetry_group_IT_number 15
_symmetry_cell_setting 'monoclinic'
loop_
_space_group_symop_operation_xyz
x,y,z
-x,y,1/2-z
-x,-y,-z
x,-y,1/2+z
1/2+x,1/2+y,z
1/2-x,1/2+y,1/2-z
1/2-x,1/2-y,-z
1/2+x,1/2-y,1/2+z
loop_
_atom_site_type_symbol
_atom_site_label
_atom_site_fract_x
_atom_site_fract_y
_atom_site_fract_z
Si Si1 0.109053 0.003671 0.584435
Si Si2 0.397074 0.882824 0.925714
Si Si3 0.949873 0.256036 0.878404
Si Si4 0.864441 0.698981 0.013747
Si Si5 0.336070 0.639066 0.776585
Si Si6 0.051855 0.438135 0.936060
Si Si7 0.300958 0.029014 0.458449
Si Si8 0.274651 0.564680 0.456996
O O1 0.142926 0.076995 0.616723
O O2 0.186836 0.968961 0.774201
O O3 0.131799 0.966763 0.489018
O O4 0.000000 0.000000 0.500000
O O5 0.427968 0.810522 0.949198
O O6 0.482922 0.922764 0.963752
O O7 0.296659 0.895290 0.721050
O O8 0.365659 0.908684 0.019208
O O9 0.880960 0.274135 0.671670
O O10 0.927397 0.185812 0.890382
O O11 0.062214 0.261295 0.976838
O O12 0.909620 0.628561 0.066251
O O13 0.756372 0.686656 0.822523
O O14 0.311427 0.608533 0.613386
O O15 0.000000 0.468011 0.750000
O O16 0.146921 0.481683 0.073761
O O17 0.294090 0.991073 0.575164
#
# Coordination Sequence:
#
# PCOD9255297 Si02
#       8
#     8   8   8   8   8   8   8   8
#     4  10  23  37  51  76 104 138 189 226 265 326
#     4  10  18  29  48  79 113 134 176 214 258 341
#     4  10  19  30  50  78 112 146 173 213 264 332
#     4  10  17  30  47  76 108 140 170 208 272 322
#     4  11  20  36  55  76 111 145 172 224 275 309
#     4  11  14  29  49  73 112 140 163 214 275 320
#     4  10  19  31  50  75 102 144 171 221 274 309
#     4  10  19  35  54  75 107 140 181 228 275 318
#
# _framework density 20.376660999999999
#
# number of rings (size 3 to 8) (size 9 to 14) (size 15 to 20)
#    0.000    1.750    7.500    0.750    0.000    4.000 
#    2.250    0.000    0.000    0.750    0.000    0.000 
#    7.500    0.000    0.000    0.000    0.000    0.000 
#
# Total GULP energy -178254.470198 kJ/mol
# GULP energy per Si atom -5570.452194 kJ/mol
# Density = 2.033028 g / cm^3
# Si number density = 20.376661 Si / 1000 Ang^3
#
#
#
# Elastic Constant Matrix: (Units=GPa)
#
#
# Indices 1 2 3 4 5 6 
#
# 1 89.8209 27.1669 12.1792 0.0000 26.3090 0.0000
# 2 27.1669 55.8652 -2.6947 0.0000 6.5598 0.0000
# 3 12.1792 -2.6947 23.3674 0.0000 16.1178 0.0000
# 4 0.0000 0.0000 0.0000 13.3188 0.0000 6.1194
# 5 26.3090 6.5598 16.1178 0.0000 26.2600 0.0000
# 6 0.0000 0.0000 0.0000 6.1194 0.0000 26.4911
#
#
#
# Elastic Compliance Matrix: (Units=1/GPa)
#
#
# Indices 1 2 3 4 5 6 
#
# 1 0.018024 -0.006595 0.002019 0.000000 -0.017649 0.000000
# 2 -0.006595 0.022070 0.009066 0.000000 -0.004470 0.000000
# 3 0.002019 0.009066 0.079330 0.000000 -0.052978 0.000000
# 4 0.000000 0.000000 0.000000 0.083996 0.000000 -0.019403
# 5 -0.017649 -0.004470 -0.052978 0.000000 0.089396 0.000000
# 6 0.000000 0.000000 0.000000 -0.019403 0.000000 0.042231
#
#
# Mechanical properties :
#
#
# Convention : Reuss Voigt Hill
#
# Bulk Modulus (GPa) = 7.78804 26.92847 17.35825
# Shear Modulus (GPa) = 13.55500 22.04079 17.79789
#
# Velocity S-wave (km/s) = 2.58199 3.29244 2.95862
# Velocity P-wave (km/s) = 3.56640 5.26285 4.49538
#
# Compressibility (1/GPa) = 0.12840206
#
# Stress axis : x y z
#
# Youngs Moduli (GPa) = 55.48248 45.31140 12.60560
#
# Poissons Ratio (x) = 0.29883 -0.02545
# Poissons Ratio (y) = 0.36591 -0.11428
# Poissons Ratio (z) = -0.11202 -0.41078
#
# Static dielectric constant tensor:
#      x y z
#    x 1.797460 0.000000 0.018200 
#    y 0.000000 1.748230 0.000000 
#    z 0.018200 0.000000 1.817220 
# 
# From -- ./inp_files/107969.got.cif
#   From: 2010.05.17/outbox.cif.g08.bks.cpg/sg15_54_cif.got.tgz:107969.got - 2010.06.03 18:47:42.
