data_PCOD9255865
_publ_section_title
;
Structure prediction by ZEFSAII (Michael W. Deem and Ramdas Pophale) SiO2 
 PCOD9255865
Probable space group: C 2/C
;
_chemical_formula_sum "Si O2"
_cell_formula_units_Z 60
_cell_length_a 12.769105
_cell_length_b 17.197374
_cell_length_c 14.916712
_cell_angle_alpha 90.000000
_cell_angle_beta 81.751685
_cell_angle_gamma 90.000000
_cell_volume 3241.752007
_symmetry_space_group_name_H-M "C 2/C"
_symmetry_group_IT_number 15
_symmetry_cell_setting 'monoclinic'
loop_
_space_group_symop_operation_xyz
x,y,z
-x,y,1/2-z
-x,-y,-z
x,-y,1/2+z
1/2+x,1/2+y,z
1/2-x,1/2+y,1/2-z
1/2-x,1/2-y,-z
1/2+x,1/2-y,1/2+z
loop_
_atom_site_type_symbol
_atom_site_label
_atom_site_fract_x
_atom_site_fract_y
_atom_site_fract_z
Si Si1 0.184495 0.676860 0.541731
Si Si2 0.410528 0.942953 0.186369
Si Si3 0.547571 0.217839 0.901647
Si Si4 0.882545 0.382672 0.640175
Si Si5 0.500000 0.369341 0.250000
Si Si6 0.256843 0.714846 0.214537
Si Si7 0.572439 0.235740 0.108580
Si Si8 0.789919 0.884624 0.195184
O O1 0.250000 0.750000 0.500000
O O2 0.147667 0.630224 0.459275
O O3 0.257765 0.624565 0.596062
O O4 0.078218 0.711164 0.601829
O O5 0.500000 0.928462 0.250000
O O6 0.415420 0.871815 0.115988
O O7 0.298283 0.936114 0.247908
O O8 0.419236 0.029455 0.148961
O O9 0.621207 0.271258 0.828935
O O10 0.565568 0.242847 0.002355
O O11 0.785609 0.353489 0.715328
O O12 0.981413 0.325653 0.646721
O O13 0.544303 0.314453 0.164874
O O14 0.403733 0.412806 0.214007
O O15 0.185866 0.709845 0.133001
O O16 0.223117 0.795344 0.268091
#
# Coordination Sequence:
#
# PCOD9255865 Si02
#       8
#     8   8   8   8   4   8   8   8
#     4  11  20  37  59  88 114 152 198 248 294 349
#     4  11  22  37  54  87 125 157 188 234 300 356
#     4  10  22  33  56  86 120 149 192 242 299 340
#     4  11  21  35  58  84 122 152 197 237 295 352
#     4  10  18  36  64  82 104 154 206 238 286 342
#     4  10  18  34  55  82 112 152 191 242 285 337
#     4  10  17  33  53  87 109 146 191 239 282 338
#     4  10  19  36  59  80 112 152 195 238 286 349
#
# _framework density 18.508510999999999
#
# number of rings (size 3 to 8) (size 9 to 14) (size 15 to 20)
#    0.000    1.600    5.333    2.000    0.000    2.133 
#    2.400    0.000    2.933    0.800    0.000    0.000 
#    0.000    0.000    0.000    0.000    0.000    0.000 
#
# Total GULP energy -167256.124834 kJ/mol
# GULP energy per Si atom -5575.204161 kJ/mol
# Density = 1.846638 g / cm^3
# Si number density = 18.508511 Si / 1000 Ang^3
#
#
#
# Elastic Constant Matrix: (Units=GPa)
#
#
# Indices 1 2 3 4 5 6 
#
# 1 127.6462 4.1692 27.8563 0.0000 -0.2844 0.0000
# 2 4.1692 23.1782 0.7057 0.0000 -7.2045 0.0000
# 3 27.8563 0.7057 63.6362 0.0000 5.6041 0.0000
# 4 0.0000 0.0000 0.0000 5.3519 0.0000 1.7572
# 5 -0.2844 -7.2045 5.6041 0.0000 40.6216 0.0000
# 6 0.0000 0.0000 0.0000 1.7572 0.0000 10.3232
#
#
#
# Elastic Compliance Matrix: (Units=1/GPa)
#
#
# Indices 1 2 3 4 5 6 
#
# 1 0.008715 -0.001342 -0.003831 0.000000 0.000352 0.000000
# 2 -0.001342 0.045964 -0.000647 0.000000 0.008232 0.000000
# 3 -0.003831 -0.000647 0.017625 0.000000 -0.002573 0.000000
# 4 0.000000 0.000000 0.000000 0.197911 0.000000 -0.033688
# 5 0.000352 0.008232 -0.002573 0.000000 0.026435 0.000000
# 6 0.000000 0.000000 0.000000 -0.033688 0.000000 0.102603
#
#
# Mechanical properties :
#
#
# Convention : Reuss Voigt Hill
#
# Bulk Modulus (GPa) = 16.48427 31.10253 23.79340
# Shear Modulus (GPa) = 11.59785 23.37462 17.48624
#
# Velocity S-wave (km/s) = 2.50596 3.55760 3.07704
# Velocity P-wave (km/s) = 4.15918 5.80657 5.05050
#
# Compressibility (1/GPa) = 0.06066388
#
# Stress axis : x y z
#
# Youngs Moduli (GPa) = 114.74753 21.75622 56.73733
#
# Poissons Ratio (x) = 0.02919 0.21736
# Poissons Ratio (y) = 0.15395 0.03673
# Poissons Ratio (z) = 0.43959 0.01408
#
# Static dielectric constant tensor:
#      x y z
#    x 1.666130 0.000000 -0.028050 
#    y 0.000000 1.605740 0.000000 
#    z -0.028050 0.000000 1.641920 
# 
# From -- ./inp_files/145636.got.cif
#   From: 2010.05.17/outbox.cif.g08.bks.cpg/sg15_73_cif.got.tgz:145636.got - 2010.06.03 18:47:42.
