data_PCOD9255378
_publ_section_title
;
Structure prediction by ZEFSAII (Michael W. Deem and Ramdas Pophale) SiO2 
 PCOD9255378
Probable space group: C 2/C
;
_chemical_formula_sum "Si O2"
_cell_formula_units_Z 64
_cell_length_a 13.982858
_cell_length_b 7.295165
_cell_length_c 23.702911
_cell_angle_alpha 90.000000
_cell_angle_beta 89.146408
_cell_angle_gamma 90.000000
_cell_volume 2417.600599
_symmetry_space_group_name_H-M "C 2/C"
_symmetry_group_IT_number 15
_symmetry_cell_setting 'monoclinic'
loop_
_space_group_symop_operation_xyz
x,y,z
-x,y,1/2-z
-x,-y,-z
x,-y,1/2+z
1/2+x,1/2+y,z
1/2-x,1/2+y,1/2-z
1/2-x,1/2-y,-z
1/2+x,1/2-y,1/2+z
loop_
_atom_site_type_symbol
_atom_site_label
_atom_site_fract_x
_atom_site_fract_y
_atom_site_fract_z
Si Si1 0.169188 0.935287 0.613864
Si Si2 0.848558 0.342319 0.846107
Si Si3 0.510882 0.305862 0.534403
Si Si4 0.340830 0.431789 0.590843
Si Si5 0.730875 0.939685 0.772205
Si Si6 0.449849 0.053467 0.168263
Si Si7 0.355603 0.852340 0.553728
Si Si8 0.578637 0.469636 0.291433
O O1 0.078054 0.838325 0.588064
O O2 0.225886 0.856538 0.668969
O O3 0.249707 0.938434 0.563137
O O4 0.131047 0.134363 0.634182
O O5 0.767644 0.396438 0.891318
O O6 0.805066 0.343033 0.784347
O O7 0.937967 0.479257 0.838265
O O8 0.500000 0.500000 0.500000
O O9 0.399211 0.286040 0.552523
O O10 0.571744 0.156212 0.499315
O O11 0.340495 0.634853 0.565165
O O12 0.400691 0.439495 0.648778
O O13 0.635077 0.045340 0.795882
O O14 0.823755 0.025009 0.743354
O O15 0.414113 0.069680 0.105493
O O16 0.446576 0.258466 0.194974
O O17 0.500000 0.551192 0.250000
#
# Coordination Sequence:
#
# PCOD9255378 Si02
#       8
#     8   8   8   8   8   8   8   8
#     4  11  21  36  60  88 116 155 201 244 297 362
#     4  11  21  36  58  87 119 156 197 242 293 358
#     4  10  19  38  63  87 114 157 206 250 294 351
#     4   9  20  35  55  84 117 151 198 247 292 350
#     4  10  20  31  53  83 114 146 189 238 284 340
#     4  10  19  34  55  79 110 153 194 231 284 355
#     4   9  20  38  59  84 116 154 199 248 297 346
#     4  10  17  30  53  78 105 146 193 236 282 344
#
# _framework density 26.472528000000001
#
# number of rings (size 3 to 8) (size 9 to 14) (size 15 to 20)
#    0.000    2.000    0.000    6.000    0.000    1.000 
#    0.000    8.750    0.000   36.000    0.000    1.750 
#    0.000    0.000    0.000    0.000    0.000    0.000 
#
# Total GULP energy -178577.307301 kJ/mol
# GULP energy per Si atom -5580.540853 kJ/mol
# Density = 2.641228 g / cm^3
# Si number density = 26.472528 Si / 1000 Ang^3
#
#
#
# Elastic Constant Matrix: (Units=GPa)
#
#
# Indices 1 2 3 4 5 6 
#
# 1 194.3041 18.9237 43.2343 0.0000 -39.3325 0.0000
# 2 18.9237 44.1503 28.0999 0.0000 -10.8765 0.0000
# 3 43.2343 28.0999 81.3799 0.0000 -21.0731 0.0000
# 4 0.0000 0.0000 0.0000 30.9232 0.0000 -8.4173
# 5 -39.3325 -10.8765 -21.0731 0.0000 44.8520 0.0000
# 6 0.0000 0.0000 0.0000 -8.4173 0.0000 43.1200
#
#
#
# Elastic Compliance Matrix: (Units=1/GPa)
#
#
# Indices 1 2 3 4 5 6 
#
# 1 0.006615 -0.000276 -0.002202 0.000000 0.004699 0.000000
# 2 -0.000276 0.029321 -0.009335 0.000000 0.002482 0.000000
# 3 -0.002202 -0.009335 0.017755 0.000000 0.004147 0.000000
# 4 0.000000 0.000000 0.000000 0.034153 0.000000 0.006667
# 5 0.004699 0.002482 0.004147 0.000000 0.028967 0.000000
# 6 0.000000 0.000000 0.000000 0.006667 0.000000 0.024493
#
#
# Mechanical properties :
#
#
# Convention : Reuss Voigt Hill
#
# Bulk Modulus (GPa) = 33.26136 55.59444 44.42790
# Shear Modulus (GPa) = 28.57950 39.08414 33.83182
#
# Velocity S-wave (km/s) = 3.28928 3.84657 3.57879
# Velocity P-wave (km/s) = 5.19784 6.38549 5.82203
#
# Compressibility (1/GPa) = 0.03006492
#
# Stress axis : x y z
#
# Youngs Moduli (GPa) = 151.17948 34.10518 56.32187
#
# Poissons Ratio (x) = 0.00941 0.12402
# Poissons Ratio (y) = 0.04173 0.52576
# Poissons Ratio (z) = 0.33290 0.31837
#
# Static dielectric constant tensor:
#      x y z
#    x 2.138590 0.000000 -0.008710 
#    y 0.000000 2.239040 0.000000 
#    z -0.008710 0.000000 1.980370 
# 
# From -- ./inp_files/273165.got.cif
#   From: 2010.05.17/outbox.cif.g08.bks.cpg/sg15_137_cif.got.tgz:273165.got - 2010.06.03 18:47:42.
