data_PCOD9255750
_publ_section_title
;
Structure prediction by ZEFSAII (Michael W. Deem and Ramdas Pophale) SiO2 
 PCOD9255750
Probable space group: C 2/C
;
_chemical_formula_sum "Si O2"
_cell_formula_units_Z 40
_cell_length_a 23.306128
_cell_length_b 12.983906
_cell_length_c 16.722711
_cell_angle_alpha 90.000000
_cell_angle_beta 21.862492
_cell_angle_gamma 90.000000
_cell_volume 1884.381702
_symmetry_space_group_name_H-M "C 2/C"
_symmetry_group_IT_number 15
_symmetry_cell_setting 'monoclinic'
loop_
_space_group_symop_operation_xyz
x,y,z
-x,y,1/2-z
-x,-y,-z
x,-y,1/2+z
1/2+x,1/2+y,z
1/2-x,1/2+y,1/2-z
1/2-x,1/2-y,-z
1/2+x,1/2-y,1/2+z
loop_
_atom_site_type_symbol
_atom_site_label
_atom_site_fract_x
_atom_site_fract_y
_atom_site_fract_z
Si Si1 0.590860 0.540480 0.552027
Si Si2 0.875881 0.209656 0.112555
Si Si3 0.404313 0.349915 0.758101
Si Si4 0.901422 0.369333 0.613129
Si Si5 0.422161 0.888861 0.269828
O O1 0.500000 0.566022 0.750000
O O2 0.541424 0.620956 0.546448
O O3 0.547360 0.425397 0.583078
O O4 0.773725 0.560031 0.319509
O O5 0.975304 0.312599 0.991281
O O6 0.856399 0.168305 0.228014
O O7 0.710245 0.217829 0.283735
O O8 0.432455 0.236486 0.755785
O O9 0.261162 0.404203 0.988408
O O10 0.987423 0.421148 0.426830
O O11 0.500000 0.929036 0.250000
#
# Coordination Sequence:
#
# PCOD9255750 Si02
#       5
#     8   8   8   8   8
#     4  10  21  37  57  79 116 151 193 237 279 332
#     4   9  19  36  60  81 114 150 190 232 283 338
#     4  10  19  32  59  84 115 147 182 234 303 336
#     4   9  20  35  59  83 113 150 194 231 283 338
#     4  10  17  32  56  86 112 144 185 235 289 355
#
# _framework density 21.227122000000001
#
# number of rings (size 3 to 8) (size 9 to 14) (size 15 to 20)
#    1.200    1.200    2.000    1.200    0.000    0.800 
#    0.000    1.000    4.400    0.000    0.000    0.000 
#    0.000    0.000    0.000    0.000    0.000    0.000 
#
# Total GULP energy -111544.685777 kJ/mol
# GULP energy per Si atom -5577.234289 kJ/mol
# Density = 2.117881 g / cm^3
# Si number density = 21.227122 Si / 1000 Ang^3
#
#
#
# Elastic Constant Matrix: (Units=GPa)
#
#
# Indices 1 2 3 4 5 6 
#
# 1 55.7511 9.9759 8.1027 0.0000 1.0072 0.0000
# 2 9.9759 44.8087 29.7389 0.0000 -4.5335 0.0000
# 3 8.1027 29.7389 125.9686 0.0000 4.0745 0.0000
# 4 0.0000 0.0000 0.0000 29.3300 0.0000 -20.7784
# 5 1.0072 -4.5335 4.0745 0.0000 44.2929 0.0000
# 6 0.0000 0.0000 0.0000 -20.7784 0.0000 22.2239
#
#
#
# Elastic Compliance Matrix: (Units=1/GPa)
#
#
# Indices 1 2 3 4 5 6 
#
# 1 0.018718 -0.004114 -0.000206 0.000000 -0.000828 0.000000
# 2 -0.004114 0.027856 -0.006426 0.000000 0.003536 0.000000
# 3 -0.000206 -0.006426 0.009518 0.000000 -0.001529 0.000000
# 4 0.000000 0.000000 0.000000 0.100979 0.000000 0.094412
# 5 -0.000828 0.003536 -0.001529 0.000000 0.023098 0.000000
# 6 0.000000 0.000000 0.000000 0.094412 0.000000 0.133268
#
#
# Mechanical properties :
#
#
# Convention : Reuss Voigt Hill
#
# Bulk Modulus (GPa) = 28.90217 35.79591 32.34904
# Shear Modulus (GPa) = 14.43156 31.08341 22.75749
#
# Velocity S-wave (km/s) = 2.61025 3.83080 3.27784
# Velocity P-wave (km/s) = 4.76758 6.03876 5.44042
#
# Compressibility (1/GPa) = 0.03459948
#
# Stress axis : x y z
#
# Youngs Moduli (GPa) = 53.42466 35.89945 105.06177
#
# Poissons Ratio (x) = 0.14770 0.02163
# Poissons Ratio (y) = 0.21981 0.67512
# Poissons Ratio (z) = 0.01100 0.23069
#
# Static dielectric constant tensor:
#      x y z
#    x 1.792820 0.000000 -0.007310 
#    y 0.000000 1.755910 0.000000 
#    z -0.007310 0.000000 1.789940 
# 
# From -- ./inp_files/94669.got.cif
#   From: 2010.05.17/outbox.cif.g08.bks.cpg/sg15_48_cif.got.tgz:94669.got - 2010.06.03 18:47:42.
