data_PCOD9255376
_publ_section_title
;
Structure prediction by ZEFSAII (Michael W. Deem and Ramdas Pophale) SiO2 
 PCOD9255376
Probable space group: C 2/C
;
_chemical_formula_sum "Si O2"
_cell_formula_units_Z 56
_cell_length_a 19.104941
_cell_length_b 20.772112
_cell_length_c 8.571828
_cell_angle_alpha 90.000000
_cell_angle_beta 62.087275
_cell_angle_gamma 90.000000
_cell_volume 3005.978214
_symmetry_space_group_name_H-M "C 2/C"
_symmetry_group_IT_number 15
_symmetry_cell_setting 'monoclinic'
loop_
_space_group_symop_operation_xyz
x,y,z
-x,y,1/2-z
-x,-y,-z
x,-y,1/2+z
1/2+x,1/2+y,z
1/2-x,1/2+y,1/2-z
1/2-x,1/2-y,-z
1/2+x,1/2-y,1/2+z
loop_
_atom_site_type_symbol
_atom_site_label
_atom_site_fract_x
_atom_site_fract_y
_atom_site_fract_z
Si Si1 0.584426 0.030790 0.140973
Si Si2 0.186937 0.786610 0.738522
Si Si3 0.741780 0.338007 0.155344
Si Si4 0.344914 0.072645 0.749880
Si Si5 0.383414 0.168458 0.276950
Si Si6 0.088460 0.807316 0.133606
Si Si7 0.353054 0.813894 0.458869
O O1 0.500000 0.996820 0.250000
O O2 0.579743 0.098734 0.235136
O O3 0.656187 0.987555 0.131983
O O4 0.600044 0.048166 0.946775
O O5 0.230984 0.727251 0.783946
O O6 0.259611 0.827467 0.594348
O O7 0.143598 0.752866 0.638073
O O8 0.127401 0.818212 0.923033
O O9 0.769417 0.396453 0.238195
O O10 0.651584 0.332644 0.195391
O O11 0.794728 0.339983 0.941740
O O12 0.380682 0.131100 0.812683
O O13 0.414240 0.229495 0.341533
O O14 0.391266 0.185602 0.087929
O O15 0.000000 0.832343 0.250000
#
# Coordination Sequence:
#
# PCOD9255376 Si02
#       7
#     8   8   8   8   8   8   8
#     4  11  22  38  52  77 112 142 179 220 261 305
#     4   9  17  31  52  73 104 141 176 222 256 314
#     4   9  17  34  53  76 102 142 188 215 259 317
#     4  10  22  34  55  74 101 145 182 219 258 307
#     4  10  18  32  55  76 108 150 179 209 251 320
#     4  11  19  32  52  82 113 140 173 220 277 317
#     4  10  17  30  53  73 101 141 189 211 248 302
#
# _framework density 18.629543999999999
#
# number of rings (size 3 to 8) (size 9 to 14) (size 15 to 20)
#    0.000    2.000    2.857    3.429    0.000    0.000 
#    0.000    2.143    0.000    0.000    0.000    4.000 
#    0.000    0.143    0.000    0.000    0.000    0.000 
#
# Total GULP energy -156014.043684 kJ/mol
# GULP energy per Si atom -5571.930132 kJ/mol
# Density = 1.858714 g / cm^3
# Si number density = 18.629544 Si / 1000 Ang^3
#
#
#
# Elastic Constant Matrix: (Units=GPa)
#
#
# Indices 1 2 3 4 5 6 
#
# 1 64.0270 8.4771 26.4197 0.0000 -13.7528 0.0000
# 2 8.4771 37.0300 -1.8927 0.0000 -3.1115 0.0000
# 3 26.4197 -1.8927 85.6370 0.0000 6.8674 0.0000
# 4 0.0000 0.0000 0.0000 18.9113 0.0000 7.9219
# 5 -13.7528 -3.1115 6.8674 0.0000 33.2926 0.0000
# 6 0.0000 0.0000 0.0000 7.9219 0.0000 20.7952
#
#
#
# Elastic Compliance Matrix: (Units=1/GPa)
#
#
# Indices 1 2 3 4 5 6 
#
# 1 0.021460 -0.004457 -0.007521 0.000000 0.010000 0.000000
# 2 -0.004457 0.028158 0.001966 0.000000 0.000385 0.000000
# 3 -0.007521 0.001966 0.014515 0.000000 -0.005917 0.000000
# 4 0.000000 0.000000 0.000000 0.062919 0.000000 -0.023969
# 5 0.010000 0.000385 -0.005917 0.000000 0.035424 0.000000
# 6 0.000000 0.000000 0.000000 -0.023969 0.000000 0.057219
#
#
# Mechanical properties :
#
#
# Convention : Reuss Voigt Hill
#
# Bulk Modulus (GPa) = 22.67019 28.07803 25.37411
# Shear Modulus (GPa) = 19.65241 24.84580 22.24910
#
# Velocity S-wave (km/s) = 3.25145 3.65592 3.45960
# Velocity P-wave (km/s) = 5.12750 5.73807 5.44136
#
# Compressibility (1/GPa) = 0.04411078
#
# Stress axis : x y z
#
# Youngs Moduli (GPa) = 46.59886 35.51355 68.89228
#
# Poissons Ratio (x) = 0.15828 0.51813
# Poissons Ratio (y) = 0.20769 -0.13547
# Poissons Ratio (z) = 0.35046 -0.06984
#
# Static dielectric constant tensor:
#      x y z
#    x 1.718840 0.000000 0.003700 
#    y 0.000000 1.666420 0.000000 
#    z 0.003700 0.000000 1.680340 
# 
# From -- ./inp_files/57448.got.cif
#   From: 2010.05.17/outbox.cif.g08.bks.cpg/sg15_29_cif.got.tgz:57448.got - 2010.06.03 18:47:42.
