data_PCOD9255468
_publ_section_title
;
Structure prediction by ZEFSAII (Michael W. Deem and Ramdas Pophale) SiO2 
 PCOD9255468
Probable space group: C 2/C
;
_chemical_formula_sum "Si O2"
_cell_formula_units_Z 48
_cell_length_a 15.651624
_cell_length_b 11.008232
_cell_length_c 20.690523
_cell_angle_alpha 90.000000
_cell_angle_beta 143.336271
_cell_angle_gamma 90.000000
_cell_volume 2128.669425
_symmetry_space_group_name_H-M "C 2/C"
_symmetry_group_IT_number 15
_symmetry_cell_setting 'monoclinic'
loop_
_space_group_symop_operation_xyz
x,y,z
-x,y,1/2-z
-x,-y,-z
x,-y,1/2+z
1/2+x,1/2+y,z
1/2-x,1/2+y,1/2-z
1/2-x,1/2-y,-z
1/2+x,1/2-y,1/2+z
loop_
_atom_site_type_symbol
_atom_site_label
_atom_site_fract_x
_atom_site_fract_y
_atom_site_fract_z
Si Si1 0.102497 0.129451 0.543225
Si Si2 0.515458 0.026138 0.407159
Si Si3 0.390000 0.169001 0.921373
Si Si4 0.195488 0.003273 0.725829
Si Si5 0.353928 0.330024 0.689495
Si Si6 0.742559 0.601859 0.499408
O O1 0.148288 0.069609 0.503506
O O2 0.112311 0.050933 0.613535
O O3 0.230900 0.231125 0.628095
O O4 0.951087 0.198237 0.447303
O O5 0.505590 0.914555 0.452701
O O6 0.348757 0.050436 0.293814
O O7 0.590969 0.134009 0.492159
O O8 0.246030 0.120217 0.800601
O O9 0.129397 0.906793 0.735249
O O10 0.314500 0.423046 0.607456
O O11 0.608189 0.030343 0.906376
O O12 0.500000 0.727852 0.250000
O O13 0.750000 0.750000 0.500000
#
# Coordination Sequence:
#
# PCOD9255468 Si02
#       6
#     8   8   8   8   8   8
#     4  11  21  30  57  89 108 133 190 225 261 321
#     4   9  14  31  53  67 114 146 171 203 280 327
#     4   9  15  33  52  73 108 152 174 209 263 339
#     4  10  19  34  52  79 111 150 174 214 281 325
#     4  11  21  34  54  80 112 140 176 227 280 314
#     4  10  17  31  49  85 109 132 174 229 272 309
#
# _framework density 22.549299000000001
#
# number of rings (size 3 to 8) (size 9 to 14) (size 15 to 20)
#    1.000    1.000    6.667    0.000    7.000    0.000 
#    0.000    0.833    0.000    3.000    0.000    0.000 
#    0.000    0.000    0.000    0.000    0.000    0.000 
#
# Total GULP energy -133749.765774 kJ/mol
# GULP energy per Si atom -5572.906907 kJ/mol
# Density = 2.249798 g / cm^3
# Si number density = 22.549299 Si / 1000 Ang^3
#
#
#
# Elastic Constant Matrix: (Units=GPa)
#
#
# Indices 1 2 3 4 5 6 
#
# 1 127.5427 50.5557 36.3593 0.0000 -8.5553 0.0000
# 2 50.5557 60.0314 13.0104 0.0000 -2.5354 0.0000
# 3 36.3593 13.0104 70.5071 0.0000 -15.7549 0.0000
# 4 0.0000 0.0000 0.0000 22.4458 0.0000 -5.8733
# 5 -8.5553 -2.5354 -15.7549 0.0000 40.7479 0.0000
# 6 0.0000 0.0000 0.0000 -5.8733 0.0000 34.4133
#
#
#
# Elastic Compliance Matrix: (Units=1/GPa)
#
#
# Indices 1 2 3 4 5 6 
#
# 1 0.013259 -0.010089 -0.004919 0.000000 0.000254 0.000000
# 2 -0.010089 0.025030 0.000502 0.000000 -0.000367 0.000000
# 3 -0.004919 0.000502 0.017954 0.000000 0.005940 0.000000
# 4 0.000000 0.000000 0.000000 0.046634 0.000000 0.007959
# 5 0.000254 -0.000367 0.005940 0.000000 0.026869 0.000000
# 6 0.000000 0.000000 0.000000 0.007959 0.000000 0.030417
#
#
# Mechanical properties :
#
#
# Convention : Reuss Voigt Hill
#
# Bulk Modulus (GPa) = 36.72205 50.88134 43.80169
# Shear Modulus (GPa) = 25.22029 30.06511 27.64270
#
# Velocity S-wave (km/s) = 3.34795 3.65541 3.50505
# Velocity P-wave (km/s) = 5.59157 6.35842 5.98728
#
# Compressibility (1/GPa) = 0.02723160
#
# Stress axis : x y z
#
# Youngs Moduli (GPa) = 75.41992 39.95136 55.69703
#
# Poissons Ratio (x) = 0.40309 0.27397
# Poissons Ratio (y) = 0.76094 -0.02797
# Poissons Ratio (z) = 0.37099 -0.02006
#
# Static dielectric constant tensor:
#      x y z
#    x 1.836120 0.000000 0.000850 
#    y 0.000000 1.892340 0.000000 
#    z 0.000850 0.000000 2.005620 
# 
# From -- ./inp_files/318741.got.cif
#   From: 2010.05.17/outbox.cif.g08.bks.cpg/sg15_160_cif.got.tgz:318741.got - 2010.06.03 18:47:42.
