data_PCOD9255891
_publ_section_title
;
Structure prediction by ZEFSAII (Michael W. Deem and Ramdas Pophale) SiO2 
 PCOD9255891
Probable space group: C 2/C
;
_chemical_formula_sum "Si O2"
_cell_formula_units_Z 60
_cell_length_a 11.143687
_cell_length_b 17.306052
_cell_length_c 15.800480
_cell_angle_alpha 90.000000
_cell_angle_beta 123.849444
_cell_angle_gamma 90.000000
_cell_volume 2530.690124
_symmetry_space_group_name_H-M "C 2/C"
_symmetry_group_IT_number 15
_symmetry_cell_setting 'monoclinic'
loop_
_space_group_symop_operation_xyz
x,y,z
-x,y,1/2-z
-x,-y,-z
x,-y,1/2+z
1/2+x,1/2+y,z
1/2-x,1/2+y,1/2-z
1/2-x,1/2-y,-z
1/2+x,1/2-y,1/2+z
loop_
_atom_site_type_symbol
_atom_site_label
_atom_site_fract_x
_atom_site_fract_y
_atom_site_fract_z
Si Si1 0.625730 0.126320 0.366817
Si Si2 0.834927 0.439412 0.438822
Si Si3 0.137476 0.405101 0.488477
Si Si4 0.714194 0.286494 0.357999
Si Si5 0.676104 0.975460 0.326671
Si Si6 0.500000 0.742816 0.250000
Si Si7 0.957220 0.235329 0.045093
Si Si8 0.299303 0.331703 0.327664
O O1 0.500000 0.132142 0.250000
O O2 0.592329 0.083959 0.441549
O O3 0.665903 0.214838 0.395320
O O4 0.728961 0.063363 0.360671
O O5 0.796020 0.529866 0.423108
O O6 0.710620 0.374949 0.387076
O O7 0.965962 0.424906 0.425913
O O8 0.199217 0.429361 0.422901
O O9 0.142467 0.313131 0.499430
O O10 0.647637 0.289847 0.237180
O O11 0.882595 0.266078 0.410566
O O12 0.500000 0.975775 0.250000
O O13 0.763689 0.921991 0.296561
O O14 0.466279 0.703615 0.145458
O O15 0.641930 0.794804 0.287786
O O16 0.906048 0.183016 0.947439
#
# Coordination Sequence:
#
# PCOD9255891 Si02
#       8
#     8   8   8   8   8   4   8   8
#     4  10  22  35  57  82 108 149 198 241 285 336
#     4   9  18  34  53  79 113 144 182 242 285 327
#     4   9  17  29  54  85 108 142 179 234 291 330
#     4  10  22  37  52  82 115 151 191 234 287 340
#     4  10  17  33  55  86 114 138 187 245 287 334
#     4  10  18  32  54  84 116 144 176 234 286 340
#     4  10  20  33  55  83 120 146 185 230 287 352
#     4  11  20  34  56  85 114 151 183 231 296 343
#
# _framework density 23.708946999999998
#
# number of rings (size 3 to 8) (size 9 to 14) (size 15 to 20)
#    0.000    2.133    2.000    2.400    3.733    1.067 
#    0.000    0.667    0.000    0.000    1.733    0.000 
#    0.000    0.000    0.000    0.000    0.000    0.000 
#
# Total GULP energy -167088.191038 kJ/mol
# GULP energy per Si atom -5569.606368 kJ/mol
# Density = 2.365498 g / cm^3
# Si number density = 23.708947 Si / 1000 Ang^3
#
#
#
# Elastic Constant Matrix: (Units=GPa)
#
#
# Indices 1 2 3 4 5 6 
#
# 1 12.3358 9.6638 0.1649 0.0000 -8.9341 0.0000
# 2 9.6638 130.8881 25.2526 0.0000 -5.1236 0.0000
# 3 0.1649 25.2526 113.3506 0.0000 -5.5744 0.0000
# 4 0.0000 0.0000 0.0000 22.4588 0.0000 -6.3910
# 5 -8.9341 -5.1236 -5.5744 0.0000 20.1019 0.0000
# 6 0.0000 0.0000 0.0000 -6.3910 0.0000 26.5619
#
#
#
# Elastic Compliance Matrix: (Units=1/GPa)
#
#
# Indices 1 2 3 4 5 6 
#
# 1 0.127900 -0.008095 0.004371 0.000000 0.055993 0.000000
# 2 -0.008095 0.008544 -0.001989 0.000000 -0.001971 0.000000
# 3 0.004371 -0.001989 0.009458 0.000000 0.004059 0.000000
# 4 0.000000 0.000000 0.000000 0.047799 0.000000 0.011501
# 5 0.055993 -0.001971 0.004059 0.000000 0.075255 0.000000
# 6 0.000000 0.000000 0.000000 0.011501 0.000000 0.040415
#
#
# Mechanical properties :
#
#
# Convention : Reuss Voigt Hill
#
# Bulk Modulus (GPa) = 7.43618 36.30412 21.87015
# Shear Modulus (GPa) = 13.67533 28.59072 21.13303
#
# Velocity S-wave (km/s) = 2.40427 3.47638 2.98879
# Velocity P-wave (km/s) = 3.29403 5.60886 4.59945
#
# Compressibility (1/GPa) = 0.13447759
#
# Stress axis : x y z
#
# Youngs Moduli (GPa) = 7.81864 117.03740 105.72532
#
# Poissons Ratio (x) = 0.94737 -0.46212
# Poissons Ratio (y) = 0.06329 0.21026
# Poissons Ratio (z) = -0.03417 0.23275
#
# Static dielectric constant tensor:
#      x y z
#    x 1.952270 0.000000 0.000500 
#    y 0.000000 2.000480 0.000000 
#    z 0.000500 0.000000 2.016820 
# 
# From -- ./inp_files/206147.got.cif
#   From: 2010.05.17/outbox.cif.g08.bks.cpg/sg15_104_cif.got.tgz:206147.got - 2010.06.03 18:47:42.
