data_PCOD9255010
_publ_section_title
;
Structure prediction by ZEFSAII (Michael W. Deem and Ramdas Pophale) SiO2 
 PCOD9255010
Probable space group: C 2/C
;
_chemical_formula_sum "Si O2"
_cell_formula_units_Z 52
_cell_length_a 12.236366
_cell_length_b 24.593481
_cell_length_c 12.887443
_cell_angle_alpha 90.000000
_cell_angle_beta 146.293803
_cell_angle_gamma 90.000000
_cell_volume 2152.191305
_symmetry_space_group_name_H-M "C 2/C"
_symmetry_group_IT_number 15
_symmetry_cell_setting 'monoclinic'
loop_
_space_group_symop_operation_xyz
x,y,z
-x,y,1/2-z
-x,-y,-z
x,-y,1/2+z
1/2+x,1/2+y,z
1/2-x,1/2+y,1/2-z
1/2-x,1/2-y,-z
1/2+x,1/2-y,1/2+z
loop_
_atom_site_type_symbol
_atom_site_label
_atom_site_fract_x
_atom_site_fract_y
_atom_site_fract_z
Si Si1 0.814916 0.108703 0.468276
Si Si2 0.271892 0.925587 0.375454
Si Si3 0.405027 0.822902 0.392792
Si Si4 0.508814 0.712241 0.960416
Si Si5 0.000000 0.106615 0.250000
Si Si6 0.765997 0.192101 0.958268
Si Si7 0.158864 0.966500 0.692801
O O1 0.709215 0.089701 0.489115
O O2 0.821500 0.173923 0.452661
O O3 0.744151 0.074197 0.313577
O O4 0.045321 0.091289 0.666635
O O5 0.414482 0.885848 0.424199
O O6 0.284819 0.988237 0.353269
O O7 0.520420 0.776840 0.545087
O O8 0.395590 0.814966 0.260778
O O9 0.185730 0.804227 0.256043
O O10 0.465519 0.691190 0.043593
O O11 0.812216 0.144589 0.075095
O O12 0.953532 0.069153 0.311029
O O13 0.750000 0.250000 0.000000
O O14 0.000000 0.000000 0.500000
#
# Coordination Sequence:
#
# PCOD9255010 Si02
#       7
#     8   8   8   8   4   8   8
#     4   9  16  29  45  66 102 130 170 204 258 308
#     4   9  17  29  46  71 100 138 160 219 256 311
#     4   9  19  33  49  71 106 131 178 207 264 306
#     4   9  18  33  48  72 101 138 167 217 250 313
#     4  12  18  30  50  72 104 142 168 212 274 308
#     4  10  20  30  49  73 104 134 174 209 258 313
#     4  10  17  27  44  72 103 132 169 210 268 312
#
# _framework density 24.161422000000002
#
# number of rings (size 3 to 8) (size 9 to 14) (size 15 to 20)
#    0.923    1.538    1.538    3.692    0.000    0.615 
#    0.000    0.000    0.000    0.000    0.000    4.308 
#    0.000   12.308    0.000    0.000    0.000    0.000 
#
# Total GULP energy -144943.986662 kJ/mol
# GULP energy per Si atom -5574.768718 kJ/mol
# Density = 2.410643 g / cm^3
# Si number density = 24.161422 Si / 1000 Ang^3
#
#
#
# Elastic Constant Matrix: (Units=GPa)
#
#
# Indices 1 2 3 4 5 6 
#
# 1 61.7681 25.7541 35.7952 0.0000 -23.2412 0.0000
# 2 25.7541 118.1153 55.2955 0.0000 -12.2628 0.0000
# 3 35.7952 55.2955 98.2962 0.0000 -22.2532 0.0000
# 4 0.0000 0.0000 0.0000 38.5508 0.0000 -13.7196
# 5 -23.2412 -12.2628 -22.2532 0.0000 36.7544 0.0000
# 6 0.0000 0.0000 0.0000 -13.7196 0.0000 30.5222
#
#
#
# Elastic Compliance Matrix: (Units=1/GPa)
#
#
# Indices 1 2 3 4 5 6 
#
# 1 0.024313 -0.001604 -0.005322 0.000000 0.011617 0.000000
# 2 -0.001604 0.011599 -0.006135 0.000000 -0.000859 0.000000
# 3 -0.005322 -0.006135 0.016615 0.000000 0.004647 0.000000
# 4 0.000000 0.000000 0.000000 0.030880 0.000000 0.013880
# 5 0.011617 -0.000859 0.004647 0.000000 0.037081 0.000000
# 6 0.000000 0.000000 0.000000 0.013880 0.000000 0.039002
#
#
# Mechanical properties :
#
#
# Convention : Reuss Voigt Hill
#
# Bulk Modulus (GPa) = 37.87092 56.87436 47.37264
# Shear Modulus (GPa) = 25.71838 31.92112 28.81975
#
# Velocity S-wave (km/s) = 3.26612 3.63872 3.45744
# Velocity P-wave (km/s) = 5.47097 6.42216 5.96555
#
# Compressibility (1/GPa) = 0.02640548
#
# Stress axis : x y z
#
# Youngs Moduli (GPa) = 41.12957 86.21359 60.18758
#
# Poissons Ratio (x) = 0.13828 0.32029
# Poissons Ratio (y) = 0.06597 0.36927
# Poissons Ratio (z) = 0.21887 0.52895
#
# Static dielectric constant tensor:
#      x y z
#    x 2.082140 0.000000 0.122020 
#    y 0.000000 2.044110 0.000000 
#    z 0.122020 0.000000 2.008880 
# 
# From -- ./inp_files/100445.got.cif
#   From: 2010.05.17/outbox.cif.g08.bks.cpg/sg15_51_cif.got.tgz:100445.got - 2010.06.03 18:47:42.
