data_PCOD9255968
_publ_section_title
;
Structure prediction by ZEFSAII (Michael W. Deem and Ramdas Pophale) SiO2 
 PCOD9255968
Probable space group: C 2/C
;
_chemical_formula_sum "Si O2"
_cell_formula_units_Z 64
_cell_length_a 14.404317
_cell_length_b 11.492485
_cell_length_c 34.154423
_cell_angle_alpha 90.000000
_cell_angle_beta 140.148944
_cell_angle_gamma 90.000000
_cell_volume 3623.030962
_symmetry_space_group_name_H-M "C 2/C"
_symmetry_group_IT_number 15
_symmetry_cell_setting 'monoclinic'
loop_
_space_group_symop_operation_xyz
x,y,z
-x,y,1/2-z
-x,-y,-z
x,-y,1/2+z
1/2+x,1/2+y,z
1/2-x,1/2+y,1/2-z
1/2-x,1/2-y,-z
1/2+x,1/2-y,1/2+z
loop_
_atom_site_type_symbol
_atom_site_label
_atom_site_fract_x
_atom_site_fract_y
_atom_site_fract_z
Si Si1 0.011590 0.650059 0.461272
Si Si2 0.975798 0.018626 0.153020
Si Si3 0.634568 0.338855 0.763800
Si Si4 0.255482 0.979535 0.358465
Si Si5 0.237402 0.547476 0.013923
Si Si6 0.500991 0.478392 0.954462
Si Si7 0.392320 0.335847 0.364018
Si Si8 0.024464 0.712820 0.556395
O O1 0.868834 0.568813 0.415420
O O2 0.992424 0.739590 0.418928
O O3 0.023212 0.702414 0.508443
O O4 0.145523 0.564800 0.497299
O O5 0.886310 0.970036 0.160999
O O6 0.046568 0.910567 0.152645
O O7 0.857382 0.072864 0.085541
O O8 0.076315 0.121389 0.202670
O O9 0.500000 0.316524 0.750000
O O10 0.713140 0.455472 0.805182
O O11 0.747655 0.233066 0.804717
O O12 0.341867 0.860587 0.383689
O O13 0.333600 0.511373 0.007770
O O14 0.121796 0.652069 0.974414
O O15 0.390761 0.565932 0.897355
O O16 0.461985 0.347334 0.930558
O O17 0.500000 0.500000 0.000000
#
# Coordination Sequence:
#
# PCOD9255968 Si02
#       8
#     8   8   8   8   8   8   8   8
#     4  10  17  33  61  82 118 142 180 228 274 347
#     4  10  18  34  58  85 104 140 195 237 265 326
#     4   9  20  38  62  75  99 148 198 238 269 318
#     4   9  17  33  58  86 103 143 190 228 278 311
#     4  10  20  34  56  89 111 152 190 223 279 334
#     4  11  23  34  50  81 123 153 174 220 287 351
#     4  10  22  37  56  82 114 147 187 224 292 339
#     4  11  18  34  56  84 122 142 178 232 276 343
#
# _framework density 17.664769
#
# number of rings (size 3 to 8) (size 9 to 14) (size 15 to 20)
#    0.000    2.000    3.750    1.125    0.000    3.000 
#    4.500    0.000    8.250    0.000    0.000    0.000 
#    0.000    0.000    0.000    0.000    0.000    0.000 
#
# Total GULP energy -178234.739298 kJ/mol
# GULP energy per Si atom -5569.835603 kJ/mol
# Density = 1.762456 g / cm^3
# Si number density = 17.664769 Si / 1000 Ang^3
#
#
#
# Elastic Constant Matrix: (Units=GPa)
#
#
# Indices 1 2 3 4 5 6 
#
# 1 77.9894 26.9516 34.1739 0.0000 -5.9075 0.0000
# 2 26.9516 108.7126 45.4474 0.0000 9.9285 0.0000
# 3 34.1739 45.4474 88.3477 0.0000 8.1826 0.0000
# 4 0.0000 0.0000 0.0000 23.7351 0.0000 -0.9317
# 5 -5.9075 9.9285 8.1826 0.0000 18.0583 0.0000
# 6 0.0000 0.0000 0.0000 -0.9317 0.0000 20.4957
#
#
#
# Elastic Compliance Matrix: (Units=1/GPa)
#
#
# Indices 1 2 3 4 5 6 
#
# 1 0.017188 -0.002548 -0.006251 0.000000 0.009856 0.000000
# 2 -0.002548 0.012362 -0.004871 0.000000 -0.005423 0.000000
# 3 -0.006251 -0.004871 0.016893 0.000000 -0.007021 0.000000
# 4 0.000000 0.000000 0.000000 0.042207 0.000000 0.001919
# 5 0.009856 -0.005423 -0.007021 0.000000 0.064764 0.000000
# 6 0.000000 0.000000 0.000000 0.001919 0.000000 0.048878
#
#
# Mechanical properties :
#
#
# Convention : Reuss Voigt Hill
#
# Bulk Modulus (GPa) = 52.34810 54.24396 53.29603
# Shear Modulus (GPa) = 21.18645 23.68962 22.43803
#
# Velocity S-wave (km/s) = 3.46694 3.66603 3.56787
# Velocity P-wave (km/s) = 6.76201 6.97809 6.87090
#
# Compressibility (1/GPa) = 0.01910289
#
# Stress axis : x y z
#
# Youngs Moduli (GPa) = 58.17854 80.89285 59.19667
#
# Poissons Ratio (x) = 0.20614 0.37002
# Poissons Ratio (y) = 0.14826 0.28836
# Poissons Ratio (z) = 0.36365 0.39405
#
# Static dielectric constant tensor:
#      x y z
#    x 1.641870 0.000000 -0.004880 
#    y 0.000000 1.611270 0.000000 
#    z -0.004880 0.000000 1.631220 
# 
# From -- ./inp_files/313601.got.cif
#   From: 2010.05.17/outbox.cif.g08.bks.cpg/sg15_157_cif.got.tgz:313601.got - 2010.06.03 18:47:42.
