data_PCOD9255977
_publ_section_title
;
Structure prediction by ZEFSAII (Michael W. Deem and Ramdas Pophale) SiO2 
 PCOD9255977
Probable space group: C 2/C
;
_chemical_formula_sum "Si O2"
_cell_formula_units_Z 44
_cell_length_a 12.120555
_cell_length_b 12.517103
_cell_length_c 18.955186
_cell_angle_alpha 90.000000
_cell_angle_beta 56.570352
_cell_angle_gamma 90.000000
_cell_volume 2400.012251
_symmetry_space_group_name_H-M "C 2/C"
_symmetry_group_IT_number 15
_symmetry_cell_setting 'monoclinic'
loop_
_space_group_symop_operation_xyz
x,y,z
-x,y,1/2-z
-x,-y,-z
x,-y,1/2+z
1/2+x,1/2+y,z
1/2-x,1/2+y,1/2-z
1/2-x,1/2-y,-z
1/2+x,1/2-y,1/2+z
loop_
_atom_site_type_symbol
_atom_site_label
_atom_site_fract_x
_atom_site_fract_y
_atom_site_fract_z
Si Si1 0.000000 0.918614 0.750000
Si Si2 0.133979 0.327815 0.516756
Si Si3 0.917050 0.735378 0.870153
Si Si4 0.631820 0.783901 0.951161
Si Si5 0.499205 0.990704 0.669144
Si Si6 0.786680 0.492802 0.127073
O O1 0.993684 0.832621 0.688519
O O2 0.131112 0.988180 0.692459
O O3 0.250000 0.250000 0.500000
O O4 0.098697 0.418055 0.587532
O O5 0.174682 0.386257 0.428940
O O6 0.996251 0.265211 0.551217
O O7 0.775521 0.740604 0.879739
O O8 0.966516 0.616065 0.842848
O O9 0.894829 0.753926 0.960609
O O10 0.655312 0.911545 0.941877
O O11 0.500000 0.953500 0.750000
O O12 0.361012 0.989368 0.675020
#
# Coordination Sequence:
#
# PCOD9255977 Si02
#       6
#     4   8   8   8   8   8
#     4  10  22  34  58  90 114 150 186 248 292 336
#     4  11  22  40  59  83 119 165 189 227 294 355
#     4  10  17  33  62  86 106 143 202 239 279 331
#     4   9  18  35  63  80 108 153 196 234 282 347
#     4  11  21  39  61  87 115 152 196 244 288 341
#     4  10  20  41  57  79 122 159 189 230 300 346
#
# _framework density 18.333238999999999
#
# number of rings (size 3 to 8) (size 9 to 14) (size 15 to 20)
#    0.000    1.818    4.545    1.091    0.000    1.455 
#    4.909    0.909    0.000    0.000    0.000    0.000 
#    0.000    0.000    0.000    0.000    0.000    0.000 
#
# Total GULP energy -122528.230755 kJ/mol
# GULP energy per Si atom -5569.465034 kJ/mol
# Density = 1.829151 g / cm^3
# Si number density = 18.333239 Si / 1000 Ang^3
#
#
#
# Elastic Constant Matrix: (Units=GPa)
#
#
# Indices 1 2 3 4 5 6 
#
# 1 100.1619 29.0835 29.5849 0.0000 -8.5404 0.0000
# 2 29.0835 36.1748 7.2941 0.0000 -4.9200 0.0000
# 3 29.5849 7.2941 85.2377 0.0000 6.9096 0.0000
# 4 0.0000 0.0000 0.0000 12.3817 0.0000 1.9467
# 5 -8.5404 -4.9200 6.9096 0.0000 29.2576 0.0000
# 6 0.0000 0.0000 0.0000 1.9467 0.0000 24.3607
#
#
#
# Elastic Compliance Matrix: (Units=1/GPa)
#
#
# Indices 1 2 3 4 5 6 
#
# 1 0.014622 -0.010365 -0.004478 0.000000 0.003583 0.000000
# 2 -0.010365 0.036340 0.000242 0.000000 0.003028 0.000000
# 3 -0.004478 0.000242 0.013629 0.000000 -0.004485 0.000000
# 4 0.000000 0.000000 0.000000 0.081792 0.000000 -0.006536
# 5 0.003583 0.003028 -0.004485 0.000000 0.036793 0.000000
# 6 0.000000 0.000000 0.000000 -0.006536 0.000000 0.041572
#
#
# Mechanical properties :
#
#
# Convention : Reuss Voigt Hill
#
# Bulk Modulus (GPa) = 28.25793 39.27771 33.76782
# Shear Modulus (GPa) = 18.81486 23.57411 21.19449
#
# Velocity S-wave (km/s) = 3.20702 3.58979 3.40379
# Velocity P-wave (km/s) = 5.40002 6.21715 5.82294
#
# Compressibility (1/GPa) = 0.03538830
#
# Stress axis : x y z
#
# Youngs Moduli (GPa) = 68.39085 27.51796 73.37212
#
# Poissons Ratio (x) = 0.28523 0.32860
# Poissons Ratio (y) = 0.70889 -0.01779
# Poissons Ratio (z) = 0.30629 -0.00667
#
# Static dielectric constant tensor:
#      x y z
#    x 1.657040 0.000000 -0.006370 
#    y 0.000000 1.628770 0.000000 
#    z -0.006370 0.000000 1.675080 
# 
# From -- ./inp_files/142913.got.cif
#   From: 2010.05.17/outbox.cif.g08.bks.cpg/sg15_72_cif.got.tgz:142913.got - 2010.06.03 18:47:42.
