data_PCOD9255658
_publ_section_title
;
Structure prediction by ZEFSAII (Michael W. Deem and Ramdas Pophale) SiO2 
 PCOD9255658
Probable space group: C 2/C
;
_chemical_formula_sum "Si O2"
_cell_formula_units_Z 60
_cell_length_a 21.656074
_cell_length_b 12.445278
_cell_length_c 16.438663
_cell_angle_alpha 90.000000
_cell_angle_beta 143.911041
_cell_angle_gamma 90.000000
_cell_volume 2609.733044
_symmetry_space_group_name_H-M "C 2/C"
_symmetry_group_IT_number 15
_symmetry_cell_setting 'monoclinic'
loop_
_space_group_symop_operation_xyz
x,y,z
-x,y,1/2-z
-x,-y,-z
x,-y,1/2+z
1/2+x,1/2+y,z
1/2-x,1/2+y,1/2-z
1/2-x,1/2-y,-z
1/2+x,1/2-y,1/2+z
loop_
_atom_site_type_symbol
_atom_site_label
_atom_site_fract_x
_atom_site_fract_y
_atom_site_fract_z
Si Si1 0.301375 0.052103 0.973460
Si Si2 0.000000 0.033475 0.250000
Si Si3 0.807418 0.334351 0.242350
Si Si4 0.869767 0.121834 0.838686
Si Si5 0.019916 0.405476 0.955417
Si Si6 0.191822 0.164069 0.383171
Si Si7 0.582220 0.585347 0.000106
Si Si8 0.797680 0.579336 0.160238
O O1 0.271290 0.926839 0.939105
O O2 0.211019 0.107350 0.822098
O O3 0.417119 0.063265 0.059398
O O4 0.294183 0.087965 0.059316
O O5 0.098449 0.105453 0.329851
O O6 0.034081 0.967096 0.366102
O O7 0.692003 0.314049 0.157038
O O8 0.890281 0.341937 0.402300
O O9 0.846901 0.236219 0.231459
O O10 0.801122 0.450563 0.188666
O O11 0.985381 0.152538 0.932509
O O12 0.887827 0.004730 0.900710
O O13 0.903918 0.369519 0.807420
O O14 0.000000 0.500000 0.000000
O O15 0.250000 0.250000 0.500000
O O16 0.694051 0.629915 0.090036
#
# Coordination Sequence:
#
# PCOD9255658 Si02
#       8
#     8   4   8   8   8   8   8   8
#     4  11  19  33  55  81 112 154 191 239 297 351
#     4  12  22  36  54  88 122 156 186 234 306 378
#     4   9  19  35  49  77 116 155 191 238 286 355
#     4   9  18  32  53  74 107 153 193 241 279 339
#     4   9  20  34  52  72 111 157 203 239 277 346
#     4  12  22  35  53  84 126 160 184 230 304 375
#     4  10  17  32  54  76 111 144 192 243 283 346
#     4  10  17  32  51  79 108 143 195 240 287 343
#
# _framework density 22.990856000000001
#
# number of rings (size 3 to 8) (size 9 to 14) (size 15 to 20)
#    0.000    1.867    4.000    2.000    0.000    2.133 
#    0.000    0.000    0.000    0.000    0.000    0.000 
#    8.000   79.467    0.000    0.000    0.000    0.000 
#
# Total GULP energy -167630.967579 kJ/mol
# GULP energy per Si atom -5587.698919 kJ/mol
# Density = 2.293853 g / cm^3
# Si number density = 22.990856 Si / 1000 Ang^3
#
#
#
# Elastic Constant Matrix: (Units=GPa)
#
#
# Indices 1 2 3 4 5 6 
#
# 1 162.2609 12.3305 50.3400 0.0000 25.3582 0.0000
# 2 12.3305 29.7579 2.7062 0.0000 3.1755 0.0000
# 3 50.3400 2.7062 120.8731 0.0000 8.4860 0.0000
# 4 0.0000 0.0000 0.0000 31.4806 0.0000 -1.2202
# 5 25.3582 3.1755 8.4860 0.0000 50.7113 0.0000
# 6 0.0000 0.0000 0.0000 -1.2202 0.0000 6.3702
#
#
#
# Elastic Compliance Matrix: (Units=1/GPa)
#
#
# Indices 1 2 3 4 5 6 
#
# 1 0.007784 -0.002611 -0.002956 0.000000 -0.003234 0.000000
# 2 -0.002611 0.034752 0.000375 0.000000 -0.000933 0.000000
# 3 -0.002956 0.000375 0.009505 0.000000 -0.000136 0.000000
# 4 0.000000 0.000000 0.000000 0.032003 0.000000 0.006130
# 5 -0.003234 -0.000933 -0.000136 0.000000 0.021418 0.000000
# 6 0.000000 0.000000 0.000000 0.006130 0.000000 0.158156
#
#
# Mechanical properties :
#
#
# Convention : Reuss Voigt Hill
#
# Bulk Modulus (GPa) = 24.00601 49.29393 36.64997
# Shear Modulus (GPa) = 17.36779 34.21343 25.79061
#
# Velocity S-wave (km/s) = 2.75148 3.86182 3.35293
# Velocity P-wave (km/s) = 4.53413 6.43211 5.56464
#
# Compressibility (1/GPa) = 0.04165623
#
# Stress axis : x y z
#
# Youngs Moduli (GPa) = 128.46952 28.77524 105.20260
#
# Poissons Ratio (x) = 0.07514 0.31101
# Poissons Ratio (y) = 0.33549 -0.03945
# Poissons Ratio (z) = 0.37979 -0.01079
#
# Static dielectric constant tensor:
#      x y z
#    x 1.967000 0.000000 -0.137970 
#    y 0.000000 1.955140 0.000000 
#    z -0.137970 0.000000 1.958890 
# 
# From -- ./inp_files/168642.got.cif
#   From: 2010.05.17/outbox.cif.g08.bks.cpg/sg15_85_cif.got.tgz:168642.got - 2010.06.03 18:47:42.
