data_PCOD9255536
_publ_section_title
;
Structure prediction by ZEFSAII (Michael W. Deem and Ramdas Pophale) SiO2 
 PCOD9255536
Probable space group: C 2/C
;
_chemical_formula_sum "Si O2"
_cell_formula_units_Z 64
_cell_length_a 21.488917
_cell_length_b 10.860583
_cell_length_c 19.008982
_cell_angle_alpha 90.000000
_cell_angle_beta 38.510746
_cell_angle_gamma 90.000000
_cell_volume 2762.348541
_symmetry_space_group_name_H-M "C 2/C"
_symmetry_group_IT_number 15
_symmetry_cell_setting 'monoclinic'
loop_
_space_group_symop_operation_xyz
x,y,z
-x,y,1/2-z
-x,-y,-z
x,-y,1/2+z
1/2+x,1/2+y,z
1/2-x,1/2+y,1/2-z
1/2-x,1/2-y,-z
1/2+x,1/2-y,1/2+z
loop_
_atom_site_type_symbol
_atom_site_label
_atom_site_fract_x
_atom_site_fract_y
_atom_site_fract_z
Si Si1 0.125080 0.173146 0.873492
Si Si2 0.142607 0.673803 0.885114
Si Si3 0.877611 0.088119 0.176546
Si Si4 0.403536 0.048316 0.432874
Si Si5 0.159233 0.570606 0.310095
Si Si6 0.135088 0.264729 0.017141
Si Si7 0.375181 0.983044 0.804017
Si Si8 0.626528 0.726643 0.179562
O O1 0.242164 0.177386 0.744543
O O2 0.092650 0.308288 0.876655
O O3 0.118738 0.180694 0.963479
O O4 0.084695 0.047283 0.876541
O O5 0.095732 0.801925 0.901101
O O6 0.102044 0.554137 0.879865
O O7 0.136533 0.638955 0.972112
O O8 0.756094 0.079009 0.274828
O O9 0.904564 0.136521 0.229997
O O10 0.400660 0.905640 0.460731
O O11 0.517977 0.074728 0.310803
O O12 0.345354 0.051135 0.409559
O O13 0.195815 0.555635 0.197174
O O14 0.253318 0.279126 0.923314
O O15 0.095035 0.209593 0.126259
O O16 0.393480 0.129700 0.787020
#
# Coordination Sequence:
#
# PCOD9255536 Si02
#       8
#     8   8   8   8   8   8   8   8
#     4  10  18  31  50  79 113 142 180 233 274 330
#     4  10  17  32  52  77 109 141 179 229 279 321
#     4  10  18  31  50  79 113 142 180 233 274 330
#     4  10  21  36  56  84 113 144 189 238 281 331
#     4  10  17  32  52  77 109 141 179 229 279 321
#     4  10  17  31  54  78 106 144 186 231 282 325
#     4  10  21  36  56  84 113 144 189 238 281 331
#     4  10  17  31  54  78 106 144 186 231 282 325
#
# _framework density 23.168690999999999
#
# number of rings (size 3 to 8) (size 9 to 14) (size 15 to 20)
#    0.000    2.000    5.000    1.500    0.000    0.500 
#    0.000    3.750    0.000    3.000    0.000    3.500 
#    0.000    0.000    0.000    0.000    0.000    0.000 
#
# Total GULP energy -178727.340993 kJ/mol
# GULP energy per Si atom -5585.229406 kJ/mol
# Density = 2.311596 g / cm^3
# Si number density = 23.168691 Si / 1000 Ang^3
#
#
#
# Elastic Constant Matrix: (Units=GPa)
#
#
# Indices 1 2 3 4 5 6 
#
# 1 95.7577 23.4734 40.5295 0.0000 39.4574 0.0000
# 2 23.4734 147.4199 39.7492 0.0000 38.8259 0.0000
# 3 40.5295 39.7492 132.7786 0.0000 45.0559 0.0000
# 4 0.0000 0.0000 0.0000 39.0612 0.0000 9.1881
# 5 39.4574 38.8259 45.0559 0.0000 63.1678 0.0000
# 6 0.0000 0.0000 0.0000 9.1881 0.0000 26.0566
#
#
#
# Elastic Compliance Matrix: (Units=1/GPa)
#
#
# Indices 1 2 3 4 5 6 
#
# 1 0.014379 0.000266 -0.001802 0.000000 -0.007861 0.000000
# 2 0.000266 0.008194 -0.001014 0.000000 -0.004479 0.000000
# 3 -0.001802 -0.001014 0.010279 0.000000 -0.005583 0.000000
# 4 0.000000 0.000000 0.000000 0.027916 0.000000 -0.009844
# 5 -0.007861 -0.004479 -0.005583 0.000000 0.027477 0.000000
# 6 0.000000 0.000000 0.000000 -0.009844 0.000000 0.041849
#
#
# Mechanical properties :
#
#
# Convention : Reuss Voigt Hill
#
# Bulk Modulus (GPa) = 36.03080 64.82892 50.42986
# Shear Modulus (GPa) = 34.61519 43.80406 39.20963
#
# Velocity S-wave (km/s) = 3.86949 4.35289 4.11829
# Velocity P-wave (km/s) = 5.96231 7.30106 6.66538
#
# Compressibility (1/GPa) = 0.02775403
#
# Stress axis : x y z
#
# Youngs Moduli (GPa) = 69.54468 122.03794 97.28114
#
# Poissons Ratio (x) = -0.03252 0.17525
# Poissons Ratio (y) = -0.01853 0.09868
# Poissons Ratio (z) = 0.12529 0.12379
#
# Static dielectric constant tensor:
#      x y z
#    x 1.939790 0.000000 -0.022580 
#    y 0.000000 1.897260 0.000000 
#    z -0.022580 0.000000 1.963360 
# 
# From -- ./inp_files/219123.got.cif
#   From: 2010.05.17/outbox.cif.g08.bks.cpg/sg15_110_cif.got.tgz:219123.got - 2010.06.03 18:47:42.
