data_PCOD9255176
_publ_section_title
;
Structure prediction by ZEFSAII (Michael W. Deem and Ramdas Pophale) SiO2 
 PCOD9255176
Probable space group: C 2/C
;
_chemical_formula_sum "Si O2"
_cell_formula_units_Z 64
_cell_length_a 19.769859
_cell_length_b 10.168612
_cell_length_c 14.680019
_cell_angle_alpha 90.000000
_cell_angle_beta 89.037973
_cell_angle_gamma 90.000000
_cell_volume 2950.737965
_symmetry_space_group_name_H-M "C 2/C"
_symmetry_group_IT_number 15
_symmetry_cell_setting 'monoclinic'
loop_
_space_group_symop_operation_xyz
x,y,z
-x,y,1/2-z
-x,-y,-z
x,-y,1/2+z
1/2+x,1/2+y,z
1/2-x,1/2+y,1/2-z
1/2-x,1/2-y,-z
1/2+x,1/2-y,1/2+z
loop_
_atom_site_type_symbol
_atom_site_label
_atom_site_fract_x
_atom_site_fract_y
_atom_site_fract_z
Si Si1 0.831134 0.436692 0.684596
Si Si2 0.867254 0.169353 0.576271
Si Si3 0.162919 0.808715 0.098544
Si Si4 0.988223 0.772729 0.359153
Si Si5 0.272729 0.598435 0.718645
Si Si6 0.053082 0.487636 0.178506
Si Si7 0.337145 0.813045 0.406706
Si Si8 0.210666 0.439033 0.487851
O O1 0.841768 0.302497 0.629597
O O2 0.762049 0.468334 0.739402
O O3 0.889635 0.450083 0.757265
O O4 0.830435 0.549431 0.606251
O O5 0.826589 0.065594 0.638291
O O6 0.848063 0.188402 0.471077
O O7 0.947318 0.170080 0.589927
O O8 0.082795 0.831374 0.104741
O O9 0.189797 0.827731 0.200263
O O10 0.212988 0.898932 0.037778
O O11 0.177507 0.665133 0.056710
O O12 0.981281 0.613019 0.370045
O O13 0.000000 0.793775 0.250000
O O14 0.210103 0.686438 0.681154
O O15 0.090993 0.380985 0.116682
O O16 0.000000 0.425994 0.250000
O O17 0.296322 0.919792 0.466900
#
# Coordination Sequence:
#
# PCOD9255176 Si02
#       8
#     8   8   8   8   8   8   8   8
#     4   9  18  31  47  73 104 140 168 210 256 305
#     4  11  20  33  51  77 109 136 176 218 257 320
#     4  10  18  33  51  77 103 138 171 219 251 309
#     4  11  18  29  52  77 103 134 173 211 262 312
#     4  10  20  32  51  71 105 139 178 207 258 308
#     4  10  17  29  46  73 109 139 167 197 259 326
#     4  10  21  33  49  77 107 142 170 213 264 313
#     4   9  19  31  50  73 107 132 175 213 257 297
#
# _framework density 21.689488999999998
#
# number of rings (size 3 to 8) (size 9 to 14) (size 15 to 20)
#    0.000    2.000    5.000    0.375    1.750    1.500 
#    0.000    0.000    0.000    0.750    0.000    0.000 
#   18.750    0.000    0.000    0.000    0.000    0.000 
#
# Total GULP energy -178570.362646 kJ/mol
# GULP energy per Si atom -5580.323833 kJ/mol
# Density = 2.164012 g / cm^3
# Si number density = 21.689489 Si / 1000 Ang^3
#
#
#
# Elastic Constant Matrix: (Units=GPa)
#
#
# Indices 1 2 3 4 5 6 
#
# 1 126.7419 1.9031 22.8812 0.0000 -19.7353 0.0000
# 2 1.9031 12.8834 3.9464 0.0000 5.3103 0.0000
# 3 22.8812 3.9464 63.9994 0.0000 -4.8862 0.0000
# 4 0.0000 0.0000 0.0000 21.9439 0.0000 -6.3717
# 5 -19.7353 5.3103 -4.8862 0.0000 33.8633 0.0000
# 6 0.0000 0.0000 0.0000 -6.3717 0.0000 30.4523
#
#
#
# Elastic Compliance Matrix: (Units=1/GPa)
#
#
# Indices 1 2 3 4 5 6 
#
# 1 0.009272 -0.002779 -0.002728 0.000000 0.005446 0.000000
# 2 -0.002779 0.086304 -0.005546 0.000000 -0.015954 0.000000
# 3 -0.002728 -0.005546 0.017076 0.000000 0.001744 0.000000
# 4 0.000000 0.000000 0.000000 0.048518 0.000000 0.010152
# 5 0.005446 -0.015954 0.001744 0.000000 0.035458 0.000000
# 6 0.000000 0.000000 0.000000 0.010152 0.000000 0.034962
#
#
# Mechanical properties :
#
#
# Convention : Reuss Voigt Hill
#
# Bulk Modulus (GPa) = 11.04412 29.00960 20.02686
# Shear Modulus (GPa) = 17.61315 28.91149 23.26232
#
# Velocity S-wave (km/s) = 2.85276 3.65495 3.27848
# Velocity P-wave (km/s) = 3.99424 5.58709 4.85641
#
# Compressibility (1/GPa) = 0.09054594
#
# Stress axis : x y z
#
# Youngs Moduli (GPa) = 107.84858 11.58692 58.56314
#
# Poissons Ratio (x) = 0.03220 0.15975
# Poissons Ratio (y) = 0.29969 0.32481
# Poissons Ratio (z) = 0.29420 0.06427
#
# Static dielectric constant tensor:
#      x y z
#    x 1.812210 0.000000 -0.006900 
#    y 0.000000 1.842750 0.000000 
#    z -0.006900 0.000000 1.851930 
# 
# From -- ./inp_files/161948.got.cif
#   From: 2010.05.17/outbox.cif.g08.bks.cpg/sg15_81_cif.got.tgz:161948.got - 2010.06.03 18:47:42.
