data_PCOD9255106
_publ_section_title
;
Structure prediction by ZEFSAII (Michael W. Deem and Ramdas Pophale) SiO2 
 PCOD9255106
Probable space group: C 2/C
;
_chemical_formula_sum "Si O2"
_cell_formula_units_Z 52
_cell_length_a 21.464623
_cell_length_b 19.305703
_cell_length_c 10.347628
_cell_angle_alpha 90.000000
_cell_angle_beta 32.325021
_cell_angle_gamma 90.000000
_cell_volume 2292.858624
_symmetry_space_group_name_H-M "C 2/C"
_symmetry_group_IT_number 15
_symmetry_cell_setting 'monoclinic'
loop_
_space_group_symop_operation_xyz
x,y,z
-x,y,1/2-z
-x,-y,-z
x,-y,1/2+z
1/2+x,1/2+y,z
1/2-x,1/2+y,1/2-z
1/2-x,1/2-y,-z
1/2+x,1/2-y,1/2+z
loop_
_atom_site_type_symbol
_atom_site_label
_atom_site_fract_x
_atom_site_fract_y
_atom_site_fract_z
Si Si1 0.446098 0.763524 0.671562
Si Si2 0.258635 0.267026 0.287372
Si Si3 0.745457 0.567524 0.687385
Si Si4 0.705878 0.008797 0.153646
Si Si5 0.488955 0.091428 0.622853
Si Si6 0.087099 0.750809 0.708485
Si Si7 0.000000 0.387594 0.750000
O O1 0.348984 0.768812 0.727934
O O2 0.545923 0.720495 0.420516
O O3 0.498548 0.836267 0.629741
O O4 0.367539 0.743889 0.935156
O O5 0.276844 0.350008 0.272544
O O6 0.290314 0.254976 0.081446
O O7 0.715082 0.532618 0.605114
O O8 0.718443 0.523154 0.862074
O O9 0.885883 0.568133 0.444226
O O10 0.618578 0.072080 0.343519
O O11 0.612784 0.950636 0.271008
O O12 0.500000 0.066559 0.750000
O O13 0.444048 0.170062 0.719003
O O14 0.000000 0.779987 0.750000
#
# Coordination Sequence:
#
# PCOD9255106 Si02
#       7
#     8   8   8   8   8   8   4
#     4   9  17  33  51  78 109 148 187 225 291 342
#     4   9  19  34  54  79 114 156 186 236 289 345
#     4  11  21  34  53  78 120 153 192 231 281 350
#     4  11  20  32  47  78 109 157 187 223 284 345
#     4  10  17  28  47  75 109 142 183 225 272 359
#     4   9  17  30  53  79 106 143 187 228 286 341
#     4  10  18  32  54  80 118 152 178 230 288 358
#
# _framework density 22.679113999999998
#
# number of rings (size 3 to 8) (size 9 to 14) (size 15 to 20)
#    0.000    2.154    1.538    4.615    0.000    1.231 
#    0.000    6.923    0.000    0.000    0.000    9.692 
#    0.000    0.000    0.000    0.000    0.000    0.000 
#
# Total GULP energy -144742.497796 kJ/mol
# GULP energy per Si atom -5567.019146 kJ/mol
# Density = 2.262750 g / cm^3
# Si number density = 22.679114 Si / 1000 Ang^3
#
#
#
# Elastic Constant Matrix: (Units=GPa)
#
#
# Indices 1 2 3 4 5 6 
#
# 1 53.0626 16.7273 37.9009 0.0000 31.7016 0.0000
# 2 16.7273 88.3907 16.2893 0.0000 16.8547 0.0000
# 3 37.9009 16.2893 168.6923 0.0000 46.1415 0.0000
# 4 0.0000 0.0000 0.0000 29.3556 0.0000 7.4197
# 5 31.7016 16.8547 46.1415 0.0000 53.4396 0.0000
# 6 0.0000 0.0000 0.0000 7.4197 0.0000 29.8681
#
#
#
# Elastic Compliance Matrix: (Units=1/GPa)
#
#
# Indices 1 2 3 4 5 6 
#
# 1 0.030419 -0.002413 -0.002453 0.000000 -0.015167 0.000000
# 2 -0.002413 0.012232 0.000032 0.000000 -0.002455 0.000000
# 3 -0.002453 0.000032 0.007961 0.000000 -0.005429 0.000000
# 4 0.000000 0.000000 0.000000 0.036347 0.000000 -0.009029
# 5 -0.015167 -0.002455 -0.005429 0.000000 0.033171 0.000000
# 6 0.000000 0.000000 0.000000 -0.009029 0.000000 0.035724
#
#
# Mechanical properties :
#
#
# Convention : Reuss Voigt Hill
#
# Bulk Modulus (GPa) = 24.42267 50.22008 37.32138
# Shear Modulus (GPa) = 27.90654 38.48122 33.19388
#
# Velocity S-wave (km/s) = 3.51165 4.12365 3.82990
# Velocity P-wave (km/s) = 5.21866 6.69810 6.00412
#
# Compressibility (1/GPa) = 0.04094557
#
# Stress axis : x y z
#
# Youngs Moduli (GPa) = 32.87376 81.75227 125.61499
#
# Poissons Ratio (x) = 0.19723 0.30814
# Poissons Ratio (y) = 0.07931 -0.00406
# Poissons Ratio (z) = 0.08064 -0.00264
#
# Static dielectric constant tensor:
#      x y z
#    x 1.930110 0.000000 0.095400 
#    y 0.000000 1.882050 0.000000 
#    z 0.095400 0.000000 2.048980 
# 
# From -- ./inp_files/127369.got.cif
#   From: 2010.05.17/outbox.cif.g08.bks.cpg/sg15_64_cif.got.tgz:127369.got - 2010.06.03 18:47:42.
