data_PCOD9255030
_publ_section_title
;
Structure prediction by ZEFSAII (Michael W. Deem and Ramdas Pophale) SiO2 
 PCOD9255030
Probable space group: C 2/C
;
_chemical_formula_sum "Si O2"
_cell_formula_units_Z 44
_cell_length_a 18.193542
_cell_length_b 22.462569
_cell_length_c 11.871804
_cell_angle_alpha 90.000000
_cell_angle_beta 28.867894
_cell_angle_gamma 90.000000
_cell_volume 2342.357759
_symmetry_space_group_name_H-M "C 2/C"
_symmetry_group_IT_number 15
_symmetry_cell_setting 'monoclinic'
loop_
_space_group_symop_operation_xyz
x,y,z
-x,y,1/2-z
-x,-y,-z
x,-y,1/2+z
1/2+x,1/2+y,z
1/2-x,1/2+y,1/2-z
1/2-x,1/2-y,-z
1/2+x,1/2-y,1/2+z
loop_
_atom_site_type_symbol
_atom_site_label
_atom_site_fract_x
_atom_site_fract_y
_atom_site_fract_z
Si Si1 0.957074 0.626124 0.589256
Si Si2 0.626401 0.960407 0.492109
Si Si3 0.140427 0.288452 0.475186
Si Si4 0.500000 0.922802 0.250000
Si Si5 0.625856 0.380753 0.244098
Si Si6 0.310738 0.647176 0.098604
O O1 0.914407 0.567730 0.573075
O O2 0.896598 0.680743 0.594910
O O3 0.906108 0.615535 0.785960
O O4 0.137254 0.635238 0.359420
O O5 0.603476 0.030411 0.539982
O O6 0.788953 0.935730 0.312207
O O7 0.500000 0.934702 0.750000
O O8 0.290006 0.322005 0.320588
O O9 0.163686 0.218186 0.438830
O O10 0.000000 0.299205 0.750000
O O11 0.444387 0.378616 0.497705
O O12 0.662749 0.379126 0.061831
#
# Coordination Sequence:
#
# PCOD9255030 Si02
#       6
#     8   8   8   4   8   8
#     4  11  20  35  53  77 101 136 172 211 243 306
#     4   9  18  34  55  74  97 127 171 218 254 289
#     4  11  18  30  51  80 109 134 160 202 260 305
#     4  10  22  36  56  70  94 142 190 202 238 296
#     4  10  17  27  47  82 111 124 154 210 266 306
#     4  11  18  27  50  82 113 125 157 209 267 300
#
# _framework density 18.784490999999999
#
# number of rings (size 3 to 8) (size 9 to 14) (size 15 to 20)
#    0.545    1.091    5.455    3.273    0.000    0.000 
#    0.000    1.818    0.000   10.909    0.000    0.000 
#    0.000    0.000    0.000    0.000    0.000    0.000 
#
# Total GULP energy -122592.564081 kJ/mol
# GULP energy per Si atom -5572.389276 kJ/mol
# Density = 1.874174 g / cm^3
# Si number density = 18.784491 Si / 1000 Ang^3
#
#
#
# Elastic Constant Matrix: (Units=GPa)
#
#
# Indices 1 2 3 4 5 6 
#
# 1 131.2629 30.9097 26.2948 -0.0074 -12.5254 0.0037
# 2 30.9097 59.8838 2.7783 -0.0016 1.4645 0.0000
# 3 26.2948 2.7783 24.8757 -0.0072 -23.5770 0.0028
# 4 -0.0074 -0.0016 -0.0072 1.3959 0.0073 -2.2119
# 5 -12.5254 1.4645 -23.5770 0.0073 42.7741 -0.0045
# 6 0.0037 0.0000 0.0028 -2.2119 -0.0045 13.2280
#
#
#
# Elastic Compliance Matrix: (Units=1/GPa)
#
#
# Indices 1 2 3 4 5 6 
#
# 1 0.011780 -0.005110 -0.017685 -0.000007 -0.006123 -0.000003
# 2 -0.005110 0.019238 0.002535 0.000018 -0.000758 0.000004
# 3 -0.017685 0.002535 0.112274 0.000262 0.056620 0.000044
# 4 -0.000007 0.000018 0.000262 0.974579 -0.000007 0.162960
# 5 -0.006123 -0.000758 0.056620 -0.000007 0.052820 0.000006
# 6 -0.000003 0.000004 0.000044 0.162960 0.000006 0.102846
#
#
# Mechanical properties :
#
#
# Convention : Reuss Voigt Hill
#
# Bulk Modulus (GPa) = 9.73038 37.33200 23.53119
# Shear Modulus (GPa) = 3.70833 21.88224 12.79528
#
# Velocity S-wave (km/s) = 1.40657 3.41678 2.61274
# Velocity P-wave (km/s) = 2.79806 5.95675 4.65360
#
# Compressibility (1/GPa) = 0.10277096
#
# Stress axis : x y z
#
# Youngs Moduli (GPa) = 84.88960 51.98154 8.90675
#
# Poissons Ratio (x) = 0.26563 0.15752
# Poissons Ratio (y) = 0.43380 -0.02258
# Poissons Ratio (z) = 1.50128 -0.13175
#
# Static dielectric constant tensor:
#      x y z
#    x 1.666240 0.000000 0.008310 
#    y 0.000000 1.660270 0.000000 
#    z 0.008310 0.000000 1.687450 
# 
# From -- ./inp_files/107880.got.cif
#   From: 2010.05.17/outbox.cif.g08.bks.cpg/sg15_54_cif.got.tgz:107880.got - 2010.06.03 18:47:42.
