data_PCOD9255152
_publ_section_title
;
Structure prediction by ZEFSAII (Michael W. Deem and Ramdas Pophale) SiO2 
 PCOD9255152
Probable space group: C 2/C
;
_chemical_formula_sum "Si O2"
_cell_formula_units_Z 56
_cell_length_a 14.974350
_cell_length_b 24.087111
_cell_length_c 9.362167
_cell_angle_alpha 90.000000
_cell_angle_beta 55.088899
_cell_angle_gamma 90.000000
_cell_volume 2769.138311
_symmetry_space_group_name_H-M "C 2/C"
_symmetry_group_IT_number 15
_symmetry_cell_setting 'monoclinic'
loop_
_space_group_symop_operation_xyz
x,y,z
-x,y,1/2-z
-x,-y,-z
x,-y,1/2+z
1/2+x,1/2+y,z
1/2-x,1/2+y,1/2-z
1/2-x,1/2-y,-z
1/2+x,1/2-y,1/2+z
loop_
_atom_site_type_symbol
_atom_site_label
_atom_site_fract_x
_atom_site_fract_y
_atom_site_fract_z
Si Si1 0.798231 0.071722 0.957076
Si Si2 0.844244 0.801452 0.956956
Si Si3 0.618782 0.479889 0.836187
Si Si4 0.838821 0.673597 0.490367
Si Si5 0.000000 0.845713 0.250000
Si Si6 0.000000 0.106800 0.250000
Si Si7 0.602628 0.799446 0.252471
Si Si8 0.621924 0.741098 0.783833
O O1 0.694801 0.110585 0.016679
O O2 0.899161 0.114709 0.870673
O O3 0.824704 0.028018 0.807730
O O4 0.806675 0.039971 0.100508
O O5 0.878829 0.767606 0.783781
O O6 0.922056 0.853072 0.911251
O O7 0.719845 0.820830 0.086579
O O8 0.862055 0.754786 0.062880
O O9 0.582553 0.429857 0.766468
O O10 0.500000 0.500000 0.000000
O O11 0.907313 0.681984 0.573468
O O12 0.727229 0.706445 0.632971
O O13 0.883096 0.704943 0.309715
O O14 0.977243 0.801396 0.146806
O O15 0.500000 0.816143 0.250000
#
# Coordination Sequence:
#
# PCOD9255152 Si02
#       8
#     8   8   8   8   4   4   8   8
#     4  11  22  37  56  86 126 159 208 251 316 372
#     4  10  22  36  58  89 125 168 208 249 311 376
#     4  12  22  37  58  91 125 164 210 256 314 390
#     4   9  21  37  54  80 119 161 205 254 303 359
#     4  10  17  28  54  80 122 160 181 240 292 368
#     4  12  23  36  66  94 136 166 203 258 326 370
#     4  10  21  38  57  84 125 165 214 251 299 378
#     4   9  19  33  53  83 115 162 206 236 294 377
#
# _framework density 20.222895999999999
#
# number of rings (size 3 to 8) (size 9 to 14) (size 15 to 20)
#    0.000    1.714    3.571    0.857    6.000    5.714 
#    0.000    0.000    0.000    0.000    0.000    4.000 
#    2.143    0.000    0.000    0.000    0.000    0.000 
#
# Total GULP energy -156157.839576 kJ/mol
# GULP energy per Si atom -5577.065699 kJ/mol
# Density = 2.017687 g / cm^3
# Si number density = 20.222896 Si / 1000 Ang^3
#
#
#
# Elastic Constant Matrix: (Units=GPa)
#
#
# Indices 1 2 3 4 5 6 
#
# 1 112.9681 51.2558 53.0706 0.0000 24.1740 0.0000
# 2 51.2558 113.9515 62.3114 0.0000 17.7667 0.0000
# 3 53.0706 62.3114 107.0913 0.0000 23.8524 0.0000
# 4 0.0000 0.0000 0.0000 22.3470 0.0000 2.2709
# 5 24.1740 17.7667 23.8524 0.0000 33.9334 0.0000
# 6 0.0000 0.0000 0.0000 2.2709 0.0000 33.4637
#
#
#
# Elastic Compliance Matrix: (Units=1/GPa)
#
#
# Indices 1 2 3 4 5 6 
#
# 1 0.013020 -0.003155 -0.003460 0.000000 -0.005191 0.000000
# 2 -0.003155 0.013723 -0.006310 0.000000 -0.000503 0.000000
# 3 -0.003460 -0.006310 0.015934 0.000000 -0.005431 0.000000
# 4 0.000000 0.000000 0.000000 0.045059 0.000000 -0.003058
# 5 -0.005191 -0.000503 -0.005431 0.000000 0.037249 0.000000
# 6 0.000000 0.000000 0.000000 -0.003058 0.000000 0.030091
#
#
# Mechanical properties :
#
#
# Convention : Reuss Voigt Hill
#
# Bulk Modulus (GPa) = 59.42698 74.14294 66.78496
# Shear Modulus (GPa) = 26.80473 29.10702 27.95588
#
# Velocity S-wave (km/s) = 3.64464 3.79794 3.72208
# Velocity P-wave (km/s) = 6.86739 7.48164 7.18108
#
# Compressibility (1/GPa) = 0.01682737
#
# Stress axis : x y z
#
# Youngs Moduli (GPa) = 76.80519 72.86864 62.76032
#
# Poissons Ratio (x) = 0.22989 0.21717
# Poissons Ratio (y) = 0.24231 0.39599
# Poissons Ratio (z) = 0.26577 0.45977
#
# Static dielectric constant tensor:
#      x y z
#    x 1.825870 0.000000 0.036200 
#    y 0.000000 1.726820 0.000000 
#    z 0.036200 0.000000 1.786050 
# 
# From -- ./inp_files/42157.got.cif
#   From: 2010.05.17/outbox.cif.g08.bks.cpg/sg15_22_cif.got.tgz:42157.got - 2010.06.03 18:47:42.
