data_PCOD9255199
_publ_section_title
;
Structure prediction by ZEFSAII (Michael W. Deem and Ramdas Pophale) SiO2 
 PCOD9255199
Probable space group: C 2/C
;
_chemical_formula_sum "Si O2"
_cell_formula_units_Z 64
_cell_length_a 24.393172
_cell_length_b 5.468817
_cell_length_c 28.681508
_cell_angle_alpha 90.000000
_cell_angle_beta 109.128846
_cell_angle_gamma 90.000000
_cell_volume 3614.899308
_symmetry_space_group_name_H-M "C 2/C"
_symmetry_group_IT_number 15
_symmetry_cell_setting 'monoclinic'
loop_
_space_group_symop_operation_xyz
x,y,z
-x,y,1/2-z
-x,-y,-z
x,-y,1/2+z
1/2+x,1/2+y,z
1/2-x,1/2+y,1/2-z
1/2-x,1/2-y,-z
1/2+x,1/2-y,1/2+z
loop_
_atom_site_type_symbol
_atom_site_label
_atom_site_fract_x
_atom_site_fract_y
_atom_site_fract_z
Si Si1 0.824990 0.525818 0.535039
Si Si2 0.217427 0.662188 0.757018
Si Si3 0.356284 0.521229 0.423788
Si Si4 0.238273 0.710033 0.136406
Si Si5 0.784901 0.973141 0.064772
Si Si6 0.135517 0.418685 0.155565
Si Si7 0.455051 0.136283 0.426317
Si Si8 0.423121 0.835778 0.506997
O O1 0.818435 0.776914 0.561367
O O2 0.773067 0.494654 0.483033
O O3 0.886029 0.531991 0.524902
O O4 0.818586 0.277370 0.563529
O O5 0.252783 0.413364 0.754040
O O6 0.218452 0.683217 0.813187
O O7 0.156175 0.646184 0.712964
O O8 0.293089 0.398520 0.407477
O O9 0.355853 0.700027 0.379040
O O10 0.409117 0.338045 0.429277
O O11 0.374002 0.645013 0.477263
O O12 0.265523 0.497803 0.113032
O O13 0.183009 0.614384 0.150505
O O14 0.071465 0.525224 0.128510
O O15 0.520391 0.233374 0.447514
O O16 0.447585 0.928663 0.464069
#
# Coordination Sequence:
#
# PCOD9255199 Si02
#       8
#     8   8   8   8   8   8   8   8
#     4  10  22  35  50  70 103 135 178 210 243 298
#     4  10  19  32  50  77 105 135 166 207 262 317
#     4  10  17  29  49  72 101 136 165 208 251 309
#     4  10  20  31  50  72 107 135 171 208 261 310
#     4  10  22  34  50  73  99 141 173 208 249 295
#     4   9  18  31  48  74 104 132 162 209 257 315
#     4   9  19  32  49  72 103 131 175 206 257 314
#     4  10  20  32  48  73 100 140 173 211 255 299
#
# _framework density 17.704505000000001
#
# number of rings (size 3 to 8) (size 9 to 14) (size 15 to 20)
#    0.000    2.250    1.250    2.625    8.750    0.000 
#    0.000    0.000    0.000    0.000    0.000    0.875 
#    0.000    0.000    0.000    0.000    0.000    0.000 
#
# Total GULP energy -178212.408021 kJ/mol
# GULP energy per Si atom -5569.137751 kJ/mol
# Density = 1.766421 g / cm^3
# Si number density = 17.704505 Si / 1000 Ang^3
#
#
#
# Elastic Constant Matrix: (Units=GPa)
#
#
# Indices 1 2 3 4 5 6 
#
# 1 25.8656 4.3334 36.6984 -0.0002 7.5568 0.0000
# 2 4.3334 67.5512 32.0217 -0.0004 6.9781 0.0002
# 3 36.6984 32.0217 98.8181 -0.0002 26.9811 0.0001
# 4 -0.0002 -0.0004 -0.0002 19.6983 0.0000 -5.3782
# 5 7.5568 6.9781 26.9811 0.0000 21.4535 0.0000
# 6 0.0000 0.0002 0.0001 -5.3782 0.0000 14.1802
#
#
#
# Elastic Compliance Matrix: (Units=1/GPa)
#
#
# Indices 1 2 3 4 5 6 
#
# 1 0.093289 0.012886 -0.043716 0.000001 0.017927 0.000000
# 2 0.012886 0.019338 -0.012329 0.000000 0.004676 0.000000
# 3 -0.043716 -0.012329 0.038151 0.000000 -0.028572 0.000000
# 4 0.000001 0.000000 0.000000 0.056630 0.000000 0.021478
# 5 0.017927 0.004676 -0.028572 0.000000 0.074710 0.000000
# 6 0.000000 0.000000 0.000000 0.021478 0.000000 0.078667
#
#
# Mechanical properties :
#
#
# Convention : Reuss Voigt Hill
#
# Bulk Modulus (GPa) = 15.51315 37.59353 26.55334
# Shear Modulus (GPa) = 10.67034 19.01183 14.84109
#
# Velocity S-wave (km/s) = 2.45764 3.28051 2.89842
# Velocity P-wave (km/s) = 4.10300 5.96900 5.12170
#
# Compressibility (1/GPa) = 0.06446146
#
# Stress axis : x y z
#
# Youngs Moduli (GPa) = 10.71937 51.71105 26.21179
#
# Poissons Ratio (x) = -0.66637 1.14587
# Poissons Ratio (y) = -0.13813 0.32316
# Poissons Ratio (z) = 0.46860 0.63754
#
# Static dielectric constant tensor:
#      x y z
#    x 1.583360 0.000000 0.024740 
#    y 0.000000 1.725080 0.000000 
#    z 0.024740 0.000000 1.639710 
# 
# From -- ./inp_files/318222.got.cif
#   From: 2010.05.17/outbox.cif.g08.bks.cpg/sg15_160_cif.got.tgz:318222.got - 2010.06.03 18:47:42.
