data_PCOD9255648
_publ_section_title
;
Structure prediction by ZEFSAII (Michael W. Deem and Ramdas Pophale) SiO2 
 PCOD9255648
Probable space group: C 2/C
;
_chemical_formula_sum "Si O2"
_cell_formula_units_Z 56
_cell_length_a 18.679388
_cell_length_b 19.121291
_cell_length_c 18.533156
_cell_angle_alpha 90.000000
_cell_angle_beta 154.147445
_cell_angle_gamma 90.000000
_cell_volume 2886.504505
_symmetry_space_group_name_H-M "C 2/C"
_symmetry_group_IT_number 15
_symmetry_cell_setting 'monoclinic'
loop_
_space_group_symop_operation_xyz
x,y,z
-x,y,1/2-z
-x,-y,-z
x,-y,1/2+z
1/2+x,1/2+y,z
1/2-x,1/2+y,1/2-z
1/2-x,1/2-y,-z
1/2+x,1/2-y,1/2+z
loop_
_atom_site_type_symbol
_atom_site_label
_atom_site_fract_x
_atom_site_fract_y
_atom_site_fract_z
Si Si1 0.856310 0.542247 0.831439
Si Si2 0.485875 0.995220 0.157537
Si Si3 0.559895 0.722738 0.886217
Si Si4 0.372685 0.851595 0.746041
Si Si5 0.656910 0.591571 0.173464
Si Si6 0.388933 0.614699 0.817246
Si Si7 0.607862 0.518033 0.275379
O O1 0.707920 0.486868 0.695045
O O2 0.797402 0.603014 0.829133
O O3 0.923001 0.557367 0.813884
O O4 0.000000 0.500000 0.000000
O O5 0.500000 0.968646 0.250000
O O6 0.577195 0.070191 0.233190
O O7 0.294739 0.000625 0.965676
O O8 0.500000 0.710943 0.750000
O O9 0.534169 0.804083 0.881375
O O10 0.421305 0.686178 0.808172
O O11 0.729099 0.684520 0.065173
O O12 0.295390 0.861294 0.757061
O O13 0.627128 0.579981 0.232264
O O14 0.491982 0.613502 0.984274
O O15 0.451415 0.551689 0.821595
O O16 0.500000 0.530655 0.250000
#
# Coordination Sequence:
#
# PCOD9255648 Si02
#       7
#     8   8   8   8   8   8   8
#     4  10  17  32  51  73 103 143 180 216 268 320
#     4  11  24  34  51  83 114 143 183 228 275 321
#     4  11  23  37  57  81 114 150 190 225 266 317
#     4  10  24  38  56  80 112 151 188 227 265 324
#     4   9  20  37  53  77 110 142 183 227 274 327
#     4  10  21  34  55  77 111 147 181 222 270 332
#     4  11  22  34  57  82 108 146 178 228 285 330
#
# _framework density 19.400628999999999
#
# number of rings (size 3 to 8) (size 9 to 14) (size 15 to 20)
#    0.000    1.714    2.857    3.000   12.000    0.000 
#    0.000    0.000    0.000    0.000    0.000    5.000 
#    0.000    0.000    0.000    0.000    0.000    0.000 
#
# Total GULP energy -155961.383055 kJ/mol
# GULP energy per Si atom -5570.049395 kJ/mol
# Density = 1.935647 g / cm^3
# Si number density = 19.400629 Si / 1000 Ang^3
#
#
#
# Elastic Constant Matrix: (Units=GPa)
#
#
# Indices 1 2 3 4 5 6 
#
# 1 160.4390 9.3452 29.9635 0.0029 -9.9814 0.0005
# 2 9.3452 19.2140 7.8405 0.0079 -3.5184 0.0032
# 3 29.9635 7.8405 66.6237 0.0115 -1.7528 0.0062
# 4 0.0029 0.0079 0.0115 18.8665 0.0062 6.2515
# 5 -9.9814 -3.5184 -1.7528 0.0062 35.4074 0.0025
# 6 0.0005 0.0032 0.0062 6.2515 0.0025 32.4593
#
#
#
# Elastic Compliance Matrix: (Units=1/GPa)
#
#
# Indices 1 2 3 4 5 6 
#
# 1 0.006983 -0.001925 -0.002871 0.000001 0.001635 0.000000
# 2 -0.001925 0.056145 -0.005616 -0.000021 0.004758 -0.000001
# 3 -0.002871 -0.005616 0.016948 -0.000007 -0.000528 -0.000001
# 4 0.000001 -0.000021 -0.000007 0.056617 -0.000011 -0.010904
# 5 0.001635 0.004758 -0.000528 -0.000011 0.029150 0.000000
# 6 0.000000 -0.000001 -0.000001 -0.010904 0.000000 0.032908
#
#
# Mechanical properties :
#
#
# Convention : Reuss Voigt Hill
#
# Bulk Modulus (GPa) = 16.87745 37.84168 27.35956
# Shear Modulus (GPa) = 20.89199 30.62181 25.75690
#
# Velocity S-wave (km/s) = 3.28513 3.97721 3.64762
# Velocity P-wave (km/s) = 4.80706 6.37485 5.64564
#
# Compressibility (1/GPa) = 0.05925065
#
# Stress axis : x y z
#
# Youngs Moduli (GPa) = 143.20608 17.81108 59.00443
#
# Poissons Ratio (x) = 0.03429 0.16940
# Poissons Ratio (y) = 0.27573 0.33138
# Poissons Ratio (z) = 0.41113 0.10003
#
# Static dielectric constant tensor:
#      x y z
#    x 1.777090 -0.000010 0.012800 
#    y -0.000010 1.686290 0.000000 
#    z 0.012800 0.000000 1.773130 
# 
# From -- ./inp_files/211892.got.cif
#   From: 2010.05.17/outbox.cif.g08.bks.cpg/sg15_106_cif.got.tgz:211892.got - 2010.06.03 18:47:42.
