data_PCOD9255322
_publ_section_title
;
Structure prediction by ZEFSAII (Michael W. Deem and Ramdas Pophale) SiO2 
 PCOD9255322
Probable space group: C 2/C
;
_chemical_formula_sum "Si O2"
_cell_formula_units_Z 52
_cell_length_a 11.291991
_cell_length_b 24.609089
_cell_length_c 15.563022
_cell_angle_alpha 90.000000
_cell_angle_beta 39.268832
_cell_angle_gamma 90.000000
_cell_volume 2737.386588
_symmetry_space_group_name_H-M "C 2/C"
_symmetry_group_IT_number 15
_symmetry_cell_setting 'monoclinic'
loop_
_space_group_symop_operation_xyz
x,y,z
-x,y,1/2-z
-x,-y,-z
x,-y,1/2+z
1/2+x,1/2+y,z
1/2-x,1/2+y,1/2-z
1/2-x,1/2-y,-z
1/2+x,1/2-y,1/2+z
loop_
_atom_site_type_symbol
_atom_site_label
_atom_site_fract_x
_atom_site_fract_y
_atom_site_fract_z
Si Si1 0.758825 0.996539 0.704446
Si Si2 0.500000 0.408745 0.250000
Si Si3 0.313913 0.507524 0.985374
Si Si4 0.773039 0.707469 0.881853
Si Si5 0.330696 0.176104 0.037542
Si Si6 0.225021 0.376389 0.263395
Si Si7 0.280531 0.436697 0.858619
O O1 0.717144 0.060578 0.738815
O O2 0.982161 0.987980 0.595612
O O3 0.716374 0.978277 0.630873
O O4 0.684837 0.964409 0.829815
O O5 0.634636 0.445490 0.112625
O O6 0.371248 0.375381 0.258530
O O7 0.206040 0.461637 0.990779
O O8 0.675744 0.764809 0.916244
O O9 0.715229 0.660291 0.850058
O O10 0.000000 0.714855 0.750000
O O11 0.731828 0.687974 0.001605
O O12 0.231847 0.127638 0.142682
O O13 0.532338 0.150354 0.903522
O O14 0.500000 0.449913 0.750000
#
# Coordination Sequence:
#
# PCOD9255322 Si02
#       7
#     8   4   8   8   8   8   8
#     4   9  17  28  50  76 103 142 176 215 257 316
#     4  10  18  36  54  76 106 152 178 212 258 322
#     4   9  15  30  47  72 107 137 179 206 251 322
#     4   9  19  36  53  79 104 137 177 223 282 322
#     4  10  20  32  55  78 108 134 175 234 270 315
#     4  10  19  35  54  76 107 143 182 215 270 324
#     4  10  17  30  49  78 106 138 173 214 270 320
#
# _framework density 18.996220000000001
#
# number of rings (size 3 to 8) (size 9 to 14) (size 15 to 20)
#    0.000    2.462    3.846    1.385    0.000    1.846 
#    0.000    0.769    0.000    0.000    0.000    0.000 
#    0.000    0.000    0.000    0.000    0.000    0.000 
#
# Total GULP energy -144742.608387 kJ/mol
# GULP energy per Si atom -5567.023400 kJ/mol
# Density = 1.895298 g / cm^3
# Si number density = 18.996220 Si / 1000 Ang^3
#
#
#
# Elastic Constant Matrix: (Units=GPa)
#
#
# Indices 1 2 3 4 5 6 
#
# 1 54.5920 45.5700 34.5561 -0.0001 17.1441 0.0001
# 2 45.5700 143.6377 32.5947 0.0000 23.3095 0.0000
# 3 34.5561 32.5947 45.0485 0.0001 22.8574 0.0000
# 4 -0.0001 0.0000 0.0001 22.2008 0.0001 7.9484
# 5 17.1441 23.3095 22.8574 0.0001 32.9488 -0.0001
# 6 0.0001 0.0000 0.0000 7.9484 -0.0001 27.1986
#
#
#
# Elastic Compliance Matrix: (Units=1/GPa)
#
#
# Indices 1 2 3 4 5 6 
#
# 1 0.040906 -0.007178 -0.027718 0.000000 0.003023 0.000000
# 2 -0.007178 0.009741 0.000092 0.000000 -0.003220 0.000000
# 3 -0.027718 0.000092 0.055723 0.000000 -0.024299 0.000000
# 4 0.000000 0.000000 0.000000 0.050307 0.000000 -0.014702
# 5 0.003023 -0.003220 -0.024299 0.000000 0.047913 0.000000
# 6 0.000000 0.000000 0.000000 -0.014702 0.000000 0.041063
#
#
# Mechanical properties :
#
#
# Convention : Reuss Voigt Hill
#
# Bulk Modulus (GPa) = 27.20238 52.07999 39.64118
# Shear Modulus (GPa) = 15.26652 25.17347 20.21999
#
# Velocity S-wave (km/s) = 2.83797 3.64426 3.26609
# Velocity P-wave (km/s) = 5.00896 6.72183 5.92759
#
# Compressibility (1/GPa) = 0.03676150
#
# Stress axis : x y z
#
# Youngs Moduli (GPa) = 24.44656 102.65950 17.94585
#
# Poissons Ratio (x) = 0.73691 0.49742
# Poissons Ratio (y) = 0.17548 -0.00165
# Poissons Ratio (z) = 0.67761 -0.00946
#
# Static dielectric constant tensor:
#      x y z
#    x 1.645680 0.000000 -0.004520 
#    y 0.000000 1.659720 0.000000 
#    z -0.004520 0.000000 1.823560 
# 
# From -- ./inp_files/147811.got.cif
#   From: 2010.05.17/outbox.cif.g08.bks.cpg/sg15_74_cif.got.tgz:147811.got - 2010.06.03 18:47:42.
