data_PCOD9255613
_publ_section_title
;
Structure prediction by ZEFSAII (Michael W. Deem and Ramdas Pophale) SiO2 
 PCOD9255613
Probable space group: C 2/C
;
_chemical_formula_sum "Si O2"
_cell_formula_units_Z 60
_cell_length_a 7.153855
_cell_length_b 12.118714
_cell_length_c 30.806206
_cell_angle_alpha 90.000000
_cell_angle_beta 76.901043
_cell_angle_gamma 90.000000
_cell_volume 2601.267203
_symmetry_space_group_name_H-M "C 2/C"
_symmetry_group_IT_number 15
_symmetry_cell_setting 'monoclinic'
loop_
_space_group_symop_operation_xyz
x,y,z
-x,y,1/2-z
-x,-y,-z
x,-y,1/2+z
1/2+x,1/2+y,z
1/2-x,1/2+y,1/2-z
1/2-x,1/2-y,-z
1/2+x,1/2-y,1/2+z
loop_
_atom_site_type_symbol
_atom_site_label
_atom_site_fract_x
_atom_site_fract_y
_atom_site_fract_z
Si Si1 0.244246 0.621646 0.515556
Si Si2 0.599022 0.458924 0.055044
Si Si3 0.500000 0.976689 0.750000
Si Si4 0.959249 0.410547 0.658662
Si Si5 0.913635 0.124242 0.133553
Si Si6 0.443014 0.686375 0.628417
Si Si7 0.912857 0.955765 0.207334
Si Si8 0.962975 0.628013 0.886549
O O1 0.250000 0.750000 0.500000
O O2 0.237417 0.525290 0.479617
O O3 0.446443 0.592788 0.528896
O O4 0.078776 0.612188 0.560370
O O5 0.510500 0.556995 0.089274
O O6 0.613541 0.356183 0.088200
O O7 0.423158 0.909677 0.712168
O O8 0.318475 0.045828 0.776153
O O9 0.185762 0.388200 0.641761
O O10 0.917143 0.529716 0.641066
O O11 0.880053 0.312830 0.633340
O O12 0.965904 0.063712 0.176064
O O13 0.960126 0.252094 0.128460
O O14 0.481473 0.647205 0.675168
O O15 0.251438 0.623568 0.623010
O O16 0.000000 0.957713 0.250000
#
# Coordination Sequence:
#
# PCOD9255613 Si02
#       8
#     8   8   4   8   8   8   8   8
#     4  10  17  31  66  92 117 167 211 256 315 386
#     4   9  18  36  60  90 125 161 207 260 317 382
#     4  10  22  44  62  90 136 162 222 276 314 388
#     4  11  23  43  60  89 127 166 207 268 316 379
#     4  10  20  40  61  91 126 164 208 261 326 379
#     4  10  22  42  62  87 131 162 205 269 324 381
#     4  10  22  42  65  97 125 172 221 265 332 395
#     4  11  21  41  62  89 126 167 212 258 323 385
#
# _framework density 23.065681000000001
#
# number of rings (size 3 to 8) (size 9 to 14) (size 15 to 20)
#    0.000    1.867    6.667    0.000    2.800    1.067 
#    6.000    0.667    0.000    4.000    0.000    0.000 
#    0.000    0.000    0.000    0.000    0.000    0.000 
#
# Total GULP energy -167515.038224 kJ/mol
# GULP energy per Si atom -5583.834607 kJ/mol
# Density = 2.301318 g / cm^3
# Si number density = 23.065681 Si / 1000 Ang^3
#
#
#
# Elastic Constant Matrix: (Units=GPa)
#
#
# Indices 1 2 3 4 5 6 
#
# 1 48.0700 14.0247 19.2062 0.0000 4.5419 0.0000
# 2 14.0247 170.9173 53.1016 0.0000 9.3998 0.0000
# 3 19.2062 53.1016 135.3490 0.0000 4.4490 0.0000
# 4 0.0000 0.0000 0.0000 18.8740 0.0000 4.5046
# 5 4.5419 9.3998 4.4490 0.0000 23.3761 0.0000
# 6 0.0000 0.0000 0.0000 4.5046 0.0000 28.7318
#
#
#
# Elastic Compliance Matrix: (Units=1/GPa)
#
#
# Indices 1 2 3 4 5 6 
#
# 1 0.022470 -0.000792 -0.002762 0.000000 -0.003522 0.000000
# 2 -0.000792 0.006805 -0.002488 0.000000 -0.002109 0.000000
# 3 -0.002762 -0.002488 0.008761 0.000000 -0.000130 0.000000
# 4 0.000000 0.000000 0.000000 0.055043 0.000000 -0.008630
# 5 -0.003522 -0.002109 -0.000130 0.000000 0.044336 0.000000
# 6 0.000000 0.000000 0.000000 -0.008630 0.000000 0.036158
#
#
# Mechanical properties :
#
#
# Convention : Reuss Voigt Hill
#
# Bulk Modulus (GPa) = 38.53328 58.55571 48.54449
# Shear Modulus (GPa) = 25.73258 32.06333 28.89795
#
# Velocity S-wave (km/s) = 3.34372 3.73243 3.54341
# Velocity P-wave (km/s) = 5.62578 6.63448 6.15084
#
# Compressibility (1/GPa) = 0.02595159
#
# Stress axis : x y z
#
# Youngs Moduli (GPa) = 44.50303 146.95648 114.14671
#
# Poissons Ratio (x) = 0.11639 0.31528
# Poissons Ratio (y) = 0.03525 0.28400
# Poissons Ratio (z) = 0.12292 0.36563
#
# Static dielectric constant tensor:
#      x y z
#    x 1.948510 0.000000 0.031650 
#    y 0.000000 1.868760 0.000000 
#    z 0.031650 0.000000 1.888050 
# 
# From -- ./inp_files/307472.got.cif
#   From: 2010.05.17/outbox.cif.g08.bks.cpg/sg15_154_cif.got.tgz:307472.got - 2010.06.03 18:47:42.
