data_PCOD9255624
_publ_section_title
;
Structure prediction by ZEFSAII (Michael W. Deem and Ramdas Pophale) SiO2 
 PCOD9255624
Probable space group: C 2/C
;
_chemical_formula_sum "Si O2"
_cell_formula_units_Z 36
_cell_length_a 29.660692
_cell_length_b 8.387171
_cell_length_c 9.067383
_cell_angle_alpha 90.000000
_cell_angle_beta 142.380016
_cell_angle_gamma 90.000000
_cell_volume 1376.919452
_symmetry_space_group_name_H-M "C 2/C"
_symmetry_group_IT_number 15
_symmetry_cell_setting 'monoclinic'
loop_
_space_group_symop_operation_xyz
x,y,z
-x,y,1/2-z
-x,-y,-z
x,-y,1/2+z
1/2+x,1/2+y,z
1/2-x,1/2+y,1/2-z
1/2-x,1/2-y,-z
1/2+x,1/2-y,1/2+z
loop_
_atom_site_type_symbol
_atom_site_label
_atom_site_fract_x
_atom_site_fract_y
_atom_site_fract_z
Si Si1 0.699875 0.915336 0.733819
Si Si2 0.578654 0.838342 0.228247
Si Si3 0.132608 0.851144 0.268337
Si Si4 0.090968 0.663565 0.422690
Si Si5 0.000000 0.102644 0.250000
O O1 0.666473 0.832975 0.499221
O O2 0.652446 0.817112 0.735159
O O3 0.674229 0.097180 0.660475
O O4 0.785687 0.912831 0.988697
O O5 0.563325 0.817813 0.016475
O O6 0.534571 0.711499 0.209992
O O7 0.560349 0.010527 0.253050
O O8 0.093927 0.811343 0.322391
O O9 0.075551 0.956376 0.025477
#
# Coordination Sequence:
#
# PCOD9255624 Si02
#       5
#     8   8   8   8   4
#     4   8  17  33  45  69  96 132 165 193 236 297
#     4   9  18  30  45  73 100 125 164 191 248 287
#     4  10  18  31  50  67 103 128 163 197 243 289
#     4  10  17  32  48  74  96 132 161 200 236 295
#     4  10  20  32  46  76  98 140 150 196 254 300
#
# _framework density 26.145320000000002
#
# number of rings (size 3 to 8) (size 9 to 14) (size 15 to 20)
#    1.333    1.333    2.222    0.000    0.000    5.333 
#    0.000    0.000    0.000    0.000    0.000   24.889 
#    0.000    0.000    0.000    0.667    0.000    0.222 
#
# Total GULP energy -100415.601928 kJ/mol
# GULP energy per Si atom -5578.644552 kJ/mol
# Density = 2.608581 g / cm^3
# Si number density = 26.145320 Si / 1000 Ang^3
#
#
#
# Elastic Constant Matrix: (Units=GPa)
#
#
# Indices 1 2 3 4 5 6 
#
# 1 105.6322 24.4919 80.5601 0.0000 -52.5370 0.0000
# 2 24.4919 61.6288 25.6361 0.0000 -11.6440 0.0000
# 3 80.5601 25.6361 224.7895 0.0000 2.3550 0.0000
# 4 0.0000 0.0000 0.0000 13.1540 0.0000 -2.7593
# 5 -52.5370 -11.6440 2.3550 0.0000 61.0293 0.0000
# 6 0.0000 0.0000 0.0000 -2.7593 0.0000 18.1838
#
#
#
# Elastic Compliance Matrix: (Units=1/GPa)
#
#
# Indices 1 2 3 4 5 6 
#
# 1 0.033751 -0.002922 -0.012066 0.000000 0.028963 0.000000
# 2 -0.002922 0.017990 -0.001015 0.000000 0.000956 0.000000
# 3 -0.012066 -0.001015 0.009003 0.000000 -0.010928 0.000000
# 4 0.000000 0.000000 0.000000 0.078522 0.000000 0.011915
# 5 0.028963 0.000956 -0.010928 0.000000 0.041922 0.000000
# 6 0.000000 0.000000 0.000000 0.011915 0.000000 0.056802
#
#
# Mechanical properties :
#
#
# Convention : Reuss Voigt Hill
#
# Bulk Modulus (GPa) = 34.79512 72.60296 53.69904
# Shear Modulus (GPa) = 17.88427 35.89758 26.89093
#
# Velocity S-wave (km/s) = 2.61824 3.70942 3.21053
# Velocity P-wave (km/s) = 4.74104 6.79527 5.85889
#
# Compressibility (1/GPa) = 0.02873966
#
# Stress axis : x y z
#
# Youngs Moduli (GPa) = 29.62848 55.58631 111.07385
#
# Poissons Ratio (x) = 0.16241 1.34022
# Poissons Ratio (y) = 0.08657 0.11270
# Poissons Ratio (z) = 0.35750 0.05640
#
# Static dielectric constant tensor:
#      x y z
#    x 2.064040 0.000000 0.021410 
#    y 0.000000 2.046340 0.000000 
#    z 0.021410 0.000000 2.165480 
# 
# From -- ./inp_files/38285.got.cif
#   From: 2010.05.17/outbox.cif.g08.bks.cpg/sg15_20_cif.got.tgz:38285.got - 2010.06.03 18:47:42.
