data_PCOD9255940
_publ_section_title
;
Structure prediction by ZEFSAII (Michael W. Deem and Ramdas Pophale) SiO2 
 PCOD9255940
Probable space group: C 2/C
;
_chemical_formula_sum "Si O2"
_cell_formula_units_Z 44
_cell_length_a 11.510486
_cell_length_b 7.141829
_cell_length_c 21.346637
_cell_angle_alpha 90.000000
_cell_angle_beta 115.017557
_cell_angle_gamma 90.000000
_cell_volume 1590.179696
_symmetry_space_group_name_H-M "C 2/C"
_symmetry_group_IT_number 15
_symmetry_cell_setting 'monoclinic'
loop_
_space_group_symop_operation_xyz
x,y,z
-x,y,1/2-z
-x,-y,-z
x,-y,1/2+z
1/2+x,1/2+y,z
1/2-x,1/2+y,1/2-z
1/2-x,1/2-y,-z
1/2+x,1/2-y,1/2+z
loop_
_atom_site_type_symbol
_atom_site_label
_atom_site_fract_x
_atom_site_fract_y
_atom_site_fract_z
Si Si1 0.198002 0.323525 0.381291
Si Si2 0.500000 0.998031 0.750000
Si Si3 0.594061 0.194781 0.581501
Si Si4 0.545581 0.503157 0.371147
Si Si5 0.107706 0.619278 0.445956
Si Si6 0.217963 0.073958 0.202212
O O1 0.290189 0.398356 0.348819
O O2 0.061745 0.386447 0.320346
O O3 0.204896 0.459500 0.442385
O O4 0.178772 0.105522 0.383522
O O5 0.631142 0.915822 0.748724
O O6 0.496530 0.366926 0.577810
O O7 0.640679 0.204846 0.521008
O O8 0.698524 0.235825 0.658283
O O9 0.521322 0.000538 0.572188
O O10 0.575577 0.288932 0.392158
O O11 0.420194 0.538613 0.297080
#
# Coordination Sequence:
#
# PCOD9255940 Si02
#       6
#     8   4   8   8   8   8
#     4   9  19  37  54  78 113 146 185 243 281 339
#     4   8  18  40  52  70 116 142 186 258 274 336
#     4   8  18  33  56  81 118 147 179 239 291 338
#     4   9  18  35  55  80 107 151 185 224 296 345
#     4  10  17  33  58  84 113 146 189 231 287 361
#     4   8  18  37  53  76 114 146 182 241 286 330
#
# _framework density 27.669829
#
# number of rings (size 3 to 8) (size 9 to 14) (size 15 to 20)
#    2.182    1.091    0.000    0.545    0.000    0.727 
#    6.545    1.818    0.000    0.000    0.000    0.000 
#    0.000    0.000    0.000    0.000    0.000    0.000 
#
# Total GULP energy -122484.113969 kJ/mol
# GULP energy per Si atom -5567.459726 kJ/mol
# Density = 2.760685 g / cm^3
# Si number density = 27.669829 Si / 1000 Ang^3
#
#
#
# Elastic Constant Matrix: (Units=GPa)
#
#
# Indices 1 2 3 4 5 6 
#
# 1 103.3320 31.8925 10.4066 0.0000 13.4126 0.0000
# 2 31.8925 163.5599 8.6646 0.0000 20.3170 0.0000
# 3 10.4066 8.6646 49.6537 0.0000 23.0076 0.0000
# 4 0.0000 0.0000 0.0000 25.5495 0.0000 1.4838
# 5 13.4126 20.3170 23.0076 0.0000 44.2045 0.0000
# 6 0.0000 0.0000 0.0000 1.4838 0.0000 45.9651
#
#
#
# Elastic Compliance Matrix: (Units=1/GPa)
#
#
# Indices 1 2 3 4 5 6 
#
# 1 0.010571 -0.001777 -0.001051 0.000000 -0.001844 0.000000
# 2 -0.001777 0.006787 0.000506 0.000000 -0.002843 0.000000
# 3 -0.001051 0.000506 0.026661 0.000000 -0.013790 0.000000
# 4 0.000000 0.000000 0.000000 0.039213 0.000000 -0.001266
# 5 -0.001844 -0.002843 -0.013790 0.000000 0.031666 0.000000
# 6 0.000000 0.000000 0.000000 -0.001266 0.000000 0.021796
#
#
# Mechanical properties :
#
#
# Convention : Reuss Voigt Hill
#
# Bulk Modulus (GPa) = 25.39680 46.49701 35.94690
# Shear Modulus (GPa) = 32.36996 40.84929 36.60962
#
# Velocity S-wave (km/s) = 3.42404 3.84645 3.64137
# Velocity P-wave (km/s) = 4.98302 6.04711 5.54067
#
# Compressibility (1/GPa) = 0.03937504
#
# Stress axis : x y z
#
# Youngs Moduli (GPa) = 94.59797 147.34510 37.50736
#
# Poissons Ratio (x) = 0.26176 0.03943
# Poissons Ratio (y) = 0.16806 -0.01896
# Poissons Ratio (z) = 0.09944 -0.07449
#
# Static dielectric constant tensor:
#      x y z
#    x 2.241350 0.000000 -0.039960 
#    y 0.000000 2.154040 0.000000 
#    z -0.039960 0.000000 2.243530 
# 
# From -- ./inp_files/297870.got.cif
#   From: 2010.05.17/outbox.cif.g08.bks.cpg/sg15_149_cif.got.tgz:297870.got - 2010.06.03 18:47:42.
