data_PCOD9255339
_publ_section_title
;
Structure prediction by ZEFSAII (Michael W. Deem and Ramdas Pophale) SiO2 
 PCOD9255339
Probable space group: C 2/C
;
_chemical_formula_sum "Si O2"
_cell_formula_units_Z 48
_cell_length_a 15.390824
_cell_length_b 25.676578
_cell_length_c 9.414600
_cell_angle_alpha 90.000000
_cell_angle_beta 46.621599
_cell_angle_gamma 90.000000
_cell_volume 2704.181912
_symmetry_space_group_name_H-M "C 2/C"
_symmetry_group_IT_number 15
_symmetry_cell_setting 'monoclinic'
loop_
_space_group_symop_operation_xyz
x,y,z
-x,y,1/2-z
-x,-y,-z
x,-y,1/2+z
1/2+x,1/2+y,z
1/2-x,1/2+y,1/2-z
1/2-x,1/2-y,-z
1/2+x,1/2-y,1/2+z
loop_
_atom_site_type_symbol
_atom_site_label
_atom_site_fract_x
_atom_site_fract_y
_atom_site_fract_z
Si Si1 0.689883 0.805266 0.525642
Si Si2 0.000000 0.685931 0.750000
Si Si3 0.901682 0.068190 0.107092
Si Si4 0.936458 0.842290 0.165477
Si Si5 0.402632 0.255207 0.621849
Si Si6 0.700710 0.155460 0.316688
Si Si7 0.000000 0.997598 0.750000
O O1 0.750000 0.750000 0.500000
O O2 0.796027 0.840111 0.341910
O O3 0.603144 0.786226 0.500015
O O4 0.653421 0.833691 0.710627
O O5 0.917270 0.723239 0.747587
O O6 0.090513 0.654700 0.547932
O O7 0.784313 0.104345 0.230966
O O8 0.918806 0.036039 0.232759
O O9 0.013188 0.108139 0.971964
O O10 0.919191 0.032311 0.947741
O O11 0.000000 0.841315 0.250000
O O12 0.981793 0.790959 0.034709
O O13 0.290971 0.295412 0.745622
#
# Coordination Sequence:
#
# PCOD9255339 Si02
#       7
#     8   4   8   8   8   8   4
#     4  10  17  30  51  71  96 145 185 207 237 299
#     4  12  24  33  46  74 114 150 182 221 246 286
#     4  10  20  36  55  84 103 131 162 219 279 325
#     4  11  17  31  54  76 109 135 173 217 256 308
#     4  10  21  32  49  74 107 149 186 209 245 293
#     4  10  21  34  51  73 109 140 179 219 254 302
#     4  10  20  35  62  82 106 122 162 217 288 350
#
# _framework density 17.750285000000002
#
# number of rings (size 3 to 8) (size 9 to 14) (size 15 to 20)
#    0.000    1.667    5.833    2.500    0.000    4.000 
#    0.000    0.000    0.000    1.000    0.000    0.000 
#    0.000    0.000    0.000    0.000    0.000    0.000 
#
# Total GULP energy -133858.579307 kJ/mol
# GULP energy per Si atom -5577.440804 kJ/mol
# Density = 1.770988 g / cm^3
# Si number density = 17.750285 Si / 1000 Ang^3
#
#
#
# Elastic Constant Matrix: (Units=GPa)
#
#
# Indices 1 2 3 4 5 6 
#
# 1 50.2568 41.1791 36.6692 0.0000 11.0341 0.0000
# 2 41.1791 88.0176 55.3890 0.0000 6.3779 0.0000
# 3 36.6692 55.3890 136.6187 0.0000 -0.7016 0.0000
# 4 0.0000 0.0000 0.0000 21.6830 0.0000 0.5337
# 5 11.0341 6.3779 -0.7016 0.0000 32.1475 0.0000
# 6 0.0000 0.0000 0.0000 0.5337 0.0000 16.0966
#
#
#
# Elastic Compliance Matrix: (Units=1/GPa)
#
#
# Indices 1 2 3 4 5 6 
#
# 1 0.036321 -0.013574 -0.004296 0.000000 -0.009867 0.000000
# 2 -0.013574 0.020654 -0.004728 0.000000 0.000458 0.000000
# 3 -0.004296 -0.004728 0.010403 0.000000 0.002640 0.000000
# 4 0.000000 0.000000 0.000000 0.046157 0.000000 -0.001530
# 5 -0.009867 0.000458 0.002640 0.000000 0.034460 0.000000
# 6 0.000000 0.000000 0.000000 -0.001530 0.000000 0.062176
#
#
# Mechanical properties :
#
#
# Convention : Reuss Voigt Hill
#
# Bulk Modulus (GPa) = 45.08223 60.15197 52.61710
# Shear Modulus (GPa) = 19.02860 23.42914 21.22887
#
# Velocity S-wave (km/s) = 3.27772 3.63703 3.46204
# Velocity P-wave (km/s) = 6.30696 7.18323 6.75931
#
# Compressibility (1/GPa) = 0.02218169
#
# Stress axis : x y z
#
# Youngs Moduli (GPa) = 27.53204 48.41609 96.12490
#
# Poissons Ratio (x) = 0.65722 0.41296
# Poissons Ratio (y) = 0.37373 0.45448
# Poissons Ratio (z) = 0.11828 0.22891
#
# Static dielectric constant tensor:
#      x y z
#    x 1.637580 0.000000 0.001240 
#    y 0.000000 1.610390 0.000000 
#    z 0.001240 0.000000 1.641830 
# 
# From -- ./inp_files/42054.got.cif
#   From: 2010.05.17/outbox.cif.g08.bks.cpg/sg15_22_cif.got.tgz:42054.got - 2010.06.03 18:47:42.
