data_PCOD9255444
_publ_section_title
;
Structure prediction by ZEFSAII (Michael W. Deem and Ramdas Pophale) SiO2 
 PCOD9255444
Probable space group: C 2/C
;
_chemical_formula_sum "Si O2"
_cell_formula_units_Z 40
_cell_length_a 15.389602
_cell_length_b 23.867605
_cell_length_c 12.030716
_cell_angle_alpha 90.000000
_cell_angle_beta 30.012707
_cell_angle_gamma 90.000000
_cell_volume 2210.367536
_symmetry_space_group_name_H-M "C 2/C"
_symmetry_group_IT_number 15
_symmetry_cell_setting 'monoclinic'
loop_
_space_group_symop_operation_xyz
x,y,z
-x,y,1/2-z
-x,-y,-z
x,-y,1/2+z
1/2+x,1/2+y,z
1/2-x,1/2+y,1/2-z
1/2-x,1/2-y,-z
1/2+x,1/2-y,1/2+z
loop_
_atom_site_type_symbol
_atom_site_label
_atom_site_fract_x
_atom_site_fract_y
_atom_site_fract_z
Si Si1 0.199763 0.185411 0.064280
Si Si2 0.434874 0.441379 0.131101
Si Si3 0.267822 0.891581 0.688472
Si Si4 0.194283 0.024291 0.070246
Si Si5 0.846657 0.595743 0.728801
O O1 0.233831 0.163396 0.151544
O O2 0.000000 0.178715 0.250000
O O3 0.250000 0.250000 0.000000
O O4 0.305630 0.145458 0.861943
O O5 0.339277 0.462298 0.347786
O O6 0.298603 0.409434 0.204346
O O7 0.500000 0.500000 0.000000
O O8 0.609103 0.405078 0.945747
O O9 0.260425 0.939363 0.600366
O O10 0.458545 0.895390 0.527865
O O11 0.000000 0.044940 0.250000
O O12 0.319687 0.038148 0.829479
#
# Coordination Sequence:
#
# PCOD9255444 Si02
#       5
#     8   8   8   8   8
#     4  11  19  32  51  71  98 134 163 201 249 298
#     4  10  19  32  47  66  97 139 163 206 248 283
#     4  10  19  32  47  67 100 130 166 202 245 289
#     4  10  17  31  46  64  95 132 164 199 244 289
#     4  11  19  34  47  69 103 132 165 207 238 302
#
# _framework density 18.096537999999999
#
# number of rings (size 3 to 8) (size 9 to 14) (size 15 to 20)
#    0.000    1.600    6.000    4.800    0.000    3.200 
#    3.600    0.000    0.000    0.000    0.000    0.000 
#    0.000    1.600    0.000    0.000    0.000    0.000 
#
# Total GULP energy -111476.523789 kJ/mol
# GULP energy per Si atom -5573.826189 kJ/mol
# Density = 1.805535 g / cm^3
# Si number density = 18.096538 Si / 1000 Ang^3
#
#
#
# Elastic Constant Matrix: (Units=GPa)
#
#
# Indices 1 2 3 4 5 6 
#
# 1 37.1069 17.8009 25.5214 -0.0028 -15.2741 0.0057
# 2 17.8009 85.4997 40.9644 -0.0013 2.3373 0.0028
# 3 25.5214 40.9644 86.4111 -0.0010 -21.2157 0.0018
# 4 -0.0028 -0.0013 -0.0010 22.0674 0.0012 -1.3433
# 5 -15.2741 2.3373 -21.2157 0.0012 28.7094 -0.0028
# 6 0.0057 0.0028 0.0018 -1.3433 -0.0028 20.3666
#
#
#
# Elastic Compliance Matrix: (Units=1/GPa)
#
#
# Indices 1 2 3 4 5 6 
#
# 1 0.041184 -0.007230 -0.003924 0.000003 0.019600 -0.000007
# 2 -0.007230 0.018064 -0.009448 0.000000 -0.012299 -0.000001
# 3 -0.003924 -0.009448 0.020630 -0.000001 0.013926 0.000002
# 4 0.000003 0.000000 -0.000001 0.045498 -0.000001 0.003001
# 5 0.019600 -0.012299 0.013926 -0.000001 0.056552 0.000003
# 6 -0.000007 -0.000001 0.000002 0.003001 0.000003 0.049298
#
#
# Mechanical properties :
#
#
# Convention : Reuss Voigt Hill
#
# Bulk Modulus (GPa) = 25.85709 41.95457 33.90583
# Shear Modulus (GPa) = 17.52406 22.54407 20.03406
#
# Velocity S-wave (km/s) = 3.11523 3.53337 3.33087
# Velocity P-wave (km/s) = 5.22102 6.31509 5.79394
#
# Compressibility (1/GPa) = 0.03867411
#
# Stress axis : x y z
#
# Youngs Moduli (GPa) = 24.28107 55.35842 48.47408
#
# Poissons Ratio (x) = 0.40026 0.19021
# Poissons Ratio (y) = 0.17556 0.45797
# Poissons Ratio (z) = 0.09528 0.52301
#
# Static dielectric constant tensor:
#      x y z
#    x 1.727700 0.000000 -0.035570 
#    y 0.000000 1.628630 0.000000 
#    z -0.035570 0.000000 1.700020 
# 
# From -- ./inp_files/100569.got.cif
#   From: 2010.05.17/outbox.cif.g08.bks.cpg/sg15_51_cif.got.tgz:100569.got - 2010.06.03 18:47:42.
