data_PCOD9255526
_publ_section_title
;
Structure prediction by ZEFSAII (Michael W. Deem and Ramdas Pophale) SiO2 
 PCOD9255526
Probable space group: C 2/C
;
_chemical_formula_sum "Si O2"
_cell_formula_units_Z 40
_cell_length_a 24.426038
_cell_length_b 13.314826
_cell_length_c 15.453029
_cell_angle_alpha 90.000000
_cell_angle_beta 160.599806
_cell_angle_gamma 90.000000
_cell_volume 1669.379711
_symmetry_space_group_name_H-M "C 2/C"
_symmetry_group_IT_number 15
_symmetry_cell_setting 'monoclinic'
loop_
_space_group_symop_operation_xyz
x,y,z
-x,y,1/2-z
-x,-y,-z
x,-y,1/2+z
1/2+x,1/2+y,z
1/2-x,1/2+y,1/2-z
1/2-x,1/2-y,-z
1/2+x,1/2-y,1/2+z
loop_
_atom_site_type_symbol
_atom_site_label
_atom_site_fract_x
_atom_site_fract_y
_atom_site_fract_z
Si Si1 0.127855 0.448281 0.756014
Si Si2 0.360132 0.340727 0.982275
Si Si3 0.000000 0.217394 0.250000
Si Si4 0.035222 0.047871 0.182246
Si Si5 0.732657 0.637377 0.334450
Si Si6 0.000000 0.530851 0.250000
O O1 0.208604 0.359600 0.820323
O O2 0.059021 0.418799 0.748240
O O3 0.000000 0.500000 0.500000
O O4 0.280521 0.523347 0.006462
O O5 0.308437 0.299973 0.812907
O O6 0.500000 0.292498 0.250000
O O7 0.435556 0.448154 0.059744
O O8 0.051058 0.140100 0.399729
O O9 0.146627 0.287589 0.434070
O O10 0.075085 0.091957 0.147224
O O11 0.851531 0.541682 0.495883
#
# Coordination Sequence:
#
# PCOD9255526 Si02
#       6
#     8   8   4   8   8   4
#     4  10  17  31  53  79 115 139 185 235 282 327
#     4  10  19  35  56  81 110 150 187 234 277 335
#     4  11  20  36  54  90 116 143 182 243 290 330
#     4  10  20  36  54  86 114 146 191 236 285 327
#     4  10  20  32  54  82 112 146 186 229 284 337
#     4   9  18  28  48  80 108 137 180 233 278 322
#
# _framework density 23.960996000000002
#
# number of rings (size 3 to 8) (size 9 to 14) (size 15 to 20)
#    0.000    2.000    5.000    1.200    0.000    0.000 
#    0.000    0.000    0.000    1.200   18.200    0.000 
#    0.000    0.000    0.000    0.000    0.000    0.000 
#
# Total GULP energy -111442.336721 kJ/mol
# GULP energy per Si atom -5572.116836 kJ/mol
# Density = 2.390646 g / cm^3
# Si number density = 23.960996 Si / 1000 Ang^3
#
#
#
# Elastic Constant Matrix: (Units=GPa)
#
#
# Indices 1 2 3 4 5 6 
#
# 1 166.5681 5.2909 13.5982 0.0000 4.1842 0.0000
# 2 5.2909 57.8032 0.6925 0.0000 12.8139 0.0000
# 3 13.5982 0.6925 54.6625 0.0000 -9.3254 0.0000
# 4 0.0000 0.0000 0.0000 6.9109 0.0000 5.9035
# 5 4.1842 12.8139 -9.3254 0.0000 39.0834 0.0000
# 6 0.0000 0.0000 0.0000 5.9035 0.0000 8.7428
#
#
#
# Elastic Compliance Matrix: (Units=1/GPa)
#
#
# Indices 1 2 3 4 5 6 
#
# 1 0.006177 -0.000333 -0.001696 0.000000 -0.000957 0.000000
# 2 -0.000333 0.018768 -0.001249 0.000000 -0.006416 0.000000
# 3 -0.001696 -0.001249 0.019632 0.000000 0.005275 0.000000
# 4 0.000000 0.000000 0.000000 0.341929 0.000000 -0.230885
# 5 -0.000957 -0.006416 0.005275 0.000000 0.029051 0.000000
# 6 0.000000 0.000000 0.000000 -0.230885 0.000000 0.270284
#
#
# Mechanical properties :
#
#
# Convention : Reuss Voigt Hill
#
# Bulk Modulus (GPa) = 26.30184 35.35523 30.82853
# Shear Modulus (GPa) = 7.09151 28.24424 17.66788
#
# Velocity S-wave (km/s) = 1.72222 3.43703 2.71838
# Velocity P-wave (km/s) = 3.86723 5.52614 4.76937
#
# Compressibility (1/GPa) = 0.03802016
#
# Stress axis : x y z
#
# Youngs Moduli (GPa) = 161.90206 53.28284 50.93816
#
# Poissons Ratio (x) = 0.01774 0.08637
# Poissons Ratio (y) = 0.05391 0.06364
# Poissons Ratio (z) = 0.27451 0.06657
#
# Static dielectric constant tensor:
#      x y z
#    x 2.023340 0.000000 -0.050970 
#    y 0.000000 1.888050 0.000000 
#    z -0.050970 0.000000 1.982450 
# 
# From -- ./inp_files/85568.got.cif
#   From: 2010.05.17/outbox.cif.g08.bks.cpg/sg15_43_cif.got.tgz:85568.got - 2010.06.03 18:47:42.
