data_PCOD9255929
_publ_section_title
;
Structure prediction by ZEFSAII (Michael W. Deem and Ramdas Pophale) SiO2 
 PCOD9255929
Probable space group: C 2/C
;
_chemical_formula_sum "Si O2"
_cell_formula_units_Z 52
_cell_length_a 8.169538
_cell_length_b 27.228957
_cell_length_c 10.870426
_cell_angle_alpha 90.000000
_cell_angle_beta 94.124055
_cell_angle_gamma 90.000000
_cell_volume 2411.843259
_symmetry_space_group_name_H-M "C 2/C"
_symmetry_group_IT_number 15
_symmetry_cell_setting 'monoclinic'
loop_
_space_group_symop_operation_xyz
x,y,z
-x,y,1/2-z
-x,-y,-z
x,-y,1/2+z
1/2+x,1/2+y,z
1/2-x,1/2+y,1/2-z
1/2-x,1/2-y,-z
1/2+x,1/2-y,1/2+z
loop_
_atom_site_type_symbol
_atom_site_label
_atom_site_fract_x
_atom_site_fract_y
_atom_site_fract_z
Si Si1 0.331743 0.954152 0.591908
Si Si2 0.341812 0.621143 0.084379
Si Si3 0.301944 0.352425 0.870750
Si Si4 0.786007 0.481825 0.863069
Si Si5 0.878476 0.704648 0.487220
Si Si6 0.649570 0.757611 0.164330
Si Si7 0.000000 0.750586 0.250000
O O1 0.324648 0.894744 0.598233
O O2 0.250117 0.978085 0.712787
O O3 0.520731 0.969810 0.614242
O O4 0.261407 0.973113 0.457003
O O5 0.527243 0.631442 0.059461
O O6 0.317579 0.639868 0.223952
O O7 0.307302 0.564090 0.082812
O O8 0.218627 0.654654 0.001206
O O9 0.298210 0.294227 0.892873
O O10 0.750000 0.750000 0.500000
O O11 0.943319 0.714827 0.355152
O O12 0.041178 0.706810 0.576708
O O13 0.500000 0.743044 0.250000
O O14 0.827345 0.778563 0.214444
#
# Coordination Sequence:
#
# PCOD9255929 Si02
#       7
#     8   8   8   8   8   8   4
#     4   9  19  33  59  82 119 146 203 250 316 367
#     4  10  19  34  60  85 117 154 203 254 315 360
#     4  10  17  33  57  88 112 153 199 263 295 368
#     4   9  19  35  56  85 112 157 196 256 306 381
#     4  12  22  39  63  88 126 165 207 267 311 376
#     4  12  22  40  62  92 127 161 216 266 317 371
#     4  12  24  38  64  86 122 168 212 252 326 372
#
# _framework density 21.560272999999999
#
# number of rings (size 3 to 8) (size 9 to 14) (size 15 to 20)
#    0.000    1.538    6.154    0.462    2.154    0.615 
#    0.000    0.000   10.154    0.000    0.000    0.000 
#    0.000    0.000    0.000    0.000    0.000    0.308 
#
# Total GULP energy -144783.194970 kJ/mol
# GULP energy per Si atom -5568.584422 kJ/mol
# Density = 2.151120 g / cm^3
# Si number density = 21.560273 Si / 1000 Ang^3
#
#
#
# Elastic Constant Matrix: (Units=GPa)
#
#
# Indices 1 2 3 4 5 6 
#
# 1 98.7832 23.0825 30.8929 0.0000 6.6151 0.0000
# 2 23.0825 33.0509 13.1212 0.0000 4.5632 0.0000
# 3 30.8929 13.1212 49.7297 0.0000 9.1494 0.0000
# 4 0.0000 0.0000 0.0000 14.2291 0.0000 11.0697
# 5 6.6151 4.5632 9.1494 0.0000 34.1356 0.0000
# 6 0.0000 0.0000 0.0000 11.0697 0.0000 24.8939
#
#
#
# Elastic Compliance Matrix: (Units=1/GPa)
#
#
# Indices 1 2 3 4 5 6 
#
# 1 0.013878 -0.007008 -0.006784 0.000000 0.000066 0.000000
# 2 -0.007008 0.037499 -0.005121 0.000000 -0.002282 0.000000
# 3 -0.006784 -0.005121 0.026619 0.000000 -0.005136 0.000000
# 4 0.000000 0.000000 0.000000 0.107449 0.000000 -0.047780
# 5 0.000066 -0.002282 -0.005136 0.000000 0.030964 0.000000
# 6 0.000000 0.000000 0.000000 -0.047780 0.000000 0.061417
#
#
# Mechanical properties :
#
#
# Convention : Reuss Voigt Hill
#
# Bulk Modulus (GPa) = 24.89423 35.08412 29.98917
# Shear Modulus (GPa) = 15.19561 22.28287 18.73924
#
# Velocity S-wave (km/s) = 2.65768 3.21832 2.95134
# Velocity P-wave (km/s) = 4.58139 5.48799 5.05505
#
# Compressibility (1/GPa) = 0.04016995
#
# Stress axis : x y z
#
# Youngs Moduli (GPa) = 72.05639 26.66753 37.56692
#
# Poissons Ratio (x) = 0.18689 0.25486
# Poissons Ratio (y) = 0.50497 0.19237
# Poissons Ratio (z) = 0.48885 0.13656
#
# Static dielectric constant tensor:
#      x y z
#    x 1.724470 0.000000 0.078930 
#    y 0.000000 1.796640 0.000000 
#    z 0.078930 0.000000 1.886340 
# 
# From -- ./inp_files/80802.got.cif
#   From: 2010.05.17/outbox.cif.g08.bks.cpg/sg15_41_cif.got.tgz:80802.got - 2010.06.03 18:47:42.
