data_PCOD9255203
_publ_section_title
;
Structure prediction by ZEFSAII (Michael W. Deem and Ramdas Pophale) SiO2 
 PCOD9255203
Probable space group: C 2/C
;
_chemical_formula_sum "Si O2"
_cell_formula_units_Z 56
_cell_length_a 10.634869
_cell_length_b 21.833234
_cell_length_c 14.348378
_cell_angle_alpha 90.000000
_cell_angle_beta 138.269175
_cell_angle_gamma 90.000000
_cell_volume 2217.620266
_symmetry_space_group_name_H-M "C 2/C"
_symmetry_group_IT_number 15
_symmetry_cell_setting 'monoclinic'
loop_
_space_group_symop_operation_xyz
x,y,z
-x,y,1/2-z
-x,-y,-z
x,-y,1/2+z
1/2+x,1/2+y,z
1/2-x,1/2+y,1/2-z
1/2-x,1/2-y,-z
1/2+x,1/2-y,1/2+z
loop_
_atom_site_type_symbol
_atom_site_label
_atom_site_fract_x
_atom_site_fract_y
_atom_site_fract_z
Si Si1 0.233073 0.953355 0.177246
Si Si2 0.077216 0.373081 0.502993
Si Si3 0.271725 0.505401 0.622918
Si Si4 0.852272 0.856386 0.508681
Si Si5 0.659153 0.209778 0.757184
Si Si6 0.283132 0.427077 0.943075
Si Si7 0.759726 0.663607 0.226776
O O1 0.274448 0.909408 0.111021
O O2 0.288841 0.962098 0.315230
O O3 0.280679 0.019991 0.162909
O O4 0.011109 0.935181 0.065513
O O5 0.164027 0.441545 0.550159
O O6 0.248320 0.336418 0.544358
O O7 0.077985 0.352574 0.610293
O O8 0.905470 0.347032 0.344634
O O9 0.500000 0.494958 0.750000
O O10 0.227634 0.551688 0.514677
O O11 0.841770 0.806719 0.420394
O O12 0.066367 0.872961 0.649155
O O13 0.500000 0.219365 0.750000
O O14 0.703263 0.266701 0.715786
O O15 0.217209 0.362565 0.864368
#
# Coordination Sequence:
#
# PCOD9255203 Si02
#       7
#     8   8   8   8   8   8   8
#     4   9  16  28  47  74  98 127 165 205 258 290
#     4  11  19  29  50  74 102 135 164 201 249 304
#     4  10  17  29  49  77 103 126 165 213 254 294
#     4  10  19  32  49  70 104 133 163 208 247 301
#     4  10  22  34  44  72 109 140 162 197 255 307
#     4   9  17  27  47  76  97 126 163 214 252 284
#     4  11  19  31  51  73  98 133 174 201 246 298
#
# _framework density 25.252295
#
# number of rings (size 3 to 8) (size 9 to 14) (size 15 to 20)
#    0.000    2.000    2.857    3.000    0.000    2.286 
#    0.000    0.714    0.000    0.857    0.000    2.000 
#    0.000    0.000    0.000    0.000    0.000    0.000 
#
# Total GULP energy -156255.683825 kJ/mol
# GULP energy per Si atom -5580.560137 kJ/mol
# Density = 2.519482 g / cm^3
# Si number density = 25.252295 Si / 1000 Ang^3
#
#
#
# Elastic Constant Matrix: (Units=GPa)
#
#
# Indices 1 2 3 4 5 6 
#
# 1 48.7439 35.5418 57.1331 0.0000 -9.0789 0.0000
# 2 35.5418 158.9115 52.7958 0.0000 -31.6495 0.0000
# 3 57.1331 52.7958 142.9740 0.0000 -35.7473 0.0000
# 4 0.0000 0.0000 0.0000 30.4567 0.0000 -20.4751
# 5 -9.0789 -31.6495 -35.7473 0.0000 60.3964 0.0000
# 6 0.0000 0.0000 0.0000 -20.4751 0.0000 17.1561
#
#
#
# Elastic Compliance Matrix: (Units=1/GPa)
#
#
# Indices 1 2 3 4 5 6 
#
# 1 0.042766 -0.005253 -0.016702 0.000000 -0.006210 0.000000
# 2 -0.005253 0.008175 -0.000054 0.000000 0.003462 0.000000
# 3 -0.016702 -0.000054 0.015321 0.000000 0.006529 0.000000
# 4 0.000000 0.000000 0.000000 0.166101 0.000000 0.198235
# 5 -0.006210 0.003462 0.006529 0.000000 0.021303 0.000000
# 6 0.000000 0.000000 0.000000 0.198235 0.000000 0.294874
#
#
# Mechanical properties :
#
#
# Convention : Reuss Voigt Hill
#
# Bulk Modulus (GPa) = 44.95646 71.28566 58.12106
# Shear Modulus (GPa) = 8.33373 35.27907 21.80640
#
# Velocity S-wave (km/s) = 1.81861 3.74179 2.94180
# Velocity P-wave (km/s) = 4.71714 6.85264 5.88260
#
# Compressibility (1/GPa) = 0.02224374
#
# Stress axis : x y z
#
# Youngs Moduli (GPa) = 23.38326 122.32168 65.26953
#
# Poissons Ratio (x) = 0.64250 1.09015
# Poissons Ratio (y) = 0.12282 0.00354
# Poissons Ratio (z) = 0.39056 0.00663
#
# Static dielectric constant tensor:
#      x y z
#    x 1.099210 0.000000 -0.858270 
#    y 0.000000 2.070780 0.000000 
#    z -0.858270 0.000000 1.235570 
# 
# From -- ./inp_files/107270.got.cif
#   From: 2010.05.17/outbox.cif.g08.bks.cpg/sg15_54_cif.got.tgz:107270.got - 2010.06.03 18:47:42.
