data_PCOD9255690
_publ_section_title
;
Structure prediction by ZEFSAII (Michael W. Deem and Ramdas Pophale) SiO2 
 PCOD9255690
Probable space group: C 2/C
;
_chemical_formula_sum "Si O2"
_cell_formula_units_Z 40
_cell_length_a 14.721043
_cell_length_b 9.360849
_cell_length_c 12.163275
_cell_angle_alpha 90.000000
_cell_angle_beta 100.599595
_cell_angle_gamma 90.000000
_cell_volume 1647.516888
_symmetry_space_group_name_H-M "C 2/C"
_symmetry_group_IT_number 15
_symmetry_cell_setting 'monoclinic'
loop_
_space_group_symop_operation_xyz
x,y,z
-x,y,1/2-z
-x,-y,-z
x,-y,1/2+z
1/2+x,1/2+y,z
1/2-x,1/2+y,1/2-z
1/2-x,1/2-y,-z
1/2+x,1/2-y,1/2+z
loop_
_atom_site_type_symbol
_atom_site_label
_atom_site_fract_x
_atom_site_fract_y
_atom_site_fract_z
Si Si1 0.794358 0.460693 0.359605
Si Si2 0.394829 0.844281 0.578541
Si Si3 0.906594 0.735699 0.453094
Si Si4 0.900893 0.343444 0.184729
Si Si5 0.103010 0.918451 0.251645
O O1 0.810787 0.375979 0.477029
O O2 0.857615 0.600089 0.385949
O O3 0.829835 0.360774 0.268273
O O4 0.691108 0.507125 0.307166
O O5 0.483975 0.799083 0.526311
O O6 0.386742 0.723921 0.669815
O O7 0.414476 0.994920 0.641331
O O8 0.872837 0.743458 0.570109
O O9 0.890030 0.872397 0.373713
O O10 0.000000 0.294633 0.250000
O O11 0.000000 0.973552 0.250000
#
# Coordination Sequence:
#
# PCOD9255690 Si02
#       5
#     8   8   8   8   8
#     4  11  19  30  55  80 104 139 170 215 265 299
#     4  10  17  32  53  81 103 130 172 225 256 301
#     4  10  19  32  53  79 109 132 168 217 264 303
#     4  11  16  29  53  81 107 129 163 218 271 302
#     4  10  21  35  50  78 107 139 178 210 247 312
#
# _framework density 24.278963000000001
#
# number of rings (size 3 to 8) (size 9 to 14) (size 15 to 20)
#    0.000    1.600    6.000    2.400    0.000    0.800 
#    0.000    0.000    0.000    6.000    0.000    0.000 
#    0.000    0.000    0.000    0.000    0.000    0.000 
#
# Total GULP energy -111938.341095 kJ/mol
# GULP energy per Si atom -5596.917055 kJ/mol
# Density = 2.422370 g / cm^3
# Si number density = 24.278963 Si / 1000 Ang^3
#
#
#
# Elastic Constant Matrix: (Units=GPa)
#
#
# Indices 1 2 3 4 5 6 
#
# 1 72.9898 3.1911 47.0713 0.0000 25.4466 0.0000
# 2 3.1911 45.1764 23.5448 0.0000 -16.9770 0.0000
# 3 47.0713 23.5448 152.3106 0.0000 -4.2206 0.0000
# 4 0.0000 0.0000 0.0000 2.8237 0.0000 1.7753
# 5 25.4466 -16.9770 -4.2206 0.0000 43.4847 0.0000
# 6 0.0000 0.0000 0.0000 1.7753 0.0000 3.4945
#
#
#
# Elastic Compliance Matrix: (Units=1/GPa)
#
#
# Indices 1 2 3 4 5 6 
#
# 1 0.024432 -0.004131 -0.007373 0.000000 -0.016626 0.000000
# 2 -0.004131 0.028954 -0.002826 0.000000 0.013447 0.000000
# 3 -0.007373 -0.002826 0.009395 0.000000 0.004123 0.000000
# 4 0.000000 0.000000 0.000000 0.520357 0.000000 -0.264360
# 5 -0.016626 0.013447 0.004123 0.000000 0.038376 0.000000
# 6 0.000000 0.000000 0.000000 -0.264360 0.000000 0.420470
#
#
# Mechanical properties :
#
#
# Convention : Reuss Voigt Hill
#
# Bulk Modulus (GPa) = 29.30806 46.45458 37.88132
# Shear Modulus (GPa) = 4.62100 23.07188 13.84644
#
# Velocity S-wave (km/s) = 1.38110 3.08601 2.39070
# Velocity P-wave (km/s) = 3.82633 5.64563 4.82255
#
# Compressibility (1/GPa) = 0.03412030
#
# Stress axis : x y z
#
# Youngs Moduli (GPa) = 40.92959 34.53798 106.43665
#
# Poissons Ratio (x) = 0.14268 0.78474
# Poissons Ratio (y) = 0.16909 0.30083
# Poissons Ratio (z) = 0.30177 0.09762
#
# Static dielectric constant tensor:
#      x y z
#    x 1.948480 0.000000 -0.001170 
#    y 0.000000 1.941650 0.000000 
#    z -0.001170 0.000000 1.902800 
# 
# From -- ./inp_files/85480.got.cif
#   From: 2010.05.17/outbox.cif.g08.bks.cpg/sg15_43_cif.got.tgz:85480.got - 2010.06.03 18:47:42.
