data_PCOD9255375
_publ_section_title
;
Structure prediction by ZEFSAII (Michael W. Deem and Ramdas Pophale) SiO2 
 PCOD9255375
Probable space group: C 2/C
;
_chemical_formula_sum "Si O2"
_cell_formula_units_Z 60
_cell_length_a 18.657570
_cell_length_b 23.022275
_cell_length_c 9.313561
_cell_angle_alpha 90.000000
_cell_angle_beta 122.158681
_cell_angle_gamma 90.000000
_cell_volume 3386.769688
_symmetry_space_group_name_H-M "C 2/C"
_symmetry_group_IT_number 15
_symmetry_cell_setting 'monoclinic'
loop_
_space_group_symop_operation_xyz
x,y,z
-x,y,1/2-z
-x,-y,-z
x,-y,1/2+z
1/2+x,1/2+y,z
1/2-x,1/2+y,1/2-z
1/2-x,1/2-y,-z
1/2+x,1/2-y,1/2+z
loop_
_atom_site_type_symbol
_atom_site_label
_atom_site_fract_x
_atom_site_fract_y
_atom_site_fract_z
Si Si1 0.000000 0.389091 0.750000
Si Si2 0.150309 0.308537 0.980452
Si Si3 0.875925 0.470261 0.801530
Si Si4 0.903438 0.816589 0.192000
Si Si5 0.242455 0.665069 0.078899
Si Si6 0.403113 0.076935 0.643660
Si Si7 0.765426 0.883864 0.901594
Si Si8 0.802708 0.792981 0.359736
O O1 0.934603 0.346820 0.596008
O O2 0.946586 0.430370 0.798560
O O3 0.129382 0.241702 0.924366
O O4 0.198798 0.337037 0.896359
O O5 0.217330 0.310573 0.181225
O O6 0.886317 0.535674 0.760994
O O7 0.785654 0.444074 0.653978
O O8 0.887770 0.461681 0.983645
O O9 0.879791 0.804090 0.332898
O O10 0.000000 0.823692 0.250000
O O11 0.848563 0.871941 0.082606
O O12 0.282794 0.631906 0.255759
O O13 0.210118 0.726555 0.105612
O O14 0.161562 0.629308 0.938768
O O15 0.304526 0.673032 0.011224
O O16 0.500000 0.096426 0.750000
#
# Coordination Sequence:
#
# PCOD9255375 Si02
#       8
#     4   8   8   8   8   8   8   8
#     4  10  20  30  52  82 106 154 178 226 264 306
#     4  10  17  30  53  72 107 140 189 213 259 324
#     4  10  22  35  53  74 114 145 184 218 267 321
#     4  11  19  32  54  80 105 136 185 231 263 319
#     4  10  20  35  54  73 111 146 177 219 271 325
#     4  11  23  36  53  80 111 142 184 225 262 318
#     4   9  18  36  52  72 103 145 178 220 267 321
#     4  10  20  35  51  77 109 148 181 215 273 332
#
# _framework density 17.715997000000002
#
# number of rings (size 3 to 8) (size 9 to 14) (size 15 to 20)
#    0.000    1.867    4.000    1.200    1.867    2.133 
#    0.000    0.667    0.000    0.000    0.000    8.400 
#    0.000    0.000    0.000    0.000    0.000    0.000 
#
# Total GULP energy -167353.102113 kJ/mol
# GULP energy per Si atom -5578.436737 kJ/mol
# Density = 1.767567 g / cm^3
# Si number density = 17.715997 Si / 1000 Ang^3
#
#
#
# Elastic Constant Matrix: (Units=GPa)
#
#
# Indices 1 2 3 4 5 6 
#
# 1 96.6730 7.0634 32.8661 0.0000 -6.6201 0.0000
# 2 7.0634 25.9569 11.4774 0.0000 2.2671 0.0000
# 3 32.8661 11.4774 34.8152 0.0000 -9.4444 0.0000
# 4 0.0000 0.0000 0.0000 22.6369 0.0000 3.3536
# 5 -6.6201 2.2671 -9.4444 0.0000 29.1805 0.0000
# 6 0.0000 0.0000 0.0000 3.3536 0.0000 12.2771
#
#
#
# Elastic Compliance Matrix: (Units=1/GPa)
#
#
# Indices 1 2 3 4 5 6 
#
# 1 0.015480 0.003110 -0.016171 0.000000 -0.001964 0.000000
# 2 0.003110 0.048050 -0.021484 0.000000 -0.009981 0.000000
# 3 -0.016171 -0.021484 0.055393 0.000000 0.015928 0.000000
# 4 0.000000 0.000000 0.000000 0.046039 0.000000 -0.012576
# 5 -0.001964 -0.009981 0.015928 0.000000 0.039755 0.000000
# 6 0.000000 0.000000 0.000000 -0.012576 0.000000 0.084888
#
#
# Mechanical properties :
#
#
# Convention : Reuss Voigt Hill
#
# Bulk Modulus (GPa) = 20.06730 28.91765 24.49247
# Shear Modulus (GPa) = 13.32243 19.88811 16.60527
#
# Velocity S-wave (km/s) = 2.74524 3.35417 3.06486
# Velocity P-wave (km/s) = 4.62604 5.59990 5.13611
#
# Compressibility (1/GPa) = 0.04983232
#
# Stress axis : x y z
#
# Youngs Moduli (GPa) = 64.59809 20.81146 18.05295
#
# Poissons Ratio (x) = -0.06471 0.29194
# Poissons Ratio (y) = -0.20087 0.38784
# Poissons Ratio (z) = 1.04465 0.44711
#
# Static dielectric constant tensor:
#      x y z
#    x 1.615850 0.000000 -0.011650 
#    y 0.000000 1.599490 0.000000 
#    z -0.011650 0.000000 1.624740 
# 
# From -- ./inp_files/51506.got.cif
#   From: 2010.05.17/outbox.cif.g08.bks.cpg/sg15_26_cif.got.tgz:51506.got - 2010.06.03 18:47:42.
