data_PCOD9255214
_publ_section_title
;
Structure prediction by ZEFSAII (Michael W. Deem and Ramdas Pophale) SiO2 
 PCOD9255214
Probable space group: C 2/C
;
_chemical_formula_sum "Si O2"
_cell_formula_units_Z 48
_cell_length_a 27.867799
_cell_length_b 20.385135
_cell_length_c 9.319278
_cell_angle_alpha 90.000000
_cell_angle_beta 28.805344
_cell_angle_gamma 90.000000
_cell_volume 2550.922342
_symmetry_space_group_name_H-M "C 2/C"
_symmetry_group_IT_number 15
_symmetry_cell_setting 'monoclinic'
loop_
_space_group_symop_operation_xyz
x,y,z
-x,y,1/2-z
-x,-y,-z
x,-y,1/2+z
1/2+x,1/2+y,z
1/2-x,1/2+y,1/2-z
1/2-x,1/2-y,-z
1/2+x,1/2-y,1/2+z
loop_
_atom_site_type_symbol
_atom_site_label
_atom_site_fract_x
_atom_site_fract_y
_atom_site_fract_z
Si Si1 0.963742 0.064792 0.175692
Si Si2 0.728612 0.633983 0.797043
Si Si3 0.585591 0.683905 0.744562
Si Si4 0.610273 0.205165 0.943763
Si Si5 0.713621 0.823124 0.641659
Si Si6 0.085037 0.742682 0.686379
O O1 0.843653 0.072787 0.489224
O O2 0.000000 0.069302 0.250000
O O3 0.009504 0.123744 0.957602
O O4 0.000000 0.000000 0.000000
O O5 0.802563 0.659172 0.725956
O O6 0.793043 0.633524 0.482650
O O7 0.646985 0.691923 0.986303
O O8 0.604465 0.727325 0.553191
O O9 0.690429 0.655278 0.519078
O O10 0.530250 0.736671 0.995314
O O11 0.500000 0.174731 0.250000
O O12 0.621521 0.223300 0.749296
O O13 0.750000 0.750000 0.500000
O O14 0.618966 0.813967 0.990496
#
# Coordination Sequence:
#
# PCOD9255214 Si02
#       6
#     8   8   8   8   8   8
#     4  11  24  40  55  79 111 153 194 228 273 331
#     4  10  19  33  52  73 110 144 183 230 272 332
#     4  10  19  32  53  77 117 147 180 227 270 337
#     4  10  19  32  50  85 115 143 178 227 284 333
#     4  10  17  29  50  74 106 150 178 217 282 332
#     4   9  19  28  48  76 112 146 182 214 282 332
#
# _framework density 18.816724000000001
#
# number of rings (size 3 to 8) (size 9 to 14) (size 15 to 20)
#    0.000    2.000    5.000    0.500    0.000    3.333 
#    0.000    0.000    0.000    0.000    0.000    1.167 
#    5.000    0.000    0.000    0.000    0.000    0.000 
#
# Total GULP energy -133614.499518 kJ/mol
# GULP energy per Si atom -5567.270813 kJ/mol
# Density = 1.877390 g / cm^3
# Si number density = 18.816724 Si / 1000 Ang^3
#
#
#
# Elastic Constant Matrix: (Units=GPa)
#
#
# Indices 1 2 3 4 5 6 
#
# 1 76.6369 18.5189 29.2407 0.0000 -4.8779 0.0000
# 2 18.5189 52.0671 42.8464 0.0000 2.1525 0.0000
# 3 29.2407 42.8464 97.1074 0.0000 18.9188 0.0000
# 4 0.0000 0.0000 0.0000 34.8411 0.0000 -2.5335
# 5 -4.8779 2.1525 18.9188 0.0000 28.5789 0.0000
# 6 0.0000 0.0000 0.0000 -2.5335 0.0000 6.6971
#
#
#
# Elastic Compliance Matrix: (Units=1/GPa)
#
#
# Indices 1 2 3 4 5 6 
#
# 1 0.015858 -0.001497 -0.005355 0.000000 0.006364 0.000000
# 2 -0.001497 0.031767 -0.014982 0.000000 0.007269 0.000000
# 3 -0.005355 -0.014982 0.021215 0.000000 -0.013829 0.000000
# 4 0.000000 0.000000 0.000000 0.029514 0.000000 0.011165
# 5 0.006364 0.007269 -0.013829 0.000000 0.044684 0.000000
# 6 0.000000 0.000000 0.000000 0.011165 0.000000 0.153543
#
#
# Mechanical properties :
#
#
# Convention : Reuss Voigt Hill
#
# Bulk Modulus (GPa) = 39.72524 45.22483 42.47503
# Shear Modulus (GPa) = 14.34150 23.03710 18.68930
#
# Velocity S-wave (km/s) = 2.76373 3.50278 3.15497
# Velocity P-wave (km/s) = 5.59837 6.35970 5.99114
#
# Compressibility (1/GPa) = 0.02517292
#
# Stress axis : x y z
#
# Youngs Moduli (GPa) = 63.05794 31.47969 47.13683
#
# Poissons Ratio (x) = 0.04713 0.25239
# Poissons Ratio (y) = 0.09441 0.70619
# Poissons Ratio (z) = 0.33764 0.47162
#
# Static dielectric constant tensor:
#      x y z
#    x 2.359580 0.000000 -0.203750 
#    y 0.000000 1.651010 0.000000 
#    z -0.203750 0.000000 1.804160 
# 
# From -- ./inp_files/40922.got.cif
#   From: 2010.05.17/outbox.cif.g08.bks.cpg/sg15_21_cif.got.tgz:40922.got - 2010.06.03 18:47:42.
