data_PCOD9255006
_publ_section_title
;
Structure prediction by ZEFSAII (Michael W. Deem and Ramdas Pophale) SiO2 
 PCOD9255006
Probable space group: C 2/C
;
_chemical_formula_sum "Si O2"
_cell_formula_units_Z 52
_cell_length_a 22.098345
_cell_length_b 7.998477
_cell_length_c 22.989679
_cell_angle_alpha 90.000000
_cell_angle_beta 35.643720
_cell_angle_gamma 90.000000
_cell_volume 2367.975497
_symmetry_space_group_name_H-M "C 2/C"
_symmetry_group_IT_number 15
_symmetry_cell_setting 'monoclinic'
loop_
_space_group_symop_operation_xyz
x,y,z
-x,y,1/2-z
-x,-y,-z
x,-y,1/2+z
1/2+x,1/2+y,z
1/2-x,1/2+y,1/2-z
1/2-x,1/2-y,-z
1/2+x,1/2-y,1/2+z
loop_
_atom_site_type_symbol
_atom_site_label
_atom_site_fract_x
_atom_site_fract_y
_atom_site_fract_z
Si Si1 0.717866 0.353169 0.716383
Si Si2 0.978593 0.461193 0.449903
Si Si3 0.542108 0.282403 0.102342
Si Si4 0.500000 0.872817 0.750000
Si Si5 0.658012 0.961799 0.213349
Si Si6 0.294627 0.719400 0.774794
Si Si7 0.513976 0.585434 0.052453
O O1 0.704390 0.222902 0.674599
O O2 0.756499 0.540181 0.672853
O O3 0.781849 0.260918 0.716900
O O4 0.604417 0.388162 0.833036
O O5 0.924750 0.619951 0.460710
O O6 0.084412 0.452624 0.328576
O O7 0.937200 0.270960 0.483417
O O8 0.000000 0.500000 0.500000
O O9 0.559731 0.241081 0.156001
O O10 0.415925 0.291476 0.196321
O O11 0.571273 0.458112 0.051384
O O12 0.417123 0.986420 0.780409
O O13 0.737171 0.112867 0.165802
O O14 0.500000 0.500000 0.000000
#
# Coordination Sequence:
#
# PCOD9255006 Si02
#       7
#     8   8   8   4   8   8   8
#     4  10  17  27  44  66  95 118 150 193 232 280
#     4   9  15  26  42  61  91 117 144 184 227 273
#     4   9  18  30  44  66  93 121 152 189 226 282
#     4   8  16  32  46  60  96 132 152 176 234 284
#     4   9  18  29  43  67  93 120 151 186 228 281
#     4   9  16  27  42  64  92 117 148 188 235 272
#     4  10  18  27  42  68  96 119 150 188 239 275
#
# _framework density 21.959688
#
# number of rings (size 3 to 8) (size 9 to 14) (size 15 to 20)
#    0.000    3.077    3.077    0.000    0.000    0.000 
#    0.000   19.231    0.000    0.000    0.000    4.308 
#    0.000   69.538    0.000    0.000    0.000    0.000 
#
# Total GULP energy -144884.323055 kJ/mol
# GULP energy per Si atom -5572.473964 kJ/mol
# Density = 2.190971 g / cm^3
# Si number density = 21.959688 Si / 1000 Ang^3
#
#
#
# Elastic Constant Matrix: (Units=GPa)
#
#
# Indices 1 2 3 4 5 6 
#
# 1 67.9792 31.9432 32.7414 0.0005 25.9036 -0.0008
# 2 31.9432 236.8771 45.0372 0.0012 37.7220 -0.0020
# 3 32.7414 45.0372 76.4751 0.0008 21.3441 -0.0012
# 4 0.0005 0.0012 0.0008 12.9481 -0.0005 13.5293
# 5 25.9036 37.7220 21.3441 -0.0005 39.7119 0.0009
# 6 -0.0008 -0.0020 -0.0012 13.5293 0.0009 24.6347
#
#
#
# Elastic Compliance Matrix: (Units=1/GPa)
#
#
# Indices 1 2 3 4 5 6 
#
# 1 0.021913 -0.000019 -0.006337 -0.000004 -0.010870 0.000003
# 2 -0.000019 0.005219 -0.001983 -0.000002 -0.003879 0.000002
# 3 -0.006337 -0.001983 0.017974 -0.000003 -0.003644 0.000003
# 4 -0.000004 -0.000002 -0.000003 0.181232 0.000011 -0.099532
# 5 -0.010870 -0.003879 -0.003644 0.000011 0.037915 -0.000008
# 6 0.000003 0.000002 0.000003 -0.099532 -0.000008 0.095256
#
#
# Mechanical properties :
#
#
# Convention : Reuss Voigt Hill
#
# Bulk Modulus (GPa) = 35.17560 66.75276 50.96418
# Shear Modulus (GPa) = 12.96472 33.56624 23.26548
#
# Velocity S-wave (km/s) = 2.43242 3.91389 3.25847
# Velocity P-wave (km/s) = 4.89305 7.13363 6.11680
#
# Compressibility (1/GPa) = 0.02842880
#
# Stress axis : x y z
#
# Youngs Moduli (GPa) = 45.63419 191.61152 55.63711
#
# Poissons Ratio (x) = 0.00369 0.35256
# Poissons Ratio (y) = 0.00088 0.11030
# Poissons Ratio (z) = 0.28917 0.37988
#
# Static dielectric constant tensor:
#      x y z
#    x 1.809100 0.000000 -0.079790 
#    y 0.000000 1.974510 0.000000 
#    z -0.079790 0.000000 1.875300 
# 
# From -- ./inp_files/251275.got.cif
#   From: 2010.05.17/outbox.cif.g08.bks.cpg/sg15_126_cif.got.tgz:251275.got - 2010.06.03 18:47:42.
