data_PCOD9255482
_publ_section_title
;
Structure prediction by ZEFSAII (Michael W. Deem and Ramdas Pophale) SiO2 
 PCOD9255482
Probable space group: C 2/C
;
_chemical_formula_sum "Si O2"
_cell_formula_units_Z 56
_cell_length_a 26.565407
_cell_length_b 16.512705
_cell_length_c 22.314411
_cell_angle_alpha 90.000000
_cell_angle_beta 20.515311
_cell_angle_gamma 90.000000
_cell_volume 3430.486364
_symmetry_space_group_name_H-M "C 2/C"
_symmetry_group_IT_number 15
_symmetry_cell_setting 'monoclinic'
loop_
_space_group_symop_operation_xyz
x,y,z
-x,y,1/2-z
-x,-y,-z
x,-y,1/2+z
1/2+x,1/2+y,z
1/2-x,1/2+y,1/2-z
1/2-x,1/2-y,-z
1/2+x,1/2-y,1/2+z
loop_
_atom_site_type_symbol
_atom_site_label
_atom_site_fract_x
_atom_site_fract_y
_atom_site_fract_z
Si Si1 0.143725 0.426984 0.623968
Si Si2 0.989111 0.724340 0.175593
Si Si3 0.743674 0.651153 0.678557
Si Si4 0.764925 0.028652 0.115578
Si Si5 0.568669 0.593080 0.768374
Si Si6 0.629135 0.185600 0.324850
Si Si7 0.894084 0.423578 0.120554
O O1 0.170879 0.463296 0.659906
O O2 0.289970 0.436027 0.423983
O O3 0.000000 0.457307 0.750000
O O4 0.111724 0.331739 0.671917
O O5 0.981547 0.818282 0.199237
O O6 0.935570 0.712830 0.167097
O O7 0.147320 0.685256 0.994121
O O8 0.616233 0.608632 0.784287
O O9 0.704236 0.731629 0.760593
O O10 0.820325 0.590285 0.638428
O O11 0.729727 0.109090 0.195568
O O12 0.719351 0.949086 0.202856
O O13 0.932764 0.035005 0.914153
O O14 0.500440 0.152846 0.509389
O O15 0.000000 0.500000 0.000000
#
# Coordination Sequence:
#
# PCOD9255482 Si02
#       7
#     8   8   8   8   8   8   8
#     4  11  21  31  46  65 100 144 180 208 240 300
#     4   9  17  29  42  68  98 137 170 204 239 284
#     4  10  17  31  51  74 103 135 174 209 252 301
#     4  10  20  34  46  70 101 139 174 214 255 292
#     4  11  20  29  47  71 102 132 174 216 242 299
#     4   8  16  30  49  68  95 131 171 206 249 301
#     4   9  19  33  52  69 101 143 170 209 261 309
#
# _framework density 16.324216
#
# number of rings (size 3 to 8) (size 9 to 14) (size 15 to 20)
#    0.000    2.286    2.857    1.714    0.000    1.714 
#    0.000    0.000    0.000    0.000    0.000    0.000 
#    0.000    8.000    0.000    0.000    0.000    0.000 
#
# Total GULP energy -155937.149515 kJ/mol
# GULP energy per Si atom -5569.183911 kJ/mol
# Density = 1.628706 g / cm^3
# Si number density = 16.324216 Si / 1000 Ang^3
#
#
#
# Elastic Constant Matrix: (Units=GPa)
#
#
# Indices 1 2 3 4 5 6 
#
# 1 78.2087 28.3525 30.8258 -0.0008 -7.5523 0.0003
# 2 28.3525 40.0744 27.9173 -0.0042 5.5301 0.0026
# 3 30.8258 27.9173 110.0315 -0.0056 -4.6683 0.0037
# 4 -0.0008 -0.0042 -0.0056 28.4994 0.0023 -2.0920
# 5 -7.5523 5.5301 -4.6683 0.0023 20.7836 -0.0013
# 6 0.0003 0.0026 0.0037 -2.0920 -0.0013 13.8687
#
#
#
# Elastic Compliance Matrix: (Units=1/GPa)
#
#
# Indices 1 2 3 4 5 6 
#
# 1 0.019553 -0.014327 -0.001393 -0.000002 0.010604 0.000003
# 2 -0.014327 0.042964 -0.007666 0.000005 -0.018360 -0.000006
# 3 -0.001393 -0.007666 0.011599 0.000001 0.004139 -0.000001
# 4 -0.000002 0.000005 0.000001 0.035481 -0.000006 0.005352
# 5 0.010604 -0.018360 0.004139 -0.000006 0.057783 0.000007
# 6 0.000003 -0.000006 -0.000001 0.005352 0.000007 0.072912
#
#
# Mechanical properties :
#
#
# Convention : Reuss Voigt Hill
#
# Bulk Modulus (GPa) = 36.57038 44.72285 40.64662
# Shear Modulus (GPa) = 16.88168 22.04495 19.46331
#
# Velocity S-wave (km/s) = 3.21931 3.67883 3.45671
# Velocity P-wave (km/s) = 6.02244 6.74545 6.39417
#
# Compressibility (1/GPa) = 0.02734453
#
# Stress axis : x y z
#
# Youngs Moduli (GPa) = 51.14270 23.27543 86.21278
#
# Poissons Ratio (x) = 0.33346 0.12009
# Poissons Ratio (y) = 0.73271 0.66091
# Poissons Ratio (z) = 0.07124 0.17843
#
# Static dielectric constant tensor:
#      x y z
#    x 1.590140 0.000000 -0.024180 
#    y 0.000000 1.548260 0.000000 
#    z -0.024180 0.000000 1.638620 
# 
# From -- ./inp_files/249522.got.cif
#   From: 2010.05.17/outbox.cif.g08.bks.cpg/sg15_125_cif.got.tgz:249522.got - 2010.06.03 18:47:42.
