data_PCOD9255827
_publ_section_title
;
Structure prediction by ZEFSAII (Michael W. Deem and Ramdas Pophale) SiO2 
 PCOD9255827
Probable space group: C 2/C
;
_chemical_formula_sum "Si O2"
_cell_formula_units_Z 56
_cell_length_a 8.692285
_cell_length_b 21.774096
_cell_length_c 17.915768
_cell_angle_alpha 90.000000
_cell_angle_beta 132.641507
_cell_angle_gamma 90.000000
_cell_volume 2494.336855
_symmetry_space_group_name_H-M "C 2/C"
_symmetry_group_IT_number 15
_symmetry_cell_setting 'monoclinic'
loop_
_space_group_symop_operation_xyz
x,y,z
-x,y,1/2-z
-x,-y,-z
x,-y,1/2+z
1/2+x,1/2+y,z
1/2-x,1/2+y,1/2-z
1/2-x,1/2-y,-z
1/2+x,1/2-y,1/2+z
loop_
_atom_site_type_symbol
_atom_site_label
_atom_site_fract_x
_atom_site_fract_y
_atom_site_fract_z
Si Si1 0.052801 0.298076 0.055883
Si Si2 0.191148 0.936424 0.759573
Si Si3 0.488231 0.166262 0.126956
Si Si4 0.457403 0.020782 0.651886
Si Si5 0.500000 0.141788 0.750000
Si Si6 0.000000 0.772553 0.250000
Si Si7 0.821811 0.826546 0.457134
Si Si8 0.642129 0.570841 0.070619
O O1 0.275617 0.306616 0.170464
O O2 0.847227 0.324235 0.030954
O O3 0.074455 0.322945 0.979198
O O4 0.992500 0.225782 0.029254
O O5 0.293032 0.869527 0.801036
O O6 0.366911 0.987095 0.837769
O O7 0.119824 0.942064 0.650787
O O8 0.000000 0.944281 0.750000
O O9 0.501194 0.228341 0.178116
O O10 0.328164 0.119822 0.114999
O O11 0.500000 0.995384 0.750000
O O12 0.231002 0.990984 0.560058
O O13 0.506896 0.092225 0.683686
O O14 0.309303 0.184086 0.661989
O O15 0.939012 0.890586 0.481213
#
# Coordination Sequence:
#
# PCOD9255827 Si02
#       8
#     8   8   8   8   4   4   8   8
#     4  11  26  39  60  97 131 169 217 258 312 376
#     4  10  17  32  63  92 121 150 207 270 303 357
#     4  11  20  37  62  89 125 169 208 253 311 374
#     4   7  17  36  58  88 112 157 206 247 316 382
#     4  10  22  41  66  82 130 166 201 264 334 376
#     4  12  22  39  64  82 128 174 213 254 304 378
#     4  11  24  41  60  94 130 164 215 265 314 373
#     4  10  18  37  62  90 116 160 214 254 306 381
#
# _framework density 22.450856999999999
#
# number of rings (size 3 to 8) (size 9 to 14) (size 15 to 20)
#    0.429    1.429    2.857    2.143    2.000    1.714 
#    0.000    0.000    4.714    2.571    0.000    0.000 
#    0.000    0.000    0.000    0.000    0.000    0.000 
#
# Total GULP energy -156060.263349 kJ/mol
# GULP energy per Si atom -5573.580834 kJ/mol
# Density = 2.239976 g / cm^3
# Si number density = 22.450857 Si / 1000 Ang^3
#
#
#
# Elastic Constant Matrix: (Units=GPa)
#
#
# Indices 1 2 3 4 5 6 
#
# 1 133.8313 26.7363 28.9834 0.0000 7.4345 0.0000
# 2 26.7363 34.4638 -3.3948 0.0000 -3.6115 0.0000
# 3 28.9834 -3.3948 94.2873 0.0000 9.1716 0.0000
# 4 0.0000 0.0000 0.0000 27.4948 0.0000 1.7920
# 5 7.4345 -3.6115 9.1716 0.0000 33.1637 0.0000
# 6 0.0000 0.0000 0.0000 1.7920 0.0000 7.2407
#
#
#
# Elastic Compliance Matrix: (Units=1/GPa)
#
#
# Indices 1 2 3 4 5 6 
#
# 1 0.009921 -0.008241 -0.003127 0.000000 -0.002257 0.000000
# 2 -0.008241 0.036250 0.003365 0.000000 0.004864 0.000000
# 3 -0.003127 0.003365 0.011905 0.000000 -0.002225 0.000000
# 4 0.000000 0.000000 0.000000 0.036967 0.000000 -0.009149
# 5 -0.002257 0.004864 -0.002225 0.000000 0.031804 0.000000
# 6 0.000000 0.000000 0.000000 -0.009149 0.000000 0.140373
#
#
# Mechanical properties :
#
#
# Convention : Reuss Voigt Hill
#
# Bulk Modulus (GPa) = 23.76945 40.80358 32.28652
# Shear Modulus (GPa) = 16.82094 27.59700 22.20897
#
# Velocity S-wave (km/s) = 2.74018 3.50982 3.14861
# Velocity P-wave (km/s) = 4.54112 5.88551 5.25647
#
# Compressibility (1/GPa) = 0.04207081
#
# Stress axis : x y z
#
# Youngs Moduli (GPa) = 100.79650 27.58596 84.00081
#
# Poissons Ratio (x) = 0.22734 0.26266
# Poissons Ratio (y) = 0.83066 -0.28268
# Poissons Ratio (z) = 0.31518 -0.09283
#
# Static dielectric constant tensor:
#      x y z
#    x 1.863130 0.000000 0.062270 
#    y 0.000000 1.892350 0.000000 
#    z 0.062270 0.000000 1.874750 
# 
# From -- ./inp_files/193334.got.cif
#   From: 2010.05.17/outbox.cif.g08.bks.cpg/sg15_97_cif.got.tgz:193334.got - 2010.06.03 18:47:42.
