data_PCOD9255208
_publ_section_title
;
Structure prediction by ZEFSAII (Michael W. Deem and Ramdas Pophale) SiO2 
 PCOD9255208
Probable space group: C 2/C
;
_chemical_formula_sum "Si O2"
_cell_formula_units_Z 52
_cell_length_a 15.339556
_cell_length_b 17.371375
_cell_length_c 12.586842
_cell_angle_alpha 90.000000
_cell_angle_beta 35.337007
_cell_angle_gamma 90.000000
_cell_volume 1939.905249
_symmetry_space_group_name_H-M "C 2/C"
_symmetry_group_IT_number 15
_symmetry_cell_setting 'monoclinic'
loop_
_space_group_symop_operation_xyz
x,y,z
-x,y,1/2-z
-x,-y,-z
x,-y,1/2+z
1/2+x,1/2+y,z
1/2-x,1/2+y,1/2-z
1/2-x,1/2-y,-z
1/2+x,1/2-y,1/2+z
loop_
_atom_site_type_symbol
_atom_site_label
_atom_site_fract_x
_atom_site_fract_y
_atom_site_fract_z
Si Si1 0.527774 0.750511 0.094278
Si Si2 0.792806 0.394928 0.526553
Si Si3 0.500000 0.464480 0.750000
Si Si4 0.161101 0.015910 0.388806
Si Si5 0.225902 0.642340 0.703777
Si Si6 0.500000 0.729832 0.750000
Si Si7 0.000000 0.479241 0.750000
Si Si8 0.787309 0.647822 0.357756
O O1 0.500000 0.734338 0.250000
O O2 0.653673 0.816829 0.975127
O O3 0.395804 0.790782 0.156551
O O4 0.608648 0.679410 0.957598
O O5 0.618912 0.418324 0.704545
O O6 0.807582 0.375291 0.385968
O O7 0.910190 0.465126 0.421145
O O8 0.609848 0.510068 0.563604
O O9 0.236973 0.099340 0.302386
O O10 0.264990 0.942285 0.254514
O O11 0.000000 0.000000 0.500000
O O12 0.633022 0.680328 0.563079
O O13 0.591555 0.782880 0.745198
O O14 0.878191 0.421877 0.822925
#
# Coordination Sequence:
#
# PCOD9255208 Si02
#       8
#     8   8   4   8   8   4   4   8
#     4  10  18  29  49  82 125 152 195 234 273 360
#     4  10  17  29  49  88 116 159 194 230 290 354
#     4  10  21  34  62  91 112 156 210 228 303 365
#     4  11  23  40  63  91 124 157 203 258 310 366
#     4  10  20  31  50  81 116 162 194 230 297 342
#     4   9  21  36  64  96 112 156 218 261 319 370
#     4  11  16  30  58  87 124 158 200 257 302 361
#     4  10  19  37  60  90 120 154 208 265 314 365
#
# _framework density 26.805432
#
# number of rings (size 3 to 8) (size 9 to 14) (size 15 to 20)
#    0.000    1.846    5.385    2.308    8.615    0.000 
#    0.000    1.538    0.000    3.692    0.000    0.000 
#    0.000    0.000    0.000    0.000    0.000    0.000 
#
# Total GULP energy -145092.138615 kJ/mol
# GULP energy per Si atom -5580.466870 kJ/mol
# Density = 2.674442 g / cm^3
# Si number density = 26.805432 Si / 1000 Ang^3
#
#
#
# Elastic Constant Matrix: (Units=GPa)
#
#
# Indices 1 2 3 4 5 6 
#
# 1 63.4577 36.8287 35.6158 0.0003 -32.1453 -0.0002
# 2 36.8287 181.9504 75.8400 0.0002 -16.9528 -0.0001
# 3 35.6158 75.8400 135.1435 0.0002 -33.8375 -0.0001
# 4 0.0003 0.0002 0.0002 67.7013 -0.0002 -29.5655
# 5 -32.1453 -16.9528 -33.8375 -0.0002 51.9219 0.0003
# 6 -0.0002 -0.0001 -0.0001 -29.5655 0.0003 16.0829
#
#
#
# Elastic Compliance Matrix: (Units=1/GPa)
#
#
# Indices 1 2 3 4 5 6 
#
# 1 0.025415 -0.003272 -0.001422 0.000000 0.013740 0.000000
# 2 -0.003272 0.007600 -0.003930 0.000000 -0.002105 0.000000
# 3 -0.001422 -0.003930 0.011278 0.000000 0.005187 0.000000
# 4 0.000000 0.000000 0.000000 0.074904 0.000000 0.137697
# 5 0.013740 -0.002105 0.005187 0.000000 0.030459 -0.000001
# 6 0.000000 0.000000 0.000000 0.137697 -0.000001 0.315308
#
#
# Mechanical properties :
#
#
# Convention : Reuss Voigt Hill
#
# Bulk Modulus (GPa) = 36.97218 75.23560 56.10389
# Shear Modulus (GPa) = 10.17859 42.62570 26.40215
#
# Velocity S-wave (km/s) = 1.95076 3.99204 3.14180
# Velocity P-wave (km/s) = 4.34703 7.02686 5.84266
#
# Compressibility (1/GPa) = 0.02704736
#
# Stress axis : x y z
#
# Youngs Moduli (GPa) = 39.34617 131.57680 88.66580
#
# Poissons Ratio (x) = 0.43046 0.12606
# Poissons Ratio (y) = 0.12872 0.34845
# Poissons Ratio (z) = 0.05594 0.51709
#
# Static dielectric constant tensor:
#      x y z
#    x 2.540760 0.000000 0.230270 
#    y 0.000000 2.189680 0.000000 
#    z 0.230270 0.000000 2.283990 
# 
# From -- ./inp_files/211684.got.cif
#   From: 2010.05.17/outbox.cif.g08.bks.cpg/sg15_106_cif.got.tgz:211684.got - 2010.06.03 18:47:42.
