data_PCOD9255511
_publ_section_title
;
Structure prediction by ZEFSAII (Michael W. Deem and Ramdas Pophale) SiO2 
 PCOD9255511
Probable space group: C 2/C
;
_chemical_formula_sum "Si O2"
_cell_formula_units_Z 60
_cell_length_a 9.811029
_cell_length_b 12.956372
_cell_length_c 19.002097
_cell_angle_alpha 90.000000
_cell_angle_beta 97.888157
_cell_angle_gamma 90.000000
_cell_volume 2392.602626
_symmetry_space_group_name_H-M "C 2/C"
_symmetry_group_IT_number 15
_symmetry_cell_setting 'monoclinic'
loop_
_space_group_symop_operation_xyz
x,y,z
-x,y,1/2-z
-x,-y,-z
x,-y,1/2+z
1/2+x,1/2+y,z
1/2-x,1/2+y,1/2-z
1/2-x,1/2-y,-z
1/2+x,1/2-y,1/2+z
loop_
_atom_site_type_symbol
_atom_site_label
_atom_site_fract_x
_atom_site_fract_y
_atom_site_fract_z
Si Si1 0.745277 0.615006 0.443605
Si Si2 0.000000 0.519635 0.750000
Si Si3 0.923203 0.328338 0.837954
Si Si4 0.366504 0.644319 0.206754
Si Si5 0.237188 0.374716 0.039151
Si Si6 0.450385 0.599170 0.950013
Si Si7 0.794969 0.014725 0.807948
Si Si8 0.713531 0.806000 0.881877
O O1 0.876243 0.668715 0.416242
O O2 0.626902 0.633808 0.376664
O O3 0.781293 0.493672 0.445218
O O4 0.678645 0.640864 0.513439
O O5 0.953016 0.443217 0.810244
O O6 0.855248 0.566365 0.713941
O O7 0.779167 0.298177 0.791523
O O8 0.068306 0.275968 0.835994
O O9 0.500000 0.693060 0.250000
O O10 0.351481 0.528210 0.237872
O O11 0.401088 0.349476 0.045796
O O12 0.191354 0.292862 0.095144
O O13 0.184086 0.354460 0.957182
O O14 0.391703 0.575773 0.868306
O O15 0.500000 0.500000 0.000000
O O16 0.775134 0.902680 0.844800
#
# Coordination Sequence:
#
# PCOD9255511 Si02
#       8
#     8   4   8   8   8   8   8   8
#     4   9  18  32  52  84 101 132 178 224 256 311
#     4   8  16  32  48  76  96 144 170 216 256 312
#     4   8  18  30  50  74 105 129 179 209 261 306
#     4   9  17  29  54  76  99 132 187 219 251 307
#     4  10  20  32  52  80 110 133 171 216 270 303
#     4  10  17  31  52  80 104 137 175 218 261 308
#     4  10  17  32  56  73 107 140 179 215 260 320
#     4  10  19  33  51  78 106 139 168 214 262 320
#
# _framework density 25.077296
#
# number of rings (size 3 to 8) (size 9 to 14) (size 15 to 20)
#    0.800    1.867    2.667    1.600    0.000    0.533 
#    0.000    0.667   26.400    0.000    3.467    0.000 
#    0.000    0.000    0.000    0.000    0.000    0.000 
#
# Total GULP energy -167087.649181 kJ/mol
# GULP energy per Si atom -5569.588306 kJ/mol
# Density = 2.502022 g / cm^3
# Si number density = 25.077296 Si / 1000 Ang^3
#
#
#
# Elastic Constant Matrix: (Units=GPa)
#
#
# Indices 1 2 3 4 5 6 
#
# 1 86.1063 -1.8046 6.8185 0.0000 8.9561 0.0000
# 2 -1.8046 42.9620 10.8733 0.0000 -6.7285 0.0000
# 3 6.8185 10.8733 66.0459 0.0000 10.4369 0.0000
# 4 0.0000 0.0000 0.0000 22.8014 0.0000 3.7588
# 5 8.9561 -6.7285 10.4369 0.0000 46.2163 0.0000
# 6 0.0000 0.0000 0.0000 3.7588 0.0000 13.1189
#
#
#
# Elastic Compliance Matrix: (Units=1/GPa)
#
#
# Indices 1 2 3 4 5 6 
#
# 1 0.011911 0.000432 -0.000981 0.000000 -0.002024 0.000000
# 2 0.000432 0.025287 -0.004953 0.000000 0.004716 0.000000
# 3 -0.000981 -0.004953 0.016739 0.000000 -0.004311 0.000000
# 4 0.000000 0.000000 0.000000 0.046031 0.000000 -0.013189
# 5 -0.002024 0.004716 -0.004311 0.000000 0.023690 0.000000
# 6 0.000000 0.000000 0.000000 -0.013189 0.000000 0.080005
#
#
# Mechanical properties :
#
#
# Convention : Reuss Voigt Hill
#
# Bulk Modulus (GPa) = 23.29260 25.20984 24.25122
# Shear Modulus (GPa) = 21.83624 28.37579 25.10602
#
# Velocity S-wave (km/s) = 2.95406 3.36748 3.16752
# Velocity P-wave (km/s) = 4.57644 5.01942 4.80304
#
# Compressibility (1/GPa) = 0.04293209
#
# Stress axis : x y z
#
# Youngs Moduli (GPa) = 83.95766 39.54647 59.74100
#
# Poissons Ratio (x) = -0.01707 0.05860
# Poissons Ratio (y) = -0.03624 0.29589
# Poissons Ratio (z) = 0.08235 0.19587
#
# Static dielectric constant tensor:
#      x y z
#    x 2.039840 0.000000 -0.050740 
#    y 0.000000 2.050730 0.000000 
#    z -0.050740 0.000000 2.069490 
# 
# From -- ./inp_files/239346.got.cif
#   From: 2010.05.17/outbox.cif.g08.bks.cpg/sg15_120_cif.got.tgz:239346.got - 2010.06.03 18:47:42.
