data_PCOD9255074
_publ_section_title
;
Structure prediction by ZEFSAII (Michael W. Deem and Ramdas Pophale) SiO2 
 PCOD9255074
Probable space group: C 2/C
;
_chemical_formula_sum "Si O2"
_cell_formula_units_Z 56
_cell_length_a 24.223647
_cell_length_b 7.043847
_cell_length_c 17.282774
_cell_angle_alpha 90.000000
_cell_angle_beta 126.063915
_cell_angle_gamma 90.000000
_cell_volume 2383.790801
_symmetry_space_group_name_H-M "C 2/C"
_symmetry_group_IT_number 15
_symmetry_cell_setting 'monoclinic'
loop_
_space_group_symop_operation_xyz
x,y,z
-x,y,1/2-z
-x,-y,-z
x,-y,1/2+z
1/2+x,1/2+y,z
1/2-x,1/2+y,1/2-z
1/2-x,1/2-y,-z
1/2+x,1/2-y,1/2+z
loop_
_atom_site_type_symbol
_atom_site_label
_atom_site_fract_x
_atom_site_fract_y
_atom_site_fract_z
Si Si1 0.072011 0.404459 0.031928
Si Si2 0.820160 0.372234 0.678701
Si Si3 0.078165 0.131517 0.318194
Si Si4 0.793003 0.092615 0.981305
Si Si5 0.069177 0.583616 0.348909
Si Si6 0.352434 0.708661 0.279816
Si Si7 0.696134 0.192300 0.169027
O O1 0.095225 0.230420 0.105750
O O2 0.137619 0.541279 0.098792
O O3 0.067985 0.365597 0.937692
O O4 0.000000 0.500000 0.000000
O O5 0.751402 0.407772 0.574122
O O6 0.874128 0.325565 0.658458
O O7 0.838951 0.580155 0.731061
O O8 0.818426 0.247774 0.754483
O O9 0.134943 0.049102 0.421539
O O10 0.076683 0.354005 0.345161
O O11 0.109715 0.109485 0.259269
O O12 0.000000 0.068422 0.250000
O O13 0.750000 0.250000 0.000000
O O14 0.806258 0.173857 0.906939
O O15 0.000000 0.633495 0.250000
O O16 0.276746 0.637131 0.239088
#
# Coordination Sequence:
#
# PCOD9255074 Si02
#       7
#     8   8   8   8   8   8   8
#     4  11  19  30  51  79 100 131 168 213 261 302
#     4   9  18  29  46  70  96 131 166 200 252 307
#     4  10  17  28  45  73  97 119 158 210 257 297
#     4  11  16  30  50  73  96 130 164 207 257 301
#     4  10  17  28  44  71 104 126 157 203 258 303
#     4   9  19  30  46  73 102 128 163 205 260 307
#     4  10  18  31  46  71 107 128 158 210 253 308
#
# _framework density 23.491993999999998
#
# number of rings (size 3 to 8) (size 9 to 14) (size 15 to 20)
#    0.000    2.000    5.714    3.429    0.000    0.000 
#    0.000    0.714    0.000    0.857    0.000    1.000 
#    0.000    0.000    0.000    0.000    0.000    0.000 
#
# Total GULP energy -156278.617940 kJ/mol
# GULP energy per Si atom -5581.379212 kJ/mol
# Density = 2.343853 g / cm^3
# Si number density = 23.491994 Si / 1000 Ang^3
#
#
#
# Elastic Constant Matrix: (Units=GPa)
#
#
# Indices 1 2 3 4 5 6 
#
# 1 194.1315 15.8849 129.4460 0.0000 -14.5367 0.0000
# 2 15.8849 53.6812 26.2300 -0.0002 -9.9085 -0.0001
# 3 129.4460 26.2300 268.4206 0.0000 -12.0727 0.0000
# 4 0.0000 -0.0002 0.0000 -6.0862 0.0000 -23.1085
# 5 -14.5367 -9.9085 -12.0727 0.0000 54.2173 0.0000
# 6 0.0000 -0.0001 0.0000 -23.1085 0.0000 -12.8620
#
#
#
# Elastic Compliance Matrix: (Units=1/GPa)
#
#
# Indices 1 2 3 4 5 6 
#
# 1 0.007679 -0.000281 -0.003622 0.000000 0.001201 0.000000
# 2 -0.000281 0.020132 -0.001687 0.000000 0.003228 0.000000
# 3 -0.003622 -0.001687 0.005636 0.000000 -0.000024 0.000000
# 4 0.000000 0.000000 0.000000 0.028223 0.000000 -0.050708
# 5 0.001201 0.003228 -0.000024 0.000000 0.019351 0.000000
# 6 0.000000 0.000000 0.000000 -0.050708 0.000000 0.013355
#
#
# Mechanical properties :
#
#
# Convention : Reuss Voigt Hill
#
# Bulk Modulus (GPa) = 44.90759 95.48389 70.19574
# Shear Modulus (GPa) = 44.25681 30.03198 37.14440
#
# Velocity S-wave (km/s) = 4.34511 3.57934 3.98068
# Velocity P-wave (km/s) = 6.65815 7.60367 7.14656
#
# Compressibility (1/GPa) = 0.02226795
#
# Stress axis : x y z
#
# Youngs Moduli (GPa) = 130.22467 49.67306 177.43706
#
# Poissons Ratio (x) = 0.01395 0.64263
# Poissons Ratio (y) = 0.03658 0.29926
# Poissons Ratio (z) = 0.47164 0.08378
#
# Static dielectric constant tensor:
#      x y z
#    x 1.542680 0.000000 -0.046690 
#    y 0.000000 2.076520 0.000000 
#    z -0.046690 0.000000 1.853270 
# 
# From -- ./inp_files/218997.got.cif
#   From: 2010.05.17/outbox.cif.g08.bks.cpg/sg15_110_cif.got.tgz:218997.got - 2010.06.03 18:47:42.
