data_PCOD9255196
_publ_section_title
;
Structure prediction by ZEFSAII (Michael W. Deem and Ramdas Pophale) SiO2 
 PCOD9255196
Probable space group: C 2/C
;
_chemical_formula_sum "Si O2"
_cell_formula_units_Z 60
_cell_length_a 13.570146
_cell_length_b 13.098930
_cell_length_c 23.887148
_cell_angle_alpha 90.000000
_cell_angle_beta 148.975501
_cell_angle_gamma 90.000000
_cell_volume 2188.431129
_symmetry_space_group_name_H-M "C 2/C"
_symmetry_group_IT_number 15
_symmetry_cell_setting 'monoclinic'
loop_
_space_group_symop_operation_xyz
x,y,z
-x,y,1/2-z
-x,-y,-z
x,-y,1/2+z
1/2+x,1/2+y,z
1/2-x,1/2+y,1/2-z
1/2-x,1/2-y,-z
1/2+x,1/2-y,1/2+z
loop_
_atom_site_type_symbol
_atom_site_label
_atom_site_fract_x
_atom_site_fract_y
_atom_site_fract_z
Si Si1 0.260237 0.833531 0.694489
Si Si2 0.138350 0.992444 0.389102
Si Si3 0.346788 0.258767 0.341264
Si Si4 0.970413 0.378579 0.132122
Si Si5 0.000000 0.472026 0.750000
Si Si6 0.987339 0.984407 0.060584
Si Si7 0.186110 0.222442 0.375040
Si Si8 0.782522 0.599363 0.850380
O O1 0.405971 0.812051 0.817899
O O2 0.330292 0.893531 0.673533
O O3 0.108595 0.917567 0.641941
O O4 0.222371 0.721598 0.652235
O O5 0.144669 0.111733 0.378062
O O6 0.185951 0.984840 0.478408
O O7 0.274462 0.938637 0.410122
O O8 0.921714 0.946613 0.272945
O O9 0.131912 0.287783 0.215366
O O10 0.435866 0.370060 0.392335
O O11 0.339991 0.212905 0.400038
O O12 0.010038 0.458871 0.200435
O O13 0.040435 0.423044 0.106018
O O14 0.787613 0.312428 0.066697
O O15 0.000000 0.000000 0.000000
O O16 0.000000 0.255926 0.250000
#
# Coordination Sequence:
#
# PCOD9255196 Si02
#       8
#     8   8   8   8   4   8   8   8
#     4  11  22  35  59  92 123 159 210 266 302 355
#     4  11  19  34  55  89 119 161 203 255 311 360
#     4  10  20  37  57  89 121 153 219 256 297 366
#     4  10  17  29  48  84 123 145 195 261 305 343
#     4  12  18  28  56  88 124 150 194 264 314 342
#     4  12  24  42  62  90 132 169 200 251 327 390
#     4  10  17  29  56  87 117 150 200 266 304 339
#     4  10  20  31  55  84 124 144 212 265 294 352
#
# _framework density 27.416902
#
# number of rings (size 3 to 8) (size 9 to 14) (size 15 to 20)
#    0.000    1.333    7.333    3.200    1.867    0.000 
#    0.000    1.333    0.000    0.000    0.000    3.733 
#    0.000    0.000    0.000    0.000    0.000    0.000 
#
# Total GULP energy -167262.412423 kJ/mol
# GULP energy per Si atom -5575.413747 kJ/mol
# Density = 2.735450 g / cm^3
# Si number density = 27.416902 Si / 1000 Ang^3
#
#
#
# Elastic Constant Matrix: (Units=GPa)
#
#
# Indices 1 2 3 4 5 6 
#
# 1 215.9469 72.0678 41.9909 0.0000 -66.9778 0.0000
# 2 72.0678 179.7537 38.2461 0.0000 -27.8545 0.0000
# 3 41.9909 38.2461 84.3440 0.0002 -23.1659 0.0002
# 4 0.0000 0.0000 0.0002 26.2143 0.0001 -15.1879
# 5 -66.9778 -27.8545 -23.1659 0.0001 53.1884 0.0001
# 6 0.0000 0.0000 0.0002 -15.1879 0.0001 48.8433
#
#
#
# Elastic Compliance Matrix: (Units=1/GPa)
#
#
# Indices 1 2 3 4 5 6 
#
# 1 0.008155 -0.001698 -0.000811 0.000000 0.009027 0.000000
# 2 -0.001698 0.006765 -0.002086 0.000000 0.000496 0.000000
# 3 -0.000811 -0.002086 0.014341 0.000000 0.004133 0.000000
# 4 0.000000 0.000000 0.000000 0.046530 0.000000 0.014468
# 5 0.009027 0.000496 0.004133 0.000000 0.032227 0.000000
# 6 0.000000 0.000000 0.000000 0.014468 0.000000 0.024973
#
#
# Mechanical properties :
#
#
# Convention : Reuss Voigt Hill
#
# Bulk Modulus (GPa) = 49.82353 87.18378 68.50366
# Shear Modulus (GPa) = 33.58643 47.49853 40.54248
#
# Velocity S-wave (km/s) = 3.50383 4.16679 3.84961
# Velocity P-wave (km/s) = 5.88057 7.41740 6.69324
#
# Compressibility (1/GPa) = 0.02007084
#
# Stress axis : x y z
#
# Youngs Moduli (GPa) = 122.62691 147.82752 69.73139
#
# Poissons Ratio (x) = 0.25105 0.05652
# Poissons Ratio (y) = 0.20825 0.14545
# Poissons Ratio (z) = 0.09940 0.30835
#
# Static dielectric constant tensor:
#      x y z
#    x -17.804340 0.000010 -23.071370 
#    y 0.000010 2.166130 0.000010 
#    z -23.071370 0.000010 -24.105840 
# 
# From -- ./inp_files/273858.got.cif
#   From: 2010.05.17/outbox.cif.g08.bks.cpg/sg15_137_cif.got.tgz:273858.got - 2010.06.03 18:47:42.
