data_PCOD9255294
_publ_section_title
;
Structure prediction by ZEFSAII (Michael W. Deem and Ramdas Pophale) SiO2 
 PCOD9255294
Probable space group: C 2/C
;
_chemical_formula_sum "Si O2"
_cell_formula_units_Z 40
_cell_length_a 10.115466
_cell_length_b 18.478345
_cell_length_c 13.854187
_cell_angle_alpha 90.000000
_cell_angle_beta 144.732692
_cell_angle_gamma 90.000000
_cell_volume 1495.204741
_symmetry_space_group_name_H-M "C 2/C"
_symmetry_group_IT_number 15
_symmetry_cell_setting 'monoclinic'
loop_
_space_group_symop_operation_xyz
x,y,z
-x,y,1/2-z
-x,-y,-z
x,-y,1/2+z
1/2+x,1/2+y,z
1/2-x,1/2+y,1/2-z
1/2-x,1/2-y,-z
1/2+x,1/2-y,1/2+z
loop_
_atom_site_type_symbol
_atom_site_label
_atom_site_fract_x
_atom_site_fract_y
_atom_site_fract_z
Si Si1 0.958195 0.011593 0.360410
Si Si2 0.165073 0.376303 0.422620
Si Si3 0.149040 0.632784 0.197830
Si Si4 0.652638 0.359962 0.464526
Si Si5 0.765991 0.716719 0.718948
O O1 0.145970 0.068218 0.432091
O O2 0.719319 0.052769 0.204899
O O3 0.010299 0.931970 0.356553
O O4 0.000000 0.000000 0.500000
O O5 0.266207 0.317299 0.407198
O O6 0.000000 0.421089 0.250000
O O7 0.988464 0.330664 0.382473
O O8 0.243793 0.636547 0.364815
O O9 0.284747 0.697620 0.226462
O O10 0.878086 0.645174 0.034947
O O11 0.457968 0.298834 0.350508
#
# Coordination Sequence:
#
# PCOD9255294 Si02
#       5
#     8   8   8   8   8
#     4  10  17  30  47  73 100 118 153 200 251 271
#     4   8  17  29  48  66 102 120 152 203 225 276
#     4  10  19  29  50  71  99 129 153 189 252 281
#     4  10  20  30  49  73 104 116 159 202 237 285
#     4   9  18  32  44  72 101 126 157 190 238 285
#
# _framework density 26.752188
#
# number of rings (size 3 to 8) (size 9 to 14) (size 15 to 20)
#    1.200    1.200    4.000    0.600    8.400    0.800 
#    0.000    0.000    0.000    0.000    0.000   18.200 
#    0.000    0.000    0.000    0.000    0.000    0.000 
#
# Total GULP energy -111693.828346 kJ/mol
# GULP energy per Si atom -5584.691417 kJ/mol
# Density = 2.669130 g / cm^3
# Si number density = 26.752188 Si / 1000 Ang^3
#
#
#
# Elastic Constant Matrix: (Units=GPa)
#
#
# Indices 1 2 3 4 5 6 
#
# 1 101.1768 2.6575 27.0697 0.0002 0.5031 -0.0002
# 2 2.6575 152.8658 28.9555 0.0003 21.3762 -0.0001
# 3 27.0697 28.9555 111.7476 0.0026 32.8762 -0.0009
# 4 0.0002 0.0003 0.0026 26.4641 0.0006 10.8054
# 5 0.5031 21.3762 32.8762 0.0006 48.9351 -0.0004
# 6 -0.0002 -0.0001 -0.0009 10.8054 -0.0004 3.0545
#
#
#
# Elastic Compliance Matrix: (Units=1/GPa)
#
#
# Indices 1 2 3 4 5 6 
#
# 1 0.010732 0.000145 -0.003223 0.000000 0.001992 0.000001
# 2 0.000145 0.007087 -0.001197 -0.000001 -0.002293 0.000002
# 3 -0.003223 -0.001197 0.012309 0.000004 -0.007714 -0.000013
# 4 0.000000 -0.000001 0.000004 -0.085027 0.000001 0.300790
# 5 0.001992 -0.002293 -0.007714 0.000001 0.026599 -0.000002
# 6 0.000001 0.000002 -0.000013 0.300790 -0.000002 -0.736678
#
#
# Mechanical properties :
#
#
# Convention : Reuss Voigt Hill
#
# Bulk Modulus (GPa) = 46.34291 53.68397 50.01344
# Shear Modulus (GPa) = -6.67346 36.16455 14.74554
#
# Velocity S-wave (km/s) = -1.58113 3.68072 2.35029
# Velocity P-wave (km/s) = 3.74531 6.17854 5.10890
#
# Compressibility (1/GPa) = 0.02157827
#
# Stress axis : x y z
#
# Youngs Moduli (GPa) = 93.17582 141.11322 81.24068
#
# Poissons Ratio (x) = -0.02053 0.26188
# Poissons Ratio (y) = -0.01356 0.09723
# Poissons Ratio (z) = 0.30035 0.16889
#
# Static dielectric constant tensor:
#      x y z
#    x 2.193490 0.000000 -0.052370 
#    y 0.000000 1.997630 0.000000 
#    z -0.052370 0.000000 2.137750 
# 
# From -- ./inp_files/316502.got.cif
#   From: 2010.05.17/outbox.cif.g08.bks.cpg/sg15_159_cif.got.tgz:316502.got - 2010.06.03 18:47:42.
