data_PCOD9255853
_publ_section_title
;
Structure prediction by ZEFSAII (Michael W. Deem and Ramdas Pophale) SiO2 
 PCOD9255853
Probable space group: C 2/C
;
_chemical_formula_sum "Si O2"
_cell_formula_units_Z 56
_cell_length_a 7.898092
_cell_length_b 24.692681
_cell_length_c 16.529251
_cell_angle_alpha 90.000000
_cell_angle_beta 66.810772
_cell_angle_gamma 90.000000
_cell_volume 2963.180175
_symmetry_space_group_name_H-M "C 2/C"
_symmetry_group_IT_number 15
_symmetry_cell_setting 'monoclinic'
loop_
_space_group_symop_operation_xyz
x,y,z
-x,y,1/2-z
-x,-y,-z
x,-y,1/2+z
1/2+x,1/2+y,z
1/2-x,1/2+y,1/2-z
1/2-x,1/2-y,-z
1/2+x,1/2-y,1/2+z
loop_
_atom_site_type_symbol
_atom_site_label
_atom_site_fract_x
_atom_site_fract_y
_atom_site_fract_z
Si Si1 0.455122 0.508848 0.412967
Si Si2 0.719276 0.881200 0.960494
Si Si3 0.643041 0.791618 0.840260
Si Si4 0.806730 0.562552 0.331412
Si Si5 0.615263 0.708797 0.978750
Si Si6 0.377637 0.053378 0.509606
Si Si7 0.763113 0.185088 0.149590
O O1 0.500000 0.500000 0.500000
O O2 0.337239 0.564342 0.424149
O O3 0.653691 0.518393 0.335873
O O4 0.320586 0.459685 0.414283
O O5 0.722798 0.838335 0.885140
O O6 0.800864 0.850362 0.022587
O O7 0.506404 0.897720 0.013357
O O8 0.614386 0.734856 0.890984
O O9 0.439456 0.810029 0.850946
O O10 0.762622 0.786273 0.736746
O O11 0.846710 0.559419 0.419525
O O12 0.716987 0.621423 0.334899
O O13 0.000000 0.558008 0.250000
O O14 0.750000 0.750000 0.000000
O O15 0.417399 0.706467 0.059743
O O16 0.500000 0.000000 0.500000
#
# Coordination Sequence:
#
# PCOD9255853 Si02
#       7
#     8   8   8   8   8   8   8
#     4   9  19  32  53  83 116 149 184 223 282 347
#     4  10  17  33  52  80 119 148 192 239 283 343
#     4  10  21  35  56  87 117 153 193 248 292 344
#     4  11  18  33  55  87 115 146 180 237 304 335
#     4  10  22  34  52  86 117 153 197 235 292 352
#     4   9  18  33  52  81 112 150 188 223 280 345
#     4  11  19  36  56  81 123 148 192 248 293 342
#
# _framework density 18.898616000000001
#
# number of rings (size 3 to 8) (size 9 to 14) (size 15 to 20)
#    0.000    2.000    4.286    0.429    0.000    2.286 
#    2.571    2.143    0.000    0.000   66.857    6.000 
#    0.000    0.000    0.000    0.000    0.000    0.000 
#
# Total GULP energy -155982.858302 kJ/mol
# GULP energy per Si atom -5570.816368 kJ/mol
# Density = 1.885560 g / cm^3
# Si number density = 18.898616 Si / 1000 Ang^3
#
#
#
# Elastic Constant Matrix: (Units=GPa)
#
#
# Indices 1 2 3 4 5 6 
#
# 1 66.2125 15.4106 31.7255 0.0000 -10.8774 0.0000
# 2 15.4106 42.5067 40.8224 0.0000 0.8318 0.0000
# 3 31.7255 40.8224 87.2252 0.0000 -7.1260 0.0000
# 4 0.0000 0.0000 0.0000 22.4567 0.0000 -3.7257
# 5 -10.8774 0.8318 -7.1260 0.0000 23.1344 0.0000
# 6 0.0000 0.0000 0.0000 -3.7257 0.0000 40.7759
#
#
#
# Elastic Compliance Matrix: (Units=1/GPa)
#
#
# Indices 1 2 3 4 5 6 
#
# 1 0.019442 -0.001798 -0.005619 0.000000 0.007475 0.000000
# 2 -0.001798 0.044353 -0.020827 0.000000 -0.008855 0.000000
# 3 -0.005619 -0.020827 0.023697 0.000000 0.005406 0.000000
# 4 0.000000 0.000000 0.000000 0.045216 0.000000 0.004131
# 5 0.007475 -0.008855 0.005406 0.000000 0.048724 0.000000
# 6 0.000000 0.000000 0.000000 0.004131 0.000000 0.024902
#
#
# Mechanical properties :
#
#
# Convention : Reuss Voigt Hill
#
# Bulk Modulus (GPa) = 32.25497 41.31796 36.78646
# Shear Modulus (GPa) = 18.30456 24.47245 21.38851
#
# Velocity S-wave (km/s) = 3.11556 3.60242 3.36780
# Velocity P-wave (km/s) = 5.48148 6.26208 5.88474
#
# Compressibility (1/GPa) = 0.03100298
#
# Stress axis : x y z
#
# Youngs Moduli (GPa) = 51.43551 22.54658 42.19907
#
# Poissons Ratio (x) = 0.04055 0.23712
# Poissons Ratio (y) = 0.09251 0.87887
# Poissons Ratio (z) = 0.28902 0.46957
#
# Static dielectric constant tensor:
#      x y z
#    x 1.711540 0.000000 0.002320 
#    y 0.000000 1.602720 0.000000 
#    z 0.002320 0.000000 1.659190 
# 
# From -- ./inp_files/138525.got.cif
#   From: 2010.05.17/outbox.cif.g08.bks.cpg/sg15_70_cif.got.tgz:138525.got - 2010.06.03 18:47:42.
