data_PCOD9255003
_publ_section_title
;
Structure prediction by ZEFSAII (Michael W. Deem and Ramdas Pophale) SiO2 
 PCOD9255003
Probable space group: C 2/C
;
_chemical_formula_sum "Si O2"
_cell_formula_units_Z 56
_cell_length_a 12.500457
_cell_length_b 13.846669
_cell_length_c 28.034382
_cell_angle_alpha 90.000000
_cell_angle_beta 151.657567
_cell_angle_gamma 90.000000
_cell_volume 2303.658808
_symmetry_space_group_name_H-M "C 2/C"
_symmetry_group_IT_number 15
_symmetry_cell_setting 'monoclinic'
loop_
_space_group_symop_operation_xyz
x,y,z
-x,y,1/2-z
-x,-y,-z
x,-y,1/2+z
1/2+x,1/2+y,z
1/2-x,1/2+y,1/2-z
1/2-x,1/2-y,-z
1/2+x,1/2-y,1/2+z
loop_
_atom_site_type_symbol
_atom_site_label
_atom_site_fract_x
_atom_site_fract_y
_atom_site_fract_z
Si Si1 0.273153 0.180976 0.820846
Si Si2 0.923833 0.746460 0.970969
Si Si3 0.272130 0.695086 0.186335
Si Si4 0.272727 0.387118 0.788100
Si Si5 0.158943 0.941376 0.524497
Si Si6 0.198544 0.903475 0.194863
Si Si7 0.263233 0.634953 0.978597
O O1 0.190238 0.290403 0.781247
O O2 0.164203 0.112258 0.738179
O O3 0.290473 0.171804 0.884737
O O4 0.537255 0.180674 0.909284
O O5 0.057330 0.698787 0.067035
O O6 0.772857 0.838972 0.926870
O O7 0.121713 0.802097 0.018189
O O8 0.500000 0.663348 0.250000
O O9 0.230912 0.629897 0.216189
O O10 0.315282 0.805132 0.222506
O O11 0.194567 0.492029 0.774440
O O12 0.541459 0.385646 0.906016
O O13 0.025046 0.907678 0.424861
O O14 0.000000 0.000000 0.500000
O O15 0.313363 0.029216 0.569231
#
# Coordination Sequence:
#
# PCOD9255003 Si02
#       7
#     8   8   8   8   8   8   8
#     4  10  17  27  44  66  90 119 152 188 224 273
#     4   9  15  24  39  63  92 119 147 186 230 268
#     4  10  17  27  46  72  92 114 155 202 228 258
#     4   9  17  29  43  64  96 129 149 179 236 285
#     4   8  15  26  41  61  90 123 149 181 230 272
#     4   9  18  29  42  65  97 127 150 180 232 286
#     4   9  15  26  43  65  92 117 147 190 233 268
#
# _framework density 24.309156000000002
#
# number of rings (size 3 to 8) (size 9 to 14) (size 15 to 20)
#    0.000    2.857    0.000    5.143    0.000    0.000 
#    0.000    0.714    0.000    0.000    0.000   33.000 
#    0.000    0.000    0.000    0.000    0.000    0.000 
#
# Total GULP energy -156103.772454 kJ/mol
# GULP energy per Si atom -5575.134731 kJ/mol
# Density = 2.425383 g / cm^3
# Si number density = 24.309156 Si / 1000 Ang^3
#
#
#
# Elastic Constant Matrix: (Units=GPa)
#
#
# Indices 1 2 3 4 5 6 
#
# 1 41.8947 7.0497 29.3726 0.0002 -4.3172 0.0001
# 2 7.0497 52.9252 18.7189 0.0001 0.4657 0.0000
# 3 29.3726 18.7189 164.6385 0.0008 -27.1845 0.0003
# 4 0.0002 0.0001 0.0008 31.5090 0.0005 -12.1785
# 5 -4.3172 0.4657 -27.1845 0.0005 34.1012 0.0002
# 6 0.0001 0.0000 0.0003 -12.1785 0.0002 10.1820
#
#
#
# Elastic Compliance Matrix: (Units=1/GPa)
#
#
# Indices 1 2 3 4 5 6 
#
# 1 0.027487 -0.001990 -0.004720 0.000000 -0.000255 0.000000
# 2 -0.001990 0.019997 -0.002309 0.000000 -0.002366 0.000000
# 3 -0.004720 -0.002309 0.008159 -0.000001 0.005938 -0.000001
# 4 0.000000 0.000000 -0.000001 0.059023 -0.000002 0.070597
# 5 -0.000255 -0.002366 0.005938 -0.000002 0.034058 -0.000003
# 6 0.000000 0.000000 -0.000001 0.070597 -0.000003 0.182653
#
#
# Mechanical properties :
#
#
# Convention : Reuss Voigt Hill
#
# Bulk Modulus (GPa) = 26.59184 41.08230 33.83707
# Shear Modulus (GPa) = 13.81404 28.77959 21.29681
#
# Velocity S-wave (km/s) = 2.38642 3.44452 2.96308
# Velocity P-wave (km/s) = 4.30768 5.72330 5.06519
#
# Compressibility (1/GPa) = 0.03760551
#
# Stress axis : x y z
#
# Youngs Moduli (GPa) = 36.38090 50.00703 122.56410
#
# Poissons Ratio (x) = 0.09950 0.57848
# Poissons Ratio (y) = 0.07239 0.28303
# Poissons Ratio (z) = 0.17171 0.11548
#
# Static dielectric constant tensor:
#      x y z
#    x 2.009710 0.000000 0.023900 
#    y 0.000000 1.970620 0.000000 
#    z 0.023900 0.000000 2.030730 
# 
# From -- ./inp_files/204856.got.cif
#   From: 2010.05.17/outbox.cif.g08.bks.cpg/sg15_103_cif.got.tgz:204856.got - 2010.06.03 18:47:42.
