data_PCOD9255975
_publ_section_title
;
Structure prediction by ZEFSAII (Michael W. Deem and Ramdas Pophale) SiO2 
 PCOD9255975
Probable space group: C 2/C
;
_chemical_formula_sum "Si O2"
_cell_formula_units_Z 60
_cell_length_a 18.110176
_cell_length_b 16.387232
_cell_length_c 9.610293
_cell_angle_alpha 90.000000
_cell_angle_beta 97.202931
_cell_angle_gamma 90.000000
_cell_volume 2829.593048
_symmetry_space_group_name_H-M "C 2/C"
_symmetry_group_IT_number 15
_symmetry_cell_setting 'monoclinic'
loop_
_space_group_symop_operation_xyz
x,y,z
-x,y,1/2-z
-x,-y,-z
x,-y,1/2+z
1/2+x,1/2+y,z
1/2-x,1/2+y,1/2-z
1/2-x,1/2-y,-z
1/2+x,1/2-y,1/2+z
loop_
_atom_site_type_symbol
_atom_site_label
_atom_site_fract_x
_atom_site_fract_y
_atom_site_fract_z
Si Si1 0.791106 0.633945 0.550503
Si Si2 0.997083 0.764041 0.490386
Si Si3 0.193282 0.643691 0.502386
Si Si4 0.000000 0.346276 0.250000
Si Si5 0.347456 0.322874 0.933514
Si Si6 0.373827 0.040252 0.769693
Si Si7 0.853581 0.186828 0.117447
Si Si8 0.605899 0.139934 0.194261
O O1 0.804650 0.554714 0.649778
O O2 0.821081 0.719986 0.621640
O O3 0.705322 0.641580 0.492660
O O4 0.833271 0.635124 0.413331
O O5 0.022950 0.705085 0.622410
O O6 0.931169 0.811980 0.553143
O O7 0.956663 0.704643 0.368734
O O8 0.071264 0.815272 0.473289
O O9 0.280341 0.627529 0.490400
O O10 0.186108 0.731009 0.575385
O O11 0.152949 0.576855 0.589598
O O12 0.147541 0.657188 0.348604
O O13 0.068683 0.402719 0.299273
O O14 0.359155 0.346936 0.775094
O O15 0.414943 0.954921 0.797078
#
# Coordination Sequence:
#
# PCOD9255975 Si02
#       8
#     8   8   8   4   8   8   8   8
#     4  10  19  36  57  82 106 153 208 239 282 344
#     4  11  20  37  57  87 116 156 192 243 299 357
#     4  11  23  36  56  85 117 157 194 247 307 332
#     4  12  20  36  54  78 116 156 200 222 286 354
#     4  11  20  36  57  82 122 150 191 260 305 347
#     4  12  23  40  56  80 121 168 198 238 281 358
#     4  10  17  33  62  81 109 145 204 249 286 348
#     4  11  24  37  57  86 122 159 204 232 286 364
#
# _framework density 21.204460999999998
#
# number of rings (size 3 to 8) (size 9 to 14) (size 15 to 20)
#    0.000    1.067    8.000    0.800    0.000    2.133 
#    0.000    0.000    0.000    0.000    0.000    5.600 
#    0.000    0.000    0.000    0.000    0.000    0.000 
#
# Total GULP energy -167287.598160 kJ/mol
# GULP energy per Si atom -5576.253272 kJ/mol
# Density = 2.115620 g / cm^3
# Si number density = 21.204461 Si / 1000 Ang^3
#
#
#
# Elastic Constant Matrix: (Units=GPa)
#
#
# Indices 1 2 3 4 5 6 
#
# 1 137.9753 7.1178 19.8012 0.0000 7.8672 0.0000
# 2 7.1178 10.6444 8.3454 0.0000 2.8887 0.0000
# 3 19.8012 8.3454 90.6544 0.0000 -6.0222 0.0000
# 4 0.0000 0.0000 0.0000 20.8484 0.0000 -0.0823
# 5 7.8672 2.8887 -6.0222 0.0000 28.9057 0.0000
# 6 0.0000 0.0000 0.0000 -0.0823 0.0000 6.3569
#
#
#
# Elastic Compliance Matrix: (Units=1/GPa)
#
#
# Indices 1 2 3 4 5 6 
#
# 1 0.007762 -0.003434 -0.001518 0.000000 -0.002085 0.000000
# 2 -0.003434 0.107224 -0.009907 0.000000 -0.011845 0.000000
# 3 -0.001518 -0.009907 0.012541 0.000000 0.004016 0.000000
# 4 0.000000 0.000000 0.000000 0.047968 0.000000 0.000621
# 5 -0.002085 -0.011845 0.004016 0.000000 0.037183 0.000000
# 6 0.000000 0.000000 0.000000 0.000621 0.000000 0.157317
#
#
# Mechanical properties :
#
#
# Convention : Reuss Voigt Hill
#
# Bulk Modulus (GPa) = 10.22407 34.42256 22.32331
# Shear Modulus (GPa) = 11.56559 24.82284 18.19422
#
# Velocity S-wave (km/s) = 2.33798 3.42518 2.93241
# Velocity P-wave (km/s) = 3.48143 5.64901 4.69210
#
# Compressibility (1/GPa) = 0.09780836
#
# Stress axis : x y z
#
# Youngs Moduli (GPa) = 128.84011 9.32624 79.73688
#
# Poissons Ratio (x) = 0.03203 0.12102
# Poissons Ratio (y) = 0.44247 0.78999
# Poissons Ratio (z) = 0.19554 0.09240
#
# Static dielectric constant tensor:
#      x y z
#    x 1.831970 0.000000 0.031810 
#    y 0.000000 1.836470 0.000000 
#    z 0.031810 0.000000 1.803100 
# 
# From -- ./inp_files/50272.got.cif
#   From: 2010.05.17/outbox.cif.g08.bks.cpg/sg15_26_cif.got.tgz:50272.got - 2010.06.03 18:47:42.
