data_PCOD9255808
_publ_section_title
;
Structure prediction by ZEFSAII (Michael W. Deem and Ramdas Pophale) SiO2 
 PCOD9255808
Probable space group: C 2/C
;
_chemical_formula_sum "Si O2"
_cell_formula_units_Z 44
_cell_length_a 12.321902
_cell_length_b 8.602668
_cell_length_c 18.887319
_cell_angle_alpha 90.000000
_cell_angle_beta 119.703190
_cell_angle_gamma 90.000000
_cell_volume 1739.013756
_symmetry_space_group_name_H-M "C 2/C"
_symmetry_group_IT_number 15
_symmetry_cell_setting 'monoclinic'
loop_
_space_group_symop_operation_xyz
x,y,z
-x,y,1/2-z
-x,-y,-z
x,-y,1/2+z
1/2+x,1/2+y,z
1/2-x,1/2+y,1/2-z
1/2-x,1/2-y,-z
1/2+x,1/2-y,1/2+z
loop_
_atom_site_type_symbol
_atom_site_label
_atom_site_fract_x
_atom_site_fract_y
_atom_site_fract_z
Si Si1 0.500000 0.288258 0.250000
Si Si2 0.593800 0.408219 0.975807
Si Si3 0.283288 0.483237 0.725449
Si Si4 0.420623 0.136274 0.939839
Si Si5 0.279407 0.335222 0.354163
Si Si6 0.928449 0.219074 0.583670
O O1 0.600665 0.404631 0.249734
O O2 0.566661 0.202849 0.337530
O O3 0.717133 0.366033 0.060681
O O4 0.500000 0.500000 0.000000
O O5 0.512685 0.258375 0.931073
O O6 0.612779 0.537889 0.922522
O O7 0.174447 0.563341 0.645281
O O8 0.257569 0.509703 0.800812
O O9 0.298671 0.307698 0.703119
O O10 0.361957 0.216403 0.991588
O O11 0.500000 0.000000 0.000000
O O12 0.423535 0.277581 0.389662
#
# Coordination Sequence:
#
# PCOD9255808 Si02
#       6
#     4   8   8   8   8   8
#     4  10  24  38  48  82 122 150 174 218 300 336
#     4   8  16  32  54  83 104 133 183 233 267 311
#     4  11  21  34  58  81 114 144 184 230 276 329
#     4  10  17  32  60  86 102 137 193 238 257 314
#     4   9  19  32  55  86 103 142 193 228 262 324
#     4   9  19  37  56  78 114 143 181 229 277 332
#
# _framework density 25.301696
#
# number of rings (size 3 to 8) (size 9 to 14) (size 15 to 20)
#    0.000    2.909    3.636    0.000   10.182    0.727 
#    0.000    0.909    0.000    5.455    0.000    0.000 
#    0.000    0.000    0.000    0.000    0.000    0.000 
#
# Total GULP energy -122724.128624 kJ/mol
# GULP energy per Si atom -5578.369483 kJ/mol
# Density = 2.524411 g / cm^3
# Si number density = 25.301696 Si / 1000 Ang^3
#
#
#
# Elastic Constant Matrix: (Units=GPa)
#
#
# Indices 1 2 3 4 5 6 
#
# 1 34.6363 0.3822 4.6699 0.0000 1.6413 0.0000
# 2 0.3822 78.3909 17.6347 0.0000 8.6948 0.0000
# 3 4.6699 17.6347 156.4258 0.0000 -3.0505 0.0000
# 4 0.0000 0.0000 0.0000 38.4507 0.0000 11.3965
# 5 1.6413 8.6948 -3.0505 0.0000 28.5323 0.0000
# 6 0.0000 0.0000 0.0000 11.3965 0.0000 16.4043
#
#
#
# Elastic Compliance Matrix: (Units=1/GPa)
#
#
# Indices 1 2 3 4 5 6 
#
# 1 0.029083 0.000275 -0.000935 0.000000 -0.001857 0.000000
# 2 0.000275 0.013602 -0.001626 0.000000 -0.004335 0.000000
# 3 -0.000935 -0.001626 0.006629 0.000000 0.001258 0.000000
# 4 0.000000 0.000000 0.000000 0.032751 0.000000 -0.022753
# 5 -0.001857 -0.004335 0.001258 0.000000 0.036610 0.000000
# 6 0.000000 0.000000 0.000000 -0.022753 0.000000 0.076767
#
#
# Mechanical properties :
#
#
# Convention : Reuss Voigt Hill
#
# Bulk Modulus (GPa) = 22.35186 34.98076 28.66631
# Shear Modulus (GPa) = 23.26356 33.12851 28.19603
#
# Velocity S-wave (km/s) = 3.03553 3.62241 3.34187
# Velocity P-wave (km/s) = 4.59774 5.59922 5.12301
#
# Compressibility (1/GPa) = 0.04473900
#
# Stress axis : x y z
#
# Youngs Moduli (GPa) = 34.38489 73.51952 150.86169
#
# Poissons Ratio (x) = -0.02018 0.14111
# Poissons Ratio (y) = -0.00944 0.24532
# Poissons Ratio (z) = 0.03216 0.11955
#
# Static dielectric constant tensor:
#      x y z
#    x 2.141110 0.000000 -0.085670 
#    y 0.000000 2.094210 0.000000 
#    z -0.085670 0.000000 2.182630 
# 
# From -- ./inp_files/247144.got.cif
#   From: 2010.05.17/outbox.cif.g08.bks.cpg/sg15_124_cif.got.tgz:247144.got - 2010.06.03 18:47:42.
