data_PCOD9255709
_publ_section_title
;
Structure prediction by ZEFSAII (Michael W. Deem and Ramdas Pophale) SiO2 
 PCOD9255709
Probable space group: C 2/C
;
_chemical_formula_sum "Si O2"
_cell_formula_units_Z 52
_cell_length_a 14.410329
_cell_length_b 20.564517
_cell_length_c 12.747858
_cell_angle_alpha 90.000000
_cell_angle_beta 123.808313
_cell_angle_gamma 90.000000
_cell_volume 3138.920707
_symmetry_space_group_name_H-M "C 2/C"
_symmetry_group_IT_number 15
_symmetry_cell_setting 'monoclinic'
loop_
_space_group_symop_operation_xyz
x,y,z
-x,y,1/2-z
-x,-y,-z
x,-y,1/2+z
1/2+x,1/2+y,z
1/2-x,1/2+y,1/2-z
1/2-x,1/2-y,-z
1/2+x,1/2-y,1/2+z
loop_
_atom_site_type_symbol
_atom_site_label
_atom_site_fract_x
_atom_site_fract_y
_atom_site_fract_z
Si Si1 0.518522 0.075471 0.032192
Si Si2 0.115293 0.911703 0.600486
Si Si3 0.243168 0.325096 0.965955
Si Si4 0.500000 0.125243 0.250000
Si Si5 0.244386 0.935970 0.891178
Si Si6 0.645312 0.438220 0.057386
Si Si7 0.226805 0.588204 0.652693
O O1 0.526309 0.084791 0.161944
O O2 0.633833 0.095160 0.051154
O O3 0.404004 0.106541 0.919598
O O4 0.500000 0.000000 0.000000
O O5 0.174630 0.855060 0.570721
O O6 0.162097 0.911502 0.748286
O O7 0.981271 0.912230 0.516678
O O8 0.146608 0.983033 0.572886
O O9 0.114876 0.337820 0.849233
O O10 0.250000 0.250000 0.000000
O O11 0.270799 0.365872 0.088441
O O12 0.259333 0.013823 0.880248
O O13 0.198688 0.924319 0.978197
O O14 0.712671 0.409264 0.198022
#
# Coordination Sequence:
#
# PCOD9255709 Si02
#       7
#     8   8   8   4   8   8   8
#     4   9  18  28  53  77 109 144 173 232 293 345
#     4  10  20  34  51  82 111 152 187 232 293 340
#     4  11  22  38  59  81 113 153 198 239 282 345
#     4  10  20  38  52  82 116 140 190 242 280 332
#     4  10  17  32  54  81 110 146 177 236 296 349
#     4  10  20  32  53  79 122 142 181 243 286 358
#     4   9  20  32  48  84 112 140 187 230 293 339
#
# _framework density 16.566205
#
# number of rings (size 3 to 8) (size 9 to 14) (size 15 to 20)
#    0.000    2.154    3.077    0.462    0.000    2.462 
#    0.000    0.000    0.000    0.923    8.000    0.000 
#    0.000    0.000    0.000    0.000    0.000    0.000 
#
# Total GULP energy -144839.712916 kJ/mol
# GULP energy per Si atom -5570.758189 kJ/mol
# Density = 1.652850 g / cm^3
# Si number density = 16.566205 Si / 1000 Ang^3
#
#
#
# Elastic Constant Matrix: (Units=GPa)
#
#
# Indices 1 2 3 4 5 6 
#
# 1 124.6147 30.2932 89.9494 0.0000 -17.6617 0.0000
# 2 30.2932 63.9290 42.9538 0.0000 -9.6607 0.0000
# 3 89.9494 42.9538 161.2901 0.0000 -12.7558 0.0000
# 4 0.0000 0.0000 0.0000 13.1842 0.0000 -1.5263
# 5 -17.6617 -9.6607 -12.7558 0.0000 25.2413 0.0000
# 6 0.0000 0.0000 0.0000 -1.5263 0.0000 12.8218
#
#
#
# Elastic Compliance Matrix: (Units=1/GPa)
#
#
# Indices 1 2 3 4 5 6 
#
# 1 0.014367 -0.001020 -0.007267 0.000000 0.005990 0.000000
# 2 -0.001020 0.019730 -0.004317 0.000000 0.004656 0.000000
# 3 -0.007267 -0.004317 0.011322 0.000000 -0.001015 0.000000
# 4 0.000000 0.000000 0.000000 0.076908 0.000000 0.009155
# 5 0.005990 0.004656 -0.001015 0.000000 0.045078 0.000000
# 6 0.000000 0.000000 0.000000 0.009155 0.000000 0.079082
#
#
# Mechanical properties :
#
#
# Convention : Reuss Voigt Hill
#
# Bulk Modulus (GPa) = 49.47889 75.13631 62.30760
# Shear Modulus (GPa) = 17.95764 22.69194 20.32479
#
# Velocity S-wave (km/s) = 3.29598 3.70506 3.50649
# Velocity P-wave (km/s) = 6.66459 7.98479 7.35438
#
# Compressibility (1/GPa) = 0.02021064
#
# Stress axis : x y z
#
# Youngs Moduli (GPa) = 69.60322 50.68397 88.32241
#
# Poissons Ratio (x) = 0.05170 0.64184
# Poissons Ratio (y) = 0.07100 0.38131
# Poissons Ratio (z) = 0.50580 0.21882
#
# Static dielectric constant tensor:
#      x y z
#    x 1.589280 0.000000 0.033200 
#    y 0.000000 1.530400 0.000000 
#    z 0.033200 0.000000 1.560330 
# 
# From -- ./inp_files/99494.got.cif
#   From: 2010.05.17/outbox.cif.g08.bks.cpg/sg15_50_cif.got.tgz:99494.got - 2010.06.03 18:47:42.
