data_PCOD9255633
_publ_section_title
;
Structure prediction by ZEFSAII (Michael W. Deem and Ramdas Pophale) SiO2 
 PCOD9255633
Probable space group: C 2/C
;
_chemical_formula_sum "Si O2"
_cell_formula_units_Z 64
_cell_length_a 19.685678
_cell_length_b 18.812174
_cell_length_c 29.173632
_cell_angle_alpha 90.000000
_cell_angle_beta 157.730179
_cell_angle_gamma 90.000000
_cell_volume 4094.334261
_symmetry_space_group_name_H-M "C 2/C"
_symmetry_group_IT_number 15
_symmetry_cell_setting 'monoclinic'
loop_
_space_group_symop_operation_xyz
x,y,z
-x,y,1/2-z
-x,-y,-z
x,-y,1/2+z
1/2+x,1/2+y,z
1/2-x,1/2+y,1/2-z
1/2-x,1/2-y,-z
1/2+x,1/2-y,1/2+z
loop_
_atom_site_type_symbol
_atom_site_label
_atom_site_fract_x
_atom_site_fract_y
_atom_site_fract_z
Si Si1 0.292007 0.508729 0.923838
Si Si2 0.325074 0.167342 0.664570
Si Si3 0.913478 0.361599 0.825263
Si Si4 0.430724 0.258407 0.019601
Si Si5 0.284355 0.496824 0.809433
Si Si6 0.146109 0.366401 0.878862
Si Si7 0.570656 0.263481 0.588175
Si Si8 0.696011 0.158048 0.742390
O O1 0.204539 0.586692 0.872763
O O2 0.265431 0.489184 0.853252
O O3 0.217427 0.444855 0.908593
O O4 0.504074 0.514677 0.065942
O O5 0.500000 0.199677 0.750000
O O6 0.371987 0.166543 0.747937
O O7 0.132080 0.205359 0.536990
O O8 0.843110 0.439355 0.793240
O O9 0.727134 0.319267 0.699336
O O10 0.023080 0.317772 0.930915
O O11 0.044344 0.366280 0.863324
O O12 0.610576 0.304914 0.135006
O O13 0.292906 0.304859 0.963504
O O14 0.385884 0.249149 0.938109
O O15 0.227957 0.574376 0.757386
O O16 0.000000 0.347862 0.750000
O O17 0.589670 0.197801 0.635490
#
# Coordination Sequence:
#
# PCOD9255633 Si02
#       8
#     8   8   8   8   8   8   8   8
#     4  10  18  29  49  75 107 127 156 208 261 305
#     4  10  20  32  51  79 104 128 165 214 260 305
#     4  11  21  32  54  76 105 137 172 207 255 308
#     4  10  20  35  50  76 105 139 172 207 248 304
#     4  10  17  32  49  73 100 134 166 206 252 298
#     4  12  19  30  50  82 111 135 157 207 267 309
#     4  10  19  37  52  71 102 139 174 209 248 302
#     4   9  20  33  53  73 103 134 171 211 254 300
#
# _framework density 15.631358000000001
#
# number of rings (size 3 to 8) (size 9 to 14) (size 15 to 20)
#    0.000    1.750    5.000    0.750    1.750    0.500 
#    0.000    0.625    0.000    0.000    0.000    0.875 
#    0.000    0.000    0.000    0.000    0.000    0.000 
#
# Total GULP energy -178190.625564 kJ/mol
# GULP energy per Si atom -5568.457049 kJ/mol
# Density = 1.559578 g / cm^3
# Si number density = 15.631358 Si / 1000 Ang^3
#
#
#
# Elastic Constant Matrix: (Units=GPa)
#
#
# Indices 1 2 3 4 5 6 
#
# 1 53.8688 34.7549 26.2263 -0.0053 11.8566 0.0005
# 2 34.7549 96.8122 28.5544 -0.0155 -9.0283 -0.0078
# 3 26.2263 28.5544 50.2552 -0.0080 3.3352 -0.0004
# 4 -0.0053 -0.0155 -0.0080 13.2662 -0.0044 -5.9897
# 5 11.8566 -9.0283 3.3352 -0.0044 24.3727 0.0011
# 6 0.0005 -0.0078 -0.0004 -5.9897 0.0011 23.5606
#
#
#
# Elastic Compliance Matrix: (Units=1/GPa)
#
#
# Indices 1 2 3 4 5 6 
#
# 1 0.035643 -0.011510 -0.010724 -0.000016 -0.020135 -0.000008
# 2 -0.011510 0.016936 -0.004445 0.000021 0.012481 0.000011
# 3 -0.010724 -0.004445 0.028038 0.000008 -0.000266 0.000001
# 4 -0.000016 0.000021 0.000008 0.085153 0.000029 0.021648
# 5 -0.020135 0.012481 -0.000266 0.000029 0.055484 0.000009
# 6 -0.000008 0.000011 0.000001 0.021648 0.000009 0.047947
#
#
# Mechanical properties :
#
#
# Convention : Reuss Voigt Hill
#
# Bulk Modulus (GPa) = 36.68530 42.22304 39.45417
# Shear Modulus (GPa) = 15.07630 19.66661 17.37146
#
# Velocity S-wave (km/s) = 3.10899 3.55089 3.33726
# Velocity P-wave (km/s) = 6.03389 6.62436 6.33601
#
# Compressibility (1/GPa) = 0.02725888
#
# Stress axis : x y z
#
# Youngs Moduli (GPa) = 28.05626 59.04522 35.66571
#
# Poissons Ratio (x) = 0.67962 0.38249
# Poissons Ratio (y) = 0.32293 0.15852
# Poissons Ratio (z) = 0.30089 0.26243
#
# Static dielectric constant tensor:
#      x y z
#    x 1.628380 0.000000 0.037600 
#    y 0.000000 1.532760 0.000000 
#    z 0.037600 0.000000 1.519750 
# 
# From -- ./inp_files/113657.got.cif
#   From: 2010.05.17/outbox.cif.g08.bks.cpg/sg15_57_cif.got.tgz:113657.got - 2010.06.03 18:47:42.
