data_PCOD9255126
_publ_section_title
;
Structure prediction by ZEFSAII (Michael W. Deem and Ramdas Pophale) SiO2 
 PCOD9255126
Probable space group: C 2/C
;
_chemical_formula_sum "Si O2"
_cell_formula_units_Z 64
_cell_length_a 17.105094
_cell_length_b 8.904551
_cell_length_c 15.781202
_cell_angle_alpha 90.000000
_cell_angle_beta 92.530771
_cell_angle_gamma 90.000000
_cell_volume 2401.340660
_symmetry_space_group_name_H-M "C 2/C"
_symmetry_group_IT_number 15
_symmetry_cell_setting 'monoclinic'
loop_
_space_group_symop_operation_xyz
x,y,z
-x,y,1/2-z
-x,-y,-z
x,-y,1/2+z
1/2+x,1/2+y,z
1/2-x,1/2+y,1/2-z
1/2-x,1/2-y,-z
1/2+x,1/2-y,1/2+z
loop_
_atom_site_type_symbol
_atom_site_label
_atom_site_fract_x
_atom_site_fract_y
_atom_site_fract_z
Si Si1 0.162563 0.654031 0.254022
Si Si2 0.319291 0.189656 0.944990
Si Si3 0.387935 0.174009 0.781679
Si Si4 0.549242 0.601048 0.676918
Si Si5 0.454838 0.819379 0.112167
Si Si6 0.573578 0.165613 0.408781
Si Si7 0.742409 0.117955 0.097820
Si Si8 0.632254 0.625714 0.521375
O O1 0.111476 0.508003 0.224198
O O2 0.120460 0.806088 0.222006
O O3 0.152111 0.655807 0.353767
O O4 0.238020 0.623136 0.199423
O O5 0.321596 0.227182 0.844845
O O6 0.315902 0.008708 0.940873
O O7 0.250000 0.250000 0.000000
O O8 0.398027 0.224341 0.999862
O O9 0.466497 0.219045 0.834175
O O10 0.389151 0.213541 0.682472
O O11 0.500000 0.521824 0.750000
O O12 0.487803 0.724596 0.638618
O O13 0.589322 0.534565 0.593758
O O14 0.430951 0.731214 0.027354
O O15 0.456904 0.995822 0.091136
O O16 0.822175 0.061516 0.057776
O O17 0.702548 0.274744 0.066678
#
# Coordination Sequence:
#
# PCOD9255126 Si02
#       8
#     8   8   8   8   8   8   8   8
#     4   8  15  28  47  71 102 126 148 208 255 292
#     4  11  22  34  48  69 104 140 166 201 240 298
#     4   9  18  30  47  77 105 120 159 210 258 291
#     4   9  16  27  47  76 101 121 153 207 259 292
#     4  10  17  29  52  79  99 125 159 211 260 294
#     4  10  17  28  49  75  99 127 163 198 257 299
#     4   9  19  33  46  70 103 132 167 197 240 294
#     4  10  18  29  51  75  99 132 161 201 249 297
#
# _framework density 26.651778
#
# number of rings (size 3 to 8) (size 9 to 14) (size 15 to 20)
#    0.000    2.500    2.500    0.750    0.000    2.000 
#    0.000    0.000    0.000    3.000    3.250    0.000 
#    0.000    0.000    0.000    0.000    0.000    0.000 
#
# Total GULP energy -178518.750491 kJ/mol
# GULP energy per Si atom -5578.710953 kJ/mol
# Density = 2.659112 g / cm^3
# Si number density = 26.651778 Si / 1000 Ang^3
#
#
#
# Elastic Constant Matrix: (Units=GPa)
#
#
# Indices 1 2 3 4 5 6 
#
# 1 64.4559 8.9901 25.3005 0.0000 -36.6619 0.0000
# 2 8.9901 63.3150 25.1036 0.0000 -0.7915 0.0000
# 3 25.3005 25.1036 177.1070 0.0000 -48.8544 0.0000
# 4 0.0000 0.0000 0.0000 22.4343 0.0000 -5.0619
# 5 -36.6619 -0.7915 -48.8544 0.0000 62.1579 0.0000
# 6 0.0000 0.0000 0.0000 -5.0619 0.0000 9.2257
#
#
#
# Elastic Compliance Matrix: (Units=1/GPa)
#
#
# Indices 1 2 3 4 5 6 
#
# 1 0.024198 -0.003751 0.001275 0.000000 0.015227 0.000000
# 2 -0.003751 0.017535 -0.003190 0.000000 -0.004496 0.000000
# 3 0.001275 -0.003190 0.007805 0.000000 0.006846 0.000000
# 4 0.000000 0.000000 0.000000 0.050873 0.000000 0.027912
# 5 0.015227 -0.004496 0.006846 0.000000 0.030393 0.000000
# 6 0.000000 0.000000 0.000000 0.027912 0.000000 0.123708
#
#
# Mechanical properties :
#
#
# Convention : Reuss Voigt Hill
#
# Bulk Modulus (GPa) = 26.17371 47.07404 36.62387
# Shear Modulus (GPa) = 17.94827 35.12917 26.53872
#
# Velocity S-wave (km/s) = 2.59788 3.63448 3.15899
# Velocity P-wave (km/s) = 4.34057 5.94252 5.20356
#
# Compressibility (1/GPa) = 0.03820627
#
# Stress axis : x y z
#
# Youngs Moduli (GPa) = 41.32557 57.02810 128.12847
#
# Poissons Ratio (x) = 0.21392 -0.16339
# Poissons Ratio (y) = 0.15502 0.40872
# Poissons Ratio (z) = -0.05270 0.18192
#
# Static dielectric constant tensor:
#      x y z
#    x 2.200090 0.000000 -0.094380 
#    y 0.000000 2.045690 0.000000 
#    z -0.094380 0.000000 2.122820 
# 
# From -- ./inp_files/210335.got.cif
#   From: 2010.05.17/outbox.cif.g08.bks.cpg/sg15_106_cif.got.tgz:210335.got - 2010.06.03 18:47:42.
