data_PCOD9255746
_publ_section_title
;
Structure prediction by ZEFSAII (Michael W. Deem and Ramdas Pophale) SiO2 
 PCOD9255746
Probable space group: C 2/C
;
_chemical_formula_sum "Si O2"
_cell_formula_units_Z 52
_cell_length_a 14.846085
_cell_length_b 8.683632
_cell_length_c 20.673629
_cell_angle_alpha 90.000000
_cell_angle_beta 87.321901
_cell_angle_gamma 90.000000
_cell_volume 2662.290726
_symmetry_space_group_name_H-M "C 2/C"
_symmetry_group_IT_number 15
_symmetry_cell_setting 'monoclinic'
loop_
_space_group_symop_operation_xyz
x,y,z
-x,y,1/2-z
-x,-y,-z
x,-y,1/2+z
1/2+x,1/2+y,z
1/2-x,1/2+y,1/2-z
1/2-x,1/2-y,-z
1/2+x,1/2-y,1/2+z
loop_
_atom_site_type_symbol
_atom_site_label
_atom_site_fract_x
_atom_site_fract_y
_atom_site_fract_z
Si Si1 0.000000 0.003490 0.250000
Si Si2 0.926716 0.793219 0.146791
Si Si3 0.908845 0.204612 0.361734
Si Si4 0.465023 0.975815 0.102031
Si Si5 0.071109 0.931137 0.048493
Si Si6 0.751921 0.850874 0.066911
Si Si7 0.136889 0.610511 0.016219
O O1 0.937853 0.111455 0.297441
O O2 0.932859 0.892668 0.211486
O O3 0.934083 0.608363 0.152737
O O4 0.847155 0.835513 0.099465
O O5 0.015732 0.848598 0.106854
O O6 0.819266 0.304841 0.373939
O O7 0.993410 0.317099 0.373468
O O8 0.889521 0.080270 0.418793
O O9 0.547757 0.047648 0.057390
O O10 0.382668 0.941095 0.056480
O O11 0.134039 0.795073 0.020264
O O12 0.000000 0.000000 0.000000
O O13 0.719452 0.019259 0.044802
O O14 0.750000 0.750000 0.000000
#
# Coordination Sequence:
#
# PCOD9255746 Si02
#       7
#     4   8   8   8   8   8   8
#     4  10  24  44  56  76 114 168 212 234 284 378
#     4  10  21  37  59  81 114 158 199 247 303 358
#     4  10  21  37  59  83 116 156 204 247 294 363
#     4   9  16  32  56  84 108 151 193 233 291 368
#     4  10  17  32  56  83 116 157 191 238 296 371
#     4  11  20  36  61  94 122 148 190 269 327 357
#     4   9  17  29  53  87 121 144 182 233 311 375
#
# _framework density 19.532052
#
# number of rings (size 3 to 8) (size 9 to 14) (size 15 to 20)
#    0.000    2.154    3.077    0.923    0.000    0.615 
#    0.000   13.846    0.000    0.000    0.000    0.000 
#    0.000    0.000    0.000    0.000    0.000    0.000 
#
# Total GULP energy -144740.452208 kJ/mol
# GULP energy per Si atom -5566.940470 kJ/mol
# Density = 1.948760 g / cm^3
# Si number density = 19.532052 Si / 1000 Ang^3
#
#
#
# Elastic Constant Matrix: (Units=GPa)
#
#
# Indices 1 2 3 4 5 6 
#
# 1 57.4430 33.0010 20.1620 0.0000 5.1873 0.0000
# 2 33.0010 151.0960 50.1352 0.0000 4.8217 0.0000
# 3 20.1620 50.1352 84.2501 0.0000 0.1757 0.0000
# 4 0.0000 0.0000 0.0000 36.5345 0.0000 -7.6717
# 5 5.1873 4.8217 0.1757 0.0000 27.3266 0.0000
# 6 0.0000 0.0000 0.0000 -7.6717 0.0000 26.2984
#
#
#
# Elastic Compliance Matrix: (Units=1/GPa)
#
#
# Indices 1 2 3 4 5 6 
#
# 1 0.020708 -0.003458 -0.002891 0.000000 -0.003302 0.000000
# 2 -0.003458 0.008880 -0.004455 0.000000 -0.000882 0.000000
# 3 -0.002891 -0.004455 0.015210 0.000000 0.001237 0.000000
# 4 0.000000 0.000000 0.000000 0.029157 0.000000 0.008506
# 5 -0.003302 -0.000882 0.001237 0.000000 0.037369 0.000000
# 6 0.000000 0.000000 0.000000 0.008506 0.000000 0.040506
#
#
# Mechanical properties :
#
#
# Convention : Reuss Voigt Hill
#
# Bulk Modulus (GPa) = 43.12233 55.48728 49.30480
# Shear Modulus (GPa) = 27.59865 30.66464 29.13164
#
# Velocity S-wave (km/s) = 3.76306 3.96658 3.86616
# Velocity P-wave (km/s) = 6.40363 7.03195 6.72513
#
# Compressibility (1/GPa) = 0.02318984
#
# Stress axis : x y z
#
# Youngs Moduli (GPa) = 48.28995 112.61371 65.74801
#
# Poissons Ratio (x) = 0.38945 0.19007
# Poissons Ratio (y) = 0.16700 0.29289
# Poissons Ratio (z) = 0.13960 0.50167
#
# Static dielectric constant tensor:
#      x y z
#    x 1.780200 0.000000 -0.094820 
#    y 0.000000 1.826740 0.000000 
#    z -0.094820 0.000000 1.754670 
# 
# From -- ./inp_files/242520.got.cif
#   From: 2010.05.17/outbox.cif.g08.bks.cpg/sg15_122_cif.got.tgz:242520.got - 2010.06.03 18:47:42.
