data_PCOD9255290
_publ_section_title
;
Structure prediction by ZEFSAII (Michael W. Deem and Ramdas Pophale) SiO2 
 PCOD9255290
Probable space group: C 2/C
;
_chemical_formula_sum "Si O2"
_cell_formula_units_Z 32
_cell_length_a 9.456752
_cell_length_b 27.594976
_cell_length_c 8.708342
_cell_angle_alpha 90.000000
_cell_angle_beta 143.579077
_cell_angle_gamma 90.000000
_cell_volume 1349.223480
_symmetry_space_group_name_H-M "C 2/C"
_symmetry_group_IT_number 15
_symmetry_cell_setting 'monoclinic'
loop_
_space_group_symop_operation_xyz
x,y,z
-x,y,1/2-z
-x,-y,-z
x,-y,1/2+z
1/2+x,1/2+y,z
1/2-x,1/2+y,1/2-z
1/2-x,1/2-y,-z
1/2+x,1/2-y,1/2+z
loop_
_atom_site_type_symbol
_atom_site_label
_atom_site_fract_x
_atom_site_fract_y
_atom_site_fract_z
Si Si1 0.440783 0.636723 0.028186
Si Si2 0.000000 0.299121 0.250000
Si Si3 0.935132 0.235234 0.485277
Si Si4 0.000000 0.502759 0.750000
Si Si5 0.180224 0.040421 0.723765
O O1 0.201506 0.665599 0.860732
O O2 0.603549 0.679154 0.097584
O O3 0.421219 0.593526 0.891102
O O4 0.500000 0.616168 0.250000
O O5 0.041139 0.263227 0.427790
O O6 0.679949 0.260366 0.299130
O O7 0.098665 0.536018 0.700905
O O8 0.790432 0.471492 0.486404
O O9 0.000000 0.000000 0.500000
#
# Coordination Sequence:
#
# PCOD9255290 Si02
#       5
#     8   4   8   4   8
#     4  11  18  29  51  82 113 158 193 242 319 372
#     4  10  17  30  46  80 126 152 190 255 312 374
#     4  10  17  30  47  78 126 154 191 255 313 372
#     4  10  23  44  58  86 120 160 208 271 310 366
#     4  11  23  40  63  86 123 162 213 261 313 376
#
# _framework density 23.717345999999999
#
# number of rings (size 3 to 8) (size 9 to 14) (size 15 to 20)
#    0.000    1.500    3.750    4.500    0.000    2.000 
#    0.000    0.000    0.000    0.000    0.000    7.000 
#    0.000    0.000    0.000    0.000    0.000    0.000 
#
# Total GULP energy -89266.729077 kJ/mol
# GULP energy per Si atom -5579.170567 kJ/mol
# Density = 2.366336 g / cm^3
# Si number density = 23.717346 Si / 1000 Ang^3
#
#
#
# Elastic Constant Matrix: (Units=GPa)
#
#
# Indices 1 2 3 4 5 6 
#
# 1 65.2989 6.2386 4.1791 0.0000 11.8071 0.0000
# 2 6.2386 141.9803 35.3596 0.0000 3.5807 0.0000
# 3 4.1791 35.3596 143.3551 0.0000 -16.9118 0.0000
# 4 0.0000 0.0000 0.0000 33.3001 0.0000 -3.4464
# 5 11.8071 3.5807 -16.9118 0.0000 40.0795 0.0000
# 6 0.0000 0.0000 0.0000 -3.4464 0.0000 11.7594
#
#
#
# Elastic Compliance Matrix: (Units=1/GPa)
#
#
# Indices 1 2 3 4 5 6 
#
# 1 0.016353 -0.000336 -0.001009 0.000000 -0.005213 0.000000
# 2 -0.000336 0.007601 -0.002035 0.000000 -0.001439 0.000000
# 3 -0.001009 -0.002035 0.007960 0.000000 0.003838 0.000000
# 4 0.000000 0.000000 0.000000 0.030969 0.000000 0.009076
# 5 -0.005213 -0.001439 0.003838 0.000000 0.028234 0.000000
# 6 0.000000 0.000000 0.000000 0.009076 0.000000 0.087698
#
#
# Mechanical properties :
#
#
# Convention : Reuss Voigt Hill
#
# Bulk Modulus (GPa) = 39.75326 49.13210 44.44268
# Shear Modulus (GPa) = 25.77847 37.35159 31.56503
#
# Velocity S-wave (km/s) = 3.30040 3.97276 3.65209
# Velocity P-wave (km/s) = 5.59653 6.46563 6.04672
#
# Compressibility (1/GPa) = 0.02515517
#
# Stress axis : x y z
#
# Youngs Moduli (GPa) = 61.14903 131.56121 125.63247
#
# Poissons Ratio (x) = 0.04418 0.12675
# Poissons Ratio (y) = 0.02054 0.25564
# Poissons Ratio (z) = 0.06169 0.26770
#
# Static dielectric constant tensor:
#      x y z
#    x 1.982900 0.000000 0.000050 
#    y 0.000000 1.826770 0.000000 
#    z 0.000050 0.000000 2.081650 
# 
# From -- ./inp_files/4636.got.cif
#   From: 2010.05.17/outbox.cif.g08.bks.cpg/sg15_3_cif.got.tgz:4636.got - 2010.06.03 18:47:42.
