data_PCOD9255824
_publ_section_title
;
Structure prediction by ZEFSAII (Michael W. Deem and Ramdas Pophale) SiO2 
 PCOD9255824
Probable space group: C 2/C
;
_chemical_formula_sum "Si O2"
_cell_formula_units_Z 56
_cell_length_a 16.446792
_cell_length_b 10.317217
_cell_length_c 16.409649
_cell_angle_alpha 90.000000
_cell_angle_beta 112.573934
_cell_angle_gamma 90.000000
_cell_volume 2571.140738
_symmetry_space_group_name_H-M "C 2/C"
_symmetry_group_IT_number 15
_symmetry_cell_setting 'monoclinic'
loop_
_space_group_symop_operation_xyz
x,y,z
-x,y,1/2-z
-x,-y,-z
x,-y,1/2+z
1/2+x,1/2+y,z
1/2-x,1/2+y,1/2-z
1/2-x,1/2-y,-z
1/2+x,1/2-y,1/2+z
loop_
_atom_site_type_symbol
_atom_site_label
_atom_site_fract_x
_atom_site_fract_y
_atom_site_fract_z
Si Si1 0.589165 0.487751 0.587714
Si Si2 0.398523 0.934152 0.692402
Si Si3 0.289963 0.726031 0.879380
Si Si4 0.836514 0.364909 0.301511
Si Si5 0.762078 0.227672 0.409524
Si Si6 0.846338 0.361987 0.042310
Si Si7 0.501819 0.706199 0.155822
O O1 0.500000 0.500000 0.500000
O O2 0.634608 0.626074 0.617759
O O3 0.663671 0.385321 0.581724
O O4 0.549111 0.427686 0.654707
O O5 0.500000 0.908101 0.750000
O O6 0.333826 0.815281 0.657273
O O7 0.353696 0.013815 0.749975
O O8 0.392756 0.018330 0.606090
O O9 0.219164 0.733626 0.779377
O O10 0.239705 0.655375 0.935105
O O11 0.326092 0.854283 0.938411
O O12 0.788035 0.355308 0.368528
O O13 0.933103 0.311400 0.357244
O O14 0.750000 0.250000 0.500000
O O15 0.907052 0.235390 0.082881
O O16 0.500000 0.733173 0.250000
#
# Coordination Sequence:
#
# PCOD9255824 Si02
#       7
#     8   8   8   8   8   8   8
#     4  11  22  38  62  87 126 164 203 259 310 373
#     4  11  20  43  70  96 122 168 219 267 318 387
#     4  10  19  35  57  94 123 162 212 256 304 374
#     4  10  20  40  67  88 123 169 208 259 310 378
#     4  11  26  48  61  90 138 169 201 267 336 381
#     4  10  17  32  62  91 124 157 208 265 305 361
#     4  11  18  34  60  93 120 156 211 261 312 362
#
# _framework density 21.780214999999998
#
# number of rings (size 3 to 8) (size 9 to 14) (size 15 to 20)
#    0.000    1.429    8.571    0.000    0.000    0.000 
#    7.714    0.714    0.000    0.000    0.000    0.000 
#    0.000    0.000    0.000    0.000    0.000    0.000 
#
# Total GULP energy -156004.101783 kJ/mol
# GULP energy per Si atom -5571.575064 kJ/mol
# Density = 2.173064 g / cm^3
# Si number density = 21.780215 Si / 1000 Ang^3
#
#
#
# Elastic Constant Matrix: (Units=GPa)
#
#
# Indices 1 2 3 4 5 6 
#
# 1 116.2136 34.9568 40.9946 0.0000 14.3153 0.0000
# 2 34.9568 48.4235 6.1565 0.0000 1.7044 0.0000
# 3 40.9946 6.1565 63.3349 0.0000 9.3426 0.0000
# 4 0.0000 0.0000 0.0000 18.7400 0.0000 -0.8288
# 5 14.3153 1.7044 9.3426 0.0000 48.1098 0.0000
# 6 0.0000 0.0000 0.0000 -0.8288 0.0000 19.2651
#
#
#
# Elastic Compliance Matrix: (Units=1/GPa)
#
#
# Indices 1 2 3 4 5 6 
#
# 1 0.014634 -0.009437 -0.008196 0.000000 -0.002428 0.000000
# 2 -0.009437 0.027001 0.003305 0.000000 0.001210 0.000000
# 3 -0.008196 0.003305 0.021033 0.000000 -0.001763 0.000000
# 4 0.000000 0.000000 0.000000 0.053464 0.000000 0.002300
# 5 -0.002428 0.001210 -0.001763 0.000000 0.021808 0.000000
# 6 0.000000 0.000000 0.000000 0.002300 0.000000 0.052006
#
#
# Mechanical properties :
#
#
# Convention : Reuss Voigt Hill
#
# Bulk Modulus (GPa) = 29.40191 43.57642 36.48917
# Shear Modulus (GPa) = 21.74493 26.94724 24.34609
#
# Velocity S-wave (km/s) = 3.16314 3.52125 3.34699
# Velocity P-wave (km/s) = 5.18356 6.04839 5.63260
#
# Compressibility (1/GPa) = 0.03401139
#
# Stress axis : x y z
#
# Youngs Moduli (GPa) = 68.33496 37.03620 47.54398
#
# Poissons Ratio (x) = 0.34949 0.38969
# Poissons Ratio (y) = 0.64485 -0.15713
# Poissons Ratio (z) = 0.56011 -0.12240
#
# Static dielectric constant tensor:
#      x y z
#    x 1.815880 0.000000 -0.018760 
#    y 0.000000 1.548800 0.000000 
#    z -0.018760 0.000000 1.837950 
# 
# From -- ./inp_files/204099.got.cif
#   From: 2010.05.17/outbox.cif.g08.bks.cpg/sg15_103_cif.got.tgz:204099.got - 2010.06.03 18:47:42.
