data_PCOD9255276
_publ_section_title
;
Structure prediction by ZEFSAII (Michael W. Deem and Ramdas Pophale) SiO2 
 PCOD9255276
Probable space group: C 2/C
;
_chemical_formula_sum "Si O2"
_cell_formula_units_Z 52
_cell_length_a 15.353997
_cell_length_b 10.360913
_cell_length_c 17.466485
_cell_angle_alpha 90.000000
_cell_angle_beta 129.670613
_cell_angle_gamma 90.000000
_cell_volume 2138.758548
_symmetry_space_group_name_H-M "C 2/C"
_symmetry_group_IT_number 15
_symmetry_cell_setting 'monoclinic'
loop_
_space_group_symop_operation_xyz
x,y,z
-x,y,1/2-z
-x,-y,-z
x,-y,1/2+z
1/2+x,1/2+y,z
1/2-x,1/2+y,1/2-z
1/2-x,1/2-y,-z
1/2+x,1/2-y,1/2+z
loop_
_atom_site_type_symbol
_atom_site_label
_atom_site_fract_x
_atom_site_fract_y
_atom_site_fract_z
Si Si1 0.687373 0.255908 0.364505
Si Si2 0.173565 0.597136 0.101883
Si Si3 0.423872 0.590983 0.326701
Si Si4 0.239645 0.477309 0.980833
Si Si5 0.500000 0.425128 0.250000
Si Si6 0.365106 0.153535 0.842288
Si Si7 0.166569 0.113553 0.610658
O O1 0.696487 0.358770 0.439437
O O2 0.663887 0.113849 0.381838
O O3 0.588107 0.325412 0.262431
O O4 0.795681 0.270758 0.370895
O O5 0.302668 0.591232 0.211112
O O6 0.105070 0.484347 0.106374
O O7 0.124566 0.738884 0.087695
O O8 0.185348 0.557259 0.019692
O O9 0.518616 0.527059 0.327753
O O10 0.450146 0.738172 0.361222
O O11 0.405251 0.496979 0.387896
O O12 0.304309 0.568206 0.958167
O O13 0.281364 0.122458 0.725289
#
# Coordination Sequence:
#
# PCOD9255276 Si02
#       7
#     8   8   8   8   4   8   8
#     4  10  20  33  58  79 123 140 198 233 296 326
#     4   9  18  32  55  84 109 140 192 241 273 333
#     4  10  19  33  56  83 112 145 195 238 280 333
#     4  10  18  33  54  87 111 151 185 245 277 345
#     4  12  20  36  56  92 114 152 188 258 282 344
#     4   9  17  34  52  82 106 153 185 237 265 349
#     4  10  17  29  58  84 106 144 200 227 273 340
#
# _framework density 24.31317
#
# number of rings (size 3 to 8) (size 9 to 14) (size 15 to 20)
#    0.000    2.154    6.154    0.462    0.000    0.000 
#    0.000    0.769    0.000    9.231    0.000    0.000 
#    0.000    0.000    0.000    0.000    0.000    0.000 
#
# Total GULP energy -145030.219315 kJ/mol
# GULP energy per Si atom -5578.085358 kJ/mol
# Density = 2.425783 g / cm^3
# Si number density = 24.313170 Si / 1000 Ang^3
#
#
#
# Elastic Constant Matrix: (Units=GPa)
#
#
# Indices 1 2 3 4 5 6 
#
# 1 16.3480 17.7352 14.2507 0.0000 -6.5711 0.0000
# 2 17.7352 153.8351 37.1112 0.0000 -21.9051 0.0000
# 3 14.2507 37.1112 112.4749 0.0000 -12.5426 0.0000
# 4 0.0000 0.0000 0.0000 26.8186 0.0000 -13.1867
# 5 -6.5711 -21.9051 -12.5426 0.0000 31.0302 0.0000
# 6 0.0000 0.0000 0.0000 -13.1867 0.0000 15.7121
#
#
#
# Elastic Compliance Matrix: (Units=1/GPa)
#
#
# Indices 1 2 3 4 5 6 
#
# 1 0.077316 -0.005932 -0.006786 0.000000 0.009442 0.000000
# 2 -0.005932 0.008092 -0.001489 0.000000 0.003855 0.000000
# 3 -0.006786 -0.001489 0.010435 0.000000 0.001730 0.000000
# 4 0.000000 0.000000 0.000000 0.063486 0.000000 0.053282
# 5 0.009442 0.003855 0.001730 0.000000 0.037647 0.000000
# 6 0.000000 0.000000 0.000000 0.053282 0.000000 0.108363
#
#
# Mechanical properties :
#
#
# Convention : Reuss Voigt Hill
#
# Bulk Modulus (GPa) = 14.83020 46.76137 30.79578
# Shear Modulus (GPa) = 14.03593 28.94957 21.49275
#
# Velocity S-wave (km/s) = 2.40531 3.45439 2.97643
# Velocity P-wave (km/s) = 3.71845 5.93170 4.95035
#
# Compressibility (1/GPa) = 0.06742998
#
# Stress axis : x y z
#
# Youngs Moduli (GPa) = 12.93398 123.57340 95.83381
#
# Poissons Ratio (x) = 0.73304 0.65031
# Poissons Ratio (y) = 0.07672 0.14266
# Poissons Ratio (z) = 0.08777 0.18396
#
# Static dielectric constant tensor:
#      x y z
#    x 1.950560 0.000000 0.177220 
#    y 0.000000 1.930050 0.000000 
#    z 0.177220 0.000000 2.231640 
# 
# From -- ./inp_files/203622.got.cif
#   From: 2010.05.17/outbox.cif.g08.bks.cpg/sg15_102_cif.got.tgz:203622.got - 2010.06.03 18:47:42.
