data_PCOD9255186
_publ_section_title
;
Structure prediction by ZEFSAII (Michael W. Deem and Ramdas Pophale) SiO2 
 PCOD9255186
Probable space group: C 2/C
;
_chemical_formula_sum "Si O2"
_cell_formula_units_Z 48
_cell_length_a 7.400645
_cell_length_b 28.974626
_cell_length_c 10.516676
_cell_angle_alpha 90.000000
_cell_angle_beta 84.448876
_cell_angle_gamma 90.000000
_cell_volume 2244.524732
_symmetry_space_group_name_H-M "C 2/C"
_symmetry_group_IT_number 15
_symmetry_cell_setting 'monoclinic'
loop_
_space_group_symop_operation_xyz
x,y,z
-x,y,1/2-z
-x,-y,-z
x,-y,1/2+z
1/2+x,1/2+y,z
1/2-x,1/2+y,1/2-z
1/2-x,1/2-y,-z
1/2+x,1/2-y,1/2+z
loop_
_atom_site_type_symbol
_atom_site_label
_atom_site_fract_x
_atom_site_fract_y
_atom_site_fract_z
Si Si1 0.203780 0.253466 0.358234
Si Si2 0.072363 0.625129 0.389982
Si Si3 0.694129 0.975546 0.960299
Si Si4 0.159531 0.360882 0.342785
Si Si5 0.700060 0.713997 0.110905
Si Si6 0.724499 0.043696 0.742007
O O1 0.250000 0.250000 0.500000
O O2 0.220382 0.308029 0.329785
O O3 0.083199 0.368812 0.490988
O O4 0.012749 0.225330 0.368052
O O5 0.153545 0.574410 0.404255
O O6 0.226851 0.662776 0.414887
O O7 0.000000 0.629797 0.250000
O O8 0.783194 0.007168 0.845348
O O9 0.782353 0.968188 0.093798
O O10 0.500000 0.000000 0.000000
O O11 0.299130 0.229374 0.233868
O O12 0.274724 0.405171 0.289767
O O13 0.000000 0.361475 0.250000
O O14 0.750000 0.750000 0.000000
O O15 0.500000 0.042354 0.750000
#
# Coordination Sequence:
#
# PCOD9255186 Si02
#       6
#     8   8   8   8   8   8
#     4  11  23  40  58  80 116 157 203 245 289 355
#     4  12  21  31  52  83 116 150 189 236 301 352
#     4  10  17  29  47  77 116 146 182 234 294 350
#     4  11  17  34  52  73 109 150 182 233 287 337
#     4  11  23  37  57  83 116 150 199 247 295 345
#     4   9  17  27  46  73 108 146 178 228 292 341
#
# _framework density 21.385373999999999
#
# number of rings (size 3 to 8) (size 9 to 14) (size 15 to 20)
#    0.000    1.333    8.333    2.500    0.000    0.000 
#    0.000    0.000    0.000    0.000    0.000    1.167 
#    0.000    0.000    0.000    0.000    0.000    0.000 
#
# Total GULP energy -133603.987217 kJ/mol
# GULP energy per Si atom -5566.832801 kJ/mol
# Density = 2.133670 g / cm^3
# Si number density = 21.385374 Si / 1000 Ang^3
#
#
#
# Elastic Constant Matrix: (Units=GPa)
#
#
# Indices 1 2 3 4 5 6 
#
# 1 40.2536 18.6771 22.5785 0.0000 15.0297 0.0000
# 2 18.6771 208.5846 40.3028 0.0000 6.8922 0.0000
# 3 22.5785 40.3028 163.8979 0.0000 17.7562 0.0000
# 4 0.0000 0.0000 0.0000 38.8080 0.0000 -8.0692
# 5 15.0297 6.8922 17.7562 0.0000 11.3516 0.0000
# 6 0.0000 0.0000 0.0000 -8.0692 0.0000 19.2733
#
#
#
# Elastic Compliance Matrix: (Units=1/GPa)
#
#
# Indices 1 2 3 4 5 6 
#
# 1 0.050334 -0.002480 0.000882 0.000000 -0.066517 0.000000
# 2 -0.002480 0.005173 -0.001139 0.000000 0.001924 0.000000
# 3 0.000882 -0.001139 0.007599 0.000000 -0.012363 0.000000
# 4 0.000000 0.000000 0.000000 0.028225 0.000000 0.011817
# 5 -0.066517 0.001924 -0.012363 0.000000 0.194333 0.000000
# 6 0.000000 0.000000 0.000000 0.011817 0.000000 0.056833
#
#
# Mechanical properties :
#
#
# Convention : Reuss Voigt Hill
#
# Bulk Modulus (GPa) = 17.35108 63.98367 40.66737
# Shear Modulus (GPa) = 13.61728 35.96510 24.79119
#
# Velocity S-wave (km/s) = 2.52614 4.10538 3.40848
# Velocity P-wave (km/s) = 4.07917 7.24268 5.87776
#
# Compressibility (1/GPa) = 0.05763329
#
# Stress axis : x y z
#
# Youngs Moduli (GPa) = 19.86728 193.32194 131.59166
#
# Poissons Ratio (x) = 0.47935 -0.11606
# Poissons Ratio (y) = 0.04926 0.14986
# Poissons Ratio (z) = -0.01752 0.22015
#
# Static dielectric constant tensor:
#      x y z
#    x 1.789690 0.000000 -0.054210 
#    y 0.000000 1.835910 0.000000 
#    z -0.054210 0.000000 1.977480 
# 
# From -- ./inp_files/79293.got.cif
#   From: 2010.05.17/outbox.cif.g08.bks.cpg/sg15_40_cif.got.tgz:79293.got - 2010.06.03 18:47:42.
