data_PCOD9255024
_publ_section_title
;
Structure prediction by ZEFSAII (Michael W. Deem and Ramdas Pophale) SiO2 
 PCOD9255024
Probable space group: C 2/C
;
_chemical_formula_sum "Si O2"
_cell_formula_units_Z 64
_cell_length_a 15.495803
_cell_length_b 26.024720
_cell_length_c 15.914462
_cell_angle_alpha 90.000000
_cell_angle_beta 144.980618
_cell_angle_gamma 90.000000
_cell_volume 3682.927359
_symmetry_space_group_name_H-M "C 2/C"
_symmetry_group_IT_number 15
_symmetry_cell_setting 'monoclinic'
loop_
_space_group_symop_operation_xyz
x,y,z
-x,y,1/2-z
-x,-y,-z
x,-y,1/2+z
1/2+x,1/2+y,z
1/2-x,1/2+y,1/2-z
1/2-x,1/2-y,-z
1/2+x,1/2-y,1/2+z
loop_
_atom_site_type_symbol
_atom_site_label
_atom_site_fract_x
_atom_site_fract_y
_atom_site_fract_z
Si Si1 0.718835 0.052860 0.535179
Si Si2 0.449143 0.023861 0.797206
Si Si3 0.884862 0.993515 0.022513
Si Si4 0.177592 0.403923 0.181578
Si Si5 0.066540 0.807435 0.517487
Si Si6 0.832956 0.841032 0.083614
Si Si7 0.509341 0.585480 0.487735
Si Si8 0.736161 0.794016 0.176433
O O1 0.844393 0.020070 0.585942
O O2 0.736288 0.064968 0.647133
O O3 0.728219 0.108858 0.500303
O O4 0.562561 0.023159 0.400549
O O5 0.500000 0.049186 0.750000
O O6 0.450608 0.063658 0.874910
O O7 0.279691 0.003694 0.650095
O O8 0.986919 0.043605 0.084244
O O9 0.951183 0.945869 0.022994
O O10 0.316868 0.401099 0.356397
O O11 0.145677 0.345811 0.128699
O O12 0.148480 0.819692 0.494384
O O13 0.145062 0.757720 0.618570
O O14 0.071163 0.859344 0.577174
O O15 0.894392 0.795469 0.352486
O O16 0.774869 0.801709 0.108198
O O17 0.000000 0.857392 0.250000
#
# Coordination Sequence:
#
# PCOD9255024 Si02
#       8
#     8   8   8   8   8   8   8   8
#     4  10  17  27  47  69  95 122 151 193 230 279
#     4   9  18  31  45  68 100 121 154 190 234 286
#     4   9  17  29  44  69  91 124 156 190 227 284
#     4   9  18  31  47  68  93 126 156 190 233 287
#     4  10  17  32  46  67  90 129 159 203 234 279
#     4   9  17  29  44  63  93 126 159 186 231 291
#     4   9  17  30  48  63  93 123 165 190 226 283
#     4   9  19  30  47  66  91 122 164 196 238 281
#
# _framework density 17.377481
#
# number of rings (size 3 to 8) (size 9 to 14) (size 15 to 20)
#    0.000    2.750    1.250    1.500    0.000    0.000 
#    4.500    0.000    0.000    0.000    0.000   14.000 
#    0.000    0.000    0.000    0.000    0.000    0.000 
#
# Total GULP energy -178138.287949 kJ/mol
# GULP energy per Si atom -5566.821498 kJ/mol
# Density = 1.733793 g / cm^3
# Si number density = 17.377481 Si / 1000 Ang^3
#
#
#
# Elastic Constant Matrix: (Units=GPa)
#
#
# Indices 1 2 3 4 5 6 
#
# 1 61.5445 56.7284 11.3714 0.0000 0.9219 0.0000
# 2 56.7284 138.7284 27.4917 0.0000 5.6975 0.0000
# 3 11.3714 27.4917 17.7243 0.0000 5.7239 0.0000
# 4 0.0000 0.0000 0.0000 20.3880 0.0000 9.8979
# 5 0.9219 5.6975 5.7239 0.0000 19.6635 0.0000
# 6 0.0000 0.0000 0.0000 9.8979 0.0000 28.1096
#
#
#
# Elastic Compliance Matrix: (Units=1/GPa)
#
#
# Indices 1 2 3 4 5 6 
#
# 1 0.026160 -0.010571 -0.001081 0.000000 0.002151 0.000000
# 2 -0.010571 0.014741 -0.016405 0.000000 0.001000 0.000000
# 3 -0.001081 -0.016405 0.089413 0.000000 -0.021223 0.000000
# 4 0.000000 0.000000 0.000000 0.059162 0.000000 -0.020832
# 5 0.002151 0.001000 -0.021223 0.000000 0.056643 0.000000
# 6 0.000000 0.000000 0.000000 -0.020832 0.000000 0.042910
#
#
# Mechanical properties :
#
#
# Convention : Reuss Voigt Hill
#
# Bulk Modulus (GPa) = 13.47738 45.46447 29.47092
# Shear Modulus (GPa) = 13.51799 21.79262 17.65531
#
# Velocity S-wave (km/s) = 2.79212 3.54513 3.19091
# Velocity P-wave (km/s) = 4.26228 6.55568 5.52919
#
# Compressibility (1/GPa) = 0.07419842
#
# Stress axis : x y z
#
# Youngs Moduli (GPa) = 38.22618 67.83779 11.18409
#
# Poissons Ratio (x) = 0.71714 0.01209
# Poissons Ratio (y) = 0.40410 0.18348
# Poissons Ratio (z) = 0.04133 1.11288
#
# Static dielectric constant tensor:
#      x y z
#    x 1.615690 0.000000 0.002790 
#    y 0.000000 1.613880 0.000000 
#    z 0.002790 0.000000 1.610670 
# 
# From -- ./inp_files/156784.got.cif
#   From: 2010.05.17/outbox.cif.g08.bks.cpg/sg15_79_cif.got.tgz:156784.got - 2010.06.03 18:47:42.
