data_PCOD9255180
_publ_section_title
;
Structure prediction by ZEFSAII (Michael W. Deem and Ramdas Pophale) SiO2 
 PCOD9255180
Probable space group: C 2/C
;
_chemical_formula_sum "Si O2"
_cell_formula_units_Z 32
_cell_length_a 7.273600
_cell_length_b 33.049571
_cell_length_c 5.421791
_cell_angle_alpha 90.000000
_cell_angle_beta 80.242777
_cell_angle_gamma 90.000000
_cell_volume 1284.487653
_symmetry_space_group_name_H-M "C 2/C"
_symmetry_group_IT_number 15
_symmetry_cell_setting 'monoclinic'
loop_
_space_group_symop_operation_xyz
x,y,z
-x,y,1/2-z
-x,-y,-z
x,-y,1/2+z
1/2+x,1/2+y,z
1/2-x,1/2+y,1/2-z
1/2-x,1/2-y,-z
1/2+x,1/2-y,1/2+z
loop_
_atom_site_type_symbol
_atom_site_label
_atom_site_fract_x
_atom_site_fract_y
_atom_site_fract_z
Si Si1 0.199736 0.606265 0.919364
Si Si2 0.211477 0.275242 0.758280
Si Si3 0.711648 0.014089 0.741246
Si Si4 0.267486 0.863961 0.589790
O O1 0.194007 0.560531 0.825259
O O2 0.298850 0.630172 0.674626
O O3 0.288876 0.607543 0.170057
O O4 0.991552 0.625802 0.002923
O O5 0.250000 0.250000 0.500000
O O6 0.287634 0.319745 0.798743
O O7 0.000000 0.285292 0.750000
O O8 0.250000 0.250000 0.000000
O O9 0.500000 0.997269 0.750000
O O10 0.798734 0.009160 0.452255
#
# Coordination Sequence:
#
# PCOD9255180 Si02
#       4
#     8   8   8   8
#     4  10  17  29  47  63  99 138 187 222 260 329
#     4  12  25  41  62  86 115 147 193 253 302 349
#     4  10  18  23  34  60  93 132 181 216 254 312
#     4  10  19  31  49  69  96 131 189 225 262 333
#
# _framework density 24.912655000000001
#
# number of rings (size 3 to 8) (size 9 to 14) (size 15 to 20)
#    0.000    1.500    5.000    3.750   10.500    0.000 
#    0.000    0.000    0.000    0.000    0.000    0.000 
#    0.000    0.000    0.000    0.000    0.000  515.000 
#
# Total GULP energy -89216.600714 kJ/mol
# GULP energy per Si atom -5576.037545 kJ/mol
# Density = 2.485595 g / cm^3
# Si number density = 24.912655 Si / 1000 Ang^3
#
#
#
# Elastic Constant Matrix: (Units=GPa)
#
#
# Indices 1 2 3 4 5 6 
#
# 1 80.3609 5.8261 28.9005 0.0000 13.4170 0.0000
# 2 5.8261 153.5676 82.7680 0.0000 10.4125 0.0000
# 3 28.9005 82.7680 287.2079 0.0000 50.6364 0.0000
# 4 0.0000 0.0000 0.0000 17.5046 0.0000 7.9792
# 5 13.4170 10.4125 50.6364 0.0000 34.4026 0.0000
# 6 0.0000 0.0000 0.0000 7.9792 0.0000 -8.4828
#
#
#
# Elastic Compliance Matrix: (Units=1/GPa)
#
#
# Indices 1 2 3 4 5 6 
#
# 1 0.013383 0.000118 -0.000613 0.000000 -0.004352 0.000000
# 2 0.000118 0.007751 -0.002463 0.000000 0.001233 0.000000
# 3 -0.000613 -0.002463 0.005509 0.000000 -0.007125 0.000000
# 4 0.000000 0.000000 0.000000 0.039984 0.000000 0.037610
# 5 -0.004352 0.001233 -0.007125 0.000000 0.040878 0.000000
# 6 0.000000 0.000000 0.000000 0.037610 0.000000 -0.082509
#
#
# Mechanical properties :
#
#
# Convention : Reuss Voigt Hill
#
# Bulk Modulus (GPa) = 48.24794 84.01394 66.13094
# Shear Modulus (GPa) = 132.19828 35.59435 83.89631
#
# Velocity S-wave (km/s) = 7.29246 3.78400 5.80941
# Velocity P-wave (km/s) = 9.50344 7.27243 8.46178
#
# Compressibility (1/GPa) = 0.02072627
#
# Stress axis : x y z
#
# Youngs Moduli (GPa) = 74.72439 129.01218 181.50751
#
# Poissons Ratio (x) = -0.01521 0.11132
# Poissons Ratio (y) = -0.00881 0.44706
# Poissons Ratio (z) = 0.04583 0.31777
#
# Static dielectric constant tensor:
#      x y z
#    x 3.995220 0.000000 -0.105940 
#    y 0.000000 2.021280 0.000000 
#    z -0.105940 0.000000 2.030770 
# 
# From -- ./inp_files/2575.got.cif
#   From: 2010.05.17/outbox.cif.g08.bks.cpg/sg15_2_cif.got.tgz:2575.got - 2010.06.03 18:47:42.
