data_PCOD9255209
_publ_section_title
;
Structure prediction by ZEFSAII (Michael W. Deem and Ramdas Pophale) SiO2 
 PCOD9255209
Probable space group: C 2/C
;
_chemical_formula_sum "Si O2"
_cell_formula_units_Z 56
_cell_length_a 6.802370
_cell_length_b 17.780648
_cell_length_c 24.726151
_cell_angle_alpha 90.000000
_cell_angle_beta 131.329086
_cell_angle_gamma 90.000000
_cell_volume 2245.759382
_symmetry_space_group_name_H-M "C 2/C"
_symmetry_group_IT_number 15
_symmetry_cell_setting 'monoclinic'
loop_
_space_group_symop_operation_xyz
x,y,z
-x,y,1/2-z
-x,-y,-z
x,-y,1/2+z
1/2+x,1/2+y,z
1/2-x,1/2+y,1/2-z
1/2-x,1/2-y,-z
1/2+x,1/2-y,1/2+z
loop_
_atom_site_type_symbol
_atom_site_label
_atom_site_fract_x
_atom_site_fract_y
_atom_site_fract_z
Si Si1 0.083065 0.131840 0.872452
Si Si2 0.319453 0.704298 0.927148
Si Si3 0.646281 0.578075 0.037092
Si Si4 0.062522 0.626168 0.020190
Si Si5 0.892349 0.530517 0.311158
Si Si6 0.853352 0.352943 0.280620
Si Si7 0.488542 0.461767 0.653498
O O1 0.972742 0.047307 0.858803
O O2 0.985116 0.185242 0.902744
O O3 0.948040 0.158457 0.792847
O O4 0.393499 0.121624 0.934809
O O5 0.377984 0.787711 0.956466
O O6 0.018525 0.694459 0.853949
O O7 0.439265 0.645929 0.992430
O O8 0.855156 0.593327 0.026467
O O9 0.832288 0.567710 0.123196
O O10 0.500000 0.500000 0.000000
O O11 0.328357 0.581010 0.078274
O O12 0.900701 0.440449 0.304180
O O13 0.709544 0.538514 0.330839
O O14 0.749614 0.563621 0.232208
O O15 0.000000 0.339341 0.250000
#
# Coordination Sequence:
#
# PCOD9255209 Si02
#       7
#     8   8   8   8   8   8   8
#     4   9  17  31  50  73 100 135 171 205 253 303
#     4  10  19  33  49  79 109 129 166 218 259 301
#     4  10  17  29  50  70 104 135 163 209 253 298
#     4  10  20  33  49  81 108 130 171 219 262 298
#     4   9  17  31  48  77 101 127 180 210 248 300
#     4   9  17  30  49  74 104 131 167 209 257 300
#     4   9  18  32  51  74 102 136 170 216 248 308
#
# _framework density 24.935886
#
# number of rings (size 3 to 8) (size 9 to 14) (size 15 to 20)
#    0.000    2.571    1.429    2.143    0.000    0.000 
#   18.000    0.000    0.000    0.857    7.429    0.000 
#    4.286    0.000    0.000    0.000    0.000    0.000 
#
# Total GULP energy -156572.191870 kJ/mol
# GULP energy per Si atom -5591.863995 kJ/mol
# Density = 2.487913 g / cm^3
# Si number density = 24.935886 Si / 1000 Ang^3
#
#
#
# Elastic Constant Matrix: (Units=GPa)
#
#
# Indices 1 2 3 4 5 6 
#
# 1 76.0766 13.9699 48.4382 0.0001 18.3248 0.0001
# 2 13.9699 101.6180 59.3607 0.0000 15.0682 0.0000
# 3 48.4382 59.3607 265.4262 0.0002 37.0753 0.0001
# 4 0.0001 0.0000 0.0002 19.3946 0.0001 15.5502
# 5 18.3248 15.0682 37.0753 0.0001 57.9671 0.0001
# 6 0.0001 0.0000 0.0001 15.5502 0.0001 17.8014
#
#
#
# Elastic Compliance Matrix: (Units=1/GPa)
#
#
# Indices 1 2 3 4 5 6 
#
# 1 0.015462 -0.000292 -0.002289 0.000000 -0.003348 0.000000
# 2 -0.000292 0.011438 -0.002308 0.000000 -0.001404 0.000000
# 3 -0.002289 -0.002308 0.004960 0.000000 -0.001849 0.000000
# 4 0.000000 0.000000 0.000000 0.172092 0.000000 -0.150329
# 5 -0.003348 -0.001404 -0.001849 0.000000 0.019857 0.000000
# 6 0.000000 0.000000 0.000000 -0.150329 0.000000 0.187493
#
#
# Mechanical properties :
#
#
# Convention : Reuss Voigt Hill
#
# Bulk Modulus (GPa) = 45.28857 76.29538 60.79197
# Shear Modulus (GPa) = 11.67025 40.45609 26.06317
#
# Velocity S-wave (km/s) = 2.16570 4.03228 3.23647
# Velocity P-wave (km/s) = 4.94521 7.23478 6.19666
#
# Compressibility (1/GPa) = 0.02208063
#
# Stress axis : x y z
#
# Youngs Moduli (GPa) = 64.67481 87.43023 201.62593
#
# Poissons Ratio (x) = 0.02555 0.46145
# Poissons Ratio (y) = 0.01890 0.46545
# Poissons Ratio (z) = 0.14802 0.20183
#
# Static dielectric constant tensor:
#      x y z
#    x 2.102050 0.000000 0.034860 
#    y 0.000000 1.851510 0.000000 
#    z 0.034860 0.000000 2.021690 
# 
# From -- ./inp_files/289753.got.cif
#   From: 2010.05.17/outbox.cif.g08.bks.cpg/sg15_145_cif.got.tgz:289753.got - 2010.06.03 18:47:42.
