data_PCOD9255539
_publ_section_title
;
Structure prediction by ZEFSAII (Michael W. Deem and Ramdas Pophale) SiO2 
 PCOD9255539
Probable space group: C 2/C
;
_chemical_formula_sum "Si O2"
_cell_formula_units_Z 48
_cell_length_a 23.964921
_cell_length_b 15.802235
_cell_length_c 5.502052
_cell_angle_alpha 90.000000
_cell_angle_beta 76.996151
_cell_angle_gamma 90.000000
_cell_volume 2030.188692
_symmetry_space_group_name_H-M "C 2/C"
_symmetry_group_IT_number 15
_symmetry_cell_setting 'monoclinic'
loop_
_space_group_symop_operation_xyz
x,y,z
-x,y,1/2-z
-x,-y,-z
x,-y,1/2+z
1/2+x,1/2+y,z
1/2-x,1/2+y,1/2-z
1/2-x,1/2-y,-z
1/2+x,1/2-y,1/2+z
loop_
_atom_site_type_symbol
_atom_site_label
_atom_site_fract_x
_atom_site_fract_y
_atom_site_fract_z
Si Si1 0.593088 0.495029 0.765261
Si Si2 0.000000 0.687144 0.750000
Si Si3 0.729026 0.051663 0.430651
Si Si4 0.370934 0.325460 0.285532
Si Si5 0.330553 0.325724 0.822161
Si Si6 0.405972 0.050224 0.948243
Si Si7 0.500000 0.283566 0.250000
O O1 0.560129 0.498188 0.547274
O O2 0.639372 0.572377 0.716438
O O3 0.626347 0.406584 0.734149
O O4 0.053760 0.630098 0.624457
O O5 0.985104 0.736895 0.518321
O O6 0.767505 0.135563 0.397886
O O7 0.661353 0.069843 0.496469
O O8 0.741028 0.001381 0.166518
O O9 0.342445 0.283593 0.550267
O O10 0.439660 0.325553 0.239273
O O11 0.348514 0.284729 0.058936
O O12 0.418257 0.991233 0.699969
#
# Coordination Sequence:
#
# PCOD9255539 Si02
#       7
#     8   4   8   8   8   8   4
#     4   8  14  25  44  68  96 131 170 219 275 313
#     4  12  24  43  64  81 116 152 188 238 288 338
#     4  10  18  30  55  92 124 144 172 218 291 373
#     4  10  20  34  51  75 108 152 202 238 275 323
#     4  10  17  31  54  81 114 148 182 234 295 334
#     4  10  21  38  65  98 120 138 171 225 294 364
#     4  12  26  41  58  77 106 162 214 242 268 324
#
# _framework density 23.643124
#
# number of rings (size 3 to 8) (size 9 to 14) (size 15 to 20)
#    0.000    2.000    0.000    6.500    0.000    0.000 
#    0.000    7.500    0.000    6.000    0.000    0.000 
#    0.000    0.000    0.000    0.000    0.000    0.000 
#
# Total GULP energy -133999.556960 kJ/mol
# GULP energy per Si atom -5583.314873 kJ/mol
# Density = 2.358931 g / cm^3
# Si number density = 23.643124 Si / 1000 Ang^3
#
#
#
# Elastic Constant Matrix: (Units=GPa)
#
#
# Indices 1 2 3 4 5 6 
#
# 1 47.2688 7.9447 15.7795 0.0000 -3.9878 0.0000
# 2 7.9447 22.5733 11.5260 0.0000 -1.3930 0.0000
# 3 15.7795 11.5260 228.2121 0.0000 17.8064 0.0000
# 4 0.0000 0.0000 0.0000 20.4913 0.0000 11.0966
# 5 -3.9878 -1.3930 17.8064 0.0000 31.7651 0.0000
# 6 0.0000 0.0000 0.0000 11.0966 0.0000 14.1910
#
#
#
# Elastic Compliance Matrix: (Units=1/GPa)
#
#
# Indices 1 2 3 4 5 6 
#
# 1 0.023153 -0.007167 -0.001507 0.000000 0.003437 0.000000
# 2 -0.007167 0.048052 -0.002118 0.000000 0.002395 0.000000
# 3 -0.001507 -0.002118 0.004826 0.000000 -0.002987 0.000000
# 4 0.000000 0.000000 0.000000 0.084643 0.000000 -0.066186
# 5 0.003437 0.002395 -0.002987 0.000000 0.033692 0.000000
# 6 0.000000 0.000000 0.000000 -0.066186 0.000000 0.122222
#
#
# Mechanical properties :
#
#
# Convention : Reuss Voigt Hill
#
# Bulk Modulus (GPa) = 18.36670 40.95052 29.65861
# Shear Modulus (GPa) = 14.03226 30.80975 22.42100
#
# Velocity S-wave (km/s) = 2.43883 3.61379 3.08280
# Velocity P-wave (km/s) = 3.96431 5.89665 5.02425
#
# Compressibility (1/GPa) = 0.05444636
#
# Stress axis : x y z
#
# Youngs Moduli (GPa) = 43.19038 20.81084 207.20349
#
# Poissons Ratio (x) = 0.14916 0.31228
# Poissons Ratio (y) = 0.30955 0.43889
# Poissons Ratio (z) = 0.06509 0.04408
#
# Static dielectric constant tensor:
#      x y z
#    x 1.846040 0.000000 0.052310 
#    y 0.000000 1.928270 0.000000 
#    z 0.052310 0.000000 1.845000 
# 
# From -- ./inp_files/15301.got.cif
#   From: 2010.05.17/outbox.cif.g08.bks.cpg/sg15_8_cif.got.tgz:15301.got - 2010.06.03 18:47:42.
