data_PCOD9255142
_publ_section_title
;
Structure prediction by ZEFSAII (Michael W. Deem and Ramdas Pophale) SiO2 
 PCOD9255142
Probable space group: C 2/C
;
_chemical_formula_sum "Si O2"
_cell_formula_units_Z 40
_cell_length_a 13.500614
_cell_length_b 7.522191
_cell_length_c 17.923261
_cell_angle_alpha 90.000000
_cell_angle_beta 125.792802
_cell_angle_gamma 90.000000
_cell_volume 1476.417822
_symmetry_space_group_name_H-M "C 2/C"
_symmetry_group_IT_number 15
_symmetry_cell_setting 'monoclinic'
loop_
_space_group_symop_operation_xyz
x,y,z
-x,y,1/2-z
-x,-y,-z
x,-y,1/2+z
1/2+x,1/2+y,z
1/2-x,1/2+y,1/2-z
1/2-x,1/2-y,-z
1/2+x,1/2-y,1/2+z
loop_
_atom_site_type_symbol
_atom_site_label
_atom_site_fract_x
_atom_site_fract_y
_atom_site_fract_z
Si Si1 0.437305 0.662348 0.892045
Si Si2 0.178253 0.770785 0.304039
Si Si3 0.895330 0.229148 0.309031
Si Si4 0.847054 0.866846 0.630243
Si Si5 0.308402 0.508284 0.464043
O O1 0.397786 0.782697 0.804033
O O2 0.393665 0.470255 0.841550
O O3 0.537569 0.257890 0.852440
O O4 0.582102 0.647798 0.969539
O O5 0.312168 0.832556 0.331231
O O6 0.122521 0.935947 0.323655
O O7 0.205985 0.610412 0.372461
O O8 0.877383 0.850809 0.447913
O O9 0.825815 0.231575 0.199376
O O10 0.766925 0.926745 0.524293
#
# Coordination Sequence:
#
# PCOD9255142 Si02
#       5
#     8   8   8   8   8
#     4   8  16  29  47  74 107 139 176 223 271 322
#     4  10  17  28  51  80 106 142 181 221 277 323
#     4   8  16  29  47  75 108 136 174 221 264 320
#     4   9  16  29  49  75 105 138 179 222 264 320
#     4   9  16  29  49  74 104 140 182 223 267 326
#
# _framework density 27.092600999999998
#
# number of rings (size 3 to 8) (size 9 to 14) (size 15 to 20)
#    0.000    3.200    0.000    3.000    0.000    0.000 
#    0.000    1.000    0.000   10.800    0.000  151.200 
#    0.000    0.000    0.000    0.000    0.000    0.000 
#
# Total GULP energy -111401.044251 kJ/mol
# GULP energy per Si atom -5570.052213 kJ/mol
# Density = 2.703094 g / cm^3
# Si number density = 27.092601 Si / 1000 Ang^3
#
#
#
# Elastic Constant Matrix: (Units=GPa)
#
#
# Indices 1 2 3 4 5 6 
#
# 1 73.6613 21.1754 45.3201 0.0000 -16.9679 0.0000
# 2 21.1754 57.3071 47.2546 0.0000 14.1969 0.0000
# 3 45.3201 47.2546 214.1279 0.0000 -23.2593 0.0000
# 4 0.0000 0.0000 0.0000 38.4831 0.0000 10.5419
# 5 -16.9679 14.1969 -23.2593 0.0000 43.0053 0.0000
# 6 0.0000 0.0000 0.0000 10.5419 0.0000 9.2729
#
#
#
# Elastic Compliance Matrix: (Units=1/GPa)
#
#
# Indices 1 2 3 4 5 6 
#
# 1 0.018912 -0.008503 -0.001074 0.000000 0.009688 0.000000
# 2 -0.008503 0.030384 -0.006757 0.000000 -0.017039 0.000000
# 3 -0.001074 -0.006757 0.006996 0.000000 0.005590 0.000000
# 4 0.000000 0.000000 0.000000 0.037738 0.000000 -0.042902
# 5 0.009688 -0.017039 0.005590 0.000000 0.035724 0.000000
# 6 0.000000 0.000000 0.000000 -0.042902 0.000000 0.156615
#
#
# Mechanical properties :
#
#
# Convention : Reuss Voigt Hill
#
# Bulk Modulus (GPa) = 42.32666 63.62183 52.97424
# Shear Modulus (GPa) = 15.29467 33.57535 24.43501
#
# Velocity S-wave (km/s) = 2.37857 3.52416 3.00643
# Velocity P-wave (km/s) = 4.81667 6.33196 5.62557
#
# Compressibility (1/GPa) = 0.02362577
#
# Stress axis : x y z
#
# Youngs Moduli (GPa) = 52.87567 32.91179 142.94381
#
# Poissons Ratio (x) = 0.27983 0.15353
# Poissons Ratio (y) = 0.44958 0.96582
# Poissons Ratio (z) = 0.05679 0.22237
#
# Static dielectric constant tensor:
#      x y z
#    x 2.222120 0.000000 0.004440 
#    y 0.000000 2.127680 0.000000 
#    z 0.004440 0.000000 2.193370 
# 
# From -- ./inp_files/242961.got.cif
#   From: 2010.05.17/outbox.cif.g08.bks.cpg/sg15_122_cif.got.tgz:242961.got - 2010.06.03 18:47:42.
