data_PCOD9255727
_publ_section_title
;
Structure prediction by ZEFSAII (Michael W. Deem and Ramdas Pophale) SiO2 
 PCOD9255727
Probable space group: C 2/C
;
_chemical_formula_sum "Si O2"
_cell_formula_units_Z 48
_cell_length_a 9.921909
_cell_length_b 24.499792
_cell_length_c 11.644788
_cell_angle_alpha 90.000000
_cell_angle_beta 137.544784
_cell_angle_gamma 90.000000
_cell_volume 1910.741016
_symmetry_space_group_name_H-M "C 2/C"
_symmetry_group_IT_number 15
_symmetry_cell_setting 'monoclinic'
loop_
_space_group_symop_operation_xyz
x,y,z
-x,y,1/2-z
-x,-y,-z
x,-y,1/2+z
1/2+x,1/2+y,z
1/2-x,1/2+y,1/2-z
1/2-x,1/2-y,-z
1/2+x,1/2-y,1/2+z
loop_
_atom_site_type_symbol
_atom_site_label
_atom_site_fract_x
_atom_site_fract_y
_atom_site_fract_z
Si Si1 0.110684 0.665678 0.939260
Si Si2 0.771739 0.998822 0.111728
Si Si3 0.722946 0.525383 0.134538
Si Si4 0.273279 0.872259 0.367599
Si Si5 0.512148 0.715269 0.388370
Si Si6 0.635786 0.350254 0.515912
O O1 0.085703 0.726237 0.981593
O O2 0.000000 0.657489 0.750000
O O3 0.992583 0.627816 0.951636
O O4 0.338360 0.664477 0.042369
O O5 0.785674 0.933891 0.141457
O O6 0.000000 0.021503 0.250000
O O7 0.684597 0.018675 0.179709
O O8 0.692170 0.002377 0.930068
O O9 0.500000 0.500000 0.000000
O O10 0.700524 0.589847 0.098017
O O11 0.258344 0.839246 0.476988
O O12 0.098599 0.850432 0.172785
O O13 0.500000 0.733970 0.250000
O O14 0.348442 0.692032 0.370125
#
# Coordination Sequence:
#
# PCOD9255727 Si02
#       6
#     8   8   8   8   8   8
#     4  10  20  36  58  78 110 148 187 236 284 336
#     4   9  15  27  46  80 115 143 187 229 272 327
#     4   9  15  26  45  78 113 142 184 233 264 327
#     4  10  17  32  55  81 108 149 190 232 267 340
#     4  10  22  37  53  82 111 143 187 237 291 339
#     4  10  18  32  53  83 113 145 191 226 277 338
#
# _framework density 25.121144000000001
#
# number of rings (size 3 to 8) (size 9 to 14) (size 15 to 20)
#    0.000    2.333    6.667    0.000    0.000    2.667 
#    0.000    0.833    0.000    0.000    0.000   56.000 
#    0.000    0.000    0.000    0.000    0.000    0.000 
#
# Total GULP energy -133628.095239 kJ/mol
# GULP energy per Si atom -5567.837302 kJ/mol
# Density = 2.506397 g / cm^3
# Si number density = 25.121144 Si / 1000 Ang^3
#
#
#
# Elastic Constant Matrix: (Units=GPa)
#
#
# Indices 1 2 3 4 5 6 
#
# 1 149.3130 19.1632 39.1466 0.0000 -58.0975 0.0000
# 2 19.1632 35.2696 23.5502 0.0000 -22.4272 0.0000
# 3 39.1466 23.5502 98.9062 0.0000 -47.8195 0.0000
# 4 0.0000 0.0000 0.0000 21.5155 0.0000 -16.3390
# 5 -58.0975 -22.4272 -47.8195 0.0000 47.3555 0.0000
# 6 0.0000 0.0000 0.0000 -16.3390 0.0000 30.9072
#
#
#
# Elastic Compliance Matrix: (Units=1/GPa)
#
#
# Indices 1 2 3 4 5 6 
#
# 1 0.014726 0.004784 0.005593 0.000000 0.025980 0.000000
# 2 0.004784 0.042152 0.001093 0.000000 0.026936 0.000000
# 3 0.005593 0.001093 0.021893 0.000000 0.029488 0.000000
# 4 0.000000 0.000000 0.000000 0.077653 0.000000 0.041051
# 5 0.025980 0.026936 0.029488 0.000000 0.095524 0.000000
# 6 0.000000 0.000000 0.000000 0.041051 0.000000 0.054056
#
#
# Mechanical properties :
#
#
# Convention : Reuss Voigt Hill
#
# Bulk Modulus (GPa) = 9.83160 49.68984 29.76072
# Shear Modulus (GPa) = 15.77453 33.39754 24.58603
#
# Velocity S-wave (km/s) = 2.50859 3.65013 3.13181
# Velocity P-wave (km/s) = 3.50897 6.13088 4.99502
#
# Compressibility (1/GPa) = 0.10171285
#
# Stress axis : x y z
#
# Youngs Moduli (GPa) = 67.90857 23.72366 45.67599
#
# Poissons Ratio (x) = -0.11351 -0.25549
# Poissons Ratio (y) = -0.32491 -0.04992
# Poissons Ratio (z) = -0.37984 -0.02593
#
# Static dielectric constant tensor:
#      x y z
#    x 2.008340 0.000000 0.065420 
#    y 0.000000 1.952830 0.000000 
#    z 0.065420 0.000000 2.254040 
# 
# From -- ./inp_files/80917.got.cif
#   From: 2010.05.17/outbox.cif.g08.bks.cpg/sg15_41_cif.got.tgz:80917.got - 2010.06.03 18:47:42.
