data_PCOD9255821
_publ_section_title
;
Structure prediction by ZEFSAII (Michael W. Deem and Ramdas Pophale) SiO2 
 PCOD9255821
Probable space group: C 2/C
;
_chemical_formula_sum "Si O2"
_cell_formula_units_Z 44
_cell_length_a 8.140103
_cell_length_b 13.870381
_cell_length_c 18.270197
_cell_angle_alpha 90.000000
_cell_angle_beta 109.546667
_cell_angle_gamma 90.000000
_cell_volume 1943.939070
_symmetry_space_group_name_H-M "C 2/C"
_symmetry_group_IT_number 15
_symmetry_cell_setting 'monoclinic'
loop_
_space_group_symop_operation_xyz
x,y,z
-x,y,1/2-z
-x,-y,-z
x,-y,1/2+z
1/2+x,1/2+y,z
1/2-x,1/2+y,1/2-z
1/2-x,1/2-y,-z
1/2+x,1/2-y,1/2+z
loop_
_atom_site_type_symbol
_atom_site_label
_atom_site_fract_x
_atom_site_fract_y
_atom_site_fract_z
Si Si1 0.878453 0.358811 0.796910
Si Si2 0.125187 0.871819 0.204941
Si Si3 0.061567 0.152678 0.160063
Si Si4 0.186804 0.654249 0.447168
Si Si5 0.500000 0.169526 0.750000
Si Si6 0.903203 0.017631 0.561087
O O1 0.865434 0.243097 0.785578
O O2 0.683032 0.389192 0.744225
O O3 0.000000 0.397064 0.750000
O O4 0.991068 0.363745 0.887846
O O5 0.328672 0.895389 0.232930
O O6 0.000000 0.908240 0.250000
O O7 0.024157 0.903822 0.118610
O O8 0.192211 0.158650 0.109017
O O9 0.993633 0.256340 0.179152
O O10 0.913302 0.078840 0.110916
O O11 0.250000 0.750000 0.500000
O O12 0.226840 0.567606 0.509562
O O13 0.000000 0.000000 0.500000
#
# Coordination Sequence:
#
# PCOD9255821 Si02
#       6
#     8   8   8   8   4   8
#     4   8  15  31  56  84 106 157 204 242 288 367
#     4  10  20  38  66  89 120 164 215 252 306 379
#     4   9  20  36  56  87 125 156 201 261 314 357
#     4  10  17  32  61  90 118 163 207 246 309 382
#     4  10  22  40  64  94 112 160 224 254 298 374
#     4  10  21  36  58  92 126 164 196 261 328 359
#
# _framework density 22.634454999999999
#
# number of rings (size 3 to 8) (size 9 to 14) (size 15 to 20)
#    0.000    2.545    1.818    1.091    1.273    0.000 
#    8.182    3.636    0.000    5.455    0.000    0.000 
#    0.000    0.000    0.000    0.000    0.000    0.000 
#
# Total GULP energy -122493.947481 kJ/mol
# GULP energy per Si atom -5567.906704 kJ/mol
# Density = 2.258294 g / cm^3
# Si number density = 22.634455 Si / 1000 Ang^3
#
#
#
# Elastic Constant Matrix: (Units=GPa)
#
#
# Indices 1 2 3 4 5 6 
#
# 1 118.8535 16.4507 58.1799 0.0000 20.2861 0.0000
# 2 16.4507 58.9467 40.3034 0.0000 0.7191 0.0000
# 3 58.1799 40.3034 162.2139 0.0000 23.1713 0.0000
# 4 0.0000 0.0000 0.0000 7.1599 0.0000 22.2132
# 5 20.2861 0.7191 23.1713 0.0000 39.7204 0.0000
# 6 0.0000 0.0000 0.0000 22.2132 0.0000 14.5400
#
#
#
# Elastic Compliance Matrix: (Units=1/GPa)
#
#
# Indices 1 2 3 4 5 6 
#
# 1 0.010664 -0.000807 -0.003107 0.000000 -0.003619 0.000000
# 2 -0.000807 0.020793 -0.005325 0.000000 0.003143 0.000000
# 3 -0.003107 -0.005325 0.009122 0.000000 -0.003638 0.000000
# 4 0.000000 0.000000 0.000000 -0.037347 0.000000 0.057056
# 5 -0.003619 0.003143 -0.003638 0.000000 0.029090 0.000000
# 6 0.000000 0.000000 0.000000 0.057056 0.000000 -0.018391
#
#
# Mechanical properties :
#
#
# Convention : Reuss Voigt Hill
#
# Bulk Modulus (GPa) = 45.25184 63.32025 54.28605
# Shear Modulus (GPa) = 125.69933 27.28939 76.49436
#
# Velocity S-wave (km/s) = 7.46023 3.47602 5.81970
# Velocity P-wave (km/s) = 9.70786 6.64426 8.31832
#
# Compressibility (1/GPa) = 0.02209855
#
# Stress axis : x y z
#
# Youngs Moduli (GPa) = 93.77132 48.09401 109.62552
#
# Poissons Ratio (x) = 0.03884 0.34063
# Poissons Ratio (y) = 0.07572 0.58380
# Poissons Ratio (z) = 0.29137 0.25612
#
# Static dielectric constant tensor:
#      x y z
#    x 1.927240 0.000000 0.023670 
#    y 0.000000 1.894920 0.000000 
#    z 0.023670 0.000000 1.821560 
# 
# From -- ./inp_files/188997.got.cif
#   From: 2010.05.17/outbox.cif.g08.bks.cpg/sg15_95_cif.got.tgz:188997.got - 2010.06.03 18:47:42.
