data_PCOD9255875
_publ_section_title
;
Structure prediction by ZEFSAII (Michael W. Deem and Ramdas Pophale) SiO2 
 PCOD9255875
Probable space group: C 2/C
;
_chemical_formula_sum "Si O2"
_cell_formula_units_Z 56
_cell_length_a 17.753786
_cell_length_b 10.829814
_cell_length_c 12.960368
_cell_angle_alpha 90.000000
_cell_angle_beta 105.748190
_cell_angle_gamma 90.000000
_cell_volume 2398.356400
_symmetry_space_group_name_H-M "C 2/C"
_symmetry_group_IT_number 15
_symmetry_cell_setting 'monoclinic'
loop_
_space_group_symop_operation_xyz
x,y,z
-x,y,1/2-z
-x,-y,-z
x,-y,1/2+z
1/2+x,1/2+y,z
1/2-x,1/2+y,1/2-z
1/2-x,1/2-y,-z
1/2+x,1/2-y,1/2+z
loop_
_atom_site_type_symbol
_atom_site_label
_atom_site_fract_x
_atom_site_fract_y
_atom_site_fract_z
Si Si1 0.973306 0.436515 0.620262
Si Si2 0.844136 0.215162 0.917785
Si Si3 0.691754 0.920678 0.874888
Si Si4 0.505885 0.346546 0.376615
Si Si5 0.156090 0.006354 0.445429
Si Si6 0.727704 0.653901 0.814911
Si Si7 0.138037 0.503166 0.126032
O O1 0.882397 0.471984 0.587972
O O2 0.972850 0.294048 0.586729
O O3 0.000000 0.432190 0.750000
O O4 0.044721 0.513872 0.598437
O O5 0.778604 0.182687 0.808244
O O6 0.850229 0.362192 0.921172
O O7 0.919863 0.148241 0.894052
O O8 0.839328 0.151157 0.027030
O O9 0.691665 0.772139 0.859988
O O10 0.674403 0.969932 0.753743
O O11 0.774932 0.954225 0.954819
O O12 0.500000 0.355320 0.250000
O O13 0.572307 0.442983 0.435169
O O14 0.180054 0.964902 0.339230
O O15 0.814712 0.620230 0.883769
#
# Coordination Sequence:
#
# PCOD9255875 Si02
#       7
#     8   8   8   8   8   8   8
#     4   8  15  31  54  78 106 144 185 232 271 329
#     4  10  21  36  53  82 114 149 190 227 294 341
#     4  10  19  34  57  87 110 142 195 239 280 326
#     4  10  17  33  54  81 109 145 183 242 282 322
#     4  12  21  32  59  85 112 146 193 235 278 339
#     4  11  20  35  56  86 116 145 188 243 281 331
#     4   9  19  36  57  79 117 152 183 230 292 341
#
# _framework density 23.349322999999998
#
# number of rings (size 3 to 8) (size 9 to 14) (size 15 to 20)
#    0.000    2.000    4.286    2.571    0.000    0.571 
#    0.000    0.714    0.000    0.000    0.000    1.000 
#    0.000    0.000    0.000    0.000    0.000    0.000 
#
# Total GULP energy -156215.070854 kJ/mol
# GULP energy per Si atom -5579.109673 kJ/mol
# Density = 2.329618 g / cm^3
# Si number density = 23.349323 Si / 1000 Ang^3
#
#
#
# Elastic Constant Matrix: (Units=GPa)
#
#
# Indices 1 2 3 4 5 6 
#
# 1 94.8032 40.7377 13.7220 0.0000 29.9059 0.0000
# 2 40.7377 73.2920 38.4091 0.0000 3.4477 0.0000
# 3 13.7220 38.4091 85.5995 0.0000 29.3163 0.0000
# 4 0.0000 0.0000 0.0000 -1.2279 0.0000 36.1311
# 5 29.9059 3.4477 29.3163 0.0000 40.9066 0.0000
# 6 0.0000 0.0000 0.0000 36.1311 0.0000 1.3179
#
#
#
# Elastic Compliance Matrix: (Units=1/GPa)
#
#
# Indices 1 2 3 4 5 6 
#
# 1 0.026364 -0.021143 0.014911 0.000000 -0.028178 0.000000
# 2 -0.021143 0.035821 -0.022455 0.000000 0.028531 0.000000
# 3 0.014911 -0.022455 0.029757 0.000000 -0.030334 0.000000
# 4 0.000000 0.000000 0.000000 -0.001008 0.000000 0.027643
# 5 -0.028178 0.028531 -0.030334 0.000000 0.064381 0.000000
# 6 0.000000 0.000000 0.000000 0.027643 0.000000 0.000939
#
#
# Mechanical properties :
#
#
# Convention : Reuss Voigt Hill
#
# Bulk Modulus (GPa) = 28.92785 48.82581 38.87683
# Shear Modulus (GPa) = 22.20733 18.92107 20.56420
#
# Velocity S-wave (km/s) = 3.08732 2.84975 2.97091
# Velocity P-wave (km/s) = 5.01246 5.63777 5.33429
#
# Compressibility (1/GPa) = 0.03456876
#
# Stress axis : x y z
#
# Youngs Moduli (GPa) = 37.93059 27.91630 33.60577
#
# Poissons Ratio (x) = 0.59022 -0.50110
# Poissons Ratio (y) = 0.80195 0.75463
# Poissons Ratio (z) = -0.56559 0.62687
#
# Static dielectric constant tensor:
#      x y z
#    x 2.022200 0.000000 -0.076630 
#    y 0.000000 1.827440 0.000000 
#    z -0.076630 0.000000 1.941370 
# 
# From -- ./inp_files/160993.got.cif
#   From: 2010.05.17/outbox.cif.g08.bks.cpg/sg15_81_cif.got.tgz:160993.got - 2010.06.03 18:47:42.
