data_PCOD9255469
_publ_section_title
;
Structure prediction by ZEFSAII (Michael W. Deem and Ramdas Pophale) SiO2 
 PCOD9255469
Probable space group: C 2/C
;
_chemical_formula_sum "Si O2"
_cell_formula_units_Z 64
_cell_length_a 21.352292
_cell_length_b 14.158280
_cell_length_c 10.111452
_cell_angle_alpha 90.000000
_cell_angle_beta 109.684132
_cell_angle_gamma 90.000000
_cell_volume 2878.182347
_symmetry_space_group_name_H-M "C 2/C"
_symmetry_group_IT_number 15
_symmetry_cell_setting 'monoclinic'
loop_
_space_group_symop_operation_xyz
x,y,z
-x,y,1/2-z
-x,-y,-z
x,-y,1/2+z
1/2+x,1/2+y,z
1/2-x,1/2+y,1/2-z
1/2-x,1/2-y,-z
1/2+x,1/2-y,1/2+z
loop_
_atom_site_type_symbol
_atom_site_label
_atom_site_fract_x
_atom_site_fract_y
_atom_site_fract_z
Si Si1 0.111619 0.727266 0.381976
Si Si2 0.898768 0.814189 0.750969
Si Si3 0.202635 0.039300 0.248810
Si Si4 0.648004 0.129457 0.672726
Si Si5 0.229533 0.123963 0.924604
Si Si6 0.518641 0.627601 0.947645
Si Si7 0.601287 0.436765 0.009706
Si Si8 0.332948 0.921593 0.735735
O O1 0.111766 0.655993 0.508769
O O2 0.179097 0.791975 0.423572
O O3 0.052359 0.797217 0.375553
O O4 0.114637 0.661486 0.253551
O O5 0.840495 0.867555 0.788853
O O6 0.878489 0.705722 0.742124
O O7 0.961494 0.838599 0.888367
O O8 0.897837 0.863612 0.609265
O O9 0.278467 0.074482 0.313467
O O10 0.189335 0.970682 0.361968
O O11 0.172068 0.973494 0.111787
O O12 0.724767 0.140809 0.674873
O O13 0.637695 0.026082 0.727067
O O14 0.280881 0.096220 0.077308
O O15 0.439867 0.611380 0.898017
O O16 0.555196 0.527985 0.945625
#
# Coordination Sequence:
#
# PCOD9255469 Si02
#       8
#     8   8   8   8   8   8   8   8
#     4  10  18  34  55  74 105 145 180 213 266 333
#     4  10  17  31  50  71 103 137 169 213 268 318
#     4  10  19  30  47  76 108 139 173 209 263 328
#     4   9  19  30  48  76 101 132 177 213 258 324
#     4  10  18  32  51  73 102 139 171 207 266 333
#     4   9  19  32  51  76  99 137 179 213 266 326
#     4  10  19  32  49  75 107 132 172 225 262 310
#     4  10  18  31  50  74 103 136 176 217 255 314
#
# _framework density 22.236255
#
# number of rings (size 3 to 8) (size 9 to 14) (size 15 to 20)
#    0.000    2.250    0.000    6.375    0.000    0.000 
#    0.000   11.250    0.000    0.750    0.000    3.500 
#    0.000    0.000    0.000    0.000    0.000    0.000 
#
# Total GULP energy -178206.011501 kJ/mol
# GULP energy per Si atom -5568.937859 kJ/mol
# Density = 2.218564 g / cm^3
# Si number density = 22.236255 Si / 1000 Ang^3
#
#
#
# Elastic Constant Matrix: (Units=GPa)
#
#
# Indices 1 2 3 4 5 6 
#
# 1 61.4906 33.2356 5.7173 0.0000 -14.7145 0.0000
# 2 33.2356 129.2482 17.6051 0.0000 -17.6192 0.0000
# 3 5.7173 17.6051 50.8031 0.0000 -12.3477 0.0000
# 4 0.0000 0.0000 0.0000 34.0406 0.0000 -15.6703
# 5 -14.7145 -17.6192 -12.3477 0.0000 21.4629 0.0000
# 6 0.0000 0.0000 0.0000 -15.6703 0.0000 30.2317
#
#
#
# Elastic Compliance Matrix: (Units=1/GPa)
#
#
# Indices 1 2 3 4 5 6 
#
# 1 0.021227 -0.004044 0.002026 0.000000 0.012399 0.000000
# 2 -0.004044 0.009580 -0.001892 0.000000 0.004004 0.000000
# 3 0.002026 -0.001892 0.023334 0.000000 0.013261 0.000000
# 4 0.000000 0.000000 0.000000 0.038583 0.000000 0.019999
# 5 0.012399 0.004004 0.013261 0.000000 0.066008 0.000000
# 6 0.000000 0.000000 0.000000 0.019999 0.000000 0.043444
#
#
# Mechanical properties :
#
#
# Convention : Reuss Voigt Hill
#
# Bulk Modulus (GPa) = 21.58793 39.40640 30.49717
# Shear Modulus (GPa) = 22.17908 29.47929 25.82918
#
# Velocity S-wave (km/s) = 3.16164 3.64501 3.41189
# Velocity P-wave (km/s) = 4.80182 5.95609 5.40982
#
# Compressibility (1/GPa) = 0.04632218
#
# Stress axis : x y z
#
# Youngs Moduli (GPa) = 47.10954 104.37882 42.85524
#
# Poissons Ratio (x) = 0.42214 -0.08683
# Poissons Ratio (y) = 0.19052 0.08107
# Poissons Ratio (z) = -0.09545 0.19746
#
# Static dielectric constant tensor:
#      x y z
#    x 1.933980 0.000000 -0.041810 
#    y 0.000000 1.852170 0.000000 
#    z -0.041810 0.000000 1.894340 
# 
# From -- ./inp_files/117623.got.cif
#   From: 2010.05.17/outbox.cif.g08.bks.cpg/sg15_59_cif.got.tgz:117623.got - 2010.06.03 18:47:42.
