data_PCOD9255496
_publ_section_title
;
Structure prediction by ZEFSAII (Michael W. Deem and Ramdas Pophale) SiO2 
 PCOD9255496
Probable space group: C 2/C
;
_chemical_formula_sum "Si O2"
_cell_formula_units_Z 52
_cell_length_a 28.357226
_cell_length_b 5.634002
_cell_length_c 14.391117
_cell_angle_alpha 90.000000
_cell_angle_beta 74.974635
_cell_angle_gamma 90.000000
_cell_volume 2220.585302
_symmetry_space_group_name_H-M "C 2/C"
_symmetry_group_IT_number 15
_symmetry_cell_setting 'monoclinic'
loop_
_space_group_symop_operation_xyz
x,y,z
-x,y,1/2-z
-x,-y,-z
x,-y,1/2+z
1/2+x,1/2+y,z
1/2-x,1/2+y,1/2-z
1/2-x,1/2-y,-z
1/2+x,1/2-y,1/2+z
loop_
_atom_site_type_symbol
_atom_site_label
_atom_site_fract_x
_atom_site_fract_y
_atom_site_fract_z
Si Si1 0.805534 0.902680 0.766356
Si Si2 0.500000 0.192855 0.750000
Si Si3 0.600103 0.919256 0.008642
Si Si4 0.523899 0.844174 0.886140
Si Si5 0.572464 0.593614 0.520726
Si Si6 0.412441 0.479050 0.711067
Si Si7 0.800106 0.597493 0.155042
O O1 0.859793 0.923405 0.777855
O O2 0.804843 0.648798 0.712023
O O3 0.756042 0.906962 0.852313
O O4 0.803179 0.148853 0.707492
O O5 0.453689 0.340411 0.743935
O O6 0.493467 0.029756 0.843023
O O7 0.554615 0.940981 0.957040
O O8 0.589654 0.657351 0.051386
O O9 0.653615 0.902381 0.935579
O O10 0.599198 0.180905 0.052594
O O11 0.567540 0.746982 0.798776
O O12 0.485081 0.639928 0.931437
O O13 0.585554 0.579959 0.402393
#
# Coordination Sequence:
#
# PCOD9255496 Si02
#       7
#     8   4   8   8   8   8   8
#     4  10  19  30  53  78 114 142 176 226 281 328
#     4  12  24  36  56  74 120 150 192 216 276 332
#     4  11  18  35  55  81 112 140 179 231 272 326
#     4  11  23  36  53  81 112 150 184 227 273 331
#     4  11  22  34  59  79 112 144 186 227 279 319
#     4  11  21  38  53  83 113 150 185 231 272 331
#     4  10  17  31  51  83 111 139 176 226 288 323
#
# _framework density 23.417249999999999
#
# number of rings (size 3 to 8) (size 9 to 14) (size 15 to 20)
#    0.000    1.231    6.154    2.769    2.154    0.000 
#    0.000    0.000    0.000    0.000    0.000    2.154 
#    0.000    0.000    0.000    0.000    0.000    0.000 
#
# Total GULP energy -144976.760680 kJ/mol
# GULP energy per Si atom -5576.029257 kJ/mol
# Density = 2.336395 g / cm^3
# Si number density = 23.417250 Si / 1000 Ang^3
#
#
#
# Elastic Constant Matrix: (Units=GPa)
#
#
# Indices 1 2 3 4 5 6 
#
# 1 143.8208 31.9611 42.2584 0.0000 -33.6973 0.0000
# 2 31.9611 172.6315 20.6562 0.0000 -4.2782 0.0000
# 3 42.2584 20.6562 75.8141 0.0000 -7.8022 0.0000
# 4 0.0000 0.0000 0.0000 8.9563 0.0000 5.1293
# 5 -33.6973 -4.2782 -7.8022 0.0000 37.7511 0.0000
# 6 0.0000 0.0000 0.0000 5.1293 0.0000 11.9446
#
#
#
# Elastic Compliance Matrix: (Units=1/GPa)
#
#
# Indices 1 2 3 4 5 6 
#
# 1 0.010543 -0.001184 -0.004699 0.000000 0.008305 0.000000
# 2 -0.001184 0.006125 -0.001069 0.000000 -0.000583 0.000000
# 3 -0.004699 -0.001069 0.015997 0.000000 -0.001010 0.000000
# 4 0.000000 0.000000 0.000000 0.148068 0.000000 -0.063584
# 5 0.008305 -0.000583 -0.001010 0.000000 0.033628 0.000000
# 6 0.000000 0.000000 0.000000 -0.063584 0.000000 0.111025
#
#
# Mechanical properties :
#
#
# Convention : Reuss Voigt Hill
#
# Bulk Modulus (GPa) = 53.30282 64.66863 58.98573
# Shear Modulus (GPa) = 14.46994 31.55644 23.01319
#
# Velocity S-wave (km/s) = 2.48849 3.67491 3.13828
# Velocity P-wave (km/s) = 5.57390 6.75888 6.19479
#
# Compressibility (1/GPa) = 0.01876073
#
# Stress axis : x y z
#
# Youngs Moduli (GPa) = 94.85044 163.25688 62.51203
#
# Poissons Ratio (x) = 0.19326 0.29376
# Poissons Ratio (y) = 0.11228 0.06683
# Poissons Ratio (z) = 0.44573 0.17454
#
# Static dielectric constant tensor:
#      x y z
#    x 1.871000 0.000000 -0.027040 
#    y 0.000000 2.017260 0.000000 
#    z -0.027040 0.000000 1.956070 
# 
# From -- ./inp_files/256322.got.cif
#   From: 2010.05.17/outbox.cif.g08.bks.cpg/sg15_129_cif.got.tgz:256322.got - 2010.06.03 18:47:42.
