data_PCOD9255330
_publ_section_title
;
Structure prediction by ZEFSAII (Michael W. Deem and Ramdas Pophale) SiO2 
 PCOD9255330
Probable space group: C 2/C
;
_chemical_formula_sum "Si O2"
_cell_formula_units_Z 52
_cell_length_a 22.789654
_cell_length_b 17.511820
_cell_length_c 13.547457
_cell_angle_alpha 90.000000
_cell_angle_beta 150.176941
_cell_angle_gamma 90.000000
_cell_volume 2688.843218
_symmetry_space_group_name_H-M "C 2/C"
_symmetry_group_IT_number 15
_symmetry_cell_setting 'monoclinic'
loop_
_space_group_symop_operation_xyz
x,y,z
-x,y,1/2-z
-x,-y,-z
x,-y,1/2+z
1/2+x,1/2+y,z
1/2-x,1/2+y,1/2-z
1/2-x,1/2-y,-z
1/2+x,1/2-y,1/2+z
loop_
_atom_site_type_symbol
_atom_site_label
_atom_site_fract_x
_atom_site_fract_y
_atom_site_fract_z
Si Si1 0.021486 0.990853 0.146546
Si Si2 0.364502 0.067438 0.764109
Si Si3 0.500000 0.233146 0.750000
Si Si4 0.344218 0.648173 0.141301
Si Si5 0.287268 0.864114 0.855240
Si Si6 0.189074 0.069440 0.029769
Si Si7 0.429868 0.991857 0.553639
O O1 0.081342 0.070660 0.263379
O O2 0.110235 0.924249 0.315705
O O3 0.000000 0.000000 0.000000
O O4 0.900327 0.974444 0.026337
O O5 0.279939 0.131845 0.596384
O O6 0.482679 0.050666 0.876080
O O7 0.294925 0.986837 0.656734
O O8 0.393297 0.072368 0.922108
O O9 0.579128 0.285113 0.793405
O O10 0.404167 0.184116 0.549516
O O11 0.310331 0.658639 0.206416
O O12 0.240688 0.863689 0.674461
O O13 0.322057 0.953244 0.927323
O O14 0.500000 0.962649 0.750000
#
# Coordination Sequence:
#
# PCOD9255330 Si02
#       7
#     8   8   4   8   8   8   8
#     4  10  18  34  59  89 109 133 177 235 295 344
#     4   9  18  29  48  75 108 133 167 229 276 327
#     4  12  24  34  52  76 108 150 208 234 254 322
#     4  11  20  35  52  80 111 141 185 238 285 317
#     4  11  20  35  52  74 110 153 184 223 275 330
#     4   9  19  31  52  83 112 140 174 222 282 339
#     4  10  17  30  50  76 104 137 175 211 279 352
#
# _framework density 19.339172000000001
#
# number of rings (size 3 to 8) (size 9 to 14) (size 15 to 20)
#    0.000    1.846    3.846    2.308    0.000    0.000 
#    0.000    0.000    0.000    0.923    4.000    0.000 
#    0.000    0.000    0.000    0.000    0.000    0.000 
#
# Total GULP energy -144903.582390 kJ/mol
# GULP energy per Si atom -5573.214707 kJ/mol
# Density = 1.929515 g / cm^3
# Si number density = 19.339172 Si / 1000 Ang^3
#
#
#
# Elastic Constant Matrix: (Units=GPa)
#
#
# Indices 1 2 3 4 5 6 
#
# 1 83.4315 21.4586 34.3085 0.0000 -11.3852 0.0000
# 2 21.4586 43.9271 28.9850 0.0000 -1.4097 0.0000
# 3 34.3085 28.9850 110.5244 0.0000 -21.0899 0.0000
# 4 0.0000 0.0000 0.0000 19.5640 0.0000 2.4722
# 5 -11.3852 -1.4097 -21.0899 0.0000 48.3173 0.0000
# 6 0.0000 0.0000 0.0000 2.4722 0.0000 20.7882
#
#
#
# Elastic Compliance Matrix: (Units=1/GPa)
#
#
# Indices 1 2 3 4 5 6 
#
# 1 0.014790 -0.005313 -0.002795 0.000000 0.002110 0.000000
# 2 -0.005313 0.029731 -0.006786 0.000000 -0.003347 0.000000
# 3 -0.002795 -0.006786 0.012579 0.000000 0.004634 0.000000
# 4 0.000000 0.000000 0.000000 0.051894 0.000000 -0.006172
# 5 0.002110 -0.003347 0.004634 0.000000 0.023119 0.000000
# 6 0.000000 0.000000 0.000000 -0.006172 0.000000 0.048838
#
#
# Mechanical properties :
#
#
# Convention : Reuss Voigt Hill
#
# Bulk Modulus (GPa) = 36.61460 45.26525 40.93993
# Shear Modulus (GPa) = 22.74348 27.94262 25.34305
#
# Velocity S-wave (km/s) = 3.43305 3.80527 3.62394
# Velocity P-wave (km/s) = 5.88969 6.53939 6.22302
#
# Compressibility (1/GPa) = 0.02731151
#
# Stress axis : x y z
#
# Youngs Moduli (GPa) = 67.61493 33.63514 79.49521
#
# Poissons Ratio (x) = 0.17870 0.22219
# Poissons Ratio (y) = 0.35923 0.53948
# Poissons Ratio (z) = 0.18899 0.22826
#
# Static dielectric constant tensor:
#      x y z
#    x 1.722330 0.000000 -0.033070 
#    y 0.000000 1.649480 0.000000 
#    z -0.033070 0.000000 1.777530 
# 
# From -- ./inp_files/174019.got.cif
#   From: 2010.05.17/outbox.cif.g08.bks.cpg/sg15_88_cif.got.tgz:174019.got - 2010.06.03 18:47:42.
