data_PCOD9255073
_publ_section_title
;
Structure prediction by ZEFSAII (Michael W. Deem and Ramdas Pophale) SiO2 
 PCOD9255073
Probable space group: C 2/C
;
_chemical_formula_sum "Si O2"
_cell_formula_units_Z 56
_cell_length_a 21.446845
_cell_length_b 21.867300
_cell_length_c 5.200263
_cell_angle_alpha 90.000000
_cell_angle_beta 76.025537
_cell_angle_gamma 90.000000
_cell_volume 2366.661898
_symmetry_space_group_name_H-M "C 2/C"
_symmetry_group_IT_number 15
_symmetry_cell_setting 'monoclinic'
loop_
_space_group_symop_operation_xyz
x,y,z
-x,y,1/2-z
-x,-y,-z
x,-y,1/2+z
1/2+x,1/2+y,z
1/2-x,1/2+y,1/2-z
1/2-x,1/2-y,-z
1/2+x,1/2-y,1/2+z
loop_
_atom_site_type_symbol
_atom_site_label
_atom_site_fract_x
_atom_site_fract_y
_atom_site_fract_z
Si Si1 0.415977 0.017373 0.260689
Si Si2 0.189549 0.210943 0.980947
Si Si3 0.623294 0.269880 0.043178
Si Si4 0.574630 0.596056 0.670980
Si Si5 0.851019 0.633146 0.371848
Si Si6 0.157500 0.925802 0.597342
Si Si7 0.295513 0.072104 0.906767
O O1 0.408124 0.085721 0.364279
O O2 0.445626 0.978802 0.455192
O O3 0.346709 0.982404 0.303090
O O4 0.133578 0.236564 0.226423
O O5 0.188387 0.142132 0.082123
O O6 0.250000 0.250000 0.000000
O O7 0.180845 0.210600 0.683021
O O8 0.578052 0.329292 0.133856
O O9 0.618926 0.200438 0.149079
O O10 0.500000 0.577922 0.750000
O O11 0.613903 0.566989 0.393058
O O12 0.611819 0.576603 0.893300
O O13 0.801683 0.617629 0.653521
O O14 0.819277 0.610748 0.134137
O O15 0.225481 0.959627 0.504703
#
# Coordination Sequence:
#
# PCOD9255073 Si02
#       7
#     8   8   8   8   8   8   8
#     4   8  16  27  41  61  92 121 141 169 210 257
#     4  10  18  27  39  62  91 117 143 173 208 264
#     4  10  19  28  43  62  84 120 153 177 217 263
#     4  10  21  35  46  61  88 119 159 203 228 249
#     4  10  17  28  44  66  96 121 144 175 216 272
#     4  10  19  30  47  65  85 120 155 182 226 270
#     4  10  18  29  44  67  96 120 145 177 217 275
#
# _framework density 23.662019000000001
#
# number of rings (size 3 to 8) (size 9 to 14) (size 15 to 20)
#    0.000    2.286    0.000    4.286    0.000    2.286 
#    0.000    0.000    0.000    0.000    0.000    0.000 
#    0.000  113.143    0.000    0.000    0.000   15.714 
#
# Total GULP energy -155922.296831 kJ/mol
# GULP energy per Si atom -5568.653458 kJ/mol
# Density = 2.360816 g / cm^3
# Si number density = 23.662019 Si / 1000 Ang^3
#
#
#
# Elastic Constant Matrix: (Units=GPa)
#
#
# Indices 1 2 3 4 5 6 
#
# 1 108.1259 1.1764 30.9054 0.0000 -14.9895 0.0000
# 2 1.1764 93.9134 4.8099 0.0000 -7.9248 0.0000
# 3 30.9054 4.8099 167.5763 0.0000 -1.7724 0.0000
# 4 0.0000 0.0000 0.0000 15.2922 0.0000 1.4803
# 5 -14.9895 -7.9248 -1.7724 0.0000 29.2146 0.0000
# 6 0.0000 0.0000 0.0000 1.4803 0.0000 -5.3670
#
#
#
# Elastic Compliance Matrix: (Units=1/GPa)
#
#
# Indices 1 2 3 4 5 6 
#
# 1 0.010536 0.000421 -0.001898 0.000000 0.005405 0.000000
# 2 0.000421 0.010928 -0.000358 0.000000 0.003159 0.000000
# 3 -0.001898 -0.000358 0.006320 0.000000 -0.000687 0.000000
# 4 0.000000 0.000000 0.000000 0.063692 0.000000 0.017567
# 5 0.005405 0.003159 -0.000687 0.000000 0.037818 0.000000
# 6 0.000000 0.000000 0.000000 0.017567 0.000000 -0.181478
#
#
# Mechanical properties :
#
#
# Convention : Reuss Voigt Hill
#
# Bulk Modulus (GPa) = 41.46863 49.26657 45.36760
# Shear Modulus (GPa) = -123.52667 30.00955 -46.75856
#
# Velocity S-wave (km/s) = -7.23311 3.56512 -4.45016
# Velocity P-wave (km/s) = 7.22453 6.14923 2.68150
#
# Compressibility (1/GPa) = 0.02411461
#
# Stress axis : x y z
#
# Youngs Moduli (GPa) = 94.91573 91.51053 158.21608
#
# Poissons Ratio (x) = -0.03855 0.30029
# Poissons Ratio (y) = -0.03999 0.05663
# Poissons Ratio (z) = 0.18015 0.03276
#
# Static dielectric constant tensor:
#      x y z
#    x 2.081160 0.000000 -0.098640 
#    y 0.000000 1.963960 0.000000 
#    z -0.098640 0.000000 2.052180 
# 
# From -- ./inp_files/13675.got.cif
#   From: 2010.05.17/outbox.cif.g08.bks.cpg/sg15_7_cif.got.tgz:13675.got - 2010.06.03 18:47:42.
