data_PCOD9255141
_publ_section_title
;
Structure prediction by ZEFSAII (Michael W. Deem and Ramdas Pophale) SiO2 
 PCOD9255141
Probable space group: C 2/C
;
_chemical_formula_sum "Si O2"
_cell_formula_units_Z 40
_cell_length_a 11.541060
_cell_length_b 23.669467
_cell_length_c 8.449075
_cell_angle_alpha 90.000000
_cell_angle_beta 135.819884
_cell_angle_gamma 90.000000
_cell_volume 1608.510654
_symmetry_space_group_name_H-M "C 2/C"
_symmetry_group_IT_number 15
_symmetry_cell_setting 'monoclinic'
loop_
_space_group_symop_operation_xyz
x,y,z
-x,y,1/2-z
-x,-y,-z
x,-y,1/2+z
1/2+x,1/2+y,z
1/2-x,1/2+y,1/2-z
1/2-x,1/2-y,-z
1/2+x,1/2-y,1/2+z
loop_
_atom_site_type_symbol
_atom_site_label
_atom_site_fract_x
_atom_site_fract_y
_atom_site_fract_z
Si Si1 0.278996 0.740268 0.717164
Si Si2 0.017486 0.660222 0.075581
Si Si3 0.328555 0.061652 0.791561
Si Si4 0.982880 0.865449 0.420050
Si Si5 0.329190 0.455397 0.683935
O O1 0.250000 0.750000 0.500000
O O2 0.129350 0.701430 0.631436
O O3 0.319746 0.803789 0.812920
O O4 0.442239 0.700716 0.906241
O O5 0.000000 0.659780 0.250000
O O6 0.994619 0.595361 0.002699
O O7 0.190436 0.104567 0.716610
O O8 0.301721 0.058749 0.579803
O O9 0.263075 0.003689 0.804952
O O10 0.000000 0.871679 0.250000
O O11 0.108972 0.903334 0.646963
O O12 0.500000 0.473347 0.750000
#
# Coordination Sequence:
#
# PCOD9255141 Si02
#       5
#     8   8   8   8   8
#     4   9  17  31  53  82 110 140 180 222 268 325
#     4   9  18  33  54  80 107 141 180 222 269 325
#     4  10  19  32  51  75 106 142 180 225 268 315
#     4  10  17  28  51  79 106 138 178 225 265 313
#     4  10  19  32  50  78 108 141 183 224 267 316
#
# _framework density 24.867723999999999
#
# number of rings (size 3 to 8) (size 9 to 14) (size 15 to 20)
#    0.000    2.400    0.000    6.000    0.000    0.000 
#    0.000    2.000    0.000    4.800    0.000    0.000 
#    0.000    0.000    0.000    0.000    0.000    0.000 
#
# Total GULP energy -111529.518856 kJ/mol
# GULP energy per Si atom -5576.475943 kJ/mol
# Density = 2.481112 g / cm^3
# Si number density = 24.867724 Si / 1000 Ang^3
#
#
#
# Elastic Constant Matrix: (Units=GPa)
#
#
# Indices 1 2 3 4 5 6 
#
# 1 70.7190 56.6287 28.9135 0.0000 1.4128 0.0000
# 2 56.6287 195.8014 40.8657 0.0000 10.7947 0.0000
# 3 28.9135 40.8657 57.2089 0.0000 7.3744 0.0000
# 4 0.0000 0.0000 0.0000 61.6881 0.0000 17.1877
# 5 1.4128 10.7947 7.3744 0.0000 35.2613 0.0000
# 6 0.0000 0.0000 0.0000 17.1877 0.0000 32.1873
#
#
#
# Elastic Compliance Matrix: (Units=1/GPa)
#
#
# Indices 1 2 3 4 5 6 
#
# 1 0.020843 -0.004572 -0.007545 0.000000 0.002142 0.000000
# 2 -0.004572 0.007037 -0.002530 0.000000 -0.001442 0.000000
# 3 -0.007545 -0.002530 0.023598 0.000000 -0.003858 0.000000
# 4 0.000000 0.000000 0.000000 0.019044 0.000000 -0.010169
# 5 0.002142 -0.001442 -0.003858 0.000000 0.029522 0.000000
# 6 0.000000 0.000000 0.000000 -0.010169 0.000000 0.036498
#
#
# Mechanical properties :
#
#
# Convention : Reuss Voigt Hill
#
# Bulk Modulus (GPa) = 45.07641 64.06058 54.56849
# Shear Modulus (GPa) = 28.86333 38.98211 33.92272
#
# Velocity S-wave (km/s) = 3.41056 3.96356 3.69742
# Velocity P-wave (km/s) = 5.80302 6.83834 6.34184
#
# Compressibility (1/GPa) = 0.02218455
#
# Stress axis : x y z
#
# Youngs Moduli (GPa) = 47.97771 142.10630 42.37705
#
# Poissons Ratio (x) = 0.64965 0.31972
# Poissons Ratio (y) = 0.21933 0.10723
# Poissons Ratio (z) = 0.36197 0.35958
#
# Static dielectric constant tensor:
#      x y z
#    x 1.875530 0.000000 0.214600 
#    y 0.000000 2.619470 0.000000 
#    z 0.214600 0.000000 1.960670 
# 
# From -- ./inp_files/42431.got.cif
#   From: 2010.05.17/outbox.cif.g08.bks.cpg/sg15_22_cif.got.tgz:42431.got - 2010.06.03 18:47:42.
