data_PCOD9255363
_publ_section_title
;
Structure prediction by ZEFSAII (Michael W. Deem and Ramdas Pophale) SiO2 
 PCOD9255363
Probable space group: C 2/C
;
_chemical_formula_sum "Si O2"
_cell_formula_units_Z 56
_cell_length_a 22.614521
_cell_length_b 8.794022
_cell_length_c 18.494180
_cell_angle_alpha 90.000000
_cell_angle_beta 124.983633
_cell_angle_gamma 90.000000
_cell_volume 3013.431904
_symmetry_space_group_name_H-M "C 2/C"
_symmetry_group_IT_number 15
_symmetry_cell_setting 'monoclinic'
loop_
_space_group_symop_operation_xyz
x,y,z
-x,y,1/2-z
-x,-y,-z
x,-y,1/2+z
1/2+x,1/2+y,z
1/2-x,1/2+y,1/2-z
1/2-x,1/2-y,-z
1/2+x,1/2-y,1/2+z
loop_
_atom_site_type_symbol
_atom_site_label
_atom_site_fract_x
_atom_site_fract_y
_atom_site_fract_z
Si Si1 0.687992 0.271857 0.306738
Si Si2 0.609419 0.297235 0.480862
Si Si3 0.302299 0.001035 0.452067
Si Si4 0.754805 0.008462 0.935027
Si Si5 0.032502 0.915694 0.196772
Si Si6 0.925581 0.043303 0.410287
Si Si7 0.688282 0.275336 0.141959
O O1 0.735178 0.415427 0.366354
O O2 0.708182 0.131330 0.371582
O O3 0.603512 0.311467 0.254495
O O4 0.710746 0.235445 0.239634
O O5 0.641358 0.132218 0.489609
O O6 0.666397 0.428784 0.497191
O O7 0.532643 0.328719 0.390145
O O8 0.604604 0.318018 0.564635
O O9 0.275131 0.065269 0.509661
O O10 0.332330 0.126766 0.418247
O O11 0.758504 0.134712 0.874943
O O12 0.059009 0.052796 0.163594
O O13 0.000000 0.964256 0.250000
O O14 0.874167 0.898941 0.387578
O O15 0.000000 0.000000 0.500000
#
# Coordination Sequence:
#
# PCOD9255363 Si02
#       7
#     8   8   8   8   8   8   8
#     4  10  20  34  52  76 104 137 171 207 256 309
#     4   9  18  33  52  73 102 136 169 203 249 309
#     4  11  20  33  53  79 103 134 173 215 254 298
#     4  10  19  34  53  77 105 136 171 210 253 305
#     4  10  17  30  52  77  98 128 171 214 251 299
#     4   8  17  33  50  70  99 132 164 202 250 304
#     4  10  20  33  53  78 104 133 170 215 257 298
#
# _framework density 18.583462999999998
#
# number of rings (size 3 to 8) (size 9 to 14) (size 15 to 20)
#    0.000    2.286    0.000    4.714    0.000    1.143 
#    0.000    6.429    0.000    3.429    0.000   21.000 
#    0.000    0.000    0.000    0.000    0.000    0.000 
#
# Total GULP energy -155993.292848 kJ/mol
# GULP energy per Si atom -5571.189030 kJ/mol
# Density = 1.854117 g / cm^3
# Si number density = 18.583463 Si / 1000 Ang^3
#
#
#
# Elastic Constant Matrix: (Units=GPa)
#
#
# Indices 1 2 3 4 5 6 
#
# 1 71.8244 3.3707 38.8588 0.0000 -19.0935 0.0000
# 2 3.3707 29.8126 10.1236 0.0000 -14.8297 0.0000
# 3 38.8588 10.1236 91.5117 0.0000 -28.5434 0.0000
# 4 0.0000 0.0000 0.0000 18.6734 0.0000 -8.0362
# 5 -19.0935 -14.8297 -28.5434 0.0000 57.0277 0.0000
# 6 0.0000 0.0000 0.0000 -8.0362 0.0000 11.0726
#
#
#
# Elastic Compliance Matrix: (Units=1/GPa)
#
#
# Indices 1 2 3 4 5 6 
#
# 1 0.018502 0.001874 -0.007086 0.000000 0.003135 0.000000
# 2 0.001874 0.038857 -0.002070 0.000000 0.009696 0.000000
# 3 -0.007086 -0.002070 0.015710 0.000000 0.004952 0.000000
# 4 0.000000 0.000000 0.000000 0.077876 0.000000 0.056521
# 5 0.003135 0.009696 0.004952 0.000000 0.023585 0.000000
# 6 0.000000 0.000000 0.000000 0.056521 0.000000 0.131335
#
#
# Mechanical properties :
#
#
# Convention : Reuss Voigt Hill
#
# Bulk Modulus (GPa) = 17.09256 33.09499 25.09378
# Shear Modulus (GPa) = 14.70884 26.74110 20.72497
#
# Velocity S-wave (km/s) = 2.81642 3.79749 3.34314
# Velocity P-wave (km/s) = 4.44904 6.08896 5.33242
#
# Compressibility (1/GPa) = 0.05850500
#
# Stress axis : x y z
#
# Youngs Moduli (GPa) = 54.04805 25.73541 63.65281
#
# Poissons Ratio (x) = -0.04823 0.45104
# Poissons Ratio (y) = -0.10128 0.13177
# Poissons Ratio (z) = 0.38298 0.05327
#
# Static dielectric constant tensor:
#      x y z
#    x 1.676750 0.000000 -0.036950 
#    y 0.000000 1.620270 0.000000 
#    z -0.036950 0.000000 1.749180 
# 
# From -- ./inp_files/171950.got.cif
#   From: 2010.05.17/outbox.cif.g08.bks.cpg/sg15_86_cif.got.tgz:171950.got - 2010.06.03 18:47:42.
