data_PCOD9255592
_publ_section_title
;
Structure prediction by ZEFSAII (Michael W. Deem and Ramdas Pophale) SiO2 
 PCOD9255592
Probable space group: C 2/C
;
_chemical_formula_sum "Si O2"
_cell_formula_units_Z 48
_cell_length_a 14.397227
_cell_length_b 11.201604
_cell_length_c 24.324173
_cell_angle_alpha 90.000000
_cell_angle_beta 35.470449
_cell_angle_gamma 90.000000
_cell_volume 2276.339267
_symmetry_space_group_name_H-M "C 2/C"
_symmetry_group_IT_number 15
_symmetry_cell_setting 'monoclinic'
loop_
_space_group_symop_operation_xyz
x,y,z
-x,y,1/2-z
-x,-y,-z
x,-y,1/2+z
1/2+x,1/2+y,z
1/2-x,1/2+y,1/2-z
1/2-x,1/2-y,-z
1/2+x,1/2-y,1/2+z
loop_
_atom_site_type_symbol
_atom_site_label
_atom_site_fract_x
_atom_site_fract_y
_atom_site_fract_z
Si Si1 0.000000 0.128769 0.250000
Si Si2 0.912759 0.395499 0.097652
Si Si3 0.500000 0.944229 0.750000
Si Si4 0.634882 0.895712 0.091089
Si Si5 0.534906 0.380436 0.619496
Si Si6 0.198038 0.693954 0.246724
Si Si7 0.350108 0.839439 0.606348
O O1 0.967650 0.054569 0.320826
O O2 0.832728 0.198538 0.318323
O O3 0.771545 0.319764 0.192622
O O4 0.845639 0.516279 0.104496
O O5 0.033472 0.439775 0.087226
O O6 0.015977 0.314584 0.004749
O O7 0.403204 0.863164 0.753310
O O8 0.402219 0.032742 0.836529
O O9 0.580255 0.756651 0.115628
O O10 0.820946 0.912926 0.988827
O O11 0.359706 0.384111 0.678576
O O12 0.117613 0.699173 0.346237
#
# Coordination Sequence:
#
# PCOD9255592 Si02
#       7
#     4   8   4   8   8   8   8
#     4  10  17  31  58  86 106 140 204 256 288 344
#     4  10  20  40  62  86 120 165 203 249 300 376
#     4  12  23  39  60  88 130 168 190 252 310 376
#     4  10  19  36  59  83 117 155 201 245 308 344
#     4   9  19  35  57  89 112 149 203 256 291 356
#     4  10  23  39  58  92 124 155 205 249 312 361
#     4  10  20  38  64  85 117 161 206 250 307 363
#
# _framework density 21.086487999999999
#
# number of rings (size 3 to 8) (size 9 to 14) (size 15 to 20)
#    0.000    2.000    3.333    0.500    0.000    1.333 
#    0.000    4.167    0.000    0.000    0.000    0.000 
#    0.000    0.000    0.000    0.000    0.000    0.000 
#
# Total GULP energy -133752.157800 kJ/mol
# GULP energy per Si atom -5573.006575 kJ/mol
# Density = 2.103849 g / cm^3
# Si number density = 21.086488 Si / 1000 Ang^3
#
#
#
# Elastic Constant Matrix: (Units=GPa)
#
#
# Indices 1 2 3 4 5 6 
#
# 1 126.0133 0.3241 16.8873 0.0000 17.8730 0.0000
# 2 0.3241 19.9919 3.1080 0.0000 5.3098 0.0000
# 3 16.8873 3.1080 81.7877 -0.0001 22.7808 0.0000
# 4 0.0000 0.0000 -0.0001 20.9566 0.0000 7.5801
# 5 17.8730 5.3098 22.7808 0.0000 27.1013 0.0000
# 6 0.0000 0.0000 0.0000 7.5801 0.0000 14.3905
#
#
#
# Elastic Compliance Matrix: (Units=1/GPa)
#
#
# Indices 1 2 3 4 5 6 
#
# 1 0.008799 0.001459 -0.000230 0.000000 -0.005895 0.000000
# 2 0.001459 0.053090 0.001105 0.000000 -0.012293 0.000000
# 3 -0.000230 0.001105 0.015995 0.000000 -0.013510 0.000000
# 4 0.000000 0.000000 0.000000 0.058949 0.000000 -0.031051
# 5 -0.005895 -0.012293 -0.013510 0.000000 0.054551 0.000000
# 6 0.000000 0.000000 0.000000 -0.031051 0.000000 0.085847
#
#
# Mechanical properties :
#
#
# Convention : Reuss Voigt Hill
#
# Bulk Modulus (GPa) = 12.11358 29.82575 20.96966
# Shear Modulus (GPa) = 16.66220 26.32124 21.49172
#
# Velocity S-wave (km/s) = 2.81407 3.53689 3.19598
# Velocity P-wave (km/s) = 4.03929 5.55470 4.85647
#
# Compressibility (1/GPa) = 0.08255201
#
# Stress axis : x y z
#
# Youngs Moduli (GPa) = 113.65062 18.83599 62.51820
#
# Poissons Ratio (x) = -0.02748 0.01439
# Poissons Ratio (y) = -0.16580 -0.06910
# Poissons Ratio (z) = 0.02616 -0.02082
#
# Static dielectric constant tensor:
#      x y z
#    x 1.801980 0.000000 0.045100 
#    y 0.000000 1.785860 0.000000 
#    z 0.045100 0.000000 1.822110 
# 
# From -- ./inp_files/238997.got.cif
#   From: 2010.05.17/outbox.cif.g08.bks.cpg/sg15_120_cif.got.tgz:238997.got - 2010.06.03 18:47:42.
