data_PCOD9255494
_publ_section_title
;
Structure prediction by ZEFSAII (Michael W. Deem and Ramdas Pophale) SiO2 
 PCOD9255494
Probable space group: C 2/C
;
_chemical_formula_sum "Si O2"
_cell_formula_units_Z 44
_cell_length_a 20.774592
_cell_length_b 6.925362
_cell_length_c 13.760233
_cell_angle_alpha 90.000000
_cell_angle_beta 58.103986
_cell_angle_gamma 90.000000
_cell_volume 1680.787396
_symmetry_space_group_name_H-M "C 2/C"
_symmetry_group_IT_number 15
_symmetry_cell_setting 'monoclinic'
loop_
_space_group_symop_operation_xyz
x,y,z
-x,y,1/2-z
-x,-y,-z
x,-y,1/2+z
1/2+x,1/2+y,z
1/2-x,1/2+y,1/2-z
1/2-x,1/2-y,-z
1/2+x,1/2-y,1/2+z
loop_
_atom_site_type_symbol
_atom_site_label
_atom_site_fract_x
_atom_site_fract_y
_atom_site_fract_z
Si Si1 0.598545 0.441387 0.621245
Si Si2 0.000000 0.304579 0.750000
Si Si3 0.229250 0.847181 0.913396
Si Si4 0.875513 0.559092 0.819361
Si Si5 0.983169 0.784809 0.980206
Si Si6 0.623319 0.966525 0.447862
O O1 0.565804 0.648856 0.675852
O O2 0.664550 0.497218 0.492475
O O3 0.628901 0.291577 0.677353
O O4 0.530481 0.327282 0.622818
O O5 0.047243 0.456754 0.777501
O O6 0.195913 0.672756 0.875106
O O7 0.304527 0.960881 0.823595
O O8 0.250000 0.750000 0.000000
O O9 0.873931 0.505919 0.936958
O O10 0.053270 0.666464 0.967946
O O11 0.904624 0.674471 0.069243
O O12 0.000000 0.000000 0.000000
#
# Coordination Sequence:
#
# PCOD9255494 Si02
#       6
#     8   4   8   8   8   8
#     4  11  21  33  56  81 106 143 182 223 278 329
#     4  12  20  36  48  78 112 144 180 214 278 328
#     4  10  17  35  52  80 109 133 176 235 272 313
#     4  10  21  34  54  80 110 140 181 227 281 329
#     4  10  17  31  51  82 106 135 179 221 273 318
#     4   9  18  31  52  81 106 135 173 232 269 314
#
# _framework density 26.178208000000001
#
# number of rings (size 3 to 8) (size 9 to 14) (size 15 to 20)
#    0.000    1.818    5.455    1.091    0.000    0.000 
#    0.000    0.000    0.000    0.000   23.636    0.000 
#    0.000    0.000    0.000    0.000    0.000    0.000 
#
# Total GULP energy -122559.350891 kJ/mol
# GULP energy per Si atom -5570.879586 kJ/mol
# Density = 2.611863 g / cm^3
# Si number density = 26.178208 Si / 1000 Ang^3
#
#
#
# Elastic Constant Matrix: (Units=GPa)
#
#
# Indices 1 2 3 4 5 6 
#
# 1 130.1311 64.9890 32.8191 0.0000 -21.0684 0.0000
# 2 64.9890 223.9780 30.8984 0.0000 -32.3755 0.0001
# 3 32.8191 30.8984 42.5809 0.0000 -6.2062 0.0000
# 4 0.0000 0.0000 0.0000 25.2294 0.0000 -10.2408
# 5 -21.0684 -32.3755 -6.2062 0.0000 50.9264 0.0000
# 6 0.0000 0.0001 0.0000 -10.2408 0.0000 71.0803
#
#
#
# Elastic Compliance Matrix: (Units=1/GPa)
#
#
# Indices 1 2 3 4 5 6 
#
# 1 0.010639 -0.001836 -0.006512 0.000000 0.002441 0.000000
# 2 -0.001836 0.005692 -0.002340 0.000000 0.002574 0.000000
# 3 -0.006512 -0.002340 0.030128 0.000000 -0.000510 0.000000
# 4 0.000000 0.000000 0.000000 0.042098 0.000000 0.006065
# 5 0.002441 0.002574 -0.000510 0.000000 0.022220 0.000000
# 6 0.000000 0.000000 0.000000 0.006065 0.000000 0.014942
#
#
# Mechanical properties :
#
#
# Convention : Reuss Voigt Hill
#
# Bulk Modulus (GPa) = 39.86861 72.67813 56.27337
# Shear Modulus (GPa) = 32.16321 47.31279 39.73800
#
# Velocity S-wave (km/s) = 3.50898 4.25589 3.90035
# Velocity P-wave (km/s) = 5.62850 7.20925 6.46735
#
# Compressibility (1/GPa) = 0.02508239
#
# Stress axis : x y z
#
# Youngs Moduli (GPa) = 93.99505 175.67417 33.19199
#
# Poissons Ratio (x) = 0.32250 0.21615
# Poissons Ratio (y) = 0.17256 0.07768
# Poissons Ratio (z) = 0.61210 0.41116
#
# Static dielectric constant tensor:
#      x y z
#    x 2.108550 0.000000 0.027720 
#    y 0.000000 2.065010 0.000000 
#    z 0.027720 0.000000 2.261700 
# 
# From -- ./inp_files/250759.got.cif
#   From: 2010.05.17/outbox.cif.g08.bks.cpg/sg15_126_cif.got.tgz:250759.got - 2010.06.03 18:47:42.
