data_PCOD9255373
_publ_section_title
;
Structure prediction by ZEFSAII (Michael W. Deem and Ramdas Pophale) SiO2 
 PCOD9255373
Probable space group: C 2/C
;
_chemical_formula_sum "Si O2"
_cell_formula_units_Z 40
_cell_length_a 11.847195
_cell_length_b 20.578903
_cell_length_c 18.946899
_cell_angle_alpha 90.000000
_cell_angle_beta 30.304791
_cell_angle_gamma 90.000000
_cell_volume 2330.896483
_symmetry_space_group_name_H-M "C 2/C"
_symmetry_group_IT_number 15
_symmetry_cell_setting 'monoclinic'
loop_
_space_group_symop_operation_xyz
x,y,z
-x,y,1/2-z
-x,-y,-z
x,-y,1/2+z
1/2+x,1/2+y,z
1/2-x,1/2+y,1/2-z
1/2-x,1/2-y,-z
1/2+x,1/2-y,1/2+z
loop_
_atom_site_type_symbol
_atom_site_label
_atom_site_fract_x
_atom_site_fract_y
_atom_site_fract_z
Si Si1 0.766686 0.378121 0.115307
Si Si2 0.611716 0.256490 0.001831
Si Si3 0.692166 0.942883 0.548241
Si Si4 0.000000 0.660986 0.250000
Si Si5 0.168352 0.880425 0.324876
Si Si6 0.000000 0.553751 0.750000
O O1 0.500000 0.360830 0.250000
O O2 0.794300 0.391628 0.182729
O O3 0.912683 0.315641 0.014503
O O4 0.809445 0.435258 0.035489
O O5 0.407354 0.305169 0.126171
O O6 0.750000 0.250000 0.000000
O O7 0.782753 0.294817 0.858475
O O8 0.536432 0.885873 0.664023
O O9 0.939720 0.922265 0.441035
O O10 0.611106 0.007839 0.629960
O O11 0.313465 0.903872 0.311819
#
# Coordination Sequence:
#
# PCOD9255373 Si02
#       6
#     8   8   8   4   8   4
#     4  10  17  30  52  85 102 124 172 221 264 294
#     4  11  15  28  53  83 105 119 167 228 263 299
#     4   9  19  32  53  74 102 133 178 214 251 297
#     4   9  14  24  44  80 102 118 151 212 270 289
#     4  10  21  33  54  79 104 141 171 214 264 306
#     4  11  22  38  48  72 114 146 177 200 252 325
#
# _framework density 17.160779999999999
#
# number of rings (size 3 to 8) (size 9 to 14) (size 15 to 20)
#    0.000    2.000    7.000    0.600    0.000    0.800 
#    0.000    1.000    0.000    0.000    0.000    0.000 
#    0.000    0.000    0.000    0.000    0.000    0.000 
#
# Total GULP energy -111389.003711 kJ/mol
# GULP energy per Si atom -5569.450186 kJ/mol
# Density = 1.712172 g / cm^3
# Si number density = 17.160780 Si / 1000 Ang^3
#
#
#
# Elastic Constant Matrix: (Units=GPa)
#
#
# Indices 1 2 3 4 5 6 
#
# 1 79.1477 47.1821 39.7253 -0.0042 10.9803 0.0645
# 2 47.1821 73.6073 28.7890 -0.0987 5.8177 -0.0066
# 3 39.7253 28.7890 70.7518 -0.1103 21.4320 0.0750
# 4 -0.0042 -0.0987 -0.1103 21.7452 0.0139 4.8854
# 5 10.9803 5.8177 21.4320 0.0139 18.3396 0.0005
# 6 0.0645 -0.0066 0.0750 4.8854 0.0005 -22.3594
#
#
#
# Elastic Compliance Matrix: (Units=1/GPa)
#
#
# Indices 1 2 3 4 5 6 
#
# 1 0.024222 -0.012178 -0.008394 -0.000098 -0.000830 0.000024
# 2 -0.012178 0.022467 -0.003644 0.000086 0.004422 -0.000035
# 3 -0.008394 -0.003644 0.028571 0.000122 -0.027207 0.000099
# 4 -0.000098 0.000086 0.000122 0.043837 -0.000145 0.009578
# 5 -0.000830 0.004422 -0.027207 -0.000145 0.085416 -0.000125
# 6 0.000024 -0.000035 0.000099 0.009578 -0.000125 -0.042631
#
#
# Mechanical properties :
#
#
# Convention : Reuss Voigt Hill
#
# Bulk Modulus (GPa) = 37.27183 50.54442 43.90813
# Shear Modulus (GPa) = 22.80436 10.73245 16.76840
#
# Velocity S-wave (km/s) = 3.64931 2.50352 3.12931
# Velocity P-wave (km/s) = 6.28673 6.15420 6.22082
#
# Compressibility (1/GPa) = 0.02682991
#
# Stress axis : x y z
#
# Youngs Moduli (GPa) = 41.28428 44.50888 35.00057
#
# Poissons Ratio (x) = 0.54203 0.29378
# Poissons Ratio (y) = 0.50276 0.12753
# Poissons Ratio (z) = 0.34652 0.16218
#
# Static dielectric constant tensor:
#      x y z
#    x 1.556320 0.000010 0.038930 
#    y 0.000010 1.605310 0.000060 
#    z 0.038930 0.000060 1.640140 
# 
# From -- ./inp_files/31340.got.cif
#   From: 2010.05.17/outbox.cif.g08.bks.cpg/sg15_16_cif.got.tgz:31340.got - 2010.06.03 18:47:42.
