data_PCOD9255917
_publ_section_title
;
Structure prediction by ZEFSAII (Michael W. Deem and Ramdas Pophale) SiO2 
 PCOD9255917
Probable space group: C 2/C
;
_chemical_formula_sum "Si O2"
_cell_formula_units_Z 48
_cell_length_a 29.767202
_cell_length_b 12.537503
_cell_length_c 12.898029
_cell_angle_alpha 90.000000
_cell_angle_beta 152.364087
_cell_angle_gamma 90.000000
_cell_volume 2232.807595
_symmetry_space_group_name_H-M "C 2/C"
_symmetry_group_IT_number 15
_symmetry_cell_setting 'monoclinic'
loop_
_space_group_symop_operation_xyz
x,y,z
-x,y,1/2-z
-x,-y,-z
x,-y,1/2+z
1/2+x,1/2+y,z
1/2-x,1/2+y,1/2-z
1/2-x,1/2-y,-z
1/2+x,1/2-y,1/2+z
loop_
_atom_site_type_symbol
_atom_site_label
_atom_site_fract_x
_atom_site_fract_y
_atom_site_fract_z
Si Si1 0.094975 0.209446 0.171971
Si Si2 0.403747 0.883235 0.498109
Si Si3 0.223094 0.623495 0.063905
Si Si4 0.235018 0.241435 0.145911
Si Si5 0.889667 0.534387 0.291904
Si Si6 0.614238 0.710870 0.702669
O O1 0.155640 0.283100 0.375667
O O2 0.172726 0.129973 0.280206
O O3 0.064711 0.288886 0.016628
O O4 0.994987 0.168023 0.015846
O O5 0.500000 0.925469 0.750000
O O6 0.332399 0.824472 0.430487
O O7 0.357329 0.972933 0.330124
O O8 0.232678 0.655200 0.202767
O O9 0.172147 0.514183 0.928242
O O10 0.322697 0.306018 0.271174
O O11 0.175236 0.184997 0.930726
O O12 0.889470 0.659901 0.301946
O O13 0.000000 0.500000 0.500000
#
# Coordination Sequence:
#
# PCOD9255917 Si02
#       6
#     8   8   8   8   8   8
#     4   9  17  34  55  80 117 157 195 240 289 374
#     4  10  17  33  57  82 114 156 194 237 310 360
#     4   9  19  34  55  83 117 158 195 232 312 373
#     4  10  22  35  53  83 118 164 206 245 295 379
#     4  11  20  35  58  91 124 144 189 266 315 340
#     4  11  21  36  55  86 121 154 204 258 298 342
#
# _framework density 21.497598
#
# number of rings (size 3 to 8) (size 9 to 14) (size 15 to 20)
#    0.000    2.000    5.000    1.000    0.000    3.333 
#    0.000    0.000    0.000    4.000    4.333    4.667 
#    0.000    0.000    0.000    0.000    0.000    0.000 
#
# Total GULP energy -134076.678846 kJ/mol
# GULP energy per Si atom -5586.528285 kJ/mol
# Density = 2.144867 g / cm^3
# Si number density = 21.497598 Si / 1000 Ang^3
#
#
#
# Elastic Constant Matrix: (Units=GPa)
#
#
# Indices 1 2 3 4 5 6 
#
# 1 142.3100 13.0602 49.8721 0.0000 19.9914 0.0000
# 2 13.0602 33.8793 9.8060 0.0000 -8.6265 0.0000
# 3 49.8721 9.8060 98.7894 0.0000 12.9974 0.0000
# 4 0.0000 0.0000 0.0000 19.8226 0.0000 -1.0124
# 5 19.9914 -8.6265 12.9974 0.0000 45.2860 0.0000
# 6 0.0000 0.0000 0.0000 -1.0124 0.0000 25.8659
#
#
#
# Elastic Compliance Matrix: (Units=1/GPa)
#
#
# Indices 1 2 3 4 5 6 
#
# 1 0.009181 -0.003345 -0.003830 0.000000 -0.003591 0.000000
# 2 -0.003345 0.033846 -0.002820 0.000000 0.008733 0.000000
# 3 -0.003830 -0.002820 0.012662 0.000000 -0.002481 0.000000
# 4 0.000000 0.000000 0.000000 0.050548 0.000000 0.001978
# 5 -0.003591 0.008733 -0.002481 0.000000 0.026042 0.000000
# 6 0.000000 0.000000 0.000000 0.001978 0.000000 0.038738
#
#
# Mechanical properties :
#
#
# Convention : Reuss Voigt Hill
#
# Bulk Modulus (GPa) = 28.01211 46.71724 37.36467
# Shear Modulus (GPa) = 24.64177 31.67760 28.15969
#
# Velocity S-wave (km/s) = 3.38931 3.84284 3.62318
# Velocity P-wave (km/s) = 5.32684 6.43960 5.90947
#
# Compressibility (1/GPa) = 0.03569884
#
# Stress axis : x y z
#
# Youngs Moduli (GPa) = 108.92599 29.54579 78.97361
#
# Poissons Ratio (x) = 0.09882 0.30249
# Poissons Ratio (y) = 0.36432 0.22271
# Poissons Ratio (z) = 0.41721 0.08332
#
# Static dielectric constant tensor:
#      x y z
#    x 1.847800 0.000000 0.015990 
#    y 0.000000 1.785920 0.000000 
#    z 0.015990 0.000000 1.799420 
# 
# From -- ./inp_files/123820.got.cif
#   From: 2010.05.17/outbox.cif.g08.bks.cpg/sg15_62_cif.got.tgz:123820.got - 2010.06.03 18:47:42.
