data_PCOD9255632
_publ_section_title
;
Structure prediction by ZEFSAII (Michael W. Deem and Ramdas Pophale) SiO2 
 PCOD9255632
Probable space group: C 2/C
;
_chemical_formula_sum "Si O2"
_cell_formula_units_Z 56
_cell_length_a 27.352855
_cell_length_b 12.625207
_cell_length_c 13.985227
_cell_angle_alpha 90.000000
_cell_angle_beta 133.831566
_cell_angle_gamma 90.000000
_cell_volume 3483.967244
_symmetry_space_group_name_H-M "C 2/C"
_symmetry_group_IT_number 15
_symmetry_cell_setting 'monoclinic'
loop_
_space_group_symop_operation_xyz
x,y,z
-x,y,1/2-z
-x,-y,-z
x,-y,1/2+z
1/2+x,1/2+y,z
1/2-x,1/2+y,1/2-z
1/2-x,1/2-y,-z
1/2+x,1/2-y,1/2+z
loop_
_atom_site_type_symbol
_atom_site_label
_atom_site_fract_x
_atom_site_fract_y
_atom_site_fract_z
Si Si1 0.682913 0.102773 0.109432
Si Si2 0.640109 0.519697 0.421069
Si Si3 0.661973 0.645149 0.114686
Si Si4 0.349512 0.333346 0.390689
Si Si5 0.223047 0.369913 0.452582
Si Si6 0.687923 0.876055 0.191371
Si Si7 0.922720 0.997466 0.363459
O O1 0.760730 0.120401 0.249375
O O2 0.644840 0.207037 0.096090
O O3 0.662167 0.987885 0.118308
O O4 0.683735 0.103989 0.995758
O O5 0.647570 0.415002 0.496039
O O6 0.623823 0.612330 0.475367
O O7 0.712459 0.552628 0.473042
O O8 0.588265 0.508009 0.264370
O O9 0.654483 0.771264 0.102495
O O10 0.615607 0.592224 0.133043
O O11 0.269222 0.364307 0.280304
O O12 0.386830 0.390822 0.354333
O O13 0.250000 0.250000 0.500000
O O14 0.182424 0.374054 0.298744
O O15 0.000000 0.000000 0.500000
#
# Coordination Sequence:
#
# PCOD9255632 Si02
#       7
#     8   8   8   8   8   8   8
#     4  11  17  31  49  75 107 130 167 203 249 308
#     4  10  17  32  49  73 100 131 168 209 251 297
#     4  10  19  31  48  75 104 133 166 205 249 305
#     4   9  19  31  49  75 102 132 165 208 244 299
#     4  11  15  26  51  71 100 139 160 198 256 307
#     4  10  18  31  49  75 107 137 157 206 256 305
#     4  11  21  35  53  72 100 134 173 214 252 295
#
# _framework density 16.073629
#
# number of rings (size 3 to 8) (size 9 to 14) (size 15 to 20)
#    0.000    1.714   10.000    0.000    0.000    2.286 
#    2.571    2.143    0.000    0.857    0.000    2.000 
#    0.000    0.000    0.000    0.000    0.000    0.000 
#
# Total GULP energy -156066.601461 kJ/mol
# GULP energy per Si atom -5573.807195 kJ/mol
# Density = 1.603704 g / cm^3
# Si number density = 16.073629 Si / 1000 Ang^3
#
#
#
# Elastic Constant Matrix: (Units=GPa)
#
#
# Indices 1 2 3 4 5 6 
#
# 1 25.0919 32.5510 30.5936 0.0000 -15.2661 0.0000
# 2 32.5510 170.0879 46.1205 0.0000 -20.5224 0.0000
# 3 30.5936 46.1205 82.7209 0.0000 -15.6216 0.0000
# 4 0.0000 0.0000 0.0000 11.3139 0.0000 -6.3994
# 5 -15.2661 -20.5224 -15.6216 0.0000 20.3354 0.0000
# 6 0.0000 0.0000 0.0000 -6.3994 0.0000 14.6670
#
#
#
# Elastic Compliance Matrix: (Units=1/GPa)
#
#
# Indices 1 2 3 4 5 6 
#
# 1 0.125027 -0.008296 -0.029793 0.000000 0.062601 0.000000
# 2 -0.008296 0.007885 -0.001171 0.000000 0.000830 0.000000
# 3 -0.029793 -0.001171 0.022591 0.000000 -0.006194 0.000000
# 4 0.000000 0.000000 0.000000 0.117347 0.000000 0.051201
# 5 0.062601 0.000830 -0.006194 0.000000 0.092250 0.000000
# 6 0.000000 0.000000 0.000000 0.051201 0.000000 0.090520
#
#
# Mechanical properties :
#
#
# Convention : Reuss Voigt Hill
#
# Bulk Modulus (GPa) = 12.98987 55.15897 34.07442
# Shear Modulus (GPa) = 8.93174 20.50563 14.71869
#
# Velocity S-wave (km/s) = 2.35984 3.57561 3.02934
# Velocity P-wave (km/s) = 3.94007 7.17200 5.78627
#
# Compressibility (1/GPa) = 0.07698304
#
# Stress axis : x y z
#
# Youngs Moduli (GPa) = 7.99825 126.82935 44.26562
#
# Poissons Ratio (x) = 1.05212 1.31881
# Poissons Ratio (y) = 0.06635 0.05185
# Poissons Ratio (z) = 0.23829 0.14855
#
# Static dielectric constant tensor:
#      x y z
#    x 1.545410 0.000000 -0.014820 
#    y 0.000000 1.556370 0.000000 
#    z -0.014820 0.000000 1.531790 
# 
# From -- ./inp_files/181590.got.cif
#   From: 2010.05.17/outbox.cif.g08.bks.cpg/sg15_91_cif.got.tgz:181590.got - 2010.06.03 18:47:42.
