data_PCOD9255402
_publ_section_title
;
Structure prediction by ZEFSAII (Michael W. Deem and Ramdas Pophale) SiO2 
 PCOD9255402
Probable space group: C 2/C
;
_chemical_formula_sum "Si O2"
_cell_formula_units_Z 48
_cell_length_a 20.726560
_cell_length_b 8.465960
_cell_length_c 14.926080
_cell_angle_alpha 90.000000
_cell_angle_beta 83.001023
_cell_angle_gamma 90.000000
_cell_volume 2599.566113
_symmetry_space_group_name_H-M "C 2/C"
_symmetry_group_IT_number 15
_symmetry_cell_setting 'monoclinic'
loop_
_space_group_symop_operation_xyz
x,y,z
-x,y,1/2-z
-x,-y,-z
x,-y,1/2+z
1/2+x,1/2+y,z
1/2-x,1/2+y,1/2-z
1/2-x,1/2-y,-z
1/2+x,1/2-y,1/2+z
loop_
_atom_site_type_symbol
_atom_site_label
_atom_site_fract_x
_atom_site_fract_y
_atom_site_fract_z
Si Si1 0.167437 0.005710 0.604625
Si Si2 0.575038 0.676059 0.762062
Si Si3 0.226211 0.687901 0.601482
Si Si4 0.829180 0.554398 0.276997
Si Si5 0.856170 0.989794 0.093165
Si Si6 0.220500 0.704191 0.853897
O O1 0.117033 0.089623 0.677963
O O2 0.233280 0.111675 0.582468
O O3 0.191930 0.843475 0.644916
O O4 0.135136 0.969639 0.514545
O O5 0.500000 0.678035 0.750000
O O6 0.605536 0.852384 0.758081
O O7 0.589104 0.578634 0.851071
O O8 0.250000 0.750000 0.500000
O O9 0.175617 0.545016 0.628624
O O10 0.292622 0.615587 0.629042
O O11 0.809973 0.428824 0.204364
O O12 0.773638 0.686726 0.295518
O O13 0.834829 0.172456 0.107623
#
# Coordination Sequence:
#
# PCOD9255402 Si02
#       6
#     8   8   8   8   8   8
#     4  10  19  34  58  84 111 139 173 224 281 332
#     4  11  24  39  52  71 108 157 197 225 256 308
#     4   9  17  31  56  87 110 128 161 220 288 336
#     4  10  18  32  54  80 112 143 176 220 274 329
#     4  10  20  34  57  86 112 137 175 227 280 334
#     4  10  17  30  54  85 109 132 168 223 289 337
#
# _framework density 18.464621000000001
#
# number of rings (size 3 to 8) (size 9 to 14) (size 15 to 20)
#    0.000    2.000    0.000    7.500    0.000    2.000 
#    0.000    3.333    0.000    5.000    0.000    0.000 
#    0.000    0.000    0.000    0.000    0.000    0.000 
#
# Total GULP energy -133630.596621 kJ/mol
# GULP energy per Si atom -5567.941526 kJ/mol
# Density = 1.842259 g / cm^3
# Si number density = 18.464621 Si / 1000 Ang^3
#
#
#
# Elastic Constant Matrix: (Units=GPa)
#
#
# Indices 1 2 3 4 5 6 
#
# 1 106.2783 57.1976 28.8324 0.0000 17.1414 0.0000
# 2 57.1976 122.5565 29.7112 0.0000 6.1759 0.0000
# 3 28.8324 29.7112 70.6157 0.0000 18.9842 0.0000
# 4 0.0000 0.0000 0.0000 30.5677 0.0000 1.1671
# 5 17.1414 6.1759 18.9842 0.0000 21.3558 0.0000
# 6 0.0000 0.0000 0.0000 1.1671 0.0000 17.1782
#
#
#
# Elastic Compliance Matrix: (Units=1/GPa)
#
#
# Indices 1 2 3 4 5 6 
#
# 1 0.014342 -0.006020 -0.000915 0.000000 -0.008958 0.000000
# 2 -0.006020 0.011630 -0.003719 0.000000 0.004775 0.000000
# 3 -0.000915 -0.003719 0.020516 0.000000 -0.016428 0.000000
# 4 0.000000 0.000000 0.000000 0.032799 0.000000 -0.002228
# 5 -0.008958 0.004775 -0.016428 0.000000 0.067238 0.000000
# 6 0.000000 0.000000 0.000000 -0.002228 0.000000 0.058365
#
#
# Mechanical properties :
#
#
# Convention : Reuss Voigt Hill
#
# Bulk Modulus (GPa) = 39.71378 58.99254 49.35316
# Shear Modulus (GPa) = 21.31362 26.06765 23.69064
#
# Velocity S-wave (km/s) = 3.40118 3.76142 3.58582
# Velocity P-wave (km/s) = 6.08102 7.13321 6.62802
#
# Compressibility (1/GPa) = 0.02518017
#
# Stress axis : x y z
#
# Youngs Moduli (GPa) = 69.72370 85.98292 48.74314
#
# Poissons Ratio (x) = 0.51766 0.04459
# Poissons Ratio (y) = 0.41977 0.18127
# Poissons Ratio (z) = 0.06378 0.31976
#
# Static dielectric constant tensor:
#      x y z
#    x 1.615420 0.000000 0.031990 
#    y 0.000000 1.687380 0.000000 
#    z 0.031990 0.000000 1.719650 
# 
# From -- ./inp_files/166106.got.cif
#   From: 2010.05.17/outbox.cif.g08.bks.cpg/sg15_84_cif.got.tgz:166106.got - 2010.06.03 18:47:42.
