data_PCOD9255874
_publ_section_title
;
Structure prediction by ZEFSAII (Michael W. Deem and Ramdas Pophale) SiO2 
 PCOD9255874
Probable space group: C 2/C
;
_chemical_formula_sum "Si O2"
_cell_formula_units_Z 60
_cell_length_a 8.877276
_cell_length_b 18.585303
_cell_length_c 27.129127
_cell_angle_alpha 90.000000
_cell_angle_beta 140.057042
_cell_angle_gamma 90.000000
_cell_volume 2873.669926
_symmetry_space_group_name_H-M "C 2/C"
_symmetry_group_IT_number 15
_symmetry_cell_setting 'monoclinic'
loop_
_space_group_symop_operation_xyz
x,y,z
-x,y,1/2-z
-x,-y,-z
x,-y,1/2+z
1/2+x,1/2+y,z
1/2-x,1/2+y,1/2-z
1/2-x,1/2-y,-z
1/2+x,1/2-y,1/2+z
loop_
_atom_site_type_symbol
_atom_site_label
_atom_site_fract_x
_atom_site_fract_y
_atom_site_fract_z
Si Si1 0.246556 0.202654 0.338466
Si Si2 0.974174 0.167596 0.844158
Si Si3 0.950218 0.174442 0.349377
Si Si4 0.951675 0.428412 0.292024
Si Si5 0.335385 0.923776 0.791363
Si Si6 0.127091 0.091727 0.080060
Si Si7 0.517618 0.574329 0.563679
Si Si8 0.000000 0.773448 0.250000
O O1 0.432772 0.259656 0.364934
O O2 0.304969 0.123153 0.332956
O O3 0.000000 0.221447 0.250000
O O4 0.177964 0.203663 0.378355
O O5 0.724169 0.135396 0.763491
O O6 0.068607 0.109449 0.907071
O O7 0.090596 0.183741 0.820886
O O8 0.859322 0.104733 0.295508
O O9 0.991900 0.150744 0.415580
O O10 0.723959 0.226488 0.289361
O O11 0.836148 0.490207 0.296198
O O12 0.000000 0.462494 0.250000
O O13 0.206827 0.404989 0.373885
O O14 0.597353 0.906744 0.837934
O O15 0.022181 0.012545 0.065268
O O16 0.109887 0.100936 0.017199
#
# Coordination Sequence:
#
# PCOD9255874 Si02
#       8
#     8   8   8   8   8   8   8   4
#     4  10  19  32  55  76 111 138 176 227 283 314
#     4  11  20  37  54  82 108 146 180 229 274 327
#     4  11  19  33  56  81 106 143 181 232 267 327
#     4   9  18  31  56  78 106 139 182 221 269 325
#     4  10  17  33  54  81 103 145 182 226 261 323
#     4  10  18  36  57  81 109 143 192 219 265 329
#     4   9  20  33  59  79 109 150 178 225 272 329
#     4  12  22  32  58  82 110 140 184 232 280 314
#
# _framework density 20.879224000000001
#
# number of rings (size 3 to 8) (size 9 to 14) (size 15 to 20)
#    0.000    1.867    4.000    3.600    0.000    0.000 
#    6.000    3.333    2.933    2.400    0.000    0.000 
#    0.000    0.000    0.000    0.000    0.000    0.000 
#
# Total GULP energy -167276.939522 kJ/mol
# GULP energy per Si atom -5575.897984 kJ/mol
# Density = 2.083170 g / cm^3
# Si number density = 20.879224 Si / 1000 Ang^3
#
#
#
# Elastic Constant Matrix: (Units=GPa)
#
#
# Indices 1 2 3 4 5 6 
#
# 1 76.4634 31.3356 4.0691 -0.0004 -28.0153 -0.0001
# 2 31.3356 66.6161 10.4046 -0.0002 -17.3584 -0.0001
# 3 4.0691 10.4046 44.8827 -0.0006 -16.9077 -0.0002
# 4 -0.0004 -0.0002 -0.0006 18.2892 -0.0004 -10.9656
# 5 -28.0153 -17.3584 -16.9077 -0.0004 26.1795 -0.0001
# 6 -0.0001 -0.0001 -0.0002 -10.9656 -0.0001 25.6070
#
#
#
# Elastic Compliance Matrix: (Units=1/GPa)
#
#
# Indices 1 2 3 4 5 6 
#
# 1 0.026393 -0.005954 0.010757 0.000002 0.031243 0.000001
# 2 -0.005954 0.019496 -0.001996 0.000000 0.005267 0.000000
# 3 0.010757 -0.001996 0.033838 0.000003 0.032042 0.000002
# 4 0.000002 0.000000 0.000003 0.073565 0.000006 0.031503
# 5 0.031243 0.005267 0.032042 0.000006 0.095817 0.000003
# 6 0.000001 0.000000 0.000002 0.031503 0.000003 0.052542
#
#
# Mechanical properties :
#
#
# Convention : Reuss Voigt Hill
#
# Bulk Modulus (GPa) = 11.71766 31.06454 21.39110
# Shear Modulus (GPa) = 15.40907 23.49199 19.45053
#
# Velocity S-wave (km/s) = 2.71958 3.35795 3.05548
# Velocity P-wave (km/s) = 3.93520 5.47219 4.76606
#
# Compressibility (1/GPa) = 0.08534125
#
# Stress axis : x y z
#
# Youngs Moduli (GPa) = 37.88922 51.29223 29.55246
#
# Poissons Ratio (x) = 0.30539 -0.31789
# Poissons Ratio (y) = 0.22559 0.05898
# Poissons Ratio (z) = -0.40757 0.10237
#
# Static dielectric constant tensor:
#      x y z
#    x 1.801930 0.000000 -0.023920 
#    y 0.000000 1.802500 0.000000 
#    z -0.023920 0.000000 1.759710 
# 
# From -- ./inp_files/290001.got.cif
#   From: 2010.05.17/outbox.cif.g08.bks.cpg/sg15_146_cif.got.tgz:290001.got - 2010.06.03 18:47:42.
