data_PCOD9255623
_publ_section_title
;
Structure prediction by ZEFSAII (Michael W. Deem and Ramdas Pophale) SiO2 
 PCOD9255623
Probable space group: C 2/C
;
_chemical_formula_sum "Si O2"
_cell_formula_units_Z 56
_cell_length_a 7.076157
_cell_length_b 26.473246
_cell_length_c 12.315221
_cell_angle_alpha 90.000000
_cell_angle_beta 76.141025
_cell_angle_gamma 90.000000
_cell_volume 2239.835411
_symmetry_space_group_name_H-M "C 2/C"
_symmetry_group_IT_number 15
_symmetry_cell_setting 'monoclinic'
loop_
_space_group_symop_operation_xyz
x,y,z
-x,y,1/2-z
-x,-y,-z
x,-y,1/2+z
1/2+x,1/2+y,z
1/2-x,1/2+y,1/2-z
1/2-x,1/2-y,-z
1/2+x,1/2-y,1/2+z
loop_
_atom_site_type_symbol
_atom_site_label
_atom_site_fract_x
_atom_site_fract_y
_atom_site_fract_z
Si Si1 0.763537 0.723553 0.170677
Si Si2 0.774418 0.291206 0.907241
Si Si3 0.219353 0.425531 0.275455
Si Si4 0.238818 0.462496 0.728934
Si Si5 0.698085 0.162919 0.651585
Si Si6 0.267877 0.899556 0.973790
Si Si7 0.219925 0.382211 0.910681
O O1 0.692287 0.727799 0.304327
O O2 0.751776 0.779014 0.118928
O O3 0.683237 0.670138 0.140132
O O4 0.992382 0.709381 0.139367
O O5 0.685623 0.343519 0.963753
O O6 0.750000 0.250000 0.000000
O O7 0.301622 0.479533 0.230179
O O8 0.315335 0.374664 0.214443
O O9 0.228661 0.420185 0.404468
O O10 0.000000 0.426172 0.250000
O O11 0.311032 0.436845 0.607340
O O12 0.296256 0.429336 0.827580
O O13 0.000000 0.464320 0.750000
O O14 0.500000 0.170004 0.750000
O O15 0.701307 0.128834 0.542243
O O16 0.492665 0.889572 0.913829
#
# Coordination Sequence:
#
# PCOD9255623 Si02
#       7
#     8   8   8   8   8   8   8
#     4  10  21  35  52  81 106 145 179 217 278 319
#     4  10  20  35  58  77 107 139 183 230 265 323
#     4  10  19  29  46  75 104 143 176 218 268 320
#     4   9  19  28  48  71 104 144 177 217 269 321
#     4  11  21  34  51  78 115 144 174 220 272 325
#     4  10  17  32  48  71 104 137 175 218 269 319
#     4  10  18  33  47  70 107 141 173 215 269 321
#
# _framework density 25.001837999999999
#
# number of rings (size 3 to 8) (size 9 to 14) (size 15 to 20)
#    0.000    2.000    4.286    1.286    4.000    1.714 
#    0.000    0.000    0.000    0.000    0.000    1.000 
#   12.857    0.000    0.000    0.000    0.000    0.000 
#
# Total GULP energy -155964.757629 kJ/mol
# GULP energy per Si atom -5570.169915 kJ/mol
# Density = 2.494493 g / cm^3
# Si number density = 25.001838 Si / 1000 Ang^3
#
#
#
# Elastic Constant Matrix: (Units=GPa)
#
#
# Indices 1 2 3 4 5 6 
#
# 1 78.2222 4.7919 9.7093 0.0000 18.0793 0.0000
# 2 4.7919 214.8549 65.4773 0.0000 13.4561 0.0000
# 3 9.7093 65.4773 131.1968 0.0000 11.2342 0.0000
# 4 0.0000 0.0000 0.0000 27.7449 0.0000 -2.6632
# 5 18.0793 13.4561 11.2342 0.0000 20.2234 0.0000
# 6 0.0000 0.0000 0.0000 -2.6632 0.0000 -3.7493
#
#
#
# Elastic Compliance Matrix: (Units=1/GPa)
#
#
# Indices 1 2 3 4 5 6 
#
# 1 0.016187 0.000641 -0.000254 0.000000 -0.014756 0.000000
# 2 0.000641 0.005613 -0.002604 0.000000 -0.002861 0.000000
# 3 -0.000254 -0.002604 0.009211 0.000000 -0.003157 0.000000
# 4 0.000000 0.000000 0.000000 0.033742 0.000000 -0.023968
# 5 -0.014756 -0.002861 -0.003157 0.000000 0.066296 0.000000
# 6 0.000000 0.000000 0.000000 -0.023968 0.000000 -0.249691
#
#
# Mechanical properties :
#
#
# Convention : Reuss Voigt Hill
#
# Bulk Modulus (GPa) = 37.62798 64.91452 51.27125
# Shear Modulus (GPa) = -47.46124 31.79682 -7.83221
#
# Velocity S-wave (km/s) = -4.36169 3.57007 -1.77185
# Velocity P-wave (km/s) = 3.20671 6.55852 4.04544
#
# Compressibility (1/GPa) = 0.02657597
#
# Stress axis : x y z
#
# Youngs Moduli (GPa) = 61.77844 178.16956 108.56989
#
# Poissons Ratio (x) = -0.11413 0.02759
# Poissons Ratio (y) = -0.03957 0.28267
# Poissons Ratio (z) = 0.01570 0.46388
#
# Static dielectric constant tensor:
#      x y z
#    x 2.198840 0.000000 -0.150350 
#    y 0.000000 2.013560 0.000000 
#    z -0.150350 0.000000 2.208470 
# 
# From -- ./inp_files/88883.got.cif
#   From: 2010.05.17/outbox.cif.g08.bks.cpg/sg15_45_cif.got.tgz:88883.got - 2010.06.03 18:47:42.
