data_PCOD9255371
_publ_section_title
;
Structure prediction by ZEFSAII (Michael W. Deem and Ramdas Pophale) SiO2 
 PCOD9255371
Probable space group: C 2/C
;
_chemical_formula_sum "Si O2"
_cell_formula_units_Z 52
_cell_length_a 13.740331
_cell_length_b 25.449156
_cell_length_c 9.791492
_cell_angle_alpha 90.000000
_cell_angle_beta 122.477341
_cell_angle_gamma 90.000000
_cell_volume 2888.404510
_symmetry_space_group_name_H-M "C 2/C"
_symmetry_group_IT_number 15
_symmetry_cell_setting 'monoclinic'
loop_
_space_group_symop_operation_xyz
x,y,z
-x,y,1/2-z
-x,-y,-z
x,-y,1/2+z
1/2+x,1/2+y,z
1/2-x,1/2+y,1/2-z
1/2-x,1/2-y,-z
1/2+x,1/2-y,1/2+z
loop_
_atom_site_type_symbol
_atom_site_label
_atom_site_fract_x
_atom_site_fract_y
_atom_site_fract_z
Si Si1 0.799458 0.941050 0.223708
Si Si2 0.591050 0.454639 0.711394
Si Si3 0.027090 0.840705 0.566379
Si Si4 0.304568 0.694103 0.074865
Si Si5 0.500000 0.369331 0.250000
Si Si6 0.576889 0.008636 0.424643
Si Si7 0.710834 0.908856 0.444314
O O1 0.891517 0.906079 0.211482
O O2 0.749000 0.911563 0.316295
O O3 0.857772 0.995058 0.326090
O O4 0.693087 0.959974 0.049452
O O5 0.500000 0.476836 0.750000
O O6 0.538891 0.404400 0.595253
O O7 0.689319 0.429772 0.880059
O O8 0.130721 0.813606 0.730216
O O9 0.908008 0.821696 0.547030
O O10 0.028289 0.834729 0.404988
O O11 0.250000 0.750000 0.000000
O O12 0.202314 0.651433 0.981209
O O13 0.500000 0.035392 0.250000
O O14 0.612784 0.951347 0.395764
O O15 0.500000 0.000000 0.500000
#
# Coordination Sequence:
#
# PCOD9255371 Si02
#       7
#     8   8   8   8   4   8   8
#     4  11  22  31  59  92 123 167 191 234 319 370
#     4  10  17  30  52  82 129 149 187 231 292 363
#     4  10  21  37  56  92 122 151 185 262 307 359
#     4  10  20  41  64  83 112 152 211 253 305 358
#     4  12  22  34  62  94 130 142 190 254 332 370
#     4  11  23  39  53  79 126 172 207 240 279 361
#     4  10  20  36  56  87 115 156 207 248 288 352
#
# _framework density 18.003018000000001
#
# number of rings (size 3 to 8) (size 9 to 14) (size 15 to 20)
#    0.000    1.538    6.923    0.000    4.308    2.462 
#    2.769    0.769    0.000    0.000    2.000    0.000 
#    0.000    0.000    0.000    0.000    0.000    0.000 
#
# Total GULP energy -144954.104282 kJ/mol
# GULP energy per Si atom -5575.157857 kJ/mol
# Density = 1.796204 g / cm^3
# Si number density = 18.003018 Si / 1000 Ang^3
#
#
#
# Elastic Constant Matrix: (Units=GPa)
#
#
# Indices 1 2 3 4 5 6 
#
# 1 76.8193 17.1624 41.8228 0.0000 -3.0342 0.0000
# 2 17.1624 85.7913 43.7747 0.0000 8.6961 0.0000
# 3 41.8228 43.7747 120.6771 0.0000 -11.2256 0.0000
# 4 0.0000 0.0000 0.0000 23.9958 0.0000 8.6864
# 5 -3.0342 8.6961 -11.2256 0.0000 30.5878 0.0000
# 6 0.0000 0.0000 0.0000 8.6864 0.0000 9.3610
#
#
#
# Elastic Compliance Matrix: (Units=1/GPa)
#
#
# Indices 1 2 3 4 5 6 
#
# 1 0.016062 -0.000404 -0.005447 0.000000 -0.000291 0.000000
# 2 -0.000404 0.015540 -0.006120 0.000000 -0.006704 0.000000
# 3 -0.005447 -0.006120 0.012948 0.000000 0.005952 0.000000
# 4 0.000000 0.000000 0.000000 0.062754 0.000000 -0.058231
# 5 -0.000291 -0.006704 0.005952 0.000000 0.036754 0.000000
# 6 0.000000 0.000000 0.000000 -0.058231 0.000000 0.160861
#
#
# Mechanical properties :
#
#
# Convention : Reuss Voigt Hill
#
# Bulk Modulus (GPa) = 48.52915 54.31195 51.42055
# Shear Modulus (GPa) = 14.89291 24.82410 19.85851
#
# Velocity S-wave (km/s) = 2.87931 3.71736 3.32485
# Velocity P-wave (km/s) = 6.16997 6.97559 6.58511
#
# Compressibility (1/GPa) = 0.02060617
#
# Stress axis : x y z
#
# Youngs Moduli (GPa) = 62.25920 64.35212 77.23201
#
# Poissons Ratio (x) = 0.02603 0.42067
# Poissons Ratio (y) = 0.02518 0.47268
# Poissons Ratio (z) = 0.33912 0.39385
#
# Static dielectric constant tensor:
#      x y z
#    x 1.611420 0.000000 0.024490 
#    y 0.000000 1.624330 0.000000 
#    z 0.024490 0.000000 1.661010 
# 
# From -- ./inp_files/42327.got.cif
#   From: 2010.05.17/outbox.cif.g08.bks.cpg/sg15_22_cif.got.tgz:42327.got - 2010.06.03 18:47:42.
