data_PCOD9255267
_publ_section_title
;
Structure prediction by ZEFSAII (Michael W. Deem and Ramdas Pophale) SiO2 
 PCOD9255267
Probable space group: C 2/C
;
_chemical_formula_sum "Si O2"
_cell_formula_units_Z 24
_cell_length_a 19.153436
_cell_length_b 6.996537
_cell_length_c 11.268693
_cell_angle_alpha 90.000000
_cell_angle_beta 37.629644
_cell_angle_gamma 90.000000
_cell_volume 921.994160
_symmetry_space_group_name_H-M "C 2/C"
_symmetry_group_IT_number 15
_symmetry_cell_setting 'monoclinic'
loop_
_space_group_symop_operation_xyz
x,y,z
-x,y,1/2-z
-x,-y,-z
x,-y,1/2+z
1/2+x,1/2+y,z
1/2-x,1/2+y,1/2-z
1/2-x,1/2-y,-z
1/2+x,1/2-y,1/2+z
loop_
_atom_site_type_symbol
_atom_site_label
_atom_site_fract_x
_atom_site_fract_y
_atom_site_fract_z
Si Si1 0.459604 0.813408 0.486135
Si Si2 0.397230 0.385137 0.308198
Si Si3 0.837131 0.551178 0.939799
O O1 0.430550 0.659164 0.626028
O O2 0.500000 0.000000 0.500000
O O3 0.573093 0.815647 0.251583
O O4 0.348280 0.864008 0.557102
O O5 0.500000 0.462578 0.250000
O O6 0.283846 0.514689 0.459855
O O7 0.375646 0.172745 0.392246
#
# Coordination Sequence:
#
# PCOD9255267 Si02
#       3
#     8   8   8
#     4   9  15  31  51  77 105 141 180 216 270 326
#     4  10  17  29  55  81 101 141 184 218 270 324
#     4   9  17  29  52  77 104 142 180 217 268 327
#
# _framework density 26.030533999999999
#
# number of rings (size 3 to 8) (size 9 to 14) (size 15 to 20)
#    0.000    2.667    6.667    0.000    0.000    0.000 
#    0.000    0.000    0.000   52.000    0.000    0.000 
#    0.000    0.000    0.000    0.000    0.000    0.000 
#
# Total GULP energy -66907.567796 kJ/mol
# GULP energy per Si atom -5575.630650 kJ/mol
# Density = 2.597129 g / cm^3
# Si number density = 26.030534 Si / 1000 Ang^3
#
#
#
# Elastic Constant Matrix: (Units=GPa)
#
#
# Indices 1 2 3 4 5 6 
#
# 1 249.5890 41.2646 81.3056 -0.0011 -28.1784 -0.0001
# 2 41.2646 53.1940 32.6722 -0.0045 -11.5690 0.0020
# 3 81.3056 32.6722 74.2139 -0.0014 -6.0352 0.0008
# 4 -0.0011 -0.0045 -0.0014 -25.0815 0.0009 -56.3252
# 5 -28.1784 -11.5690 -6.0352 0.0009 57.6812 -0.0001
# 6 -0.0001 0.0020 0.0008 -56.3252 -0.0001 32.7968
#
#
#
# Elastic Compliance Matrix: (Units=1/GPa)
#
#
# Indices 1 2 3 4 5 6 
#
# 1 0.006568 -0.000370 -0.006836 0.000000 0.002419 0.000000
# 2 -0.000370 0.026743 -0.011041 0.000000 0.004028 -0.000002
# 3 -0.006836 -0.011041 0.025590 0.000000 -0.002876 0.000000
# 4 0.000000 0.000000 0.000000 -0.008209 0.000000 -0.014098
# 5 0.002419 0.004028 -0.002876 0.000000 0.019025 0.000000
# 6 0.000000 -0.000002 0.000000 -0.014098 0.000000 0.006278
#
#
# Mechanical properties :
#
#
# Convention : Reuss Voigt Hill
#
# Bulk Modulus (GPa) = 44.62589 76.38686 60.50638
# Shear Modulus (GPa) = 41.68157 27.86294 34.77225
#
# Velocity S-wave (km/s) = 4.00591 3.27524 3.65886
# Velocity P-wave (km/s) = 6.21107 6.61148 6.41440
#
# Compressibility (1/GPa) = 0.02240851
#
# Stress axis : x y z
#
# Youngs Moduli (GPa) = 152.26224 37.39229 39.07791
#
# Poissons Ratio (x) = 0.01384 0.26712
# Poissons Ratio (y) = 0.05637 0.43144
# Poissons Ratio (z) = 1.04079 0.41283
#
# Static dielectric constant tensor:
#      x y z
#    x 2.058320 0.000000 -0.042130 
#    y 0.000000 2.188580 0.000000 
#    z -0.042130 0.000000 2.315280 
# 
# From -- ./inp_files/102109.got.cif
#   From: 2010.05.17/outbox.cif.g08.bks.cpg/sg15_52_cif.got.tgz:102109.got - 2010.06.03 18:47:42.
