data_PCOD9255711
_publ_section_title
;
Structure prediction by ZEFSAII (Michael W. Deem and Ramdas Pophale) SiO2 
 PCOD9255711
Probable space group: C 2/C
;
_chemical_formula_sum "Si O2"
_cell_formula_units_Z 56
_cell_length_a 9.554263
_cell_length_b 16.854351
_cell_length_c 15.327939
_cell_angle_alpha 90.000000
_cell_angle_beta 108.159408
_cell_angle_gamma 90.000000
_cell_volume 2345.334854
_symmetry_space_group_name_H-M "C 2/C"
_symmetry_group_IT_number 15
_symmetry_cell_setting 'monoclinic'
loop_
_space_group_symop_operation_xyz
x,y,z
-x,y,1/2-z
-x,-y,-z
x,-y,1/2+z
1/2+x,1/2+y,z
1/2-x,1/2+y,1/2-z
1/2-x,1/2-y,-z
1/2+x,1/2-y,1/2+z
loop_
_atom_site_type_symbol
_atom_site_label
_atom_site_fract_x
_atom_site_fract_y
_atom_site_fract_z
Si Si1 0.871256 0.540132 0.174287
Si Si2 0.867447 0.563313 0.980265
Si Si3 0.053031 0.790132 0.674287
Si Si4 0.354702 0.285287 0.278251
Si Si5 0.673549 0.464713 0.278251
Si Si6 0.362818 0.686687 0.980265
Si Si7 0.927057 0.375000 0.104113
O O1 0.746144 0.521986 0.220612
O O2 0.950931 0.456735 0.159833
O O3 0.000000 0.586563 0.250000
O O4 0.824883 0.576144 0.072107
O O5 0.743575 0.534536 0.888730
O O6 0.956920 0.635131 0.952738
O O7 0.000000 0.500000 0.000000
O O8 0.224468 0.771987 0.720612
O O9 0.000000 0.836563 0.750000
O O10 0.997224 0.826144 0.572107
O O11 0.958902 0.706735 0.659833
O O12 0.500000 0.275223 0.250000
O O13 0.296998 0.375000 0.250000
O O14 0.395155 0.284536 0.388730
O O15 0.500000 0.474777 0.250000
O O16 0.250000 0.750000 0.000000
O O17 0.245818 0.614869 0.952738
#
# Coordination Sequence:
#
# PCOD9255711 Si02
#       7
#     8   8   8   8   8   8   8
#     4  11  18  33  59  85 112 147 194 237 285 343
#     4  10  20  31  58  88 103 148 194 233 289 338
#     4  11  18  33  59  85 112 147 194 237 285 343
#     4  11  21  35  56  87 117 147 191 244 288 334
#     4  11  21  35  56  87 117 147 191 244 288 334
#     4  10  20  31  58  88 103 148 194 233 289 338
#     4  10  17  32  54  84 112 138 196 236 273 332
#
# _framework density 23.877188
#
# number of rings (size 3 to 8) (size 9 to 14) (size 15 to 20)
#    0.000    1.429    8.571    0.429    0.000    1.143 
#    0.000    0.000    0.000   10.286    0.000    0.000 
#    0.000    0.000    0.000    0.000    0.000    0.000 
#
# Total GULP energy -156200.958201 kJ/mol
# GULP energy per Si atom -5578.605650 kJ/mol
# Density = 2.382284 g / cm^3
# Si number density = 23.877188 Si / 1000 Ang^3
#
#
#
# Elastic Constant Matrix: (Units=GPa)
#
#
# Indices 1 2 3 4 5 6 
#
# 1 157.5853 -12.6536 107.4488 0.0000 -0.9191 0.0000
# 2 -12.6536 25.1097 5.9727 0.0000 -0.4223 0.0000
# 3 107.4488 5.9727 283.9810 0.0000 -1.9467 0.0000
# 4 0.0000 0.0000 0.0000 10.4995 0.0000 0.0131
# 5 -0.9191 -0.4223 -1.9467 0.0000 45.3600 0.0000
# 6 0.0000 0.0000 0.0000 0.0131 0.0000 11.0787
#
#
#
# Elastic Compliance Matrix: (Units=1/GPa)
#
#
# Indices 1 2 3 4 5 6 
#
# 1 0.009257 0.005527 -0.003618 0.000000 0.000084 0.000000
# 2 0.005527 0.043331 -0.003000 0.000000 0.000387 0.000000
# 3 -0.003618 -0.003000 0.004954 0.000000 0.000111 0.000000
# 4 0.000000 0.000000 0.000000 0.095243 0.000000 -0.000113
# 5 0.000084 0.000387 0.000111 0.000000 0.022056 0.000000
# 6 0.000000 0.000000 0.000000 -0.000113 0.000000 0.090263
#
#
# Mechanical properties :
#
#
# Convention : Reuss Voigt Hill
#
# Bulk Modulus (GPa) = 18.06369 74.24577 46.15473
# Shear Modulus (GPa) = 17.49844 37.78151 27.63998
#
# Velocity S-wave (km/s) = 2.71006 3.98216 3.40603
# Velocity P-wave (km/s) = 4.16824 7.23228 5.90255
#
# Compressibility (1/GPa) = 0.05535969
#
# Stress axis : x y z
#
# Youngs Moduli (GPa) = 108.02442 23.07839 201.84684
#
# Poissons Ratio (x) = -0.12756 0.73034
# Poissons Ratio (y) = -0.59706 0.60553
# Poissons Ratio (z) = 0.39086 0.06923
#
# Static dielectric constant tensor:
#      x y z
#    x 2.201740 0.000000 -0.004910 
#    y 0.000000 2.228090 0.000000 
#    z -0.004910 0.000000 2.417680 
# 
# From -- ./inp_files/137482.got.cif
#   From: 2010.05.17/outbox.cif.g08.bks.cpg/sg15_69_cif.got.tgz:137482.got - 2010.06.03 18:47:42.
