data_PCOD9255858
_publ_section_title
;
Structure prediction by ZEFSAII (Michael W. Deem and Ramdas Pophale) SiO2 
 PCOD9255858
Probable space group: C 2/C
;
_chemical_formula_sum "Si O2"
_cell_formula_units_Z 64
_cell_length_a 30.815107
_cell_length_b 11.924377
_cell_length_c 18.464200
_cell_angle_alpha 90.000000
_cell_angle_beta 27.332163
_cell_angle_gamma 90.000000
_cell_volume 3115.177963
_symmetry_space_group_name_H-M "C 2/C"
_symmetry_group_IT_number 15
_symmetry_cell_setting 'monoclinic'
loop_
_space_group_symop_operation_xyz
x,y,z
-x,y,1/2-z
-x,-y,-z
x,-y,1/2+z
1/2+x,1/2+y,z
1/2-x,1/2+y,1/2-z
1/2-x,1/2-y,-z
1/2+x,1/2-y,1/2+z
loop_
_atom_site_type_symbol
_atom_site_label
_atom_site_fract_x
_atom_site_fract_y
_atom_site_fract_z
Si Si1 0.763144 0.344695 0.809355
Si Si2 0.842672 0.694636 0.767019
Si Si3 0.315109 0.581247 0.601804
Si Si4 0.111618 0.302382 0.014333
Si Si5 0.966696 0.379240 0.577720
Si Si6 0.027844 0.477216 0.626622
Si Si7 0.716602 0.897321 0.994399
Si Si8 0.274265 0.901242 0.120175
O O1 0.696646 0.453927 0.908223
O O2 0.801422 0.323012 0.670597
O O3 0.716510 0.230551 0.906388
O O4 0.861375 0.358408 0.707106
O O5 0.772569 0.644909 0.809079
O O6 0.948702 0.698561 0.578215
O O7 0.806179 0.815706 0.848970
O O8 0.822625 0.614803 0.866519
O O9 0.400894 0.668933 0.461001
O O10 0.308513 0.578676 0.698941
O O11 0.141322 0.346831 0.048856
O O12 0.031690 0.388757 0.105338
O O13 0.971490 0.398195 0.656490
O O14 0.000000 0.500000 0.500000
O O15 0.136773 0.441694 0.464131
O O16 0.000000 0.459020 0.750000
O O17 0.734145 0.021924 0.938150
#
# Coordination Sequence:
#
# PCOD9255858 Si02
#       8
#     8   8   8   8   8   8   8   8
#     4  11  20  33  56  85 116 152 190 235 292 358
#     4  10  19  34  56  80 114 145 192 244 294 333
#     4  10  17  33  53  77 109 144 187 227 283 344
#     4   9  18  31  52  81 104 142 188 231 279 338
#     4  12  21  34  54  87 116 147 190 248 298 338
#     4  11  22  37  58  83 112 145 195 249 287 334
#     4   9  19  34  56  82 107 152 193 240 284 341
#     4  10  20  36  56  83 113 151 196 233 284 362
#
# _framework density 20.544573
#
# number of rings (size 3 to 8) (size 9 to 14) (size 15 to 20)
#    0.000    1.750    6.250    0.000    3.500    0.000 
#    0.000    3.125    0.000    0.750    0.000    0.000 
#    0.000    0.000    0.000    0.000    0.000    0.000 
#
# Total GULP energy -178280.025205 kJ/mol
# GULP energy per Si atom -5571.250788 kJ/mol
# Density = 2.049781 g / cm^3
# Si number density = 20.544573 Si / 1000 Ang^3
#
#
#
# Elastic Constant Matrix: (Units=GPa)
#
#
# Indices 1 2 3 4 5 6 
#
# 1 95.1130 30.2190 20.1479 0.0000 20.0849 0.0000
# 2 30.2190 157.5452 36.5764 0.0000 -1.6010 0.0000
# 3 20.1479 36.5764 52.2073 0.0000 13.1526 0.0000
# 4 0.0000 0.0000 0.0000 3.8189 0.0000 8.0366
# 5 20.0849 -1.6010 13.1526 0.0000 31.2462 0.0000
# 6 0.0000 0.0000 0.0000 8.0366 0.0000 27.6412
#
#
#
# Elastic Compliance Matrix: (Units=1/GPa)
#
#
# Indices 1 2 3 4 5 6 
#
# 1 0.013243 -0.002272 -0.001505 0.000000 -0.007995 0.000000
# 2 -0.002272 0.008219 -0.005990 0.000000 0.004403 0.000000
# 3 -0.001505 -0.005990 0.026585 0.000000 -0.010530 0.000000
# 4 0.000000 0.000000 0.000000 0.674663 0.000000 -0.196157
# 5 -0.007995 0.004403 -0.010530 0.000000 0.041801 0.000000
# 6 0.000000 0.000000 0.000000 -0.196157 0.000000 0.093210
#
#
# Mechanical properties :
#
#
# Convention : Reuss Voigt Hill
#
# Bulk Modulus (GPa) = 35.07274 53.19466 44.13370
# Shear Modulus (GPa) = 5.63851 27.06940 16.35395
#
# Velocity S-wave (km/s) = 1.65846 3.63381 2.82445
# Velocity P-wave (km/s) = 4.55806 6.59959 5.67144
#
# Compressibility (1/GPa) = 0.02851217
#
# Stress axis : x y z
#
# Youngs Moduli (GPa) = 75.51286 121.67353 37.61537
#
# Poissons Ratio (x) = 0.27645 0.05659
# Poissons Ratio (y) = 0.17157 0.22533
# Poissons Ratio (z) = 0.11361 0.72888
#
# Static dielectric constant tensor:
#      x y z
#    x 1.837540 0.000000 -0.005320 
#    y 0.000000 1.800070 0.000000 
#    z -0.005320 0.000000 1.840970 
# 
# From -- ./inp_files/225142.got.cif
#   From: 2010.05.17/outbox.cif.g08.bks.cpg/sg15_113_cif.got.tgz:225142.got - 2010.06.03 18:47:42.
