data_PCOD9255125
_publ_section_title
;
Structure prediction by ZEFSAII (Michael W. Deem and Ramdas Pophale) SiO2 
 PCOD9255125
Probable space group: C 2/C
;
_chemical_formula_sum "Si O2"
_cell_formula_units_Z 64
_cell_length_a 23.232360
_cell_length_b 7.995065
_cell_length_c 20.977306
_cell_angle_alpha 90.000000
_cell_angle_beta 51.768411
_cell_angle_gamma 90.000000
_cell_volume 3060.694478
_symmetry_space_group_name_H-M "C 2/C"
_symmetry_group_IT_number 15
_symmetry_cell_setting 'monoclinic'
loop_
_space_group_symop_operation_xyz
x,y,z
-x,y,1/2-z
-x,-y,-z
x,-y,1/2+z
1/2+x,1/2+y,z
1/2-x,1/2+y,1/2-z
1/2-x,1/2-y,-z
1/2+x,1/2-y,1/2+z
loop_
_atom_site_type_symbol
_atom_site_label
_atom_site_fract_x
_atom_site_fract_y
_atom_site_fract_z
Si Si1 0.362511 0.836459 0.942673
Si Si2 0.786682 0.981071 0.989039
Si Si3 0.126074 0.592289 0.203207
Si Si4 0.737602 0.945058 0.803500
Si Si5 0.418353 0.125446 0.121811
Si Si6 0.190821 0.746651 0.636494
Si Si7 0.285166 0.672343 0.141441
Si Si8 0.934689 0.693729 0.522740
O O1 0.331689 0.648155 0.973144
O O2 0.401102 0.843354 0.846937
O O3 0.291107 0.956116 0.987197
O O4 0.409010 0.888873 0.972344
O O5 0.827543 0.870610 0.908442
O O6 0.762929 0.855927 0.062057
O O7 0.088856 0.634682 0.296220
O O8 0.131110 0.392375 0.193220
O O9 0.212355 0.650976 0.147304
O O10 0.662146 0.842440 0.850391
O O11 0.791271 0.853653 0.814303
O O12 0.767457 0.947607 0.711960
O O13 0.721845 0.131862 0.836082
O O14 0.434323 0.938045 0.081883
O O15 0.481894 0.240178 0.049612
O O16 0.372954 0.664513 0.072217
#
# Coordination Sequence:
#
# PCOD9255125 Si02
#       8
#     8   8   8   8   8   8   8   8
#     4  10  18  31  52  74 104 136 169 212 262 309
#     4   9  18  29  47  81 107 128 168 217 260 310
#     4  10  20  34  52  80 106 131 172 217 264 314
#     4  10  18  31  50  73 102 136 170 214 263 305
#     4   9  20  33  48  75 105 133 173 213 251 307
#     4  10  17  28  49  74 105 135 167 213 266 309
#     4  10  19  31  52  76 102 134 173 218 262 310
#     4  10  18  32  52  74 101 135 172 212 254 302
#
# _framework density 20.910287
#
# number of rings (size 3 to 8) (size 9 to 14) (size 15 to 20)
#    0.000    2.250    0.000    6.750    0.000    0.500 
#    0.000    0.000    0.000   12.000    0.000   36.750 
#    0.000    0.000    0.000    0.000    0.000    0.000 
#
# Total GULP energy -178188.720840 kJ/mol
# GULP energy per Si atom -5568.397526 kJ/mol
# Density = 2.086269 g / cm^3
# Si number density = 20.910287 Si / 1000 Ang^3
#
#
#
# Elastic Constant Matrix: (Units=GPa)
#
#
# Indices 1 2 3 4 5 6 
#
# 1 38.9697 -3.2809 13.2105 -0.0019 7.5481 0.0013
# 2 -3.2809 48.4442 -8.6110 -0.0033 -4.4426 -0.0010
# 3 13.2105 -8.6110 74.3914 -0.0017 -5.3016 0.0002
# 4 -0.0019 -0.0033 -0.0017 16.2480 0.0005 6.5230
# 5 7.5481 -4.4426 -5.3016 0.0005 35.5805 -0.0004
# 6 0.0013 -0.0010 0.0002 6.5230 -0.0004 13.3722
#
#
#
# Elastic Compliance Matrix: (Units=1/GPa)
#
#
# Indices 1 2 3 4 5 6 
#
# 1 0.028927 0.000330 -0.005592 0.000005 -0.006929 -0.000006
# 2 0.000330 0.021407 0.002633 0.000005 0.002995 -0.000001
# 3 -0.005592 0.002633 0.015008 0.000001 0.003751 0.000000
# 4 0.000005 0.000005 0.000001 0.076534 -0.000002 -0.037334
# 5 -0.006929 0.002995 0.003751 -0.000002 0.030508 0.000003
# 6 -0.000006 -0.000001 0.000000 -0.037334 0.000003 0.092993
#
#
# Mechanical properties :
#
#
# Convention : Reuss Voigt Hill
#
# Bulk Modulus (GPa) = 16.64404 18.27141 17.45773
# Shear Modulus (GPa) = 17.20198 23.73925 20.47061
#
# Velocity S-wave (km/s) = 2.87131 3.37306 3.13225
# Velocity P-wave (km/s) = 4.35541 4.89153 4.63123
#
# Compressibility (1/GPa) = 0.06008155
#
# Stress axis : x y z
#
# Youngs Moduli (GPa) = 34.57029 46.71300 66.63282
#
# Poissons Ratio (x) = -0.01540 0.37264
# Poissons Ratio (y) = -0.01139 -0.17544
# Poissons Ratio (z) = 0.19333 -0.12299
#
# Static dielectric constant tensor:
#      x y z
#    x 1.783910 0.000000 0.043420 
#    y 0.000000 1.760300 0.000000 
#    z 0.043420 0.000000 1.882990 
# 
# From -- ./inp_files/281506.got.cif
#   From: 2010.05.17/outbox.cif.g08.bks.cpg/sg15_141_cif.got.tgz:281506.got - 2010.06.03 18:47:42.
