data_PCOD9255091
_publ_section_title
;
Structure prediction by ZEFSAII (Michael W. Deem and Ramdas Pophale) SiO2 
 PCOD9255091
Probable space group: C 2/C
;
_chemical_formula_sum "Si O2"
_cell_formula_units_Z 56
_cell_length_a 5.266877
_cell_length_b 17.495976
_cell_length_c 28.435430
_cell_angle_alpha 90.000000
_cell_angle_beta 98.835169
_cell_angle_gamma 90.000000
_cell_volume 2589.209078
_symmetry_space_group_name_H-M "C 2/C"
_symmetry_group_IT_number 15
_symmetry_cell_setting 'monoclinic'
loop_
_space_group_symop_operation_xyz
x,y,z
-x,y,1/2-z
-x,-y,-z
x,-y,1/2+z
1/2+x,1/2+y,z
1/2-x,1/2+y,1/2-z
1/2-x,1/2-y,-z
1/2+x,1/2-y,1/2+z
loop_
_atom_site_type_symbol
_atom_site_label
_atom_site_fract_x
_atom_site_fract_y
_atom_site_fract_z
Si Si1 0.776424 0.977054 0.530081
Si Si2 0.973094 0.195617 0.546492
Si Si3 0.639227 0.468970 0.361449
Si Si4 0.062394 0.336836 0.485442
Si Si5 0.644981 0.282803 0.356891
Si Si6 0.909351 0.530364 0.695520
Si Si7 0.101063 0.716713 0.803466
O O1 0.729781 0.885276 0.526547
O O2 0.836682 0.001213 0.584820
O O3 0.500000 0.000000 0.500000
O O4 0.000000 0.000000 0.500000
O O5 0.733925 0.139046 0.531185
O O6 0.009684 0.252838 0.504200
O O7 0.259876 0.159608 0.556443
O O8 0.896844 0.241804 0.590668
O O9 0.640473 0.375829 0.361009
O O10 0.881721 0.493434 0.337138
O O11 0.374276 0.493498 0.328878
O O12 0.904273 0.258651 0.338654
O O13 0.392973 0.259880 0.320845
O O14 0.905137 0.623620 0.696657
O O15 0.000000 0.505515 0.750000
O O16 0.000000 0.742200 0.750000
#
# Coordination Sequence:
#
# PCOD9255091 Si02
#       7
#     8   8   8   8   8   8   8
#     4  12  23  35  52  76 110 143 170 211 264 318
#     4  10  20  35  54  73  97 134 175 214 248 297
#     4  10  19  29  46  72  99 131 167 203 252 313
#     4  10  21  36  52  73 102 133 172 212 252 298
#     4  10  17  28  46  68  95 127 164 198 243 298
#     4   9  17  30  46  67  97 130 165 207 252 300
#     4   9  17  27  42  67  98 126 154 197 250 300
#
# _framework density 21.628226999999999
#
# number of rings (size 3 to 8) (size 9 to 14) (size 15 to 20)
#    0.000    2.000    0.000    5.143    0.000    5.714 
#    0.000    0.000    0.000    0.000    0.000    4.000 
#    0.000    0.000    0.000    0.000    0.000    0.000 
#
# Total GULP energy -156143.791846 kJ/mol
# GULP energy per Si atom -5576.563995 kJ/mol
# Density = 2.157900 g / cm^3
# Si number density = 21.628227 Si / 1000 Ang^3
#
#
#
# Elastic Constant Matrix: (Units=GPa)
#
#
# Indices 1 2 3 4 5 6 
#
# 1 141.7771 15.8688 18.2052 0.0000 -5.1252 0.0000
# 2 15.8688 16.9114 4.8959 0.0000 3.7795 0.0000
# 3 18.2052 4.8959 93.1072 0.0000 1.7303 0.0000
# 4 0.0000 0.0000 0.0000 14.0519 0.0000 -0.4740
# 5 -5.1252 3.7795 1.7303 0.0000 40.2428 0.0000
# 6 0.0000 0.0000 0.0000 -0.4740 0.0000 15.5856
#
#
#
# Elastic Compliance Matrix: (Units=1/GPa)
#
#
# Indices 1 2 3 4 5 6 
#
# 1 0.008136 -0.007685 -0.001220 0.000000 0.001810 0.000000
# 2 -0.007685 0.068551 -0.001966 0.000000 -0.007332 0.000000
# 3 -0.001220 -0.001966 0.011091 0.000000 -0.000448 0.000000
# 4 0.000000 0.000000 0.000000 0.071238 0.000000 0.002167
# 5 0.001810 -0.007332 -0.000448 0.000000 0.025788 0.000000
# 6 0.000000 0.000000 0.000000 0.002167 0.000000 0.064228
#
#
# Mechanical properties :
#
#
# Convention : Reuss Voigt Hill
#
# Bulk Modulus (GPa) = 15.14360 36.63728 25.89044
# Shear Modulus (GPa) = 17.07741 28.16446 22.62094
#
# Velocity S-wave (km/s) = 2.81301 3.61253 3.23754
# Velocity P-wave (km/s) = 4.19138 5.86317 5.09630
#
# Compressibility (1/GPa) = 0.06603447
#
# Stress axis : x y z
#
# Youngs Moduli (GPa) = 122.91549 14.58770 90.16651
#
# Poissons Ratio (x) = 0.11211 0.11003
# Poissons Ratio (y) = 0.94466 0.17724
# Poissons Ratio (z) = 0.14999 0.02867
#
# Static dielectric constant tensor:
#      x y z
#    x 1.884770 0.000000 0.022620 
#    y 0.000000 1.922040 0.000000 
#    z 0.022620 0.000000 1.781510 
# 
# From -- ./inp_files/261219.got.cif
#   From: 2010.05.17/outbox.cif.g08.bks.cpg/sg15_131_cif.got.tgz:261219.got - 2010.06.03 18:47:42.
