data_PCOD9255387
_publ_section_title
;
Structure prediction by ZEFSAII (Michael W. Deem and Ramdas Pophale) SiO2 
 PCOD9255387
Probable space group: C 2/C
;
_chemical_formula_sum "Si O2"
_cell_formula_units_Z 60
_cell_length_a 21.712432
_cell_length_b 9.372000
_cell_length_c 26.560686
_cell_angle_alpha 90.000000
_cell_angle_beta 33.127582
_cell_angle_gamma 90.000000
_cell_volume 2953.753953
_symmetry_space_group_name_H-M "C 2/C"
_symmetry_group_IT_number 15
_symmetry_cell_setting 'monoclinic'
loop_
_space_group_symop_operation_xyz
x,y,z
-x,y,1/2-z
-x,-y,-z
x,-y,1/2+z
1/2+x,1/2+y,z
1/2-x,1/2+y,1/2-z
1/2-x,1/2-y,-z
1/2+x,1/2-y,1/2+z
loop_
_atom_site_type_symbol
_atom_site_label
_atom_site_fract_x
_atom_site_fract_y
_atom_site_fract_z
Si Si1 0.671086 0.023654 0.155597
Si Si2 0.098276 0.067400 0.763584
Si Si3 0.069980 0.241743 0.387113
Si Si4 0.431509 0.224949 0.070025
Si Si5 0.687671 0.831249 0.750813
Si Si6 0.433756 0.464758 0.461805
Si Si7 0.824410 0.743732 0.789986
Si Si8 0.500000 0.228355 0.250000
O O1 0.649366 0.856587 0.180388
O O2 0.652057 0.087991 0.224915
O O3 0.594378 0.111207 0.169044
O O4 0.801284 0.050081 0.055445
O O5 0.179328 0.161339 0.743923
O O6 0.981302 0.065813 0.873939
O O7 0.073150 0.162653 0.732761
O O8 0.143664 0.909362 0.723768
O O9 0.180977 0.150771 0.327178
O O10 0.108364 0.303132 0.306911
O O11 0.016022 0.334580 0.469149
O O12 0.973218 0.125048 0.444946
O O13 0.392378 0.138671 0.146783
O O14 0.501695 0.359175 0.044196
O O15 0.308793 0.266015 0.131518
#
# Coordination Sequence:
#
# PCOD9255387 Si02
#       8
#     8   8   8   8   8   8   8   4
#     4  11  20  38  61  85 105 149 196 247 269 333
#     4   9  21  40  56  83 113 155 181 241 283 335
#     4  10  17  30  53  87 119 160 174 218 272 344
#     4  10  17  30  54  89 118 160 180 215 269 345
#     4   9  19  32  54  85 123 152 192 217 270 330
#     4  10  18  32  62  83 118 146 196 221 282 330
#     4  10  21  33  58  86 122 143 187 230 284 331
#     4  10  24  42  66  76 102 142 196 242 310 322
#
# _framework density 20.313134000000002
#
# number of rings (size 3 to 8) (size 9 to 14) (size 15 to 20)
#    0.000    2.133    2.667    1.200    0.000    4.267 
#    0.000    2.667    5.867    2.400    0.000    0.000 
#    0.000    0.000    0.000    0.000    0.000    0.000 
#
# Total GULP energy -167006.419675 kJ/mol
# GULP energy per Si atom -5566.880656 kJ/mol
# Density = 2.026690 g / cm^3
# Si number density = 20.313134 Si / 1000 Ang^3
#
#
#
# Elastic Constant Matrix: (Units=GPa)
#
#
# Indices 1 2 3 4 5 6 
#
# 1 -12.7875 -3.1460 6.3828 0.0000 -18.4603 0.0001
# 2 -3.1460 82.2997 19.6436 0.0000 -10.3725 0.0001
# 3 6.3828 19.6436 112.9005 0.0000 -15.0086 -0.0001
# 4 0.0000 0.0000 0.0000 18.6213 0.0000 -1.7818
# 5 -18.4603 -10.3725 -15.0086 0.0000 21.0657 0.0000
# 6 0.0001 0.0001 -0.0001 -1.7818 0.0000 14.4056
#
#
#
# Elastic Compliance Matrix: (Units=1/GPa)
#
#
# Indices 1 2 3 4 5 6 
#
# 1 -0.032117 -0.004845 -0.001546 0.000000 -0.031632 0.000000
# 2 -0.004845 0.012475 -0.001817 0.000000 0.000602 0.000000
# 3 -0.001546 -0.001817 0.009899 0.000000 0.004803 0.000000
# 4 0.000000 0.000000 0.000000 0.054345 0.000000 0.006722
# 5 -0.031632 0.000602 0.004803 0.000000 0.023470 0.000000
# 6 0.000000 0.000000 0.000000 0.006722 0.000000 0.070249
#
#
# Mechanical properties :
#
#
# Convention : Reuss Voigt Hill
#
# Bulk Modulus (GPa) = -38.22842 25.35260 -6.43791
# Shear Modulus (GPa) = 34.24230 21.45401 27.84815
#
# Velocity S-wave (km/s) = 4.11021 3.25339 3.70664
# Velocity P-wave (km/s) = 1.91433 5.15953 3.89136
#
# Compressibility (1/GPa) = -0.02615855
#
# Stress axis : x y z
#
# Youngs Moduli (GPa) = -31.13651 80.16043 101.01630
#
# Poissons Ratio (x) = 0.38840 0.15620
# Poissons Ratio (y) = -0.15087 0.18350
# Poissons Ratio (z) = -0.04815 0.14561
#
# Static dielectric constant tensor:
#      x y z
#    x 1.784930 0.000000 0.056470 
#    y 0.000000 1.766040 0.000000 
#    z 0.056470 0.000000 1.736280 
# 
# From -- ./inp_files/318502.got.cif
#   From: 2010.05.17/outbox.cif.g08.bks.cpg/sg15_160_cif.got.tgz:318502.got - 2010.06.03 18:47:42.
