data_PCOD9255950
_publ_section_title
;
Structure prediction by ZEFSAII (Michael W. Deem and Ramdas Pophale) SiO2 
 PCOD9255950
Probable space group: C 2/C
;
_chemical_formula_sum "Si O2"
_cell_formula_units_Z 40
_cell_length_a 12.437824
_cell_length_b 8.763857
_cell_length_c 15.103324
_cell_angle_alpha 90.000000
_cell_angle_beta 61.814610
_cell_angle_gamma 90.000000
_cell_volume 1451.099061
_symmetry_space_group_name_H-M "C 2/C"
_symmetry_group_IT_number 15
_symmetry_cell_setting 'monoclinic'
loop_
_space_group_symop_operation_xyz
x,y,z
-x,y,1/2-z
-x,-y,-z
x,-y,1/2+z
1/2+x,1/2+y,z
1/2-x,1/2+y,1/2-z
1/2-x,1/2-y,-z
1/2+x,1/2-y,1/2+z
loop_
_atom_site_type_symbol
_atom_site_label
_atom_site_fract_x
_atom_site_fract_y
_atom_site_fract_z
Si Si1 0.044385 0.274423 0.636828
Si Si2 0.257363 0.609449 0.128931
Si Si3 0.013364 0.753011 0.528411
Si Si4 0.696078 0.071482 0.815337
Si Si5 0.891112 0.922524 0.855155
O O1 0.172785 0.366687 0.575884
O O2 0.962811 0.290568 0.581836
O O3 0.000000 0.331766 0.750000
O O4 0.065217 0.093532 0.637748
O O5 0.402565 0.621021 0.063102
O O6 0.236097 0.768393 0.190550
O O7 0.216742 0.472651 0.206208
O O8 0.941550 0.614428 0.604444
O O9 0.112974 0.822249 0.554737
O O10 0.768946 0.949881 0.847221
O O11 0.000000 0.858797 0.750000
#
# Coordination Sequence:
#
# PCOD9255950 Si02
#       5
#     8   8   8   8   8
#     4  10  21  36  58  90 124 169 222 267 314 388
#     4   9  19  36  60  90 129 166 212 265 330 388
#     4  10  20  35  61  96 130 166 217 272 324 386
#     4   9  19  35  61  93 127 169 211 266 333 388
#     4  10  17  33  58  94 126 158 214 267 315 394
#
# _framework density 27.565314999999998
#
# number of rings (size 3 to 8) (size 9 to 14) (size 15 to 20)
#    1.200    1.200    2.000    1.200    0.000    0.000 
#    0.000    4.000    0.000    2.400    0.000    0.000 
#    0.000    0.000    0.000    0.000    0.000    0.000 
#
# Total GULP energy -111837.486220 kJ/mol
# GULP energy per Si atom -5591.874311 kJ/mol
# Density = 2.750257 g / cm^3
# Si number density = 27.565315 Si / 1000 Ang^3
#
#
#
# Elastic Constant Matrix: (Units=GPa)
#
#
# Indices 1 2 3 4 5 6 
#
# 1 96.4938 29.1717 9.5205 0.0000 -11.1442 0.0000
# 2 29.1717 52.6692 11.5139 0.0000 -4.8976 0.0000
# 3 9.5205 11.5139 111.8725 0.0000 8.8864 0.0000
# 4 0.0000 0.0000 0.0000 29.1514 0.0000 -2.8934
# 5 -11.1442 -4.8976 8.8864 0.0000 26.5352 0.0000
# 6 0.0000 0.0000 0.0000 -2.8934 0.0000 34.9829
#
#
#
# Elastic Compliance Matrix: (Units=1/GPa)
#
#
# Indices 1 2 3 4 5 6 
#
# 1 0.012949 -0.006584 -0.000781 0.000000 0.004484 0.000000
# 2 -0.006584 0.023278 -0.002011 0.000000 0.002204 0.000000
# 3 -0.000781 -0.002011 0.009521 0.000000 -0.003887 0.000000
# 4 0.000000 0.000000 0.000000 0.034588 0.000000 0.002861
# 5 0.004484 0.002204 -0.003887 0.000000 0.041278 0.000000
# 6 0.000000 0.000000 0.000000 0.002861 0.000000 0.028822
#
#
# Mechanical properties :
#
#
# Convention : Reuss Voigt Hill
#
# Bulk Modulus (GPa) = 37.04145 40.16086 38.60116
# Shear Modulus (GPa) = 28.06080 32.18918 30.12499
#
# Velocity S-wave (km/s) = 3.19403 3.42093 3.30943
# Velocity P-wave (km/s) = 5.20282 5.49588 5.35136
#
# Compressibility (1/GPa) = 0.02699678
#
# Stress axis : x y z
#
# Youngs Moduli (GPa) = 77.22718 42.95950 105.03229
#
# Poissons Ratio (x) = 0.28286 0.08198
# Poissons Ratio (y) = 0.50849 0.21117
# Poissons Ratio (z) = 0.06028 0.08637
#
# Static dielectric constant tensor:
#      x y z
#    x 2.178350 0.000000 -0.093250 
#    y 0.000000 2.108730 0.000000 
#    z -0.093250 0.000000 2.264570 
# 
# From -- ./inp_files/202493.got.cif
#   From: 2010.05.17/outbox.cif.g08.bks.cpg/sg15_102_cif.got.tgz:202493.got - 2010.06.03 18:47:42.
