data_PCOD9255768
_publ_section_title
;
Structure prediction by ZEFSAII (Michael W. Deem and Ramdas Pophale) SiO2 
 PCOD9255768
Probable space group: C 2/C
;
_chemical_formula_sum "Si O2"
_cell_formula_units_Z 32
_cell_length_a 7.612237
_cell_length_b 20.370065
_cell_length_c 12.868251
_cell_angle_alpha 90.000000
_cell_angle_beta 39.374713
_cell_angle_gamma 90.000000
_cell_volume 1265.843936
_symmetry_space_group_name_H-M "C 2/C"
_symmetry_group_IT_number 15
_symmetry_cell_setting 'monoclinic'
loop_
_space_group_symop_operation_xyz
x,y,z
-x,y,1/2-z
-x,-y,-z
x,-y,1/2+z
1/2+x,1/2+y,z
1/2-x,1/2+y,1/2-z
1/2-x,1/2-y,-z
1/2+x,1/2-y,1/2+z
loop_
_atom_site_type_symbol
_atom_site_label
_atom_site_fract_x
_atom_site_fract_y
_atom_site_fract_z
Si Si1 0.985261 0.836966 0.049248
Si Si2 0.532725 0.783707 0.414818
Si Si3 0.739968 0.591902 0.057710
Si Si4 0.243903 0.464579 0.558643
O O1 0.153610 0.773906 0.931238
O O2 0.138966 0.896123 0.037386
O O3 0.741071 0.806705 0.230355
O O4 0.637085 0.977899 0.032106
O O5 0.370950 0.625530 0.498396
O O6 0.433641 0.850768 0.513902
O O7 0.500000 0.579779 0.250000
O O8 0.750000 0.750000 0.000000
O O9 0.500000 0.500000 0.500000
O O10 0.000000 0.448455 0.750000
#
# Coordination Sequence:
#
# PCOD9255768 Si02
#       4
#     8   8   8   8
#     4  10  20  34  55  87 118 153 199 255 299 346
#     4  10  17  32  57  84 114 154 199 242 289 354
#     4  10  18  32  57  88 116 153 203 250 291 353
#     4  10  21  40  61  85 122 164 200 247 306 363
#
# _framework density 25.279575999999999
#
# number of rings (size 3 to 8) (size 9 to 14) (size 15 to 20)
#    0.000    2.000    0.000    9.000    0.000    0.000 
#    0.000   15.000    0.000    0.000    0.000    0.000 
#    0.000    0.000    0.000    0.000    0.000    0.000 
#
# Total GULP energy -89391.353945 kJ/mol
# GULP energy per Si atom -5586.959622 kJ/mol
# Density = 2.522204 g / cm^3
# Si number density = 25.279576 Si / 1000 Ang^3
#
#
#
# Elastic Constant Matrix: (Units=GPa)
#
#
# Indices 1 2 3 4 5 6 
#
# 1 60.8719 26.3563 -22.9870 0.0000 -18.4516 0.0000
# 2 26.3563 250.6504 53.4204 0.0000 6.0957 0.0000
# 3 -22.9870 53.4204 154.7877 0.0000 13.8925 0.0000
# 4 0.0000 0.0000 0.0000 26.7592 0.0000 -9.0561
# 5 -18.4516 6.0957 13.8925 0.0000 25.2769 0.0000
# 6 0.0000 0.0000 0.0000 -9.0561 0.0000 -1.3406
#
#
#
# Elastic Compliance Matrix: (Units=1/GPa)
#
#
# Indices 1 2 3 4 5 6 
#
# 1 0.024420 -0.003700 0.003391 0.000000 0.016855 0.000000
# 2 -0.003700 0.004868 -0.001980 0.000000 -0.002787 0.000000
# 3 0.003391 -0.001980 0.007765 0.000000 -0.001315 0.000000
# 4 0.000000 0.000000 0.000000 0.011372 0.000000 -0.076820
# 5 0.016855 -0.002787 -0.001315 0.000000 0.053260 0.000000
# 6 0.000000 0.000000 0.000000 -0.076820 0.000000 -0.226991
#
#
# Mechanical properties :
#
#
# Convention : Reuss Voigt Hill
#
# Bulk Modulus (GPa) = 30.79285 64.43214 47.61249
# Shear Modulus (GPa) = -45.49496 37.44046 -4.02725
#
# Velocity S-wave (km/s) = -4.24686 3.85262 -1.26354
# Velocity P-wave (km/s) = 3.44098 6.73301 4.09225
#
# Compressibility (1/GPa) = 0.03247507
#
# Stress axis : x y z
#
# Youngs Moduli (GPa) = 40.95077 205.40650 128.77887
#
# Poissons Ratio (x) = 0.76007 -0.43666
# Poissons Ratio (y) = 0.15153 0.25492
# Poissons Ratio (z) = -0.13886 0.40661
#
# Static dielectric constant tensor:
#      x y z
#    x 2.304720 0.000000 0.008050 
#    y 0.000000 1.717830 0.000000 
#    z 0.008050 0.000000 1.910480 
# 
# From -- ./inp_files/274100.got.cif
#   From: 2010.05.17/outbox.cif.g08.bks.cpg/sg15_138_cif.got.tgz:274100.got - 2010.06.03 18:47:42.
