data_PCOD9255763
_publ_section_title
;
Structure prediction by ZEFSAII (Michael W. Deem and Ramdas Pophale) SiO2 
 PCOD9255763
Probable space group: C 2/C
;
_chemical_formula_sum "Si O2"
_cell_formula_units_Z 56
_cell_length_a 11.987498
_cell_length_b 20.665931
_cell_length_c 16.173168
_cell_angle_alpha 90.000000
_cell_angle_beta 52.985271
_cell_angle_gamma 90.000000
_cell_volume 3199.212477
_symmetry_space_group_name_H-M "C 2/C"
_symmetry_group_IT_number 15
_symmetry_cell_setting 'monoclinic'
loop_
_space_group_symop_operation_xyz
x,y,z
-x,y,1/2-z
-x,-y,-z
x,-y,1/2+z
1/2+x,1/2+y,z
1/2-x,1/2+y,1/2-z
1/2-x,1/2-y,-z
1/2+x,1/2-y,1/2+z
loop_
_atom_site_type_symbol
_atom_site_label
_atom_site_fract_x
_atom_site_fract_y
_atom_site_fract_z
Si Si1 0.494043 0.584899 0.452997
Si Si2 0.500000 0.238212 0.750000
Si Si3 0.684193 0.656246 0.084701
Si Si4 0.497162 0.135894 0.885816
Si Si5 0.136006 0.032956 0.227461
Si Si6 0.867273 0.547520 0.559300
Si Si7 0.000000 0.521511 0.750000
Si Si8 0.726132 0.467739 0.943139
O O1 0.417387 0.646892 0.449301
O O2 0.591470 0.558673 0.335479
O O3 0.367608 0.533490 0.521327
O O4 0.606765 0.585709 0.475867
O O5 0.375045 0.283536 0.838184
O O6 0.550414 0.192023 0.801815
O O7 0.667598 0.593071 0.151588
O O8 0.841890 0.655972 0.983190
O O9 0.583860 0.116540 0.928294
O O10 0.494818 0.070577 0.830679
O O11 0.000000 0.999153 0.250000
O O12 0.260886 0.983767 0.171585
O O13 0.791151 0.543921 0.504737
O O14 0.000000 0.500000 0.500000
O O15 0.139480 0.478140 0.676390
#
# Coordination Sequence:
#
# PCOD9255763 Si02
#       8
#     8   4   8   8   8   8   4   8
#     4  10  19  33  52  81 112 144 187 225 272 343
#     4  11  24  38  58  82 108 152 203 238 270 323
#     4  11  18  39  59  78 107 148 194 232 279 326
#     4  11  23  34  56  85 113 145 189 236 284 329
#     4  10  17  32  57  81 109 150 180 224 283 346
#     4  12  19  35  53  81 123 148 176 231 296 353
#     4  11  18  34  48  84 120 144 175 226 274 337
#     4  11  21  30  51  84 118 150 173 222 291 348
#
# _framework density 17.504307000000001
#
# number of rings (size 3 to 8) (size 9 to 14) (size 15 to 20)
#    0.000    1.143    9.286    1.286    0.000    0.000 
#    0.000    0.000    0.000    0.857    0.000    2.000 
#    0.000    0.000    0.000    0.000    0.000    0.000 
#
# Total GULP energy -156013.099649 kJ/mol
# GULP energy per Si atom -5571.896416 kJ/mol
# Density = 1.746447 g / cm^3
# Si number density = 17.504307 Si / 1000 Ang^3
#
#
#
# Elastic Constant Matrix: (Units=GPa)
#
#
# Indices 1 2 3 4 5 6 
#
# 1 128.9495 35.4614 33.8063 0.0000 -3.3093 0.0000
# 2 35.4614 61.0462 26.2967 0.0000 -8.6561 0.0000
# 3 33.8063 26.2967 70.8999 0.0000 -8.4262 0.0000
# 4 0.0000 0.0000 0.0000 27.8775 0.0000 8.8813
# 5 -3.3093 -8.6561 -8.4262 0.0000 23.6732 0.0000
# 6 0.0000 0.0000 0.0000 8.8813 0.0000 16.7051
#
#
#
# Elastic Compliance Matrix: (Units=1/GPa)
#
#
# Indices 1 2 3 4 5 6 
#
# 1 0.009792 -0.004528 -0.003157 0.000000 -0.001411 0.000000
# 2 -0.004528 0.022116 -0.005386 0.000000 0.005537 0.000000
# 3 -0.003157 -0.005386 0.018086 0.000000 0.004027 0.000000
# 4 0.000000 0.000000 0.000000 0.043186 0.000000 -0.022960
# 5 -0.001411 0.005537 0.004027 0.000000 0.045502 0.000000
# 6 0.000000 0.000000 0.000000 -0.022960 0.000000 0.072069
#
#
# Mechanical properties :
#
#
# Convention : Reuss Voigt Hill
#
# Bulk Modulus (GPa) = 41.92493 50.22493 46.07493
# Shear Modulus (GPa) = 20.42120 24.67323 22.54722
#
# Velocity S-wave (km/s) = 3.41931 3.75847 3.59290
# Velocity P-wave (km/s) = 6.29223 6.89855 6.60235
#
# Compressibility (1/GPa) = 0.02385216
#
# Stress axis : x y z
#
# Youngs Moduli (GPa) = 102.12779 45.21515 55.29160
#
# Poissons Ratio (x) = 0.20473 0.17456
# Poissons Ratio (y) = 0.46243 0.29780
# Poissons Ratio (z) = 0.32242 0.24353
#
# Static dielectric constant tensor:
#      x y z
#    x 1.685510 0.000000 0.018790 
#    y 0.000000 1.602600 0.000000 
#    z 0.018790 0.000000 1.652400 
# 
# From -- ./inp_files/200144.got.cif
#   From: 2010.05.17/outbox.cif.g08.bks.cpg/sg15_101_cif.got.tgz:200144.got - 2010.06.03 18:47:42.
