data_PCOD9255323
_publ_section_title
;
Structure prediction by ZEFSAII (Michael W. Deem and Ramdas Pophale) SiO2 
 PCOD9255323
Probable space group: C 2/C
;
_chemical_formula_sum "Si O2"
_cell_formula_units_Z 52
_cell_length_a 8.868978
_cell_length_b 30.134873
_cell_length_c 14.180873
_cell_angle_alpha 90.000000
_cell_angle_beta 136.222598
_cell_angle_gamma 90.000000
_cell_volume 2622.183987
_symmetry_space_group_name_H-M "C 2/C"
_symmetry_group_IT_number 15
_symmetry_cell_setting 'monoclinic'
loop_
_space_group_symop_operation_xyz
x,y,z
-x,y,1/2-z
-x,-y,-z
x,-y,1/2+z
1/2+x,1/2+y,z
1/2-x,1/2+y,1/2-z
1/2-x,1/2-y,-z
1/2+x,1/2-y,1/2+z
loop_
_atom_site_type_symbol
_atom_site_label
_atom_site_fract_x
_atom_site_fract_y
_atom_site_fract_z
Si Si1 0.716207 0.542595 0.723037
Si Si2 0.732805 0.833094 0.457878
Si Si3 0.000000 0.967427 0.750000
Si Si4 0.779589 0.433903 0.048512
Si Si5 0.000000 0.115830 0.750000
Si Si6 0.391907 0.258336 0.385296
Si Si7 0.000000 0.193340 0.250000
Si Si8 0.205070 0.695473 0.633141
O O1 0.647417 0.499721 0.751576
O O2 0.692537 0.538751 0.599432
O O3 0.573489 0.583597 0.698848
O O4 0.970307 0.552813 0.856011
O O5 0.720029 0.882902 0.416099
O O6 0.835014 0.796612 0.435058
O O7 0.497292 0.816598 0.387808
O O8 0.889268 0.834383 0.618701
O O9 0.856179 0.940832 0.608560
O O10 0.799940 0.149223 0.637414
O O11 0.384759 0.281839 0.281621
O O12 0.598957 0.229705 0.511510
O O13 0.188891 0.224558 0.294410
#
# Coordination Sequence:
#
# PCOD9255323 Si02
#       8
#     8   8   4   8   4   8   4   8
#     4  10  23  41  65  92 125 159 201 249 305 371
#     4  11  19  32  57  88 114 150 207 253 292 353
#     4  11  23  42  66  96 130 150 194 254 322 372
#     4  11  22  40  66  96 118 163 202 248 305 373
#     4  11  22  40  59  88 120 168 206 255 294 371
#     4  11  19  34  54  84 113 159 202 258 294 350
#     4  10  17  30  49  86 118 148 194 263 300 325
#     4  11  21  34  56  77 120 159 204 243 310 340
#
# _framework density 19.830797
#
# number of rings (size 3 to 8) (size 9 to 14) (size 15 to 20)
#    0.000    1.231    4.615    3.231    2.154    0.615 
#    0.000    0.000    0.000    1.846    0.000    0.000 
#    0.000    0.000    0.000    0.000    0.000    0.000 
#
# Total GULP energy -145212.092588 kJ/mol
# GULP energy per Si atom -5585.080484 kJ/mol
# Density = 1.978566 g / cm^3
# Si number density = 19.830797 Si / 1000 Ang^3
#
#
#
# Elastic Constant Matrix: (Units=GPa)
#
#
# Indices 1 2 3 4 5 6 
#
# 1 96.7969 28.2357 30.1434 0.0000 -7.9574 0.0000
# 2 28.2357 88.4985 26.9086 0.0000 4.4073 0.0000
# 3 30.1434 26.9086 114.2493 0.0000 -10.2315 0.0000
# 4 0.0000 0.0000 0.0000 25.4821 0.0000 4.5202
# 5 -7.9574 4.4073 -10.2315 0.0000 23.6002 0.0000
# 6 0.0000 0.0000 0.0000 4.5202 0.0000 22.3029
#
#
#
# Elastic Compliance Matrix: (Units=1/GPa)
#
#
# Indices 1 2 3 4 5 6 
#
# 1 0.012318 -0.003493 -0.002078 0.000000 0.003905 0.000000
# 2 -0.003493 0.013473 -0.002687 0.000000 -0.004859 0.000000
# 3 -0.002078 -0.002687 0.010316 0.000000 0.004274 0.000000
# 4 0.000000 0.000000 0.000000 0.040707 0.000000 -0.008250
# 5 0.003905 -0.004859 0.004274 0.000000 0.046449 0.000000
# 6 0.000000 0.000000 0.000000 -0.008250 0.000000 0.046509
#
#
# Mechanical properties :
#
#
# Convention : Reuss Voigt Hill
#
# Bulk Modulus (GPa) = 51.03900 52.23557 51.63728
# Shear Modulus (GPa) = 25.93123 28.56083 27.24603
#
# Velocity S-wave (km/s) = 3.62003 3.79915 3.71067
# Velocity P-wave (km/s) = 6.57769 6.75592 6.66740
#
# Compressibility (1/GPa) = 0.01959286
#
# Stress axis : x y z
#
# Youngs Moduli (GPa) = 81.18383 74.22313 96.93242
#
# Poissons Ratio (x) = 0.25924 0.20138
# Poissons Ratio (y) = 0.28356 0.26044
# Poissons Ratio (z) = 0.16867 0.19942
#
# Static dielectric constant tensor:
#      x y z
#    x 1.745270 0.000000 -0.002600 
#    y 0.000000 1.696100 0.000000 
#    z -0.002600 0.000000 1.692890 
# 
# From -- ./inp_files/139752.got.cif
#   From: 2010.05.17/outbox.cif.g08.bks.cpg/sg15_70_cif.got.tgz:139752.got - 2010.06.03 18:47:42.
