data_PCOD9255213
_publ_section_title
;
Structure prediction by ZEFSAII (Michael W. Deem and Ramdas Pophale) SiO2 
 PCOD9255213
Probable space group: C 2/C
;
_chemical_formula_sum "Si O2"
_cell_formula_units_Z 56
_cell_length_a 23.797108
_cell_length_b 16.669658
_cell_length_c 24.782199
_cell_angle_alpha 90.000000
_cell_angle_beta 158.933270
_cell_angle_gamma 90.000000
_cell_volume 3533.745354
_symmetry_space_group_name_H-M "C 2/C"
_symmetry_group_IT_number 15
_symmetry_cell_setting 'monoclinic'
loop_
_space_group_symop_operation_xyz
x,y,z
-x,y,1/2-z
-x,-y,-z
x,-y,1/2+z
1/2+x,1/2+y,z
1/2-x,1/2+y,1/2-z
1/2-x,1/2-y,-z
1/2+x,1/2-y,1/2+z
loop_
_atom_site_type_symbol
_atom_site_label
_atom_site_fract_x
_atom_site_fract_y
_atom_site_fract_z
Si Si1 0.969236 0.864502 0.474756
Si Si2 0.250338 0.835435 0.393720
Si Si3 0.579129 0.895223 0.685410
Si Si4 0.558330 0.435763 0.359133
Si Si5 0.369900 0.508014 0.459675
Si Si6 0.239594 0.257070 0.770598
Si Si7 0.826085 0.682838 0.116174
O O1 0.826265 0.809850 0.327934
O O2 0.033405 0.919072 0.482234
O O3 0.106194 0.802041 0.610675
O O4 0.927367 0.926252 0.484220
O O5 0.392728 0.898377 0.523330
O O6 0.262389 0.788342 0.347986
O O7 0.262221 0.766144 0.450156
O O8 0.082717 0.877037 0.249128
O O9 0.689614 0.973116 0.781025
O O10 0.619745 0.830319 0.675542
O O11 0.642418 0.855514 0.796920
O O12 0.500000 0.472822 0.250000
O O13 0.600220 0.488510 0.449288
O O14 0.711478 0.381147 0.485624
O O15 0.000000 0.695805 0.250000
#
# Coordination Sequence:
#
# PCOD9255213 Si02
#       7
#     8   8   8   8   8   8   8
#     4  10  18  34  53  70  98 128 167 206 253 296
#     4  11  18  28  44  69 101 130 170 202 235 279
#     4   9  18  29  44  64  98 129 162 202 238 287
#     4  11  21  31  46  69 100 135 171 202 237 291
#     4   9  20  35  48  68  99 138 162 201 255 297
#     4  10  17  29  50  73  93 127 164 207 247 289
#     4  10  19  29  41  64  96 136 174 198 230 272
#
# _framework density 15.847208999999999
#
# number of rings (size 3 to 8) (size 9 to 14) (size 15 to 20)
#    0.000    2.000    2.857    3.857    0.000    1.714 
#    0.000    2.143    0.000    0.000    0.000    1.000 
#    0.000    0.000    0.000    0.000    0.000    0.000 
#
# Total GULP energy -156004.124576 kJ/mol
# GULP energy per Si atom -5571.575878 kJ/mol
# Density = 1.581114 g / cm^3
# Si number density = 15.847209 Si / 1000 Ang^3
#
#
#
# Elastic Constant Matrix: (Units=GPa)
#
#
# Indices 1 2 3 4 5 6 
#
# 1 66.9549 36.1817 34.6670 0.0004 0.0708 0.0008
# 2 36.1817 60.4800 36.3282 -0.0037 0.6000 -0.0013
# 3 34.6670 36.3282 85.6578 -0.0043 7.3015 -0.0014
# 4 0.0004 -0.0037 -0.0043 16.1348 -0.0038 4.6402
# 5 0.0708 0.6000 7.3015 -0.0038 22.9738 -0.0008
# 6 0.0008 -0.0013 -0.0014 4.6402 -0.0008 28.1495
#
#
#
# Elastic Compliance Matrix: (Units=1/GPa)
#
#
# Indices 1 2 3 4 5 6 
#
# 1 0.023496 -0.011098 -0.004955 -0.000004 0.001792 -0.000001
# 2 -0.011098 0.027566 -0.007340 0.000005 0.001647 0.000001
# 3 -0.004955 -0.007340 0.017242 0.000002 -0.005273 0.000000
# 4 -0.000004 0.000005 0.000002 0.065062 0.000010 -0.010725
# 5 0.001792 0.001647 -0.005273 0.000010 0.045155 -0.000001
# 6 -0.000001 0.000001 0.000000 -0.010725 -0.000001 0.037293
#
#
# Mechanical properties :
#
#
# Convention : Reuss Voigt Hill
#
# Bulk Modulus (GPa) = 46.47186 47.49405 46.98296
# Shear Modulus (GPa) = 18.53402 20.51266 19.52334
#
# Velocity S-wave (km/s) = 3.42357 3.60168 3.51376
# Velocity P-wave (km/s) = 6.70943 6.87977 6.79513
#
# Compressibility (1/GPa) = 0.02151840
#
# Stress axis : x y z
#
# Youngs Moduli (GPa) = 42.55968 36.27649 57.99680
#
# Poissons Ratio (x) = 0.40259 0.28740
# Poissons Ratio (y) = 0.47232 0.42569
# Poissons Ratio (z) = 0.21090 0.26627
#
# Static dielectric constant tensor:
#      x y z
#    x 1.565910 0.000000 -0.005640 
#    y 0.000000 1.506100 0.000000 
#    z -0.005640 0.000000 1.577260 
# 
# From -- ./inp_files/62263.got.cif
#   From: 2010.05.17/outbox.cif.g08.bks.cpg/sg15_32_cif.got.tgz:62263.got - 2010.06.03 18:47:42.
