data_PCOD9255770
_publ_section_title
;
Structure prediction by ZEFSAII (Michael W. Deem and Ramdas Pophale) SiO2 
 PCOD9255770
Probable space group: C 2/C
;
_chemical_formula_sum "Si O2"
_cell_formula_units_Z 48
_cell_length_a 9.186166
_cell_length_b 20.953372
_cell_length_c 18.288196
_cell_angle_alpha 90.000000
_cell_angle_beta 133.640128
_cell_angle_gamma 90.000000
_cell_volume 2547.480511
_symmetry_space_group_name_H-M "C 2/C"
_symmetry_group_IT_number 15
_symmetry_cell_setting 'monoclinic'
loop_
_space_group_symop_operation_xyz
x,y,z
-x,y,1/2-z
-x,-y,-z
x,-y,1/2+z
1/2+x,1/2+y,z
1/2-x,1/2+y,1/2-z
1/2-x,1/2-y,-z
1/2+x,1/2-y,1/2+z
loop_
_atom_site_type_symbol
_atom_site_label
_atom_site_fract_x
_atom_site_fract_y
_atom_site_fract_z
Si Si1 0.787967 0.040158 0.210155
Si Si2 0.739925 0.595999 0.846166
Si Si3 0.160153 0.180486 0.957677
Si Si4 0.203145 0.649867 0.789219
Si Si5 0.432699 0.102097 0.148664
Si Si6 0.306776 0.488125 0.382267
O O1 0.622548 0.095516 0.160899
O O2 0.000000 0.060754 0.250000
O O3 0.704168 0.979038 0.135177
O O4 0.833384 0.015420 0.308974
O O5 0.500000 0.592143 0.750000
O O6 0.832557 0.629164 0.807090
O O7 0.752364 0.640552 0.921300
O O8 0.581073 0.315353 0.133068
O O9 0.239658 0.138763 0.052812
O O10 0.250000 0.250000 0.000000
O O11 0.245112 0.584923 0.849767
O O12 0.000000 0.680801 0.750000
O O13 0.500000 0.129539 0.250000
O O14 0.367295 0.029156 0.140437
O O15 0.500000 0.500000 0.500000
#
# Coordination Sequence:
#
# PCOD9255770 Si02
#       6
#     8   8   8   8   8   8
#     4   9  18  33  52  84 118 144 179 228 291 344
#     4   8  17  34  56  80 112 146 186 230 277 340
#     4  11  23  39  57  82 111 158 202 226 274 337
#     4  10  19  37  61  85 111 146 192 241 287 339
#     4  10  21  36  55  84 118 148 181 233 293 340
#     4  10  17  32  57  86 116 145 181 231 291 351
#
# _framework density 18.842146
#
# number of rings (size 3 to 8) (size 9 to 14) (size 15 to 20)
#    0.000    2.333    1.667    3.500    0.000    2.667 
#    3.000    1.667    0.000    0.000    0.000    0.000 
#    0.000    0.000    0.000    0.000    0.000    0.000 
#
# Total GULP energy -133698.275992 kJ/mol
# GULP energy per Si atom -5570.761500 kJ/mol
# Density = 1.879926 g / cm^3
# Si number density = 18.842146 Si / 1000 Ang^3
#
#
#
# Elastic Constant Matrix: (Units=GPa)
#
#
# Indices 1 2 3 4 5 6 
#
# 1 111.8126 3.3247 16.5547 0.0000 15.8303 0.0000
# 2 3.3247 42.8978 13.6018 0.0000 0.3643 0.0000
# 3 16.5547 13.6018 84.3404 0.0000 4.5275 0.0000
# 4 0.0000 0.0000 0.0000 8.7109 0.0000 13.9033
# 5 15.8303 0.3643 4.5275 0.0000 24.2571 0.0000
# 6 0.0000 0.0000 0.0000 13.9033 0.0000 4.7195
#
#
#
# Elastic Compliance Matrix: (Units=1/GPa)
#
#
# Indices 1 2 3 4 5 6 
#
# 1 0.010076 -0.000218 -0.001606 0.000000 -0.006273 0.000000
# 2 -0.000218 0.024576 -0.003948 0.000000 0.000510 0.000000
# 3 -0.001606 -0.003948 0.012878 0.000000 -0.001296 0.000000
# 4 0.000000 0.000000 0.000000 -0.031010 0.000000 0.091355
# 5 -0.006273 0.000510 -0.001296 0.000000 0.045553 0.000000
# 6 0.000000 0.000000 0.000000 0.091355 0.000000 -0.057237
#
#
# Mechanical properties :
#
#
# Convention : Reuss Voigt Hill
#
# Bulk Modulus (GPa) = 27.78912 34.00147 30.89529
# Shear Modulus (GPa) = 176.21426 21.24214 98.72820
#
# Velocity S-wave (km/s) = 9.68113 3.36128 7.24647
# Velocity P-wave (km/s) = 11.82143 5.75751 9.29772
#
# Compressibility (1/GPa) = 0.03598530
#
# Stress axis : x y z
#
# Youngs Moduli (GPa) = 99.24738 40.69083 77.65068
#
# Poissons Ratio (x) = 0.00889 0.12469
# Poissons Ratio (y) = 0.02169 0.30656
# Poissons Ratio (z) = 0.15937 0.16064
#
# Static dielectric constant tensor:
#      x y z
#    x 1.723650 0.000000 0.002360 
#    y 0.000000 1.655320 0.000000 
#    z 0.002360 0.000000 1.692070 
# 
# From -- ./inp_files/192316.got.cif
#   From: 2010.05.17/outbox.cif.g08.bks.cpg/sg15_97_cif.got.tgz:192316.got - 2010.06.03 18:47:42.
