data_PCOD9255584
_publ_section_title
;
Structure prediction by ZEFSAII (Michael W. Deem and Ramdas Pophale) SiO2 
 PCOD9255584
Probable space group: C 2/C
;
_chemical_formula_sum "Si O2"
_cell_formula_units_Z 52
_cell_length_a 23.195270
_cell_length_b 7.497617
_cell_length_c 28.032865
_cell_angle_alpha 90.000000
_cell_angle_beta 155.847560
_cell_angle_gamma 90.000000
_cell_volume 1994.754505
_symmetry_space_group_name_H-M "C 2/C"
_symmetry_group_IT_number 15
_symmetry_cell_setting 'monoclinic'
loop_
_space_group_symop_operation_xyz
x,y,z
-x,y,1/2-z
-x,-y,-z
x,-y,1/2+z
1/2+x,1/2+y,z
1/2-x,1/2+y,1/2-z
1/2-x,1/2-y,-z
1/2+x,1/2-y,1/2+z
loop_
_atom_site_type_symbol
_atom_site_label
_atom_site_fract_x
_atom_site_fract_y
_atom_site_fract_z
Si Si1 0.156679 0.402501 0.784706
Si Si2 0.934532 0.724990 0.433874
Si Si3 0.852791 0.055043 0.552148
Si Si4 0.857779 0.529277 0.030794
Si Si5 0.000000 0.758132 0.250000
Si Si6 0.715711 0.028073 0.625880
Si Si7 0.038712 0.947520 0.961112
O O1 0.188783 0.199825 0.791773
O O2 0.305370 0.499983 0.899987
O O3 0.026496 0.495103 0.659694
O O4 0.100153 0.371279 0.795499
O O5 0.791555 0.620936 0.338692
O O6 0.056042 0.603697 0.503748
O O7 0.934405 0.896485 0.399908
O O8 0.995878 0.780689 0.532303
O O9 0.840042 0.252578 0.518133
O O10 0.713720 0.976625 0.472685
O O11 0.938955 0.111907 0.663917
O O12 0.933072 0.936446 0.573841
O O13 0.773395 0.460782 0.920665
#
# Coordination Sequence:
#
# PCOD9255584 Si02
#       7
#     8   8   8   8   4   8   8
#     4  10  18  30  58  82 110 138 188 225 275 325
#     4   9  20  34  61  75 116 153 187 223 279 321
#     4  10  17  31  57  87 111 139 182 233 274 323
#     4  10  18  31  56  87 107 143 183 231 275 328
#     4  10  18  30  58  92 106 142 186 228 274 342
#     4  10  18  38  56  81 112 147 185 235 270 331
#     4  10  18  36  55  85 112 150 185 232 270 331
#
# _framework density 26.068369000000001
#
# number of rings (size 3 to 8) (size 9 to 14) (size 15 to 20)
#    0.000    2.154    4.615    1.846    0.000    0.000 
#    0.000    5.385   16.923    0.923    0.000    0.000 
#    0.000    0.000    0.000    0.000    0.000    0.000 
#
# Total GULP energy -145107.435511 kJ/mol
# GULP energy per Si atom -5581.055212 kJ/mol
# Density = 2.600904 g / cm^3
# Si number density = 26.068369 Si / 1000 Ang^3
#
#
#
# Elastic Constant Matrix: (Units=GPa)
#
#
# Indices 1 2 3 4 5 6 
#
# 1 165.6955 23.6885 17.0057 -0.0003 2.5890 0.0001
# 2 23.6885 59.7507 -5.1413 -0.0008 5.8965 0.0008
# 3 17.0057 -5.1413 70.0277 0.0005 -10.7381 -0.0008
# 4 -0.0003 -0.0008 0.0005 14.4753 0.0003 -3.3141
# 5 2.5890 5.8965 -10.7381 0.0003 36.4360 -0.0002
# 6 0.0001 0.0008 -0.0008 -3.3141 -0.0002 27.8202
#
#
#
# Elastic Compliance Matrix: (Units=1/GPa)
#
#
# Indices 1 2 3 4 5 6 
#
# 1 0.006630 -0.002734 -0.001901 0.000000 -0.000589 0.000000
# 2 -0.002734 0.018186 0.001652 0.000001 -0.002262 0.000000
# 3 -0.001901 0.001652 0.015545 0.000000 0.004449 0.000000
# 4 0.000000 0.000001 0.000000 0.071020 -0.000001 0.008460
# 5 -0.000589 -0.002262 0.004449 -0.000001 0.029164 0.000000
# 6 0.000000 0.000000 0.000000 0.008460 0.000000 0.036953
#
#
# Mechanical properties :
#
#
# Convention : Reuss Voigt Hill
#
# Bulk Modulus (GPa) = 29.07385 40.73107 34.90246
# Shear Modulus (GPa) = 25.65026 33.07436 29.36231
#
# Velocity S-wave (km/s) = 3.14022 3.56582 3.35977
# Velocity P-wave (km/s) = 4.93205 5.71070 5.33560
#
# Compressibility (1/GPa) = 0.03439517
#
# Stress axis : x y z
#
# Youngs Moduli (GPa) = 150.82106 54.98878 64.32822
#
# Poissons Ratio (x) = 0.15035 0.12230
# Poissons Ratio (y) = 0.41236 -0.10629
# Poissons Ratio (z) = 0.28674 -0.09086
#
# Static dielectric constant tensor:
#      x y z
#    x 2.102030 0.000000 0.067890 
#    y 0.000000 2.111730 0.000000 
#    z 0.067890 0.000000 2.176030 
# 
# From -- ./inp_files/318422.got.cif
#   From: 2010.05.17/outbox.cif.g08.bks.cpg/sg15_160_cif.got.tgz:318422.got - 2010.06.03 18:47:42.
