data_PCOD9255324
_publ_section_title
;
Structure prediction by ZEFSAII (Michael W. Deem and Ramdas Pophale) SiO2 
 PCOD9255324
Probable space group: C 2/C
;
_chemical_formula_sum "Si O2"
_cell_formula_units_Z 60
_cell_length_a 29.157944
_cell_length_b 19.721002
_cell_length_c 8.698982
_cell_angle_alpha 90.000000
_cell_angle_beta 128.585109
_cell_angle_gamma 90.000000
_cell_volume 3910.071926
_symmetry_space_group_name_H-M "C 2/C"
_symmetry_group_IT_number 15
_symmetry_cell_setting 'monoclinic'
loop_
_space_group_symop_operation_xyz
x,y,z
-x,y,1/2-z
-x,-y,-z
x,-y,1/2+z
1/2+x,1/2+y,z
1/2-x,1/2+y,1/2-z
1/2-x,1/2-y,-z
1/2+x,1/2-y,1/2+z
loop_
_atom_site_type_symbol
_atom_site_label
_atom_site_fract_x
_atom_site_fract_y
_atom_site_fract_z
Si Si1 0.500000 0.211612 0.250000
Si Si2 0.841432 0.456322 0.651696
Si Si3 0.627224 0.844965 0.018378
Si Si4 0.062187 0.404828 0.435964
Si Si5 0.533191 0.246014 0.981520
Si Si6 0.831974 0.387855 0.078493
Si Si7 0.840409 0.767073 0.164909
Si Si8 0.764136 0.654039 0.163160
O O1 0.557902 0.166110 0.385244
O O2 0.495751 0.251420 0.407090
O O3 0.856821 0.415776 0.529402
O O4 0.822354 0.532710 0.589550
O O5 0.793462 0.409495 0.636536
O O6 0.900718 0.453349 0.876817
O O7 0.656911 0.846270 0.245193
O O8 0.648992 0.783423 0.956843
O O9 0.047485 0.334503 0.492408
O O10 0.107779 0.385451 0.396120
O O11 0.000000 0.432934 0.250000
O O12 0.500000 0.263567 0.750000
O O13 0.596468 0.281957 0.129359
O O14 0.777575 0.360097 0.867908
O O15 0.802077 0.720866 0.199663
O O16 0.801279 0.829669 0.027376
#
# Coordination Sequence:
#
# PCOD9255324 Si02
#       8
#     4   8   8   8   8   8   8   8
#     4  10  18  28  44  64  94 124 156 198 228 276
#     4  10  19  33  41  61  89 120 161 194 228 269
#     4  10  18  29  42  64  88 118 154 193 237 264
#     4  10  18  31  41  60  90 125 166 188 223 269
#     4  10  17  30  50  69  95 125 153 191 242 281
#     4  11  20  29  45  61  89 123 159 201 230 265
#     4   9  17  32  49  63  88 115 156 191 226 292
#     4   9  18  33  48  62  83 123 154 190 237 270
#
# _framework density 15.344986
#
# number of rings (size 3 to 8) (size 9 to 14) (size 15 to 20)
#    0.000    2.133    5.333    3.200    0.000    1.067 
#    2.400    0.000    0.000    0.000    0.000    0.000 
#    0.000    1.067    0.000    1.067    0.000    0.000 
#
# Total GULP energy -167045.670174 kJ/mol
# GULP energy per Si atom -5568.189006 kJ/mol
# Density = 1.531006 g / cm^3
# Si number density = 15.344986 Si / 1000 Ang^3
#
#
#
# Elastic Constant Matrix: (Units=GPa)
#
#
# Indices 1 2 3 4 5 6 
#
# 1 31.9372 8.1094 40.5413 0.0000 -0.2521 0.0000
# 2 8.1094 35.0947 37.2825 0.0000 12.1000 0.0000
# 3 40.5413 37.2825 147.7547 0.0000 2.5604 0.0000
# 4 0.0000 0.0000 0.0000 16.5322 0.0000 1.9057
# 5 -0.2521 12.1000 2.5604 0.0000 24.9684 0.0000
# 6 0.0000 0.0000 0.0000 1.9057 0.0000 2.3288
#
#
#
# Elastic Compliance Matrix: (Units=1/GPa)
#
#
# Indices 1 2 3 4 5 6 
#
# 1 0.048453 0.003989 -0.014302 0.000000 0.000022 0.000000
# 2 0.003989 0.049291 -0.013142 0.000000 -0.022499 0.000000
# 3 -0.014302 -0.013142 0.013925 0.000000 0.004797 0.000000
# 4 0.000000 0.000000 0.000000 0.066788 0.000000 -0.054653
# 5 0.000022 -0.022499 0.004797 0.000000 0.050462 0.000000
# 6 0.000000 0.000000 0.000000 -0.054653 0.000000 0.474133
#
#
# Mechanical properties :
#
#
# Convention : Reuss Voigt Hill
#
# Bulk Modulus (GPa) = 15.44148 42.96145 29.20147
# Shear Modulus (GPa) = 6.48047 17.35612 11.91829
#
# Velocity S-wave (km/s) = 2.05727 3.36677 2.78994
# Velocity P-wave (km/s) = 3.96584 6.57049 5.42675
#
# Compressibility (1/GPa) = 0.06476063
#
# Stress axis : x y z
#
# Youngs Moduli (GPa) = 20.63840 20.28749 71.81237
#
# Poissons Ratio (x) = -0.08094 1.02705
# Poissons Ratio (y) = -0.08234 0.94378
# Poissons Ratio (z) = 0.29517 0.26662
#
# Static dielectric constant tensor:
#      x y z
#    x 1.549580 0.000000 -0.028300 
#    y 0.000000 1.475750 0.000000 
#    z -0.028300 0.000000 1.556190 
# 
# From -- ./inp_files/57494.got.cif
#   From: 2010.05.17/outbox.cif.g08.bks.cpg/sg15_29_cif.got.tgz:57494.got - 2010.06.03 18:47:42.
