data_PCOD9255090
_publ_section_title
;
Structure prediction by ZEFSAII (Michael W. Deem and Ramdas Pophale) SiO2 
 PCOD9255090
Probable space group: C 2/C
;
_chemical_formula_sum "Si O2"
_cell_formula_units_Z 36
_cell_length_a 26.847126
_cell_length_b 7.329719
_cell_length_c 24.620951
_cell_angle_alpha 90.000000
_cell_angle_beta 163.894397
_cell_angle_gamma 90.000000
_cell_volume 1344.032846
_symmetry_space_group_name_H-M "C 2/C"
_symmetry_group_IT_number 15
_symmetry_cell_setting 'monoclinic'
loop_
_space_group_symop_operation_xyz
x,y,z
-x,y,1/2-z
-x,-y,-z
x,-y,1/2+z
1/2+x,1/2+y,z
1/2-x,1/2+y,1/2-z
1/2-x,1/2-y,-z
1/2+x,1/2-y,1/2+z
loop_
_atom_site_type_symbol
_atom_site_label
_atom_site_fract_x
_atom_site_fract_y
_atom_site_fract_z
Si Si1 0.500000 0.175216 0.750000
Si Si2 0.911967 0.641723 0.826217
Si Si3 0.874078 0.020417 0.661588
Si Si4 0.723024 0.965834 0.110743
Si Si5 0.838719 0.868946 0.345221
O O1 0.319569 0.057181 0.560825
O O2 0.490542 0.330417 0.788043
O O3 0.827215 0.837085 0.721425
O O4 0.762962 0.555406 0.708483
O O5 0.012670 0.520784 0.887255
O O6 0.070105 0.688144 0.035445
O O7 0.820943 0.120494 0.661336
O O8 0.000000 0.124797 0.750000
O O9 0.739904 0.855049 0.184322
O O10 0.000000 0.000000 0.500000
#
# Coordination Sequence:
#
# PCOD9255090 Si02
#       5
#     4   8   8   8   8
#     4   8  16  26  40  60  96 120 152 188 236 266
#     4   9  18  29  45  65  99 119 152 192 223 269
#     4   9  16  27  41  62  94 120 151 189 222 284
#     4  10  17  28  46  68  91 130 152 178 236 274
#     4   9  18  31  45  67  92 123 156 189 225 279
#
# _framework density 26.785060999999999
#
# number of rings (size 3 to 8) (size 9 to 14) (size 15 to 20)
#    0.667    2.222    0.000    2.000    0.000    0.000 
#    4.000    0.000    0.000    0.000    0.000    1.556 
#    0.000    0.000    0.000    0.000    0.000    0.000 
#
# Total GULP energy -100275.323626 kJ/mol
# GULP energy per Si atom -5570.851313 kJ/mol
# Density = 2.672410 g / cm^3
# Si number density = 26.785061 Si / 1000 Ang^3
#
#
#
# Elastic Constant Matrix: (Units=GPa)
#
#
# Indices 1 2 3 4 5 6 
#
# 1 160.6440 14.2541 36.0343 0.0007 73.0258 0.0000
# 2 14.2541 72.4429 14.5559 0.0026 6.3185 0.0018
# 3 36.0343 14.5559 88.2089 -0.0034 49.1928 0.0010
# 4 0.0007 0.0026 -0.0034 22.0885 0.0009 -14.6454
# 5 73.0258 6.3185 49.1928 0.0009 60.3594 0.0010
# 6 0.0000 0.0018 0.0010 -14.6454 0.0010 18.8823
#
#
#
# Elastic Compliance Matrix: (Units=1/GPa)
#
#
# Indices 1 2 3 4 5 6 
#
# 1 0.016937 -0.002712 0.008796 0.000006 -0.027376 0.000006
# 2 -0.002712 0.014732 -0.004204 -0.000007 0.005165 -0.000007
# 3 0.008796 -0.004204 0.025897 0.000012 -0.031308 0.000010
# 4 0.000006 -0.000007 0.000012 0.093203 -0.000019 0.072289
# 5 -0.027376 0.005165 -0.031308 -0.000019 0.074664 -0.000017
# 6 0.000006 -0.000007 0.000010 0.072289 -0.000017 0.109028
#
#
# Mechanical properties :
#
#
# Convention : Reuss Voigt Hill
#
# Bulk Modulus (GPa) = 16.30620 50.10937 33.20778
# Shear Modulus (GPa) = 14.23922 37.36281 25.80102
#
# Velocity S-wave (km/s) = 2.30817 3.73890 3.10701
# Velocity P-wave (km/s) = 3.63381 6.11455 5.02953
#
# Compressibility (1/GPa) = 0.06132637
#
# Stress axis : x y z
#
# Youngs Moduli (GPa) = 59.04091 67.88056 38.61459
#
# Poissons Ratio (x) = 0.18411 -0.33965
# Poissons Ratio (y) = 0.16013 0.16232
# Poissons Ratio (z) = -0.51932 0.28534
#
# Static dielectric constant tensor:
#      x y z
#    x 2.385350 0.000000 -0.013730 
#    y 0.000000 2.137430 0.000000 
#    z -0.013730 0.000000 2.182840 
# 
# From -- ./inp_files/53859.got.cif
#   From: 2010.05.17/outbox.cif.g08.bks.cpg/sg15_27_cif.got.tgz:53859.got - 2010.06.03 18:47:42.
