data_PCOD9255029
_publ_section_title
;
Structure prediction by ZEFSAII (Michael W. Deem and Ramdas Pophale) SiO2 
 PCOD9255029
Probable space group: C 2/C
;
_chemical_formula_sum "Si O2"
_cell_formula_units_Z 52
_cell_length_a 22.435977
_cell_length_b 15.823192
_cell_length_c 13.257745
_cell_angle_alpha 90.000000
_cell_angle_beta 152.786606
_cell_angle_gamma 90.000000
_cell_volume 2152.362844
_symmetry_space_group_name_H-M "C 2/C"
_symmetry_group_IT_number 15
_symmetry_cell_setting 'monoclinic'
loop_
_space_group_symop_operation_xyz
x,y,z
-x,y,1/2-z
-x,-y,-z
x,-y,1/2+z
1/2+x,1/2+y,z
1/2-x,1/2+y,1/2-z
1/2-x,1/2-y,-z
1/2+x,1/2-y,1/2+z
loop_
_atom_site_type_symbol
_atom_site_label
_atom_site_fract_x
_atom_site_fract_y
_atom_site_fract_z
Si Si1 0.500000 0.758548 0.750000
Si Si2 0.623533 0.038517 0.053615
Si Si3 0.670651 0.979311 0.383651
Si Si4 0.782789 0.124530 0.811184
Si Si5 0.946731 0.918328 0.854648
Si Si6 0.189236 0.193847 0.188157
Si Si7 0.300172 0.158782 0.045450
O O1 0.391252 0.702799 0.536109
O O2 0.546697 0.822272 0.734367
O O3 0.700065 0.958404 0.218185
O O4 0.695777 0.128496 0.162281
O O5 0.474824 0.047804 0.867116
O O6 0.639792 0.015737 0.958750
O O7 0.808793 0.931376 0.590036
O O8 0.708894 0.073844 0.406296
O O9 0.741145 0.213517 0.797381
O O10 0.756600 0.141411 0.651517
O O11 0.935900 0.105521 0.042195
O O12 0.909549 0.846410 0.879770
O O13 0.000000 0.000000 0.000000
O O14 0.250000 0.250000 0.000000
#
# Coordination Sequence:
#
# PCOD9255029 Si02
#       7
#     4   8   8   8   8   8   8
#     4  10  20  28  46  78 108 140 168 218 286 330
#     4   9  17  33  51  75 108 143 177 226 274 317
#     4   9  17  29  51  77 104 136 182 223 266 317
#     4  10  19  32  52  83 111 141 183 227 278 332
#     4  11  18  34  57  85 104 142 195 224 263 331
#     4  10  20  33  54  79 114 143 180 230 279 321
#     4  10  17  27  47  77 107 129 166 221 283 327
#
# _framework density 24.159496000000001
#
# number of rings (size 3 to 8) (size 9 to 14) (size 15 to 20)
#    0.000    2.154    4.615    3.692    0.000    0.000 
#    0.000    0.769    0.000   12.000    0.000    0.000 
#    0.000    0.000    0.000    0.000    0.000    0.000 
#
# Total GULP energy -145016.049939 kJ/mol
# GULP energy per Si atom -5577.540382 kJ/mol
# Density = 2.410451 g / cm^3
# Si number density = 24.159496 Si / 1000 Ang^3
#
#
#
# Elastic Constant Matrix: (Units=GPa)
#
#
# Indices 1 2 3 4 5 6 
#
# 1 55.3486 25.2386 32.7805 0.0000 25.0047 0.0000
# 2 25.2386 164.1525 58.9440 0.0000 26.0714 0.0000
# 3 32.7805 58.9440 147.0187 0.0000 40.1197 0.0000
# 4 0.0000 0.0000 0.0000 24.2672 0.0000 8.6008
# 5 25.0047 26.0714 40.1197 0.0000 45.8532 0.0000
# 6 0.0000 0.0000 0.0000 8.6008 0.0000 39.6508
#
#
#
# Elastic Compliance Matrix: (Units=1/GPa)
#
#
# Indices 1 2 3 4 5 6 
#
# 1 0.024849 -0.001354 -0.001984 0.000000 -0.011045 0.000000
# 2 -0.001354 0.007338 -0.002237 0.000000 -0.001476 0.000000
# 3 -0.001984 -0.002237 0.009851 0.000000 -0.006265 0.000000
# 4 0.000000 0.000000 0.000000 0.044640 0.000000 -0.009683
# 5 -0.011045 -0.001476 -0.006265 0.000000 0.034153 0.000000
# 6 0.000000 0.000000 0.000000 -0.009683 0.000000 0.027321
#
#
# Mechanical properties :
#
#
# Convention : Reuss Voigt Hill
#
# Bulk Modulus (GPa) = 32.37444 66.71622 49.54533
# Shear Modulus (GPa) = 29.48151 38.59135 34.03643
#
# Velocity S-wave (km/s) = 3.49705 4.00103 3.75750
# Velocity P-wave (km/s) = 5.45300 7.00137 6.27513
#
# Compressibility (1/GPa) = 0.03088857
#
# Stress axis : x y z
#
# Youngs Moduli (GPa) = 40.24226 136.27885 101.51429
#
# Poissons Ratio (x) = 0.18453 0.20136
# Poissons Ratio (y) = 0.05449 0.22711
# Poissons Ratio (z) = 0.07982 0.30488
#
# Static dielectric constant tensor:
#      x y z
#    x 2.106860 0.000000 -0.014600 
#    y 0.000000 1.946740 0.000000 
#    z -0.014600 0.000000 2.016570 
# 
# From -- ./inp_files/225523.got.cif
#   From: 2010.05.17/outbox.cif.g08.bks.cpg/sg15_113_cif.got.tgz:225523.got - 2010.06.03 18:47:42.
