data_PCOD9255172
_publ_section_title
;
Structure prediction by ZEFSAII (Michael W. Deem and Ramdas Pophale) SiO2 
 PCOD9255172
Probable space group: C 2/C
;
_chemical_formula_sum "Si O2"
_cell_formula_units_Z 56
_cell_length_a 13.473027
_cell_length_b 23.050668
_cell_length_c 22.990884
_cell_angle_alpha 90.000000
_cell_angle_beta 151.975277
_cell_angle_gamma 90.000000
_cell_volume 3354.794453
_symmetry_space_group_name_H-M "C 2/C"
_symmetry_group_IT_number 15
_symmetry_cell_setting 'monoclinic'
loop_
_space_group_symop_operation_xyz
x,y,z
-x,y,1/2-z
-x,-y,-z
x,-y,1/2+z
1/2+x,1/2+y,z
1/2-x,1/2+y,1/2-z
1/2-x,1/2-y,-z
1/2+x,1/2-y,1/2+z
loop_
_atom_site_type_symbol
_atom_site_label
_atom_site_fract_x
_atom_site_fract_y
_atom_site_fract_z
Si Si1 0.802003 0.694483 0.107184
Si Si2 0.789470 0.673952 0.965445
Si Si3 0.730196 0.014178 0.041581
Si Si4 0.920298 0.919995 0.292244
Si Si5 0.207716 0.476795 0.396101
Si Si6 0.509782 0.410501 0.469733
Si Si7 0.493235 0.917966 0.502259
O O1 0.754746 0.762957 0.083366
O O2 0.609670 0.652986 0.026330
O O3 0.000000 0.681569 0.250000
O O4 0.846896 0.679868 0.062908
O O5 0.581885 0.631981 0.857722
O O6 0.973695 0.642374 0.025228
O O7 0.560179 0.966638 0.976802
O O8 0.678674 0.033346 0.949572
O O9 0.698924 0.065083 0.072144
O O10 0.951004 0.979396 0.154068
O O11 0.704745 0.918552 0.145183
O O12 0.888616 0.914755 0.345162
O O13 0.370818 0.431736 0.451595
O O14 0.304932 0.541527 0.440687
O O15 0.000000 0.473780 0.250000
#
# Coordination Sequence:
#
# PCOD9255172 Si02
#       7
#     8   8   8   8   8   8   8
#     4  10  18  31  47  69  94 115 139 184 227 260
#     4   9  18  29  47  69  90 114 148 178 221 272
#     4   9  18  27  43  66  87 113 150 178 215 261
#     4   9  16  30  45  65  90 114 145 186 218 258
#     4  10  18  31  45  64  92 121 147 182 220 264
#     4   9  19  29  45  69  90 115 151 180 221 271
#     4  10  17  29  45  65  89 116 146 184 219 259
#
# _framework density 16.692526999999998
#
# number of rings (size 3 to 8) (size 9 to 14) (size 15 to 20)
#    0.000    2.571    0.000    4.714    0.000    0.000 
#    0.000    4.286    0.000    0.857    0.000    6.000 
#    0.000    0.000    0.000    0.000    0.000    0.000 
#
# Total GULP energy -156077.490806 kJ/mol
# GULP energy per Si atom -5574.196100 kJ/mol
# Density = 1.665453 g / cm^3
# Si number density = 16.692527 Si / 1000 Ang^3
#
#
#
# Elastic Constant Matrix: (Units=GPa)
#
#
# Indices 1 2 3 4 5 6 
#
# 1 95.1344 38.2414 14.1201 -0.0041 -12.0068 0.0008
# 2 38.2414 87.9709 20.0045 -0.0070 -1.4948 0.0014
# 3 14.1201 20.0045 30.8747 -0.0181 -6.6896 0.0012
# 4 -0.0041 -0.0070 -0.0181 8.4141 -0.0008 -3.3121
# 5 -12.0068 -1.4948 -6.6896 -0.0008 14.3519 0.0011
# 6 0.0008 0.0014 0.0012 -3.3121 0.0011 24.1670
#
#
#
# Elastic Compliance Matrix: (Units=1/GPa)
#
#
# Indices 1 2 3 4 5 6 
#
# 1 0.014388 -0.006008 -0.000239 0.000002 0.011300 0.000000
# 2 -0.006008 0.015953 -0.009252 -0.000011 -0.007677 -0.000001
# 3 -0.000239 -0.009252 0.042536 0.000089 0.018663 0.000010
# 4 0.000002 -0.000011 0.000089 0.125625 0.000048 0.017217
# 5 0.011300 -0.007677 0.018663 0.000048 0.087030 0.000002
# 6 0.000000 -0.000001 0.000010 0.017217 0.000002 0.043738
#
#
# Mechanical properties :
#
#
# Convention : Reuss Voigt Hill
#
# Bulk Modulus (GPa) = 23.87812 39.85689 31.86750
# Shear Modulus (GPa) = 13.36082 18.82754 16.09418
#
# Velocity S-wave (km/s) = 2.83222 3.36207 3.10845
# Velocity P-wave (km/s) = 5.00310 6.24502 5.65824
#
# Compressibility (1/GPa) = 0.04187934
#
# Stress axis : x y z
#
# Youngs Moduli (GPa) = 69.50126 62.68573 23.50927
#
# Poissons Ratio (x) = 0.37663 0.00562
# Poissons Ratio (y) = 0.41758 0.21750
# Poissons Ratio (z) = 0.01661 0.57995
#
# Static dielectric constant tensor:
#      x y z
#    x 1.584580 0.000000 -0.003980 
#    y 0.000000 1.574630 0.000000 
#    z -0.003980 0.000000 1.570760 
# 
# From -- ./inp_files/90932.got.cif
#   From: 2010.05.17/outbox.cif.g08.bks.cpg/sg15_46_cif.got.tgz:90932.got - 2010.06.03 18:47:42.
