data_PCOD9255429
_publ_section_title
;
Structure prediction by ZEFSAII (Michael W. Deem and Ramdas Pophale) SiO2 
 PCOD9255429
Probable space group: C 2/C
;
_chemical_formula_sum "Si O2"
_cell_formula_units_Z 56
_cell_length_a 11.436314
_cell_length_b 12.088916
_cell_length_c 24.342399
_cell_angle_alpha 90.000000
_cell_angle_beta 137.336346
_cell_angle_gamma 90.000000
_cell_volume 2280.709765
_symmetry_space_group_name_H-M "C 2/C"
_symmetry_group_IT_number 15
_symmetry_cell_setting 'monoclinic'
loop_
_space_group_symop_operation_xyz
x,y,z
-x,y,1/2-z
-x,-y,-z
x,-y,1/2+z
1/2+x,1/2+y,z
1/2-x,1/2+y,1/2-z
1/2-x,1/2-y,-z
1/2+x,1/2-y,1/2+z
loop_
_atom_site_type_symbol
_atom_site_label
_atom_site_fract_x
_atom_site_fract_y
_atom_site_fract_z
Si Si1 0.458067 0.383059 0.594918
Si Si2 0.627106 0.394903 0.545148
Si Si3 0.469213 0.163665 0.007337
Si Si4 0.318783 0.970780 0.830071
Si Si5 0.491678 0.833100 0.810048
Si Si6 0.908465 0.643608 0.576121
Si Si7 0.401470 0.419183 0.155049
O O1 0.612703 0.367381 0.605425
O O2 0.285465 0.400340 0.497181
O O3 0.417913 0.263460 0.607454
O O4 0.478269 0.482422 0.644376
O O5 0.500000 0.500000 0.500000
O O6 0.542686 0.293167 0.482388
O O7 0.830502 0.383495 0.602150
O O8 0.540258 0.157657 0.970121
O O9 0.279616 0.112119 0.938093
O O10 0.587275 0.093102 0.087616
O O11 0.325339 0.877979 0.785178
O O12 0.445469 0.064834 0.850158
O O13 0.164276 0.034222 0.807847
O O14 0.500000 0.869249 0.750000
O O15 0.503904 0.699515 0.814212
#
# Coordination Sequence:
#
# PCOD9255429 Si02
#       7
#     8   8   8   8   8   8   8
#     4  10  17  30  56  94 132 160 194 266 326 387
#     4  10  22  35  59  96 137 162 215 280 333 391
#     4   9  17  31  57  97 128 163 204 257 332 394
#     4  11  19  38  65  85 125 172 212 258 322 394
#     4  11  27  47  62  87 130 181 223 271 330 400
#     4   9  16  29  54  93 136 158 190 263 334 380
#     4  10  20  38  65  93 124 166 214 259 331 392
#
# _framework density 24.55376
#
# number of rings (size 3 to 8) (size 9 to 14) (size 15 to 20)
#    0.000    2.000    2.857    2.571    2.000    1.143 
#    2.571    0.000    0.000    0.000    0.000    0.000 
#    0.000    0.000    0.000    0.000    0.000    0.000 
#
# Total GULP energy -156331.944169 kJ/mol
# GULP energy per Si atom -5583.283720 kJ/mol
# Density = 2.449787 g / cm^3
# Si number density = 24.553760 Si / 1000 Ang^3
#
#
#
# Elastic Constant Matrix: (Units=GPa)
#
#
# Indices 1 2 3 4 5 6 
#
# 1 106.6465 58.2403 9.6813 0.0000 16.7401 0.0000
# 2 58.2403 172.7622 35.4644 0.0000 8.4184 0.0000
# 3 9.6813 35.4644 35.5516 0.0000 1.9052 0.0000
# 4 0.0000 0.0000 0.0000 32.0169 0.0000 -6.0134
# 5 16.7401 8.4184 1.9052 0.0000 39.1155 0.0000
# 6 0.0000 0.0000 0.0000 -6.0134 0.0000 41.3590
#
#
#
# Elastic Compliance Matrix: (Units=1/GPa)
#
#
# Indices 1 2 3 4 5 6 
#
# 1 0.012221 -0.004113 0.001011 0.000000 -0.004394 0.000000
# 2 -0.004113 0.008721 -0.007593 0.000000 0.000253 0.000000
# 3 0.001011 -0.007593 0.035456 0.000000 -0.000525 0.000000
# 4 0.000000 0.000000 0.000000 0.032110 0.000000 0.004669
# 5 -0.004394 0.000253 -0.000525 0.000000 0.027417 0.000000
# 6 0.000000 0.000000 0.000000 0.004669 0.000000 0.024857
#
#
# Mechanical properties :
#
#
# Convention : Reuss Voigt Hill
#
# Bulk Modulus (GPa) = 28.56637 57.97027 43.26832
# Shear Modulus (GPa) = 28.76146 36.60322 32.68234
#
# Velocity S-wave (km/s) = 3.42624 3.86520 3.65232
# Velocity P-wave (km/s) = 5.22605 6.60155 5.95366
#
# Compressibility (1/GPa) = 0.03500619
#
# Stress axis : x y z
#
# Youngs Moduli (GPa) = 81.82626 114.66112 28.20404
#
# Poissons Ratio (x) = 0.47162 -0.02850
# Poissons Ratio (y) = 0.33657 0.21417
# Poissons Ratio (z) = -0.08269 0.87067
#
# Static dielectric constant tensor:
#      x y z
#    x 1.981500 0.000000 0.023790 
#    y 0.000000 2.014610 0.000000 
#    z 0.023790 0.000000 2.026230 
# 
# From -- ./inp_files/292307.got.cif
#   From: 2010.05.17/outbox.cif.g08.bks.cpg/sg15_147_cif.got.tgz:292307.got - 2010.06.03 18:47:42.
