data_PCOD9255462
_publ_section_title
;
Structure prediction by ZEFSAII (Michael W. Deem and Ramdas Pophale) SiO2 
 PCOD9255462
Probable space group: C 2/C
;
_chemical_formula_sum "Si O2"
_cell_formula_units_Z 56
_cell_length_a 17.579663
_cell_length_b 9.271340
_cell_length_c 26.010930
_cell_angle_alpha 90.000000
_cell_angle_beta 149.238227
_cell_angle_gamma 90.000000
_cell_volume 2168.347152
_symmetry_space_group_name_H-M "C 2/C"
_symmetry_group_IT_number 15
_symmetry_cell_setting 'monoclinic'
loop_
_space_group_symop_operation_xyz
x,y,z
-x,y,1/2-z
-x,-y,-z
x,-y,1/2+z
1/2+x,1/2+y,z
1/2-x,1/2+y,1/2-z
1/2-x,1/2-y,-z
1/2+x,1/2-y,1/2+z
loop_
_atom_site_type_symbol
_atom_site_label
_atom_site_fract_x
_atom_site_fract_y
_atom_site_fract_z
Si Si1 0.892965 0.670769 0.248942
Si Si2 0.022884 0.070604 0.869084
Si Si3 0.276306 0.923176 0.976905
Si Si4 0.764814 0.304956 0.259155
Si Si5 0.984342 0.655664 0.798634
Si Si6 0.150835 0.742760 0.525204
Si Si7 0.530974 0.157224 0.995154
O O1 0.013136 0.797818 0.322996
O O2 0.826410 0.672693 0.268454
O O3 0.943590 0.513233 0.267155
O O4 0.775603 0.727457 0.139696
O O5 0.859374 0.070360 0.799792
O O6 0.101632 0.936264 0.888624
O O7 0.137910 0.127044 0.978316
O O8 0.329284 0.088454 0.992002
O O9 0.370947 0.862264 0.079754
O O10 0.319138 0.836257 0.950331
O O11 0.842658 0.288435 0.249738
O O12 0.904125 0.322185 0.378543
O O13 0.000000 0.714934 0.750000
O O14 0.999947 0.751834 0.472570
O O15 0.500000 0.000000 0.000000
#
# Coordination Sequence:
#
# PCOD9255462 Si02
#       7
#     8   8   8   8   8   8   8
#     4   9  20  31  51  77 107 140 169 215 264 309
#     4  10  19  31  50  76 108 133 168 219 259 301
#     4  10  18  30  49  75 106 136 171 220 261 308
#     4   8  19  35  47  75 112 138 167 219 265 309
#     4  11  20  33  55  80 102 139 180 212 263 320
#     4  10  17  31  49  74 105 141 173 211 263 310
#     4   8  16  30  48  70 101 143 175 205 261 319
#
# _framework density 25.826124
#
# number of rings (size 3 to 8) (size 9 to 14) (size 15 to 20)
#    0.857    1.714    1.429    1.286    2.000    0.000 
#    0.000    2.857    0.000    1.714    0.000    6.000 
#    0.000    0.000    0.000    0.000    0.000    0.000 
#
# Total GULP energy -156292.598306 kJ/mol
# GULP energy per Si atom -5581.878511 kJ/mol
# Density = 2.576734 g / cm^3
# Si number density = 25.826124 Si / 1000 Ang^3
#
#
#
# Elastic Constant Matrix: (Units=GPa)
#
#
# Indices 1 2 3 4 5 6 
#
# 1 233.8175 28.5018 70.4630 0.0000 7.6658 0.0000
# 2 28.5018 39.7120 7.7487 0.0000 -5.2283 0.0000
# 3 70.4630 7.7487 82.4673 0.0000 -3.1704 0.0000
# 4 0.0000 0.0000 0.0000 7.9392 0.0000 11.3827
# 5 7.6658 -5.2283 -3.1704 0.0000 49.0455 0.0000
# 6 0.0000 0.0000 0.0000 11.3827 0.0000 39.2502
#
#
#
# Elastic Compliance Matrix: (Units=1/GPa)
#
#
# Indices 1 2 3 4 5 6 
#
# 1 0.006339 -0.003776 -0.005128 0.000000 -0.001725 0.000000
# 2 -0.003776 0.028232 0.000714 0.000000 0.003646 0.000000
# 3 -0.005128 0.000714 0.016515 0.000000 0.001945 0.000000
# 4 0.000000 0.000000 0.000000 0.215601 0.000000 -0.062525
# 5 -0.001725 0.003646 0.001945 0.000000 0.021173 0.000000
# 6 0.000000 0.000000 0.000000 -0.062525 0.000000 0.043610
#
#
# Mechanical properties :
#
#
# Convention : Reuss Voigt Hill
#
# Bulk Modulus (GPa) = 28.81327 63.26931 46.04129
# Shear Modulus (GPa) = 13.91135 35.86587 24.88861
#
# Velocity S-wave (km/s) = 2.32341 3.73063 3.10772
# Velocity P-wave (km/s) = 4.28702 6.56568 5.54467
#
# Compressibility (1/GPa) = 0.03470623
#
# Stress axis : x y z
#
# Youngs Moduli (GPa) = 157.75406 35.42064 60.55076
#
# Poissons Ratio (x) = 0.13375 0.31049
# Poissons Ratio (y) = 0.59569 -0.04323
# Poissons Ratio (z) = 0.80892 -0.02529
#
# Static dielectric constant tensor:
#      x y z
#    x 1.936760 0.000000 0.056610 
#    y 0.000000 2.028270 0.000000 
#    z 0.056610 0.000000 1.988780 
# 
# From -- ./inp_files/274186.got.cif
#   From: 2010.05.17/outbox.cif.g08.bks.cpg/sg15_138_cif.got.tgz:274186.got - 2010.06.03 18:47:42.
