data_PCOD9255796
_publ_section_title
;
Structure prediction by ZEFSAII (Michael W. Deem and Ramdas Pophale) SiO2 
 PCOD9255796
Probable space group: C 2/C
;
_chemical_formula_sum "Si O2"
_cell_formula_units_Z 56
_cell_length_a 9.415801
_cell_length_b 16.939581
_cell_length_c 18.349283
_cell_angle_alpha 90.000000
_cell_angle_beta 61.140473
_cell_angle_gamma 90.000000
_cell_volume 2563.225399
_symmetry_space_group_name_H-M "C 2/C"
_symmetry_group_IT_number 15
_symmetry_cell_setting 'monoclinic'
loop_
_space_group_symop_operation_xyz
x,y,z
-x,y,1/2-z
-x,-y,-z
x,-y,1/2+z
1/2+x,1/2+y,z
1/2-x,1/2+y,1/2-z
1/2-x,1/2-y,-z
1/2+x,1/2-y,1/2+z
loop_
_atom_site_type_symbol
_atom_site_label
_atom_site_fract_x
_atom_site_fract_y
_atom_site_fract_z
Si Si1 0.980912 0.444579 0.434049
Si Si2 0.254499 0.843347 0.326452
Si Si3 0.500000 0.276968 0.750000
Si Si4 0.000000 0.941632 0.250000
Si Si5 0.172761 0.155555 0.341126
Si Si6 0.330637 0.665356 0.503649
Si Si7 0.812925 0.494418 0.749697
Si Si8 0.238340 0.177037 0.656706
O O1 0.054583 0.494033 0.346823
O O2 0.100972 0.368566 0.407171
O O3 0.000000 0.500000 0.500000
O O4 0.803130 0.404605 0.473085
O O5 0.392929 0.784538 0.322146
O O6 0.124095 0.834083 0.421472
O O7 0.318607 0.931627 0.302873
O O8 0.227328 0.822754 0.248599
O O9 0.380308 0.324468 0.728940
O O10 0.861827 0.992888 0.246762
O O11 0.906605 0.882034 0.328216
O O12 0.253913 0.230756 0.361176
O O13 0.996160 0.144199 0.420887
O O14 0.296515 0.084095 0.300863
O O15 0.250000 0.750000 0.500000
#
# Coordination Sequence:
#
# PCOD9255796 Si02
#       8
#     8   8   4   4   8   8   8   8
#     4  10  22  36  55  90 123 148 195 252 299 350
#     4   9  18  35  55  81 118 149 191 238 301 345
#     4  10  17  32  59  82 112 152 194 240 283 356
#     4   8  17  36  59  74 108 160 196 224 291 352
#     4  11  22  33  59  91 115 149 204 244 298 351
#     4  12  21  36  61  93 117 153 195 261 303 345
#     4  10  22  37  58  84 116 161 194 242 295 369
#     4   9  19  37  57  85 119 160 195 246 294 365
#
# _framework density 21.847474999999999
#
# number of rings (size 3 to 8) (size 9 to 14) (size 15 to 20)
#    0.000    2.286    2.857    2.143    6.000    0.571 
#    0.000    2.143    0.000    3.429    0.000    0.000 
#    0.000    0.000    0.000    0.000    0.000    0.000 
#
# Total GULP energy -155883.902007 kJ/mol
# GULP energy per Si atom -5567.282215 kJ/mol
# Density = 2.179775 g / cm^3
# Si number density = 21.847475 Si / 1000 Ang^3
#
#
#
# Elastic Constant Matrix: (Units=GPa)
#
#
# Indices 1 2 3 4 5 6 
#
# 1 55.8861 7.1001 10.1767 0.0000 -5.3043 0.0000
# 2 7.1001 124.7372 64.8297 0.0000 -13.5062 0.0000
# 3 10.1767 64.8297 124.2620 0.0000 -1.3260 0.0000
# 4 0.0000 0.0000 0.0000 25.7010 0.0000 -7.6976
# 5 -5.3043 -13.5062 -1.3260 0.0000 30.2019 0.0000
# 6 0.0000 0.0000 0.0000 -7.6976 0.0000 15.0315
#
#
#
# Elastic Compliance Matrix: (Units=1/GPa)
#
#
# Indices 1 2 3 4 5 6 
#
# 1 0.018465 0.000090 -0.001525 0.000000 0.003216 0.000000
# 2 0.000090 0.011700 -0.006058 0.000000 0.004982 0.000000
# 3 -0.001525 -0.006058 0.011307 0.000000 -0.002481 0.000000
# 4 0.000000 0.000000 0.000000 0.045958 0.000000 0.023535
# 5 0.003216 0.004982 -0.002481 0.000000 0.035794 0.000000
# 6 0.000000 0.000000 0.000000 0.023535 0.000000 0.078579
#
#
# Mechanical properties :
#
#
# Convention : Reuss Voigt Hill
#
# Bulk Modulus (GPa) = 37.75731 52.12203 44.93967
# Shear Modulus (GPa) = 22.16142 29.03880 25.60011
#
# Velocity S-wave (km/s) = 3.18837 3.64972 3.42682
# Velocity P-wave (km/s) = 5.55644 6.45520 6.02261
#
# Compressibility (1/GPa) = 0.02648494
#
# Stress axis : x y z
#
# Youngs Moduli (GPa) = 54.15645 85.47166 88.44425
#
# Poissons Ratio (x) = -0.00766 0.13485
# Poissons Ratio (y) = -0.00485 0.53581
# Poissons Ratio (z) = 0.08257 0.51780
#
# Static dielectric constant tensor:
#      x y z
#    x 1.935010 0.000000 -0.012480 
#    y 0.000000 1.866480 0.000000 
#    z -0.012480 0.000000 1.843290 
# 
# From -- ./inp_files/239527.got.cif
#   From: 2010.05.17/outbox.cif.g08.bks.cpg/sg15_120_cif.got.tgz:239527.got - 2010.06.03 18:47:42.
