data_PCOD9255845
_publ_section_title
;
Structure prediction by ZEFSAII (Michael W. Deem and Ramdas Pophale) SiO2 
 PCOD9255845
Probable space group: C 2/C
;
_chemical_formula_sum "Si O2"
_cell_formula_units_Z 40
_cell_length_a 11.431726
_cell_length_b 19.095712
_cell_length_c 13.723927
_cell_angle_alpha 90.000000
_cell_angle_beta 32.063686
_cell_angle_gamma 90.000000
_cell_volume 1590.403590
_symmetry_space_group_name_H-M "C 2/C"
_symmetry_group_IT_number 15
_symmetry_cell_setting 'monoclinic'
loop_
_space_group_symop_operation_xyz
x,y,z
-x,y,1/2-z
-x,-y,-z
x,-y,1/2+z
1/2+x,1/2+y,z
1/2-x,1/2+y,1/2-z
1/2-x,1/2-y,-z
1/2+x,1/2-y,1/2+z
loop_
_atom_site_type_symbol
_atom_site_label
_atom_site_fract_x
_atom_site_fract_y
_atom_site_fract_z
Si Si1 0.784830 0.348496 0.464539
Si Si2 0.788760 0.927856 0.269164
Si Si3 0.591733 0.653556 0.430628
Si Si4 0.428085 0.993941 0.905114
Si Si5 0.956890 0.692954 0.037018
O O1 0.573985 0.348882 0.544623
O O2 0.817995 0.429905 0.468778
O O3 0.793407 0.304393 0.558435
O O4 0.000000 0.329254 0.250000
O O5 0.016595 0.907123 0.057489
O O6 0.652875 0.987007 0.305715
O O7 0.652056 0.855365 0.359442
O O8 0.747007 0.950421 0.409133
O O9 0.832942 0.654909 0.213108
O O10 0.546413 0.731560 0.503828
O O11 0.500000 0.965926 0.750000
#
# Coordination Sequence:
#
# PCOD9255845 Si02
#       5
#     8   8   8   8   8
#     4  10  17  33  51  76 111 144 173 214 273 320
#     4  10  20  35  56  81 107 148 177 221 273 314
#     4  12  19  33  53  80 113 140 175 224 269 331
#     4   9  17  36  60  73 110 147 182 219 268 314
#     4  11  21  31  52  83 110 144 175 216 277 328
#
# _framework density 25.150848
#
# number of rings (size 3 to 8) (size 9 to 14) (size 15 to 20)
#    0.000    1.600    8.000    1.200    0.000    0.000 
#    0.000    9.000    0.000    1.200    0.000    0.000 
#    0.000    0.000    0.000    0.000    0.000    0.000 
#
# Total GULP energy -111901.143517 kJ/mol
# GULP energy per Si atom -5595.057176 kJ/mol
# Density = 2.509360 g / cm^3
# Si number density = 25.150848 Si / 1000 Ang^3
#
#
#
# Elastic Constant Matrix: (Units=GPa)
#
#
# Indices 1 2 3 4 5 6 
#
# 1 35.7756 7.6180 24.6359 0.0106 17.7278 -0.0116
# 2 7.6180 65.9552 30.1412 0.0367 11.6549 -0.0372
# 3 24.6359 30.1412 174.6146 0.0002 24.8744 -0.0507
# 4 0.0106 0.0367 0.0002 45.9534 -0.0227 11.3738
# 5 17.7278 11.6549 24.8744 -0.0227 41.7727 0.0236
# 6 -0.0116 -0.0372 -0.0507 11.3738 0.0236 11.6538
#
#
#
# Elastic Compliance Matrix: (Units=1/GPa)
#
#
# Indices 1 2 3 4 5 6 
#
# 1 0.037030 -0.000392 -0.003206 -0.000036 -0.013697 0.000085
# 2 -0.000392 0.016858 -0.002413 -0.000036 -0.003100 0.000084
# 3 -0.003206 -0.002413 0.006890 -0.000005 -0.002069 0.000029
# 4 -0.000036 -0.000036 -0.000005 0.028692 0.000060 -0.028003
# 5 -0.013697 -0.003100 -0.002069 0.000060 0.031849 -0.000156
# 6 0.000085 0.000084 0.000029 -0.028003 -0.000156 0.113140
#
#
# Mechanical properties :
#
#
# Convention : Reuss Voigt Hill
#
# Bulk Modulus (GPa) = 20.50948 44.57063 32.54005
# Shear Modulus (GPa) = 19.03070 34.13934 26.58502
#
# Velocity S-wave (km/s) = 2.75373 3.68827 3.25472
# Velocity P-wave (km/s) = 4.27587 5.99145 5.20483
#
# Compressibility (1/GPa) = 0.04875795
#
# Stress axis : x y z
#
# Youngs Moduli (GPa) = 27.00493 59.32013 145.12748
#
# Poissons Ratio (x) = 0.02323 0.46523
# Poissons Ratio (y) = 0.01058 0.35019
# Poissons Ratio (z) = 0.08657 0.14314
#
# Static dielectric constant tensor:
#      x y z
#    x 2.038360 0.000000 0.009290 
#    y 0.000000 1.984100 0.000010 
#    z 0.009290 0.000010 1.937620 
# 
# From -- ./inp_files/40432.got.cif
#   From: 2010.05.17/outbox.cif.g08.bks.cpg/sg15_21_cif.got.tgz:40432.got - 2010.06.03 18:47:42.
