data_PCOD9255381
_publ_section_title
;
Structure prediction by ZEFSAII (Michael W. Deem and Ramdas Pophale) SiO2 
 PCOD9255381
Probable space group: C 2/C
;
_chemical_formula_sum "Si O2"
_cell_formula_units_Z 56
_cell_length_a 25.461954
_cell_length_b 23.096354
_cell_length_c 12.705926
_cell_angle_alpha 90.000000
_cell_angle_beta 154.187548
_cell_angle_gamma 90.000000
_cell_volume 3253.543279
_symmetry_space_group_name_H-M "C 2/C"
_symmetry_group_IT_number 15
_symmetry_cell_setting 'monoclinic'
loop_
_space_group_symop_operation_xyz
x,y,z
-x,y,1/2-z
-x,-y,-z
x,-y,1/2+z
1/2+x,1/2+y,z
1/2-x,1/2+y,1/2-z
1/2-x,1/2-y,-z
1/2+x,1/2-y,1/2+z
loop_
_atom_site_type_symbol
_atom_site_label
_atom_site_fract_x
_atom_site_fract_y
_atom_site_fract_z
Si Si1 0.879253 0.928944 0.778828
Si Si2 0.080817 0.731935 0.233194
Si Si3 0.323130 0.225069 0.856612
Si Si4 0.642236 0.378305 0.984596
Si Si5 0.340783 0.553358 0.779431
Si Si6 0.866974 0.149139 0.462436
Si Si7 0.271512 0.652015 0.503204
O O1 0.831953 0.898563 0.587819
O O2 0.879630 0.889797 0.883625
O O3 0.813089 0.988455 0.692154
O O4 0.018639 0.940009 0.999031
O O5 0.133310 0.717226 0.444055
O O6 0.148426 0.688195 0.278113
O O7 0.127299 0.797350 0.291799
O O8 0.938833 0.722297 0.987777
O O9 0.221094 0.178676 0.649319
O O10 0.293412 0.293148 0.800560
O O11 0.500000 0.366006 0.750000
O O12 0.672282 0.429912 0.121653
O O13 0.272091 0.603135 0.591812
O O14 0.802758 0.122800 0.448488
O O15 0.000000 0.165313 0.750000
#
# Coordination Sequence:
#
# PCOD9255381 Si02
#       7
#     8   8   8   8   8   8   8
#     4  10  22  33  50  78 112 147 170 216 278 318
#     4   9  17  29  55  87 101 134 182 231 261 297
#     4  10  17  34  55  82 108 137 180 220 268 320
#     4  10  22  36  53  82 114 140 173 217 276 330
#     4  10  19  33  53  75 108 140 181 219 263 318
#     4  11  19  32  54  81 107 138 180 223 264 312
#     4  10  17  30  53  83 105 128 180 234 257 299
#
# _framework density 17.212002999999999
#
# number of rings (size 3 to 8) (size 9 to 14) (size 15 to 20)
#    0.000    2.000    5.714    0.000    2.000    1.143 
#    0.000    0.000    0.000    0.857    3.714    0.000 
#    0.000    0.000    0.000    0.000    0.000    0.000 
#
# Total GULP energy -155870.977816 kJ/mol
# GULP energy per Si atom -5566.820636 kJ/mol
# Density = 1.717283 g / cm^3
# Si number density = 17.212003 Si / 1000 Ang^3
#
#
#
# Elastic Constant Matrix: (Units=GPa)
#
#
# Indices 1 2 3 4 5 6 
#
# 1 72.0489 20.0768 20.3270 0.0000 -15.7897 0.0000
# 2 20.0768 96.9091 40.3546 0.0000 -14.2129 0.0000
# 3 20.3270 40.3546 42.2487 0.0000 -11.5906 0.0000
# 4 0.0000 0.0000 0.0000 16.8018 0.0000 -5.2428
# 5 -15.7897 -14.2129 -11.5906 0.0000 27.1937 0.0000
# 6 0.0000 0.0000 0.0000 -5.2428 0.0000 11.2738
#
#
#
# Elastic Compliance Matrix: (Units=1/GPa)
#
#
# Indices 1 2 3 4 5 6 
#
# 1 0.017266 0.000201 -0.006477 0.000000 0.007370 0.000000
# 2 0.000201 0.017258 -0.015938 0.000000 0.002344 0.000000
# 3 -0.006477 -0.015938 0.043816 0.000000 0.006584 0.000000
# 4 0.000000 0.000000 0.000000 0.069620 0.000000 0.032376
# 5 0.007370 0.002344 0.006584 0.000000 0.045084 0.000000
# 6 0.000000 0.000000 0.000000 0.032376 0.000000 0.103757
#
#
# Mechanical properties :
#
#
# Convention : Reuss Voigt Hill
#
# Bulk Modulus (GPa) = 29.48912 41.41374 35.45143
# Shear Modulus (GPa) = 14.18312 19.75042 16.96677
#
# Velocity S-wave (km/s) = 2.87370 3.39112 3.14307
# Velocity P-wave (km/s) = 5.30857 6.28062 5.81494
#
# Compressibility (1/GPa) = 0.03391081
#
# Stress axis : x y z
#
# Youngs Moduli (GPa) = 57.91748 57.94470 22.82293
#
# Poissons Ratio (x) = -0.01166 0.14783
# Poissons Ratio (y) = -0.01165 0.36375
# Poissons Ratio (z) = 0.37516 0.92352
#
# Static dielectric constant tensor:
#      x y z
#    x 1.631610 0.000000 -0.007120 
#    y 0.000000 1.605380 0.000000 
#    z -0.007120 0.000000 1.592030 
# 
# From -- ./inp_files/124405.got.cif
#   From: 2010.05.17/outbox.cif.g08.bks.cpg/sg15_63_cif.got.tgz:124405.got - 2010.06.03 18:47:42.
