data_PCOD9255776
_publ_section_title
;
Structure prediction by ZEFSAII (Michael W. Deem and Ramdas Pophale) SiO2 
 PCOD9255776
Probable space group: C 2/C
;
_chemical_formula_sum "Si O2"
_cell_formula_units_Z 48
_cell_length_a 19.506982
_cell_length_b 11.257891
_cell_length_c 15.662633
_cell_angle_alpha 90.000000
_cell_angle_beta 37.078788
_cell_angle_gamma 90.000000
_cell_volume 2073.797286
_symmetry_space_group_name_H-M "C 2/C"
_symmetry_group_IT_number 15
_symmetry_cell_setting 'monoclinic'
loop_
_space_group_symop_operation_xyz
x,y,z
-x,y,1/2-z
-x,-y,-z
x,-y,1/2+z
1/2+x,1/2+y,z
1/2-x,1/2+y,1/2-z
1/2-x,1/2-y,-z
1/2+x,1/2-y,1/2+z
loop_
_atom_site_type_symbol
_atom_site_label
_atom_site_fract_x
_atom_site_fract_y
_atom_site_fract_z
Si Si1 0.340101 0.578477 0.256290
Si Si2 0.760951 0.483319 0.458329
Si Si3 0.955160 0.302244 0.205600
Si Si4 0.393461 0.968575 0.547393
Si Si5 0.888646 0.677312 0.418366
Si Si6 0.953905 0.062344 0.893351
O O1 0.284303 0.568521 0.406884
O O2 0.396448 0.707315 0.202640
O O3 0.235128 0.560680 0.296011
O O4 0.441296 0.481134 0.153235
O O5 0.867764 0.407963 0.318683
O O6 0.792182 0.621699 0.450369
O O7 0.656905 0.479628 0.495761
O O8 0.000000 0.246895 0.250000
O O9 0.062006 0.358820 0.052459
O O10 0.500000 0.000000 0.500000
O O11 0.382010 0.083361 0.500075
O O12 0.000000 0.662117 0.250000
O O13 0.907932 0.803815 0.444507
O O14 0.000000 0.055371 0.750000
#
# Coordination Sequence:
#
# PCOD9255776 Si02
#       6
#     8   8   8   8   8   8
#     4  10  22  36  59  90 123 151 191 250 299 349
#     4  10  17  32  57  95 117 148 187 251 296 345
#     4  12  20  37  65  90 118 155 204 247 300 356
#     4  11  24  43  57  82 120 161 198 242 301 355
#     4  10  17  36  59  86 112 152 199 238 294 351
#     4   9  19  31  55  92 122 142 189 247 296 344
#
# _framework density 23.145945999999999
#
# number of rings (size 3 to 8) (size 9 to 14) (size 15 to 20)
#    0.000    1.667    5.000    2.500    2.333    1.333 
#    3.000    0.000    0.000    2.000    0.000    0.000 
#    0.000    0.000    0.000    0.000    0.000    0.000 
#
# Total GULP energy -133826.599885 kJ/mol
# GULP energy per Si atom -5576.108329 kJ/mol
# Density = 2.309326 g / cm^3
# Si number density = 23.145946 Si / 1000 Ang^3
#
#
#
# Elastic Constant Matrix: (Units=GPa)
#
#
# Indices 1 2 3 4 5 6 
#
# 1 84.5935 15.0621 38.3022 0.0000 -48.4696 0.0000
# 2 15.0621 117.2663 30.7523 0.0000 -26.2482 0.0000
# 3 38.3022 30.7523 69.9928 0.0000 -37.2989 0.0000
# 4 0.0000 0.0000 0.0000 32.0754 0.0000 -18.3563
# 5 -48.4696 -26.2482 -37.2989 0.0000 53.8590 0.0000
# 6 0.0000 0.0000 0.0000 -18.3563 0.0000 12.9543
#
#
#
# Elastic Compliance Matrix: (Units=1/GPa)
#
#
# Indices 1 2 3 4 5 6 
#
# 1 0.025321 0.002487 -0.003423 0.000000 0.021628 0.000000
# 2 0.002487 0.010156 -0.003158 0.000000 0.005000 0.000000
# 3 -0.003423 -0.003158 0.023910 0.000000 0.011939 0.000000
# 4 0.000000 0.000000 0.000000 0.164899 0.000000 0.233664
# 5 0.021628 0.005000 0.011939 0.000000 0.048736 0.000000
# 6 0.000000 0.000000 0.000000 0.233664 0.000000 0.408299
#
#
# Mechanical properties :
#
#
# Convention : Reuss Voigt Hill
#
# Bulk Modulus (GPa) = 19.53255 48.89844 34.21550
# Shear Modulus (GPa) = 7.07638 32.29346 19.68492
#
# Velocity S-wave (km/s) = 1.75041 3.73930 2.91944
# Velocity P-wave (km/s) = 3.54153 6.30993 5.11652
#
# Compressibility (1/GPa) = 0.05119660
#
# Stress axis : x y z
#
# Youngs Moduli (GPa) = 39.49318 98.46788 41.82319
#
# Poissons Ratio (x) = -0.24484 0.14317
# Poissons Ratio (y) = -0.09820 0.13209
# Poissons Ratio (z) = 0.13519 0.31099
#
# Static dielectric constant tensor:
#      x y z
#    x 1.987700 0.000000 -0.060270 
#    y 0.000000 1.874140 0.000000 
#    z -0.060270 0.000000 1.860060 
# 
# From -- ./inp_files/110539.got.cif
#   From: 2010.05.17/outbox.cif.g08.bks.cpg/sg15_56_cif.got.tgz:110539.got - 2010.06.03 18:47:42.
