data_PCOD9255606
_publ_section_title
;
Structure prediction by ZEFSAII (Michael W. Deem and Ramdas Pophale) SiO2 
 PCOD9255606
Probable space group: C 2/C
;
_chemical_formula_sum "Si O2"
_cell_formula_units_Z 64
_cell_length_a 12.702418
_cell_length_b 10.680599
_cell_length_c 20.566265
_cell_angle_alpha 90.000000
_cell_angle_beta 84.052191
_cell_angle_gamma 90.000000
_cell_volume 2775.192950
_symmetry_space_group_name_H-M "C 2/C"
_symmetry_group_IT_number 15
_symmetry_cell_setting 'monoclinic'
loop_
_space_group_symop_operation_xyz
x,y,z
-x,y,1/2-z
-x,-y,-z
x,-y,1/2+z
1/2+x,1/2+y,z
1/2-x,1/2+y,1/2-z
1/2-x,1/2-y,-z
1/2+x,1/2-y,1/2+z
loop_
_atom_site_type_symbol
_atom_site_label
_atom_site_fract_x
_atom_site_fract_y
_atom_site_fract_z
Si Si1 0.883972 0.357646 0.748830
Si Si2 0.343272 0.949167 0.619540
Si Si3 0.405775 0.511333 0.096567
Si Si4 0.367006 0.732742 0.519094
Si Si5 0.110295 0.928601 0.260170
Si Si6 0.040470 0.563883 0.563286
Si Si7 0.297466 0.856125 0.899061
Si Si8 0.142873 0.921648 0.106515
O O1 0.817058 0.417573 0.695554
O O2 0.906735 0.217576 0.722419
O O3 0.825921 0.355720 0.820729
O O4 0.000000 0.417720 0.750000
O O5 0.441227 0.044736 0.616550
O O6 0.248173 0.002353 0.582284
O O7 0.380844 0.823059 0.581014
O O8 0.385834 0.405072 0.043808
O O9 0.357308 0.480745 0.171731
O O10 0.328727 0.626667 0.081155
O O11 0.533455 0.493917 0.097751
O O12 0.250000 0.750000 0.500000
O O13 0.435969 0.793315 0.456817
O O14 0.156686 0.917419 0.184505
O O15 0.000000 0.995971 0.250000
O O16 0.139830 0.478530 0.578538
O O17 0.000000 0.500000 0.500000
O O18 0.345951 0.721870 0.919218
#
# Coordination Sequence:
#
# PCOD9255606 Si02
#       8
#     8   8   8   8   8   8   8   8
#     4  10  17  31  61  95 120 154 204 255 313 367
#     4  11  21  39  61  88 125 158 199 264 319 364
#     4  11  20  39  63  86 122 163 207 254 301 379
#     4  11  22  40  62  87 114 158 216 255 302 360
#     4   8  16  31  58  89 118 154 194 244 300 367
#     4  10  21  37  60  84 113 155 206 259 299 349
#     4  11  21  37  62  91 122 159 209 255 305 383
#     4  10  22  38  59  91 128 160 197 248 325 382
#
# _framework density 23.061461000000001
#
# number of rings (size 3 to 8) (size 9 to 14) (size 15 to 20)
#    0.000    1.750    3.750    3.000    0.000    0.000 
#    2.250    6.250    0.000    0.750    0.000    0.000 
#    0.000    0.000    0.000    0.000    0.000    0.000 
#
# Total GULP energy -178171.829281 kJ/mol
# GULP energy per Si atom -5567.869665 kJ/mol
# Density = 2.300897 g / cm^3
# Si number density = 23.061461 Si / 1000 Ang^3
#
#
#
# Elastic Constant Matrix: (Units=GPa)
#
#
# Indices 1 2 3 4 5 6 
#
# 1 121.3076 33.0021 -3.3709 0.0000 3.3796 0.0000
# 2 33.0021 37.9461 15.4211 0.0000 -9.2641 0.0000
# 3 -3.3709 15.4211 73.9155 0.0000 12.9909 0.0000
# 4 0.0000 0.0000 0.0000 24.5956 0.0000 3.5422
# 5 3.3796 -9.2641 12.9909 0.0000 27.6261 0.0000
# 6 0.0000 0.0000 0.0000 3.5422 0.0000 31.1139
#
#
#
# Elastic Compliance Matrix: (Units=1/GPa)
#
#
# Indices 1 2 3 4 5 6 
#
# 1 0.012990 -0.015900 0.005588 0.000000 -0.009549 0.000000
# 2 -0.015900 0.053860 -0.016873 0.000000 0.027940 0.000000
# 3 0.005588 -0.016873 0.020078 0.000000 -0.015783 0.000000
# 4 0.000000 0.000000 0.000000 0.041335 0.000000 -0.004706
# 5 -0.009549 0.027940 -0.015783 0.000000 0.054157 0.000000
# 6 0.000000 0.000000 0.000000 -0.004706 0.000000 0.032676
#
#
# Mechanical properties :
#
#
# Convention : Reuss Voigt Hill
#
# Bulk Modulus (GPa) = 30.71376 35.91930 33.31653
# Shear Modulus (GPa) = 17.83687 29.20826 23.52256
#
# Velocity S-wave (km/s) = 2.78411 3.56271 3.19720
# Velocity P-wave (km/s) = 4.86643 5.70378 5.30167
#
# Compressibility (1/GPa) = 0.03255870
#
# Stress axis : x y z
#
# Youngs Moduli (GPa) = 76.97973 18.56674 49.80617
#
# Poissons Ratio (x) = 0.29521 -0.27831
# Poissons Ratio (y) = 1.22397 0.84036
# Poissons Ratio (z) = -0.43015 0.31327
#
# Static dielectric constant tensor:
#      x y z
#    x 2.031030 0.000000 -0.111260 
#    y 0.000000 1.918330 0.000000 
#    z -0.111260 0.000000 1.993310 
# 
# From -- ./inp_files/268825.got.cif
#   From: 2010.05.17/outbox.cif.g08.bks.cpg/sg15_135_cif.got.tgz:268825.got - 2010.06.03 18:47:42.
