data_PCOD9255681
_publ_section_title
;
Structure prediction by ZEFSAII (Michael W. Deem and Ramdas Pophale) SiO2 
 PCOD9255681
Probable space group: C 2/C
;
_chemical_formula_sum "Si O2"
_cell_formula_units_Z 64
_cell_length_a 11.092276
_cell_length_b 12.646767
_cell_length_c 29.641432
_cell_angle_alpha 90.000000
_cell_angle_beta 36.174859
_cell_angle_gamma 90.000000
_cell_volume 2454.349922
_symmetry_space_group_name_H-M "C 2/C"
_symmetry_group_IT_number 15
_symmetry_cell_setting 'monoclinic'
loop_
_space_group_symop_operation_xyz
x,y,z
-x,y,1/2-z
-x,-y,-z
x,-y,1/2+z
1/2+x,1/2+y,z
1/2-x,1/2+y,1/2-z
1/2-x,1/2-y,-z
1/2+x,1/2-y,1/2+z
loop_
_atom_site_type_symbol
_atom_site_label
_atom_site_fract_x
_atom_site_fract_y
_atom_site_fract_z
Si Si1 0.838354 0.451939 0.485805
Si Si2 0.450236 0.229177 0.377971
Si Si3 0.646026 0.671010 0.740724
Si Si4 0.833735 0.631859 0.117689
Si Si5 0.755097 0.001942 0.080328
Si Si6 0.592249 0.432143 0.780433
Si Si7 0.603056 0.219341 0.917184
Si Si8 0.382648 0.547846 0.128665
O O1 0.819883 0.430394 0.437556
O O2 0.612994 0.495354 0.565883
O O3 0.013977 0.537958 0.442675
O O4 0.898255 0.342310 0.491526
O O5 0.639975 0.268449 0.289462
O O6 0.522002 0.229668 0.408774
O O7 0.360268 0.111327 0.396502
O O8 0.262681 0.291890 0.410245
O O9 0.500000 0.734605 0.750000
O O10 0.558853 0.555907 0.778971
O O11 0.827137 0.661813 0.650419
O O12 0.622488 0.631274 0.153470
O O13 0.733099 0.603308 0.196824
O O14 0.739520 0.981121 0.138403
O O15 0.000000 0.000000 0.000000
O O16 0.697900 0.432005 0.797227
O O17 0.587907 0.340255 0.906089
#
# Coordination Sequence:
#
# PCOD9255681 Si02
#       8
#     8   8   8   8   8   8   8   8
#     4  10  18  35  59  78 111 146 184 233 291 340
#     4   9  18  30  55  79  99 134 190 235 264 332
#     4  10  17  32  53  77 104 142 189 230 273 332
#     4  10  19  35  54  76 107 153 182 226 295 340
#     4   8  17  34  54  80 112 144 178 230 295 340
#     4  11  20  35  54  77 112 149 189 230 286 353
#     4  10  18  33  55  83 107 139 190 236 285 337
#     4  10  21  33  54  86 111 144 189 238 278 343
#
# _framework density 26.076152
#
# number of rings (size 3 to 8) (size 9 to 14) (size 15 to 20)
#    0.000    2.250    2.500    1.875    0.000    1.500 
#    0.000    3.125    0.000    9.000    0.000    0.000 
#    0.000    0.000    0.000    0.000    0.000    0.000 
#
# Total GULP energy -178254.278977 kJ/mol
# GULP energy per Si atom -5570.446218 kJ/mol
# Density = 2.601680 g / cm^3
# Si number density = 26.076152 Si / 1000 Ang^3
#
#
#
# Elastic Constant Matrix: (Units=GPa)
#
#
# Indices 1 2 3 4 5 6 
#
# 1 94.0469 13.4750 19.4612 -0.0001 1.0837 0.0000
# 2 13.4750 52.4432 7.3085 -0.0001 -0.9770 0.0001
# 3 19.4612 7.3085 76.5425 -0.0001 -2.0978 -0.0001
# 4 -0.0001 -0.0001 -0.0001 30.7005 0.0001 -6.1899
# 5 1.0837 -0.9770 -2.0978 0.0001 49.8524 0.0000
# 6 0.0000 0.0001 -0.0001 -6.1899 0.0000 30.8235
#
#
#
# Elastic Compliance Matrix: (Units=1/GPa)
#
#
# Indices 1 2 3 4 5 6 
#
# 1 0.011571 -0.002604 -0.002705 0.000000 -0.000416 0.000000
# 2 -0.002604 0.019916 -0.001229 0.000000 0.000395 0.000000
# 3 -0.002705 -0.001229 0.013887 0.000000 0.000619 0.000000
# 4 0.000000 0.000000 0.000000 0.033947 0.000000 0.006817
# 5 -0.000416 0.000395 0.000619 0.000000 0.020102 0.000000
# 6 0.000000 0.000000 0.000000 0.006817 0.000000 0.033812
#
#
# Mechanical properties :
#
#
# Convention : Reuss Voigt Hill
#
# Bulk Modulus (GPa) = 30.96112 33.72466 32.34289
# Shear Modulus (GPa) = 31.83196 34.46113 33.14654
#
# Velocity S-wave (km/s) = 3.49769 3.63927 3.56918
# Velocity P-wave (km/s) = 5.31139 5.53356 5.42361
#
# Compressibility (1/GPa) = 0.03229857
#
# Stress axis : x y z
#
# Youngs Moduli (GPa) = 86.42640 50.21115 72.01184
#
# Poissons Ratio (x) = 0.13074 0.19477
# Poissons Ratio (y) = 0.22504 0.08849
# Poissons Ratio (z) = 0.23375 0.06170
#
# Static dielectric constant tensor:
#      x y z
#    x 2.192550 0.000000 -0.036580 
#    y 0.000000 2.150080 0.000000 
#    z -0.036580 0.000000 2.206190 
# 
# From -- ./inp_files/308218.got.cif
#   From: 2010.05.17/outbox.cif.g08.bks.cpg/sg15_155_cif.got.tgz:308218.got - 2010.06.03 18:47:42.
