data_PCOD9255235
_publ_section_title
;
Structure prediction by ZEFSAII (Michael W. Deem and Ramdas Pophale) SiO2 
 PCOD9255235
Probable space group: C 2/C
;
_chemical_formula_sum "Si O2"
_cell_formula_units_Z 48
_cell_length_a 6.788674
_cell_length_b 20.394790
_cell_length_c 20.226257
_cell_angle_alpha 90.000000
_cell_angle_beta 91.343593
_cell_angle_gamma 90.000000
_cell_volume 2799.627758
_symmetry_space_group_name_H-M "C 2/C"
_symmetry_group_IT_number 15
_symmetry_cell_setting 'monoclinic'
loop_
_space_group_symop_operation_xyz
x,y,z
-x,y,1/2-z
-x,-y,-z
x,-y,1/2+z
1/2+x,1/2+y,z
1/2-x,1/2+y,1/2-z
1/2-x,1/2-y,-z
1/2+x,1/2-y,1/2+z
loop_
_atom_site_type_symbol
_atom_site_label
_atom_site_fract_x
_atom_site_fract_y
_atom_site_fract_z
Si Si1 0.581783 0.048492 0.876851
Si Si2 0.576337 0.366910 0.180080
Si Si3 0.410214 0.555347 0.421976
Si Si4 0.680363 0.566158 0.930712
Si Si5 0.813755 0.865507 0.794213
Si Si6 0.000000 0.471942 0.750000
Si Si7 0.500000 0.760365 0.750000
O O1 0.415004 0.070380 0.926247
O O2 0.721122 0.103273 0.845271
O O3 0.727793 0.995065 0.909929
O O4 0.470362 0.015317 0.814422
O O5 0.500000 0.396511 0.250000
O O6 0.416768 0.386057 0.123837
O O7 0.591543 0.290114 0.197325
O O8 0.396825 0.581073 0.496407
O O9 0.600492 0.508046 0.415679
O O10 0.386936 0.611352 0.366859
O O11 0.689558 0.926956 0.764650
O O12 0.661979 0.805355 0.786954
O O13 0.000000 0.852094 0.750000
#
# Coordination Sequence:
#
# PCOD9255235 Si02
#       7
#     8   8   8   8   8   4   4
#     4  10  17  29  52  77 105 137 162 205 268 318
#     4   9  20  34  49  74 103 129 174 222 249 290
#     4   9  20  32  49  81 109 132 167 212 259 316
#     4  10  18  32  52  77 110 135 162 209 266 319
#     4  10  19  35  55  71 101 141 173 213 259 303
#     4   9  18  28  48  84 102 119 172 214 254 315
#     4   9  22  38  50  74 102 133 188 224 238 295
#
# _framework density 17.145136999999998
#
# number of rings (size 3 to 8) (size 9 to 14) (size 15 to 20)
#    0.500    2.000    0.000    2.500    0.000    6.000 
#    0.000    0.833    0.000    2.000    0.000    0.000 
#    0.000    0.000    0.000    0.000    0.000    0.000 
#
# Total GULP energy -133687.915772 kJ/mol
# GULP energy per Si atom -5570.329824 kJ/mol
# Density = 1.710611 g / cm^3
# Si number density = 17.145137 Si / 1000 Ang^3
#
#
#
# Elastic Constant Matrix: (Units=GPa)
#
#
# Indices 1 2 3 4 5 6 
#
# 1 76.9024 20.5360 27.5217 0.0000 -15.1375 0.0000
# 2 20.5360 71.9764 37.9728 0.0000 -2.9143 0.0000
# 3 27.5217 37.9728 99.3934 0.0000 5.9148 0.0000
# 4 0.0000 0.0000 0.0000 16.2843 0.0000 1.3834
# 5 -15.1375 -2.9143 5.9148 0.0000 20.6930 0.0000
# 6 0.0000 0.0000 0.0000 1.3834 0.0000 -0.4021
#
#
#
# Elastic Compliance Matrix: (Units=1/GPa)
#
#
# Indices 1 2 3 4 5 6 
#
# 1 0.018229 -0.001868 -0.005200 0.000000 0.014558 0.000000
# 2 -0.001868 0.018000 -0.006540 0.000000 0.003038 0.000000
# 3 -0.005200 -0.006540 0.014528 0.000000 -0.008878 0.000000
# 4 0.000000 0.000000 0.000000 0.047519 0.000000 0.163496
# 5 0.014558 0.003038 -0.008878 0.000000 0.061941 0.000000
# 6 0.000000 0.000000 0.000000 0.163496 0.000000 -1.924583
#
#
# Mechanical properties :
#
#
# Convention : Reuss Voigt Hill
#
# Bulk Modulus (GPa) = 42.48138 46.70369 44.59254
# Shear Modulus (GPa) = -2.89134 18.13118 7.61992
#
# Velocity S-wave (km/s) = -1.30002 3.25547 2.11045
# Velocity P-wave (km/s) = 4.75162 6.43662 5.65721
#
# Compressibility (1/GPa) = 0.02353972
#
# Stress axis : x y z
#
# Youngs Moduli (GPa) = 54.85742 55.55582 68.83274
#
# Poissons Ratio (x) = 0.10378 0.35795
# Poissons Ratio (y) = 0.10248 0.45019
# Poissons Ratio (z) = 0.28527 0.36335
#
# Static dielectric constant tensor:
#      x y z
#    x 1.599630 0.000000 -0.000750 
#    y 0.000000 1.571190 0.000000 
#    z -0.000750 0.000000 1.589330 
# 
# From -- ./inp_files/227726.got.cif
#   From: 2010.05.17/outbox.cif.g08.bks.cpg/sg15_114_cif.got.tgz:227726.got - 2010.06.03 18:47:42.
