data_PCOD9255801
_publ_section_title
;
Structure prediction by ZEFSAII (Michael W. Deem and Ramdas Pophale) SiO2 
 PCOD9255801
Probable space group: C 2/C
;
_chemical_formula_sum "Si O2"
_cell_formula_units_Z 64
_cell_length_a 29.621403
_cell_length_b 21.223376
_cell_length_c 14.433863
_cell_angle_alpha 90.000000
_cell_angle_beta 159.525689
_cell_angle_gamma 90.000000
_cell_volume 3173.999184
_symmetry_space_group_name_H-M "C 2/C"
_symmetry_group_IT_number 15
_symmetry_cell_setting 'monoclinic'
loop_
_space_group_symop_operation_xyz
x,y,z
-x,y,1/2-z
-x,-y,-z
x,-y,1/2+z
1/2+x,1/2+y,z
1/2-x,1/2+y,1/2-z
1/2-x,1/2-y,-z
1/2+x,1/2-y,1/2+z
loop_
_atom_site_type_symbol
_atom_site_label
_atom_site_fract_x
_atom_site_fract_y
_atom_site_fract_z
Si Si1 0.124840 0.444543 0.566875
Si Si2 0.599632 0.246455 0.360658
Si Si3 0.990128 0.809244 0.501132
Si Si4 0.380379 0.004676 0.654494
Si Si5 0.470473 0.179010 0.533429
Si Si6 0.153019 0.126212 0.044164
Si Si7 0.281056 0.866353 0.505562
Si Si8 0.252662 0.372284 0.561408
O O1 0.126815 0.476263 0.469123
O O2 0.063689 0.373690 0.455117
O O3 0.035049 0.483934 0.464289
O O4 0.274285 0.429024 0.871421
O O5 0.500000 0.232661 0.250000
O O6 0.525800 0.270625 0.126513
O O7 0.680132 0.306693 0.549061
O O8 0.682834 0.185356 0.501854
O O9 0.967182 0.754795 0.534180
O O10 0.871327 0.858234 0.271613
O O11 0.127959 0.843893 0.766543
O O12 0.329066 0.935413 0.572394
O O13 0.293277 0.055584 0.540869
O O14 0.619768 0.165804 0.793423
O O15 0.368688 0.157904 0.259067
O O16 0.000000 0.117578 0.750000
O O17 0.202162 0.129903 0.244080
#
# Coordination Sequence:
#
# PCOD9255801 Si02
#       8
#     8   8   8   8   8   8   8   8
#     4   9  18  35  56  79 115 148 198 246 282 353
#     4  10  19  34  59  90 114 152 202 245 295 351
#     4  11  20  37  59  93 123 151 194 253 311 353
#     4   9  21  37  56  84 115 163 204 233 296 356
#     4  10  21  36  60  90 119 150 199 252 312 346
#     4  10  17  32  59  88 110 149 209 246 299 346
#     4  11  23  36  61  89 122 159 198 251 296 360
#     4  10  20  35  57  88 118 157 195 244 298 367
#
# _framework density 20.163836
#
# number of rings (size 3 to 8) (size 9 to 14) (size 15 to 20)
#    0.000    2.000    2.500    4.125    1.750    2.500 
#    0.000    0.000    5.500    0.000    6.500    0.000 
#    0.000    0.000    0.000    0.000    0.000    0.000 
#
# Total GULP energy -178259.611480 kJ/mol
# GULP energy per Si atom -5570.612859 kJ/mol
# Density = 2.011794 g / cm^3
# Si number density = 20.163836 Si / 1000 Ang^3
#
#
#
# Elastic Constant Matrix: (Units=GPa)
#
#
# Indices 1 2 3 4 5 6 
#
# 1 54.9554 29.4526 22.8090 0.0000 21.7265 0.0000
# 2 29.4526 133.1244 60.9711 0.0000 31.6300 0.0000
# 3 22.8090 60.9711 113.7102 0.0000 33.5082 0.0000
# 4 0.0000 0.0000 0.0000 28.7756 0.0000 2.8489
# 5 21.7265 31.6300 33.5082 0.0000 31.6065 0.0000
# 6 0.0000 0.0000 0.0000 2.8489 0.0000 21.8864
#
#
#
# Elastic Compliance Matrix: (Units=1/GPa)
#
#
# Indices 1 2 3 4 5 6 
#
# 1 0.025407 -0.002155 0.000829 0.000000 -0.016188 0.000000
# 2 -0.002155 0.011071 -0.003891 0.000000 -0.005473 0.000000
# 3 0.000829 -0.003891 0.014158 0.000000 -0.011686 0.000000
# 4 0.000000 0.000000 0.000000 0.035205 0.000000 -0.004583
# 5 -0.016188 -0.005473 -0.011686 0.000000 0.060632 0.000000
# 6 0.000000 0.000000 0.000000 -0.004583 0.000000 0.046287
#
#
# Mechanical properties :
#
#
# Convention : Reuss Voigt Hill
#
# Bulk Modulus (GPa) = 24.87428 58.69506 41.78467
# Shear Modulus (GPa) = 23.08460 29.02418 26.05439
#
# Velocity S-wave (km/s) = 3.38724 3.79808 3.59853
# Velocity P-wave (km/s) = 5.25934 6.95745 6.16712
#
# Compressibility (1/GPa) = 0.04020217
#
# Stress axis : x y z
#
# Youngs Moduli (GPa) = 39.35930 90.32609 70.63130
#
# Poissons Ratio (x) = 0.19462 -0.05856
# Poissons Ratio (y) = 0.08481 0.27485
# Poissons Ratio (z) = -0.03263 0.35149
#
# Static dielectric constant tensor:
#      x y z
#    x 1.790430 0.000000 -0.012590 
#    y 0.000000 1.715720 0.000000 
#    z -0.012590 0.000000 1.798230 
# 
# From -- ./inp_files/183163.got.cif
#   From: 2010.05.17/outbox.cif.g08.bks.cpg/sg15_92_cif.got.tgz:183163.got - 2010.06.03 18:47:42.
