data_PCOD9255287
_publ_section_title
;
Structure prediction by ZEFSAII (Michael W. Deem and Ramdas Pophale) SiO2 
 PCOD9255287
Probable space group: C 2/C
;
_chemical_formula_sum "Si O2"
_cell_formula_units_Z 56
_cell_length_a 20.448479
_cell_length_b 18.057201
_cell_length_c 8.413172
_cell_angle_alpha 90.000000
_cell_angle_beta 114.267995
_cell_angle_gamma 90.000000
_cell_volume 2831.986960
_symmetry_space_group_name_H-M "C 2/C"
_symmetry_group_IT_number 15
_symmetry_cell_setting 'monoclinic'
loop_
_space_group_symop_operation_xyz
x,y,z
-x,y,1/2-z
-x,-y,-z
x,-y,1/2+z
1/2+x,1/2+y,z
1/2-x,1/2+y,1/2-z
1/2-x,1/2-y,-z
1/2+x,1/2-y,1/2+z
loop_
_atom_site_type_symbol
_atom_site_label
_atom_site_fract_x
_atom_site_fract_y
_atom_site_fract_z
Si Si1 0.000000 0.021501 0.750000
Si Si2 0.739839 0.391127 0.238822
Si Si3 0.369432 0.179151 0.753586
Si Si4 0.926520 0.899411 0.470134
Si Si5 0.984905 0.583220 0.046245
Si Si6 0.196737 0.477310 0.908660
Si Si7 0.373432 0.905800 0.959708
Si Si8 0.000000 0.776722 0.750000
O O1 0.961558 0.071632 0.842589
O O2 0.941889 0.967357 0.607954
O O3 0.792889 0.320407 0.268343
O O4 0.656177 0.378856 0.134573
O O5 0.756734 0.430226 0.423367
O O6 0.761590 0.455228 0.132952
O O7 0.344450 0.153219 0.553579
O O8 0.432789 0.236124 0.772001
O O9 0.412148 0.116907 0.901879
O O10 0.966298 0.829148 0.581889
O O11 0.048907 0.622747 0.013072
O O12 0.000000 0.590649 0.250000
O O13 0.000000 0.500000 0.000000
O O14 0.167538 0.425131 0.741145
O O15 0.132153 0.517574 0.942509
#
# Coordination Sequence:
#
# PCOD9255287 Si02
#       8
#     4   8   8   8   8   8   8   4
#     4   9  20  42  70 104 113 144 190 258 325 364
#     4  10  19  34  58  91 121 159 191 257 305 360
#     4  11  22  37  54  81 121 165 210 240 290 354
#     4  10  21  40  71  93 123 147 195 254 313 375
#     4  12  20  29  49  77 110 155 208 255 289 333
#     4   9  18  30  52  86 121 145 196 248 316 346
#     4  10  17  30  46  72 112 156 192 242 283 348
#     4  11  24  44  58  84 121 172 214 240 289 368
#
# _framework density 19.774101000000002
#
# number of rings (size 3 to 8) (size 9 to 14) (size 15 to 20)
#    0.000    1.714    1.429    6.000    0.000    0.571 
#    1.286    1.429    0.000    1.714    0.000    0.000 
#    0.000    0.000    0.000    0.000    0.000    0.000 
#
# Total GULP energy -155912.660458 kJ/mol
# GULP energy per Si atom -5568.309302 kJ/mol
# Density = 1.972909 g / cm^3
# Si number density = 19.774101 Si / 1000 Ang^3
#
#
#
# Elastic Constant Matrix: (Units=GPa)
#
#
# Indices 1 2 3 4 5 6 
#
# 1 88.4196 39.8310 63.2954 0.0000 23.2211 0.0000
# 2 39.8310 62.5932 34.7820 0.0000 6.6608 0.0000
# 3 63.2954 34.7820 129.9960 0.0000 -2.6801 0.0000
# 4 0.0000 0.0000 0.0000 5.1870 0.0000 4.6357
# 5 23.2211 6.6608 -2.6801 0.0000 35.5766 0.0000
# 6 0.0000 0.0000 0.0000 4.6357 0.0000 10.7031
#
#
#
# Elastic Compliance Matrix: (Units=1/GPa)
#
#
# Indices 1 2 3 4 5 6 
#
# 1 0.028949 -0.009957 -0.011801 0.000000 -0.017920 0.000000
# 2 -0.009957 0.022747 -0.001194 0.000000 0.002150 0.000000
# 3 -0.011801 -0.001194 0.013943 0.000000 0.008976 0.000000
# 4 0.000000 0.000000 0.000000 0.314552 0.000000 -0.136239
# 5 -0.017920 0.002150 0.008976 0.000000 0.040078 0.000000
# 6 0.000000 0.000000 0.000000 -0.136239 0.000000 0.152439
#
#
# Mechanical properties :
#
#
# Convention : Reuss Voigt Hill
#
# Bulk Modulus (GPa) = 50.66997 61.86951 56.26974
# Shear Modulus (GPa) = 7.99757 19.83335 13.91546
#
# Velocity S-wave (km/s) = 2.01327 3.17045 2.65565
# Velocity P-wave (km/s) = 5.57534 6.69017 6.15803
#
# Compressibility (1/GPa) = 0.01973556
#
# Stress axis : x y z
#
# Youngs Moduli (GPa) = 34.54364 43.96200 71.72210
#
# Poissons Ratio (x) = 0.43774 0.84636
# Poissons Ratio (y) = 0.34396 0.08561
# Poissons Ratio (z) = 0.40763 0.05248
#
# Static dielectric constant tensor:
#      x y z
#    x 1.768660 0.000000 0.000670 
#    y 0.000000 1.739840 0.000000 
#    z 0.000670 0.000000 1.680180 
# 
# From -- ./inp_files/56753.got.cif
#   From: 2010.05.17/outbox.cif.g08.bks.cpg/sg15_29_cif.got.tgz:56753.got - 2010.06.03 18:47:42.
