data_PCOD9255349
_publ_section_title
;
Structure prediction by ZEFSAII (Michael W. Deem and Ramdas Pophale) SiO2 
 PCOD9255349
Probable space group: C 2/C
;
_chemical_formula_sum "Si O2"
_cell_formula_units_Z 64
_cell_length_a 9.235013
_cell_length_b 17.209555
_cell_length_c 18.491886
_cell_angle_alpha 90.000000
_cell_angle_beta 69.388003
_cell_angle_gamma 90.000000
_cell_volume 2750.791284
_symmetry_space_group_name_H-M "C 2/C"
_symmetry_group_IT_number 15
_symmetry_cell_setting 'monoclinic'
loop_
_space_group_symop_operation_xyz
x,y,z
-x,y,1/2-z
-x,-y,-z
x,-y,1/2+z
1/2+x,1/2+y,z
1/2-x,1/2+y,1/2-z
1/2-x,1/2-y,-z
1/2+x,1/2-y,1/2+z
loop_
_atom_site_type_symbol
_atom_site_label
_atom_site_fract_x
_atom_site_fract_y
_atom_site_fract_z
Si Si1 0.635991 0.157554 0.666562
Si Si2 0.860262 0.726227 0.546180
Si Si3 0.137909 0.390358 0.890424
Si Si4 0.822510 0.086632 0.207322
Si Si5 0.066391 0.566889 0.897468
Si Si6 0.406344 0.685273 0.410995
Si Si7 0.603388 0.187715 0.163958
Si Si8 0.848431 0.088267 0.735506
O O1 0.500000 0.163296 0.750000
O O2 0.585715 0.088108 0.622085
O O3 0.635309 0.235810 0.622369
O O4 0.793116 0.143350 0.681303
O O5 0.750000 0.750000 0.500000
O O6 0.907516 0.636559 0.549369
O O7 0.005572 0.784546 0.532602
O O8 0.739847 0.749941 0.631490
O O9 0.248868 0.395187 0.798936
O O10 0.075460 0.476825 0.916700
O O11 0.248035 0.362970 0.936441
O O12 0.004043 0.331688 0.886143
O O13 0.967618 0.138347 0.158294
O O14 0.688590 0.107663 0.173241
O O15 0.873089 0.997654 0.198538
O O16 0.208670 0.578100 0.816445
O O17 0.500000 0.209671 0.250000
O O18 0.000000 0.113175 0.750000
#
# Coordination Sequence:
#
# PCOD9255349 Si02
#       8
#     8   8   8   8   8   8   8   8
#     4   9  17  29  44  67 102 140 173 204 252 318
#     4  10  22  41  57  73 105 150 186 215 263 330
#     4  10  17  30  51  80 107 131 171 227 269 305
#     4   9  16  29  48  76 111 142 169 208 266 326
#     4   9  19  33  51  73 104 142 175 212 263 320
#     4  10  19  32  52  74 101 143 181 213 264 326
#     4   9  19  33  57  85 109 136 178 226 266 308
#     4  10  18  27  47  80 113 138 167 215 269 313
#
# _framework density 23.266031999999999
#
# number of rings (size 3 to 8) (size 9 to 14) (size 15 to 20)
#    0.000    2.500    0.000    3.375    0.000    7.500 
#    0.000    1.875    0.000    0.000    0.000    0.000 
#    0.000    0.000    0.000    0.000    0.000    0.000 
#
# Total GULP energy -178868.608002 kJ/mol
# GULP energy per Si atom -5589.644000 kJ/mol
# Density = 2.321308 g / cm^3
# Si number density = 23.266032 Si / 1000 Ang^3
#
#
#
# Elastic Constant Matrix: (Units=GPa)
#
#
# Indices 1 2 3 4 5 6 
#
# 1 127.4106 31.5629 29.8135 0.0000 40.8598 0.0000
# 2 31.5629 108.6659 19.9460 0.0000 19.5832 0.0000
# 3 29.8135 19.9460 51.2761 0.0000 10.7822 0.0000
# 4 0.0000 0.0000 0.0000 19.3578 0.0000 -27.4413
# 5 40.8598 19.5832 10.7822 0.0000 44.1526 0.0000
# 6 0.0000 0.0000 0.0000 -27.4413 0.0000 417.7455
#
#
#
# Elastic Compliance Matrix: (Units=1/GPa)
#
#
# Indices 1 2 3 4 5 6 
#
# 1 0.012352 -0.000941 -0.004744 0.000000 -0.009855 0.000000
# 2 -0.000941 0.010570 -0.002911 0.000000 -0.003106 0.000000
# 3 -0.004744 -0.002911 0.023400 0.000000 -0.000033 0.000000
# 4 0.000000 0.000000 0.000000 0.056963 0.000000 0.003742
# 5 -0.009855 -0.003106 -0.000033 0.000000 0.033155 0.000000
# 6 0.000000 0.000000 0.000000 0.003742 0.000000 0.002640
#
#
# Mechanical properties :
#
#
# Convention : Reuss Voigt Hill
#
# Bulk Modulus (GPa) = 34.32866 49.99972 42.16419
# Shear Modulus (GPa) = 30.12375 109.98651 70.05513
#
# Velocity S-wave (km/s) = 3.60217 6.88303 5.49325
# Velocity P-wave (km/s) = 5.66460 9.20354 7.64176
#
# Compressibility (1/GPa) = 0.02913018
#
# Stress axis : x y z
#
# Youngs Moduli (GPa) = 80.95673 94.60696 42.73542
#
# Poissons Ratio (x) = 0.08903 0.20272
# Poissons Ratio (y) = 0.07618 0.12442
# Poissons Ratio (z) = 0.38403 0.27543
#
# Static dielectric constant tensor:
#      x y z
#    x 2.000870 0.000000 -0.012820 
#    y 0.000000 1.852670 0.000000 
#    z -0.012820 0.000000 1.949840 
# 
# From -- ./inp_files/265267.got.cif
#   From: 2010.05.17/outbox.cif.g08.bks.cpg/sg15_133_cif.got.tgz:265267.got - 2010.06.03 18:47:42.
