data_PCOD9255692
_publ_section_title
;
Structure prediction by ZEFSAII (Michael W. Deem and Ramdas Pophale) SiO2 
 PCOD9255692
Probable space group: C 2/C
;
_chemical_formula_sum "Si O2"
_cell_formula_units_Z 60
_cell_length_a 10.807302
_cell_length_b 25.670089
_cell_length_c 17.058634
_cell_angle_alpha 90.000000
_cell_angle_beta 42.602080
_cell_angle_gamma 90.000000
_cell_volume 3203.429380
_symmetry_space_group_name_H-M "C 2/C"
_symmetry_group_IT_number 15
_symmetry_cell_setting 'monoclinic'
loop_
_space_group_symop_operation_xyz
x,y,z
-x,y,1/2-z
-x,-y,-z
x,-y,1/2+z
1/2+x,1/2+y,z
1/2-x,1/2+y,1/2-z
1/2-x,1/2-y,-z
1/2+x,1/2-y,1/2+z
loop_
_atom_site_type_symbol
_atom_site_label
_atom_site_fract_x
_atom_site_fract_y
_atom_site_fract_z
Si Si1 0.944609 0.657303 0.102118
Si Si2 0.500000 0.905047 0.250000
Si Si3 0.857042 0.146968 0.974500
Si Si4 0.705661 0.493026 0.372404
Si Si5 0.402514 0.736180 0.711182
Si Si6 0.808918 0.608398 0.305482
Si Si7 0.110142 0.936405 0.271013
Si Si8 0.404372 0.849647 0.131543
O O1 0.883400 0.711708 0.169734
O O2 0.822203 0.615472 0.206470
O O3 0.156903 0.648830 0.028728
O O4 0.947088 0.655400 0.006878
O O5 0.328405 0.944581 0.345653
O O6 0.467853 0.869339 0.188028
O O7 0.962827 0.198197 0.899410
O O8 0.971883 0.098362 0.887744
O O9 0.840264 0.140365 0.075866
O O10 0.500000 0.500000 0.500000
O O11 0.794648 0.549180 0.340425
O O12 0.693555 0.480250 0.286172
O O13 0.500000 0.745399 0.750000
O O14 0.215652 0.703281 0.809009
O O15 0.000000 0.629269 0.250000
O O16 0.263257 0.895536 0.172455
O O17 0.000000 0.958111 0.250000
#
# Coordination Sequence:
#
# PCOD9255692 Si02
#       8
#     8   4   8   8   8   8   8   8
#     4  11  21  33  56  86 126 151 187 258 308 349
#     4  10  24  44  62  86 114 166 214 244 296 370
#     4  10  17  32  53  81 126 148 187 238 299 365
#     4  11  21  39  63  84 118 159 205 250 301 360
#     4  11  20  33  59  92 118 156 197 243 307 369
#     4  10  21  34  52  88 122 156 189 243 298 356
#     4  10  18  34  57  83 111 152 196 247 298 364
#     4  10  21  39  58  82 118 156 200 244 301 356
#
# _framework density 18.729928000000001
#
# number of rings (size 3 to 8) (size 9 to 14) (size 15 to 20)
#    0.000    1.600    4.667    2.400    1.867    0.000 
#    2.400    2.000    0.000    0.000    0.000    0.000 
#    0.000    0.000    0.000    0.000    0.000    0.000 
#
# Total GULP energy -167167.805562 kJ/mol
# GULP energy per Si atom -5572.260185 kJ/mol
# Density = 1.868730 g / cm^3
# Si number density = 18.729928 Si / 1000 Ang^3
#
#
#
# Elastic Constant Matrix: (Units=GPa)
#
#
# Indices 1 2 3 4 5 6 
#
# 1 65.8984 15.0847 21.9817 0.0000 16.7400 0.0000
# 2 15.0847 61.6836 32.0814 0.0000 11.5375 0.0000
# 3 21.9817 32.0814 109.2082 0.0001 22.4282 -0.0001
# 4 0.0000 0.0000 0.0001 10.6298 0.0000 6.3339
# 5 16.7400 11.5375 22.4282 0.0000 26.5868 0.0000
# 6 0.0000 0.0000 -0.0001 6.3339 0.0000 14.3119
#
#
#
# Elastic Compliance Matrix: (Units=1/GPa)
#
#
# Indices 1 2 3 4 5 6 
#
# 1 0.018519 -0.002127 -0.001086 0.000000 -0.009821 0.000000
# 2 -0.002127 0.019797 -0.004715 0.000000 -0.003274 0.000000
# 3 -0.001086 -0.004715 0.012337 0.000000 -0.007678 0.000000
# 4 0.000000 0.000000 0.000000 0.127769 0.000001 -0.056545
# 5 -0.009821 -0.003274 -0.007678 0.000001 0.051694 0.000000
# 6 0.000000 0.000000 0.000000 -0.056545 0.000000 0.094897
#
#
# Mechanical properties :
#
#
# Convention : Reuss Voigt Hill
#
# Bulk Modulus (GPa) = 28.73802 41.67621 35.20712
# Shear Modulus (GPa) = 14.18573 21.48185 17.83379
#
# Velocity S-wave (km/s) = 2.75505 3.39030 3.08905
# Velocity P-wave (km/s) = 5.04946 6.13392 5.61792
#
# Compressibility (1/GPa) = 0.03479711
#
# Stress axis : x y z
#
# Youngs Moduli (GPa) = 53.99922 50.51382 81.05555
#
# Poissons Ratio (x) = 0.10745 0.08800
# Poissons Ratio (y) = 0.11486 0.38217
# Poissons Ratio (z) = 0.05862 0.23817
#
# Static dielectric constant tensor:
#      x y z
#    x 1.659520 0.000000 0.017360 
#    y 0.000000 1.662680 0.000000 
#    z 0.017360 0.000000 1.704410 
# 
# From -- ./inp_files/174979.got.cif
#   From: 2010.05.17/outbox.cif.g08.bks.cpg/sg15_88_cif.got.tgz:174979.got - 2010.06.03 18:47:42.
