data_PCOD9255614
_publ_section_title
;
Structure prediction by ZEFSAII (Michael W. Deem and Ramdas Pophale) SiO2 
 PCOD9255614
Probable space group: C 2/C
;
_chemical_formula_sum "Si O2"
_cell_formula_units_Z 44
_cell_length_a 19.228353
_cell_length_b 20.751547
_cell_length_c 13.172457
_cell_angle_alpha 90.000000
_cell_angle_beta 155.989122
_cell_angle_gamma 90.000000
_cell_volume 2138.739061
_symmetry_space_group_name_H-M "C 2/C"
_symmetry_group_IT_number 15
_symmetry_cell_setting 'monoclinic'
loop_
_space_group_symop_operation_xyz
x,y,z
-x,y,1/2-z
-x,-y,-z
x,-y,1/2+z
1/2+x,1/2+y,z
1/2-x,1/2+y,1/2-z
1/2-x,1/2-y,-z
1/2+x,1/2-y,1/2+z
loop_
_atom_site_type_symbol
_atom_site_label
_atom_site_fract_x
_atom_site_fract_y
_atom_site_fract_z
Si Si1 0.100445 0.670992 0.235826
Si Si2 0.279325 0.012609 0.372738
Si Si3 0.869500 0.482071 0.726916
Si Si4 0.500000 0.452168 0.250000
Si Si5 0.478575 0.399139 0.442153
Si Si6 0.753874 0.713591 0.849094
O O1 0.102465 0.594812 0.228215
O O2 0.176009 0.689861 0.447121
O O3 0.209705 0.711496 0.300856
O O4 0.906283 0.696661 0.976737
O O5 0.337784 0.000712 0.565740
O O6 0.438514 0.012909 0.506644
O O7 0.152992 0.951834 0.186847
O O8 0.167401 0.077063 0.220406
O O9 0.673537 0.491959 0.504696
O O10 0.466845 0.408644 0.304584
O O11 0.413396 0.329939 0.389703
#
# Coordination Sequence:
#
# PCOD9255614 Si02
#       6
#     8   8   8   4   8   8
#     4  10  18  27  42  63  90 127 152 187 213 281
#     4   9  17  31  49  60  89 126 163 189 221 281
#     4  10  17  32  46  66  91 123 159 190 235 270
#     4  10  20  26  44  64  96 116 150 198 230 272
#     4  10  18  30  45  67  90 126 159 189 228 275
#     4  10  18  27  42  64  89 125 159 177 223 272
#
# _framework density 20.572870999999999
#
# number of rings (size 3 to 8) (size 9 to 14) (size 15 to 20)
#    0.000    2.182    5.455    1.091    2.545    0.727 
#    0.000    0.000    0.000    0.000    0.000    0.000 
#    0.000    8.727    0.000    0.182    0.000    0.000 
#
# Total GULP energy -122615.879358 kJ/mol
# GULP energy per Si atom -5573.449062 kJ/mol
# Density = 2.052605 g / cm^3
# Si number density = 20.572871 Si / 1000 Ang^3
#
#
#
# Elastic Constant Matrix: (Units=GPa)
#
#
# Indices 1 2 3 4 5 6 
#
# 1 37.7339 4.1218 -2.2109 0.0000 35.0845 0.0000
# 2 4.1218 72.1251 38.3674 0.0000 -5.2471 0.0000
# 3 -2.2109 38.3674 130.2031 0.0000 43.6420 0.0000
# 4 0.0000 0.0000 0.0000 32.2496 0.0000 5.6295
# 5 35.0845 -5.2471 43.6420 0.0000 19.2532 0.0000
# 6 0.0000 0.0000 0.0000 5.6295 0.0000 17.3947
#
#
#
# Elastic Compliance Matrix: (Units=1/GPa)
#
#
# Indices 1 2 3 4 5 6 
#
# 1 0.000541 0.007789 -0.011104 0.000000 0.026306 0.000000
# 2 0.007789 0.012880 -0.000341 0.000000 -0.009912 0.000000
# 3 -0.011104 -0.000341 0.003502 0.000000 0.012203 0.000000
# 4 0.000000 0.000000 0.000000 0.032865 0.000000 -0.010636
# 5 0.026306 -0.009912 0.012203 0.000000 -0.026359 0.000000
# 6 0.000000 0.000000 0.000000 -0.010636 0.000000 0.060931
#
#
# Mechanical properties :
#
#
# Convention : Reuss Voigt Hill
#
# Bulk Modulus (GPa) = 104.02361 35.62428 69.82395
# Shear Modulus (GPa) = 52.70199 27.09841 39.90020
#
# Velocity S-wave (km/s) = 5.06684 3.63325 4.40870
# Velocity P-wave (km/s) = 9.21432 5.91223 7.74139
#
# Compressibility (1/GPa) = 0.00961320
#
# Stress axis : x y z
#
# Youngs Moduli (GPa) = 1848.79825 77.64137 285.55194
#
# Poissons Ratio (x) = -0.60478 3.17063
# Poissons Ratio (y) = -14.40108 0.09726
# Poissons Ratio (z) = 20.52816 0.02645
#
# Static dielectric constant tensor:
#      x y z
#    x 1.839080 0.000000 -0.017850 
#    y 0.000000 1.695050 0.000000 
#    z -0.017850 0.000000 1.880580 
# 
# From -- ./inp_files/219879.got.cif
#   From: 2010.05.17/outbox.cif.g08.bks.cpg/sg15_110_cif.got.tgz:219879.got - 2010.06.03 18:47:42.
