data_PCOD9255054
_publ_section_title
;
Structure prediction by ZEFSAII (Michael W. Deem and Ramdas Pophale) SiO2 
 PCOD9255054
Probable space group: C 2/C
;
_chemical_formula_sum "Si O2"
_cell_formula_units_Z 60
_cell_length_a 28.972246
_cell_length_b 26.806355
_cell_length_c 5.243209
_cell_angle_alpha 90.000000
_cell_angle_beta 103.244411
_cell_angle_gamma 90.000000
_cell_volume 3963.776506
_symmetry_space_group_name_H-M "C 2/C"
_symmetry_group_IT_number 15
_symmetry_cell_setting 'monoclinic'
loop_
_space_group_symop_operation_xyz
x,y,z
-x,y,1/2-z
-x,-y,-z
x,-y,1/2+z
1/2+x,1/2+y,z
1/2-x,1/2+y,1/2-z
1/2-x,1/2-y,-z
1/2+x,1/2-y,1/2+z
loop_
_atom_site_type_symbol
_atom_site_label
_atom_site_fract_x
_atom_site_fract_y
_atom_site_fract_z
Si Si1 0.323013 0.348806 0.571453
Si Si2 0.952403 0.210889 0.577922
Si Si3 0.130692 0.260897 0.318067
Si Si4 0.589495 0.376906 0.149927
Si Si5 0.000000 0.134395 0.250000
Si Si6 0.056548 0.967939 0.350004
Si Si7 0.677396 0.782785 0.879203
Si Si8 0.723531 0.671769 0.984203
O O1 0.342430 0.292251 0.626178
O O2 0.366566 0.375938 0.485157
O O3 0.282066 0.350140 0.305848
O O4 0.303604 0.359274 0.830170
O O5 0.920121 0.246098 0.363429
O O6 0.921214 0.178612 0.744501
O O7 0.000000 0.235962 0.750000
O O8 0.975046 0.168617 0.428046
O O9 0.138028 0.283785 0.606903
O O10 0.156238 0.292825 0.130955
O O11 0.588562 0.418228 0.367345
O O12 0.543032 0.393298 0.933042
O O13 0.000000 0.956564 0.250000
O O14 0.066480 0.995422 0.626760
O O15 0.698310 0.726268 0.927517
O O16 0.722369 0.817178 0.874330
#
# Coordination Sequence:
#
# PCOD9255054 Si02
#       8
#     8   8   8   8   4   8   8   8
#     4  10  18  27  44  55  77  88 118 141 176 217
#     4  10  20  29  40  57  75  96 122 154 184 218
#     4  10  17  28  39  58  72 100 118 145 173 212
#     4  11  21  32  44  60  72  94 116 150 186 230
#     4  10  20  28  44  54  72  92 116 152 182 222
#     4  10  23  36  48  60  74  92 116 147 185 232
#     4   9  17  26  41  52  79  94 120 138 168 210
#     4   9  17  28  38  60  72  98 112 141 170 206
#
# _framework density 15.137079999999999
#
# number of rings (size 3 to 8) (size 9 to 14) (size 15 to 20)
#    0.000    2.133    1.333    4.400    6.533    3.200 
#    0.000    0.000    0.000    0.000    0.000    0.000 
#    0.000    0.000    0.000    0.000    0.000    0.000 
#
# Total GULP energy -167116.098376 kJ/mol
# GULP energy per Si atom -5570.536613 kJ/mol
# Density = 1.510263 g / cm^3
# Si number density = 15.137080 Si / 1000 Ang^3
#
#
#
# Elastic Constant Matrix: (Units=GPa)
#
#
# Indices 1 2 3 4 5 6 
#
# 1 64.0704 24.3703 36.2318 0.0000 0.5724 0.0000
# 2 24.3703 13.7194 11.7037 0.0000 -1.6417 0.0000
# 3 36.2318 11.7037 94.1171 0.0000 1.7598 0.0000
# 4 0.0000 0.0000 0.0000 10.6435 0.0000 -9.3636
# 5 0.5724 -1.6417 1.7598 0.0000 28.9035 0.0000
# 6 0.0000 0.0000 0.0000 -9.3636 0.0000 11.4714
#
#
#
# Elastic Compliance Matrix: (Units=1/GPa)
#
#
# Indices 1 2 3 4 5 6 
#
# 1 0.056656 -0.092644 -0.010182 0.000000 -0.005764 0.000000
# 2 -0.092644 0.233834 0.006311 0.000000 0.014732 0.000000
# 3 -0.010182 0.006311 0.013765 0.000000 -0.000278 0.000000
# 4 0.000000 0.000000 0.000000 0.333295 0.000000 0.272055
# 5 -0.005764 0.014732 -0.000278 0.000000 0.035566 0.000000
# 6 0.000000 0.000000 0.000000 0.272055 0.000000 0.309240
#
#
# Mechanical properties :
#
#
# Convention : Reuss Voigt Hill
#
# Bulk Modulus (GPa) = 8.99070 35.16872 22.07971
# Shear Modulus (GPa) = 4.12384 16.84375 10.48380
#
# Velocity S-wave (km/s) = 1.65235 3.33941 2.63457
# Velocity P-wave (km/s) = 3.09722 6.17679 4.88598
#
# Compressibility (1/GPa) = 0.11122605
#
# Stress axis : x y z
#
# Youngs Moduli (GPa) = 17.65033 4.27654 72.64636
#
# Poissons Ratio (x) = 0.39619 0.73972
# Poissons Ratio (y) = 1.63519 -0.45849
# Poissons Ratio (z) = 0.17972 -0.02699
#
# Static dielectric constant tensor:
#      x y z
#    x 1.543860 0.000000 0.001790 
#    y 0.000000 1.489800 0.000000 
#    z 0.001790 0.000000 1.599630 
# 
# From -- ./inp_files/17826.got.cif
#   From: 2010.05.17/outbox.cif.g08.bks.cpg/sg15_9_cif.got.tgz:17826.got - 2010.06.03 18:47:42.
