data_PCOD9255286
_publ_section_title
;
Structure prediction by ZEFSAII (Michael W. Deem and Ramdas Pophale) SiO2 
 PCOD9255286
Probable space group: C 2/C
;
_chemical_formula_sum "Si O2"
_cell_formula_units_Z 64
_cell_length_a 23.613714
_cell_length_b 5.642780
_cell_length_c 17.443446
_cell_angle_alpha 90.000000
_cell_angle_beta 87.416128
_cell_angle_gamma 90.000000
_cell_volume 2321.923625
_symmetry_space_group_name_H-M "C 2/C"
_symmetry_group_IT_number 15
_symmetry_cell_setting 'monoclinic'
loop_
_space_group_symop_operation_xyz
x,y,z
-x,y,1/2-z
-x,-y,-z
x,-y,1/2+z
1/2+x,1/2+y,z
1/2-x,1/2+y,1/2-z
1/2-x,1/2-y,-z
1/2+x,1/2-y,1/2+z
loop_
_atom_site_type_symbol
_atom_site_label
_atom_site_fract_x
_atom_site_fract_y
_atom_site_fract_z
Si Si1 0.563033 0.750000 0.922287
Si Si2 0.404966 0.250000 0.592872
Si Si3 0.810177 0.750000 0.906327
Si Si4 0.098545 0.750000 0.718853
Si Si5 0.957515 0.750000 0.322688
Si Si6 0.212705 0.250000 0.331362
Si Si7 0.695319 0.750000 0.555334
Si Si8 0.188997 0.250000 0.842084
O O1 0.569825 0.480565 0.949428
O O2 0.500575 0.750000 0.890308
O O3 0.622794 0.750000 0.868128
O O4 0.569825 0.019435 0.949428
O O5 0.414301 0.250000 0.687209
O O6 0.336277 0.250000 0.597172
O O7 0.838589 0.750000 0.821408
O O8 0.830763 0.510937 0.946815
O O9 0.740809 0.750000 0.902270
O O10 0.830763 0.989063 0.946815
O O11 0.074429 0.501565 0.686171
O O12 0.074428 0.998434 0.686171
O O13 0.000000 0.750000 0.250000
O O14 0.275355 0.250000 0.361608
O O15 0.199951 0.506497 0.298500
O O16 0.199951 0.993503 0.298500
O O17 0.750000 0.750000 0.500000
#
# Coordination Sequence:
#
# PCOD9255286 Si02
#       8
#     8   8   8   8   8   8   8   8
#     4  10  18  30  48  68  96 137 185 223 232 281
#     4  10  17  30  46  69 101 137 170 213 244 293
#     4  10  21  36  52  80 111 132 175 209 258 335
#     4  12  22  33  50  75 109 151 167 213 265 292
#     4  12  21  33  50  71 103 146 192 216 239 298
#     4   8  16  28  47  72  98 124 167 210 236 307
#     4  10  19  36  57  76 102 136 169 218 264 313
#     4   8  16  31  47  66  99 130 160 224 243 291
#
# _framework density 27.563355000000001
#
# number of rings (size 3 to 8) (size 9 to 14) (size 15 to 20)
#    0.000    2.000    2.500    2.250    0.000    0.000 
#    0.000   11.250    0.000    0.000    0.000    0.000 
#    0.000  180.000    0.000    0.000    0.000    0.000 
#
# Total GULP energy -178371.071597 kJ/mol
# GULP energy per Si atom -5574.095987 kJ/mol
# Density = 2.750062 g / cm^3
# Si number density = 27.563355 Si / 1000 Ang^3
#
#
#
# Elastic Constant Matrix: (Units=GPa)
#
#
# Indices 1 2 3 4 5 6 
#
# 1 108.2917 45.7158 24.5706 0.0000 29.2625 0.0000
# 2 45.7158 354.1740 35.8486 0.0000 16.2438 0.0000
# 3 24.5706 35.8486 67.3379 0.0000 -4.3821 0.0000
# 4 0.0000 0.0000 0.0000 7.1900 0.0000 51.9364
# 5 29.2625 16.2438 -4.3821 0.0000 39.5237 0.0000
# 6 0.0000 0.0000 0.0000 51.9364 0.0000 -273.1127
#
#
#
# Elastic Compliance Matrix: (Units=1/GPa)
#
#
# Indices 1 2 3 4 5 6 
#
# 1 0.013503 -0.000746 -0.005198 0.000000 -0.010267 0.000000
# 2 -0.000746 0.003106 -0.001439 0.000000 -0.000884 0.000000
# 3 -0.005198 -0.001439 0.017931 0.000000 0.006428 0.000000
# 4 0.000000 0.000000 0.000000 0.058595 0.000000 0.011143
# 5 -0.010267 -0.000884 0.006428 0.000000 0.033979 0.000000
# 6 0.000000 0.000000 0.000000 0.011143 0.000000 -0.001543
#
#
# Mechanical properties :
#
#
# Convention : Reuss Voigt Hill
#
# Bulk Modulus (GPa) = 50.56959 82.45262 66.51110
# Shear Modulus (GPa) = 34.03019 -17.03524 8.49748
#
# Velocity S-wave (km/s) = 3.51752 -2.48874 1.75772
# Velocity P-wave (km/s) = 5.90625 4.66051 5.31997
#
# Compressibility (1/GPa) = 0.01977473
#
# Stress axis : x y z
#
# Youngs Moduli (GPa) = 74.05778 321.96592 55.76780
#
# Poissons Ratio (x) = 0.24015 0.28989
# Poissons Ratio (y) = 0.05524 0.08024
# Poissons Ratio (z) = 0.38496 0.46326
#
# Static dielectric constant tensor:
#      x y z
#    x 2.127010 0.000000 -0.010620 
#    y 0.000000 2.317630 0.000000 
#    z -0.010620 0.000000 2.096950 
# 
# From -- ./inp_files/280968.got.cif
#   From: 2010.05.17/outbox.cif.g08.bks.cpg/sg15_141_cif.got.tgz:280968.got - 2010.06.03 18:47:42.
