data_PCOD9255392
_publ_section_title
;
Structure prediction by ZEFSAII (Michael W. Deem and Ramdas Pophale) SiO2 
 PCOD9255392
Probable space group: C 2/C
;
_chemical_formula_sum "Si O2"
_cell_formula_units_Z 56
_cell_length_a 9.495192
_cell_length_b 20.137038
_cell_length_c 23.088802
_cell_angle_alpha 90.000000
_cell_angle_beta 138.063872
_cell_angle_gamma 90.000000
_cell_volume 2950.348635
_symmetry_space_group_name_H-M "C 2/C"
_symmetry_group_IT_number 15
_symmetry_cell_setting 'monoclinic'
loop_
_space_group_symop_operation_xyz
x,y,z
-x,y,1/2-z
-x,-y,-z
x,-y,1/2+z
1/2+x,1/2+y,z
1/2-x,1/2+y,1/2-z
1/2-x,1/2-y,-z
1/2+x,1/2-y,1/2+z
loop_
_atom_site_type_symbol
_atom_site_label
_atom_site_fract_x
_atom_site_fract_y
_atom_site_fract_z
Si Si1 0.105068 0.832776 0.063799
Si Si2 0.237111 0.419336 0.975489
Si Si3 0.975116 0.646689 0.877876
Si Si4 0.659503 0.995137 0.674856
Si Si5 0.077087 0.980507 0.357103
Si Si6 0.134966 0.302711 0.033766
Si Si7 0.919762 0.831960 0.310436
O O1 0.307747 0.834948 0.085826
O O2 0.163070 0.840460 0.149392
O O3 0.936458 0.891678 0.001115
O O4 0.989181 0.762630 0.021178
O O5 0.039566 0.447568 0.880925
O O6 0.320134 0.473692 0.048199
O O7 0.159898 0.356154 0.990043
O O8 0.926333 0.570152 0.848537
O O9 0.975449 0.661566 0.945861
O O10 0.773902 0.685193 0.789384
O O11 0.765473 0.990659 0.643040
O O12 0.849909 0.985282 0.778654
O O13 0.021970 0.903361 0.324229
O O14 0.376583 0.285167 0.125146
#
# Coordination Sequence:
#
# PCOD9255392 Si02
#       7
#     8   8   8   8   8   8   8
#     4  10  21  34  50  78 110 137 172 210 263 320
#     4  10  19  33  55  74 105 145 167 216 272 307
#     4  11  19  31  55  81 102 129 176 226 258 304
#     4  10  17  30  54  80 102 130 177 221 262 308
#     4   8  16  29  51  80  96 127 180 223 250 300
#     4  10  19  34  55  75 101 138 182 211 252 314
#     4   9  17  33  54  76  97 133 178 221 258 293
#
# _framework density 18.980808
#
# number of rings (size 3 to 8) (size 9 to 14) (size 15 to 20)
#    0.000    2.571    2.857    3.429    0.000    0.571 
#    0.000    0.000   12.571    1.714    0.000    0.000 
#    0.000    0.000    0.000    0.000    0.000    0.000 
#
# Total GULP energy -156089.881403 kJ/mol
# GULP energy per Si atom -5574.638622 kJ/mol
# Density = 1.893761 g / cm^3
# Si number density = 18.980808 Si / 1000 Ang^3
#
#
#
# Elastic Constant Matrix: (Units=GPa)
#
#
# Indices 1 2 3 4 5 6 
#
# 1 72.1462 -0.6889 2.7442 0.0002 8.1000 0.0001
# 2 -0.6889 24.0949 17.7776 0.0001 5.4740 0.0001
# 3 2.7442 17.7776 67.0958 0.0003 18.3399 0.0001
# 4 0.0002 0.0001 0.0003 19.9464 0.0002 2.9806
# 5 8.1000 5.4740 18.3399 0.0002 12.9542 0.0001
# 6 0.0001 0.0001 0.0001 2.9806 0.0001 8.8993
#
#
#
# Elastic Compliance Matrix: (Units=1/GPa)
#
#
# Indices 1 2 3 4 5 6 
#
# 1 0.015378 0.001579 0.002877 0.000000 -0.014355 0.000000
# 2 0.001579 0.051876 -0.012313 0.000000 -0.005477 0.000000
# 3 0.002877 -0.012313 0.027924 0.000000 -0.036129 0.000000
# 4 0.000000 0.000000 0.000000 0.052776 0.000000 -0.017676
# 5 -0.014355 -0.005477 -0.036129 0.000000 0.139635 0.000000
# 6 0.000000 0.000000 0.000000 -0.017676 0.000000 0.118288
#
#
# Mechanical properties :
#
#
# Convention : Reuss Voigt Hill
#
# Bulk Modulus (GPa) = 12.58429 22.55582 17.57005
# Shear Modulus (GPa) = 11.15870 17.92692 14.54281
#
# Velocity S-wave (km/s) = 2.42728 3.07657 2.77101
# Velocity P-wave (km/s) = 3.80789 4.95274 4.41756
#
# Compressibility (1/GPa) = 0.07946418
#
# Stress axis : x y z
#
# Youngs Moduli (GPa) = 65.02751 19.27656 35.81110
#
# Poissons Ratio (x) = -0.03043 -0.10301
# Poissons Ratio (y) = -0.10265 0.44093
# Poissons Ratio (z) = -0.18706 0.23734
#
# Static dielectric constant tensor:
#      x y z
#    x 1.678850 0.000000 -0.005590 
#    y 0.000000 1.661510 0.000000 
#    z -0.005590 0.000000 1.709970 
# 
# From -- ./inp_files/266450.got.cif
#   From: 2010.05.17/outbox.cif.g08.bks.cpg/sg15_134_cif.got.tgz:266450.got - 2010.06.03 18:47:42.
