data_PCOD9255694
_publ_section_title
;
Structure prediction by ZEFSAII (Michael W. Deem and Ramdas Pophale) SiO2 
 PCOD9255694
Probable space group: C 2/C
;
_chemical_formula_sum "Si O2"
_cell_formula_units_Z 60
_cell_length_a 5.761225
_cell_length_b 28.149818
_cell_length_c 20.045829
_cell_angle_alpha 90.000000
_cell_angle_beta 117.476074
_cell_angle_gamma 90.000000
_cell_volume 2884.282088
_symmetry_space_group_name_H-M "C 2/C"
_symmetry_group_IT_number 15
_symmetry_cell_setting 'monoclinic'
loop_
_space_group_symop_operation_xyz
x,y,z
-x,y,1/2-z
-x,-y,-z
x,-y,1/2+z
1/2+x,1/2+y,z
1/2-x,1/2+y,1/2-z
1/2-x,1/2-y,-z
1/2+x,1/2-y,1/2+z
loop_
_atom_site_type_symbol
_atom_site_label
_atom_site_fract_x
_atom_site_fract_y
_atom_site_fract_z
Si Si1 0.933887 0.058251 0.067842
Si Si2 0.084848 0.397463 0.016578
Si Si3 0.197451 0.755709 0.388557
Si Si4 0.000000 0.171800 0.750000
Si Si5 0.481059 0.876290 0.157194
Si Si6 0.183827 0.844239 0.570926
Si Si7 0.278674 0.707877 0.934287
Si Si8 0.605371 0.458096 0.093612
O O1 0.121704 0.104264 0.093535
O O2 0.649947 0.075837 0.053329
O O3 0.855013 0.043221 0.981348
O O4 0.071338 0.011574 0.114792
O O5 0.030418 0.380367 0.083900
O O6 0.326800 0.432460 0.060584
O O7 0.170017 0.355291 0.979132
O O8 0.183980 0.698946 0.372093
O O9 0.511287 0.767952 0.425695
O O10 0.080804 0.792177 0.319403
O O11 0.014312 0.762652 0.430251
O O12 0.248526 0.137177 0.772066
O O13 0.303785 0.829440 0.134320
O O14 0.326931 0.924364 0.154103
O O15 0.907388 0.823107 0.510001
#
# Coordination Sequence:
#
# PCOD9255694 Si02
#       8
#     8   8   8   4   8   8   8   8
#     4   9  18  29  52  82 120 143 182 224 292 358
#     4  10  17  32  53  82 121 150 182 228 303 347
#     4  11  26  37  58  80 116 153 200 243 285 338
#     4  10  24  42  54  84 106 156 202 244 282 338
#     4  10  20  35  57  77 119 148 193 238 288 347
#     4  11  20  33  54  84 116 151 185 234 294 354
#     4  11  21  38  56  85 115 151 190 237 295 350
#     4   9  17  31  51  83 113 152 176 230 287 354
#
# _framework density 20.802402000000001
#
# number of rings (size 3 to 8) (size 9 to 14) (size 15 to 20)
#    0.000    1.867    4.000    2.800    1.867    3.200 
#    0.000    0.000    0.000    0.000    3.467    0.000 
#    0.000    0.000    0.000    0.000    0.000    0.000 
#
# Total GULP energy -167063.685158 kJ/mol
# GULP energy per Si atom -5568.789505 kJ/mol
# Density = 2.075505 g / cm^3
# Si number density = 20.802402 Si / 1000 Ang^3
#
#
#
# Elastic Constant Matrix: (Units=GPa)
#
#
# Indices 1 2 3 4 5 6 
#
# 1 108.4084 59.8917 36.0223 0.0000 15.4039 0.0000
# 2 59.8917 174.9118 38.6559 0.0000 22.7796 0.0000
# 3 36.0223 38.6559 37.0342 0.0000 13.8966 0.0000
# 4 0.0000 0.0000 0.0000 28.2193 0.0000 10.6910
# 5 15.4039 22.7796 13.8966 0.0000 26.4720 0.0000
# 6 0.0000 0.0000 0.0000 10.6910 0.0000 -0.0541
#
#
#
# Elastic Compliance Matrix: (Units=1/GPa)
#
#
# Indices 1 2 3 4 5 6 
#
# 1 0.014355 -0.002356 -0.011369 0.000000 -0.000357 0.000000
# 2 -0.002356 0.008000 -0.004969 0.000000 -0.002905 0.000000
# 3 -0.011369 -0.004969 0.048766 0.000000 -0.014709 0.000000
# 4 0.000000 0.000000 0.000000 0.000467 0.000000 0.092303
# 5 -0.000357 -0.002905 -0.014709 0.000000 0.048205 0.000000
# 6 0.000000 0.000000 0.000000 0.092303 0.000000 -0.243637
#
#
# Mechanical properties :
#
#
# Convention : Reuss Voigt Hill
#
# Bulk Modulus (GPa) = 29.64456 65.49936 47.57196
# Shear Modulus (GPa) = -66.47947 23.31306 -21.58321
#
# Velocity S-wave (km/s) = -5.65924 3.35130 -3.22457
# Velocity P-wave (km/s) = 5.33115 6.82127 3.00904
#
# Compressibility (1/GPa) = 0.03373300
#
# Stress axis : x y z
#
# Youngs Moduli (GPa) = 69.66446 124.99395 20.50595
#
# Poissons Ratio (x) = 0.29449 0.23313
# Poissons Ratio (y) = 0.16413 0.10189
# Poissons Ratio (z) = 0.79202 0.62109
#
# Static dielectric constant tensor:
#      x y z
#    x 1.865380 0.000000 0.000230 
#    y 0.000000 1.806940 0.000000 
#    z 0.000230 0.000000 1.768170 
# 
# From -- ./inp_files/262011.got.cif
#   From: 2010.05.17/outbox.cif.g08.bks.cpg/sg15_132_cif.got.tgz:262011.got - 2010.06.03 18:47:42.
