data_PCOD9255585
_publ_section_title
;
Structure prediction by ZEFSAII (Michael W. Deem and Ramdas Pophale) SiO2 
 PCOD9255585
Probable space group: C 2/C
;
_chemical_formula_sum "Si O2"
_cell_formula_units_Z 56
_cell_length_a 12.601363
_cell_length_b 7.369716
_cell_length_c 28.366670
_cell_angle_alpha 90.000000
_cell_angle_beta 65.010325
_cell_angle_gamma 90.000000
_cell_volume 2387.749858
_symmetry_space_group_name_H-M "C 2/C"
_symmetry_group_IT_number 15
_symmetry_cell_setting 'monoclinic'
loop_
_space_group_symop_operation_xyz
x,y,z
-x,y,1/2-z
-x,-y,-z
x,-y,1/2+z
1/2+x,1/2+y,z
1/2-x,1/2+y,1/2-z
1/2-x,1/2-y,-z
1/2+x,1/2-y,1/2+z
loop_
_atom_site_type_symbol
_atom_site_label
_atom_site_fract_x
_atom_site_fract_y
_atom_site_fract_z
Si Si1 0.804994 0.922444 0.075968
Si Si2 0.162744 0.404742 0.351551
Si Si3 0.635286 0.558693 0.531102
Si Si4 0.865823 0.503688 0.038930
Si Si5 0.420307 0.248936 0.884059
Si Si6 0.417962 0.462156 0.308822
Si Si7 0.055999 0.202230 0.870004
O O1 0.833286 0.714010 0.055075
O O2 0.664192 0.925602 0.098417
O O3 0.854151 0.934248 0.119669
O O4 0.867795 0.041305 0.024421
O O5 0.153561 0.391657 0.409749
O O6 0.297608 0.368856 0.314147
O O7 0.124288 0.612285 0.349055
O O8 0.056031 0.291565 0.350608
O O9 0.770903 0.570614 0.520202
O O10 0.595755 0.371236 0.565841
O O11 0.549996 0.703457 0.571623
O O12 0.000000 0.500000 0.000000
O O13 0.377713 0.365498 0.847337
O O14 0.500000 0.508803 0.250000
O O15 0.495000 0.355891 0.333088
#
# Coordination Sequence:
#
# PCOD9255585 Si02
#       7
#     8   8   8   8   8   8   8
#     4  10  18  34  58  90 132 164 204 249 291 371
#     4  11  21  41  63  89 130 157 203 264 301 362
#     4  10  18  34  58  91 129 171 206 237 300 364
#     4  10  17  31  57  87 126 169 202 243 296 357
#     4  10  20  40  64  90 123 167 204 251 308 366
#     4  11  24  46  68  87 118 160 207 262 321 368
#     4  10  21  40  60  90 131 154 204 261 298 363
#
# _framework density 23.453043000000001
#
# number of rings (size 3 to 8) (size 9 to 14) (size 15 to 20)
#    0.000    1.714    5.714    3.857    0.000    1.143 
#    5.143    7.143    0.000    0.000    0.000    0.000 
#    0.000    0.000    0.000    0.000    0.000    0.000 
#
# Total GULP energy -156489.190852 kJ/mol
# GULP energy per Si atom -5588.899673 kJ/mol
# Density = 2.339966 g / cm^3
# Si number density = 23.453043 Si / 1000 Ang^3
#
#
#
# Elastic Constant Matrix: (Units=GPa)
#
#
# Indices 1 2 3 4 5 6 
#
# 1 148.4265 22.5844 21.9705 0.0000 -10.6790 0.0000
# 2 22.5844 36.3960 11.2881 0.0000 8.6616 0.0000
# 3 21.9705 11.2881 84.8614 0.0000 -12.9931 0.0000
# 4 0.0000 0.0000 0.0000 10.0996 0.0000 0.4746
# 5 -10.6790 8.6616 -12.9931 0.0000 28.6759 0.0000
# 6 0.0000 0.0000 0.0000 0.4746 0.0000 40.0295
#
#
#
# Elastic Compliance Matrix: (Units=1/GPa)
#
#
# Indices 1 2 3 4 5 6 
#
# 1 0.008045 -0.005870 -0.000614 0.000000 0.004490 0.000000
# 2 -0.005870 0.036699 -0.005796 0.000000 -0.015897 0.000000
# 3 -0.000614 -0.005796 0.013912 0.000000 0.007825 0.000000
# 4 0.000000 0.000000 0.000000 0.099069 0.000000 -0.001175
# 5 0.004490 -0.015897 0.007825 0.000000 0.044892 0.000000
# 6 0.000000 0.000000 0.000000 -0.001175 0.000000 0.024996
#
#
# Mechanical properties :
#
#
# Convention : Reuss Voigt Hill
#
# Bulk Modulus (GPa) = 29.32978 42.37444 35.85211
# Shear Modulus (GPa) = 18.97268 30.01706 24.49487
#
# Velocity S-wave (km/s) = 2.84732 3.58142 3.23526
# Velocity P-wave (km/s) = 4.83141 5.93373 5.41071
#
# Compressibility (1/GPa) = 0.03409504
#
# Stress axis : x y z
#
# Youngs Moduli (GPa) = 124.30834 27.24893 71.87986
#
# Poissons Ratio (x) = 0.15995 0.04416
# Poissons Ratio (y) = 0.72967 0.41661
# Poissons Ratio (z) = 0.07637 0.15793
#
# Static dielectric constant tensor:
#      x y z
#    x 1.982320 0.000000 -0.009200 
#    y 0.000000 1.987380 0.000000 
#    z -0.009200 0.000000 1.827210 
# 
# From -- ./inp_files/309904.got.cif
#   From: 2010.05.17/outbox.cif.g08.bks.cpg/sg15_155_cif.got.tgz:309904.got - 2010.06.03 18:47:42.
