data_PCOD9255218
_publ_section_title
;
Structure prediction by ZEFSAII (Michael W. Deem and Ramdas Pophale) SiO2 
 PCOD9255218
Probable space group: C 2/C
;
_chemical_formula_sum "Si O2"
_cell_formula_units_Z 56
_cell_length_a 13.832098
_cell_length_b 12.419860
_cell_length_c 14.178429
_cell_angle_alpha 90.000000
_cell_angle_beta 105.845721
_cell_angle_gamma 90.000000
_cell_volume 2343.193363
_symmetry_space_group_name_H-M "C 2/C"
_symmetry_group_IT_number 15
_symmetry_cell_setting 'monoclinic'
loop_
_space_group_symop_operation_xyz
x,y,z
-x,y,1/2-z
-x,-y,-z
x,-y,1/2+z
1/2+x,1/2+y,z
1/2-x,1/2+y,1/2-z
1/2-x,1/2-y,-z
1/2+x,1/2-y,1/2+z
loop_
_atom_site_type_symbol
_atom_site_label
_atom_site_fract_x
_atom_site_fract_y
_atom_site_fract_z
Si Si1 0.119827 0.069860 0.754217
Si Si2 0.599661 0.036202 0.709802
Si Si3 0.185204 0.909600 0.909841
Si Si4 0.801150 0.671256 0.611133
Si Si5 0.036781 0.082792 0.090827
Si Si6 0.005514 0.317453 0.039650
Si Si7 0.415242 0.196090 0.308144
O O1 0.137787 0.189059 0.718928
O O2 0.000000 0.075986 0.750000
O O3 0.191041 0.023274 0.856451
O O4 0.118365 0.977855 0.674326
O O5 0.500000 0.033656 0.750000
O O6 0.670934 0.115974 0.784636
O O7 0.569552 0.084939 0.600363
O O8 0.642180 0.916246 0.718668
O O9 0.229465 0.796320 0.883416
O O10 0.064810 0.896912 0.876654
O O11 0.225382 0.900384 0.027751
O O12 0.902698 0.677849 0.573919
O O13 0.062810 0.203164 0.066332
O O14 0.000000 0.000000 0.000000
O O15 0.971802 0.317715 0.922839
O O16 0.500000 0.195490 0.250000
#
# Coordination Sequence:
#
# PCOD9255218 Si02
#       7
#     8   8   8   8   8   8   8
#     4   9  17  30  49  76 105 135 170 218 275 327
#     4   9  18  32  52  76  99 133 183 225 260 315
#     4   9  18  32  53  74 103 138 171 222 275 322
#     4   9  18  34  53  75 102 139 182 225 269 314
#     4  10  17  29  50  79 103 130 177 223 269 320
#     4  10  18  31  54  78 104 138 181 225 267 317
#     4  10  19  31  49  76 109 137 169 217 275 323
#
# _framework density 23.899009
#
# number of rings (size 3 to 8) (size 9 to 14) (size 15 to 20)
#    0.000    2.571    1.429    1.286    0.000    3.429 
#    0.000    2.143    0.000    0.000    0.000    0.000 
#    0.000    0.000    0.000    0.000    0.000    0.000 
#
# Total GULP energy -156268.747966 kJ/mol
# GULP energy per Si atom -5581.026713 kJ/mol
# Density = 2.384461 g / cm^3
# Si number density = 23.899009 Si / 1000 Ang^3
#
#
#
# Elastic Constant Matrix: (Units=GPa)
#
#
# Indices 1 2 3 4 5 6 
#
# 1 72.2305 25.8527 20.7430 0.0000 3.7700 0.0000
# 2 25.8527 162.1813 78.0322 0.0000 9.7322 0.0000
# 3 20.7430 78.0322 127.5337 0.0000 -2.7820 0.0000
# 4 0.0000 0.0000 0.0000 40.2335 0.0000 -11.4114
# 5 3.7700 9.7322 -2.7820 0.0000 27.0345 0.0000
# 6 0.0000 0.0000 0.0000 -11.4114 0.0000 16.1468
#
#
#
# Elastic Compliance Matrix: (Units=1/GPa)
#
#
# Indices 1 2 3 4 5 6 
#
# 1 0.014922 -0.001548 -0.001516 0.000000 -0.001680 0.000000
# 2 -0.001548 0.009286 -0.005510 0.000000 -0.003694 0.000000
# 3 -0.001516 -0.005510 0.011533 0.000000 0.003382 0.000000
# 4 0.000000 0.000000 0.000000 0.031086 0.000000 0.021970
# 5 -0.001680 -0.003694 0.003382 0.000000 0.038902 0.000000
# 6 0.000000 0.000000 0.000000 0.021970 0.000000 0.077458
#
#
# Mechanical properties :
#
#
# Convention : Reuss Voigt Hill
#
# Bulk Modulus (GPa) = 53.79014 67.91124 60.85069
# Shear Modulus (GPa) = 24.20919 32.50415 28.35667
#
# Velocity S-wave (km/s) = 3.18619 3.69190 3.44833
# Velocity P-wave (km/s) = 6.00765 6.83016 6.43207
#
# Compressibility (1/GPa) = 0.01859077
#
# Stress axis : x y z
#
# Youngs Moduli (GPa) = 67.01586 107.69377 86.70850
#
# Poissons Ratio (x) = 0.16674 0.13148
# Poissons Ratio (y) = 0.10376 0.47778
# Poissons Ratio (z) = 0.10162 0.59341
#
# Static dielectric constant tensor:
#      x y z
#    x 2.017050 0.000000 -0.076620 
#    y 0.000000 1.944820 0.000000 
#    z -0.076620 0.000000 1.917580 
# 
# From -- ./inp_files/161400.got.cif
#   From: 2010.05.17/outbox.cif.g08.bks.cpg/sg15_81_cif.got.tgz:161400.got - 2010.06.03 18:47:42.
