data_PCOD9255582
_publ_section_title
;
Structure prediction by ZEFSAII (Michael W. Deem and Ramdas Pophale) SiO2 
 PCOD9255582
Probable space group: C 2/C
;
_chemical_formula_sum "Si O2"
_cell_formula_units_Z 36
_cell_length_a 26.070197
_cell_length_b 7.309413
_cell_length_c 13.602741
_cell_angle_alpha 90.000000
_cell_angle_beta 145.538189
_cell_angle_gamma 90.000000
_cell_volume 1466.762477
_symmetry_space_group_name_H-M "C 2/C"
_symmetry_group_IT_number 15
_symmetry_cell_setting 'monoclinic'
loop_
_space_group_symop_operation_xyz
x,y,z
-x,y,1/2-z
-x,-y,-z
x,-y,1/2+z
1/2+x,1/2+y,z
1/2-x,1/2+y,1/2-z
1/2-x,1/2-y,-z
1/2+x,1/2-y,1/2+z
loop_
_atom_site_type_symbol
_atom_site_label
_atom_site_fract_x
_atom_site_fract_y
_atom_site_fract_z
Si Si1 0.167423 0.570783 0.546425
Si Si2 0.696291 0.503862 0.071376
Si Si3 0.984184 0.709688 0.051343
Si Si4 0.500000 0.496786 0.250000
Si Si5 0.634853 0.918461 0.289238
O O1 0.148061 0.441172 0.425177
O O2 0.081772 0.583139 0.484644
O O3 0.181967 0.779068 0.532574
O O4 0.255429 0.514791 0.746986
O O5 0.597814 0.412910 0.912686
O O6 0.767383 0.426285 0.106303
O O7 0.925314 0.737904 0.859203
O O8 0.002844 0.876601 0.153704
O O9 0.075338 0.601253 0.170442
#
# Coordination Sequence:
#
# PCOD9255582 Si02
#       5
#     8   8   8   4   8
#     4  10  19  35  53  82 106 138 167 226 252 314
#     4  10  21  34  58  73 108 137 180 206 269 301
#     4   9  17  29  54  82 102 128 178 217 257 286
#     4  10  18  36  50  72 114 144 162 214 268 316
#     4  10  17  31  57  81  98 135 185 217 244 312
#
# _framework density 24.543849999999999
#
# number of rings (size 3 to 8) (size 9 to 14) (size 15 to 20)
#    0.000    2.222    4.444    0.667    0.000    0.000 
#    0.000   11.111   14.667    0.000    0.000    0.000 
#    0.000    0.000    0.000    0.000    0.000    0.000 
#
# Total GULP energy -100624.232489 kJ/mol
# GULP energy per Si atom -5590.235138 kJ/mol
# Density = 2.448799 g / cm^3
# Si number density = 24.543850 Si / 1000 Ang^3
#
#
#
# Elastic Constant Matrix: (Units=GPa)
#
#
# Indices 1 2 3 4 5 6 
#
# 1 70.2208 14.6038 73.3481 0.0000 10.4073 0.0000
# 2 14.6038 74.8673 21.8494 0.0000 -7.8111 0.0000
# 3 73.3481 21.8494 203.6474 0.0000 -3.7215 0.0000
# 4 0.0000 0.0000 0.0000 20.8604 0.0000 3.8619
# 5 10.4073 -7.8111 -3.7215 0.0000 60.0633 0.0000
# 6 0.0000 0.0000 0.0000 3.8619 0.0000 18.0136
#
#
#
# Elastic Compliance Matrix: (Units=1/GPa)
#
#
# Indices 1 2 3 4 5 6 
#
# 1 0.024651 -0.002818 -0.008671 0.000000 -0.005175 0.000000
# 2 -0.002818 0.014287 -0.000476 0.000000 0.002317 0.000000
# 3 -0.008671 -0.000476 0.008120 0.000000 0.001944 0.000000
# 4 0.000000 0.000000 0.000000 0.049919 0.000000 -0.010702
# 5 -0.005175 0.002317 0.001944 0.000000 0.017967 0.000000
# 6 0.000000 0.000000 0.000000 -0.010702 0.000000 0.057808
#
#
# Mechanical properties :
#
#
# Convention : Reuss Voigt Hill
#
# Bulk Modulus (GPa) = 43.23511 63.14870 53.19190
# Shear Modulus (GPa) = 24.46298 35.71641 30.08969
#
# Velocity S-wave (km/s) = 3.16049 3.81886 3.50516
# Velocity P-wave (km/s) = 5.56524 6.72530 6.17259
#
# Compressibility (1/GPa) = 0.02312935
#
# Stress axis : x y z
#
# Youngs Moduli (GPa) = 40.56681 69.99299 123.15341
#
# Poissons Ratio (x) = 0.19723 1.06783
# Poissons Ratio (y) = 0.11431 0.05857
# Poissons Ratio (z) = 0.35174 0.03329
#
# Static dielectric constant tensor:
#      x y z
#    x 1.916530 0.000000 -0.026550 
#    y 0.000000 2.001480 0.000000 
#    z -0.026550 0.000000 1.995240 
# 
# From -- ./inp_files/117283.got.cif
#   From: 2010.05.17/outbox.cif.g08.bks.cpg/sg15_59_cif.got.tgz:117283.got - 2010.06.03 18:47:42.
