data_PCOD9255527
_publ_section_title
;
Structure prediction by ZEFSAII (Michael W. Deem and Ramdas Pophale) SiO2 
 PCOD9255527
Probable space group: C 2/C
;
_chemical_formula_sum "Si O2"
_cell_formula_units_Z 48
_cell_length_a 22.588072
_cell_length_b 10.792879
_cell_length_c 8.983654
_cell_angle_alpha 90.000000
_cell_angle_beta 72.028276
_cell_angle_gamma 90.000000
_cell_volume 2083.269210
_symmetry_space_group_name_H-M "C 2/C"
_symmetry_group_IT_number 15
_symmetry_cell_setting 'monoclinic'
loop_
_space_group_symop_operation_xyz
x,y,z
-x,y,1/2-z
-x,-y,-z
x,-y,1/2+z
1/2+x,1/2+y,z
1/2-x,1/2+y,1/2-z
1/2-x,1/2-y,-z
1/2+x,1/2-y,1/2+z
loop_
_atom_site_type_symbol
_atom_site_label
_atom_site_fract_x
_atom_site_fract_y
_atom_site_fract_z
Si Si1 0.541946 0.236557 0.074150
Si Si2 0.433058 0.050787 0.864322
Si Si3 0.238340 0.606115 0.014032
Si Si4 0.622357 0.441521 0.141751
Si Si5 0.653529 0.983909 0.834464
Si Si6 0.550314 0.606843 0.995812
O O1 0.500000 0.270466 0.250000
O O2 0.600227 0.328920 0.048633
O O3 0.495095 0.274323 0.978372
O O4 0.557147 0.092398 0.084325
O O5 0.500000 0.086322 0.750000
O O6 0.388137 0.052995 0.756228
O O7 0.393125 0.103666 0.033863
O O8 0.304392 0.540291 0.934783
O O9 0.189654 0.566169 0.925642
O O10 0.250000 0.750000 0.000000
O O11 0.206361 0.580557 0.196521
O O12 0.601407 0.401405 0.323544
O O13 0.584480 0.563835 0.119380
O O14 0.500000 0.500000 0.000000
#
# Coordination Sequence:
#
# PCOD9255527 Si02
#       6
#     8   8   8   8   8   8
#     4   8  16  30  54  84 109 145 195 235 293 369
#     4  10  19  37  63  85 117 155 195 258 318 367
#     4  11  23  41  64  89 127 176 215 260 317 373
#     4  10  17  31  53  79 116 159 195 243 302 358
#     4  10  22  38  61  95 121 158 220 261 302 388
#     4   9  17  29  52  84 115 149 195 249 305 369
#
# _framework density 23.040707999999999
#
# number of rings (size 3 to 8) (size 9 to 14) (size 15 to 20)
#    0.000    2.333    0.000    5.000    0.000    0.000 
#    0.000    3.333    0.000   80.000    0.000    0.000 
#    0.000    0.000    0.000    0.000    0.000    0.000 
#
# Total GULP energy -133974.884563 kJ/mol
# GULP energy per Si atom -5582.286857 kJ/mol
# Density = 2.298827 g / cm^3
# Si number density = 23.040708 Si / 1000 Ang^3
#
#
#
# Elastic Constant Matrix: (Units=GPa)
#
#
# Indices 1 2 3 4 5 6 
#
# 1 141.4689 35.9176 42.2439 0.0000 -24.3152 0.0000
# 2 35.9176 62.8941 29.3282 0.0000 10.8345 0.0000
# 3 42.2439 29.3282 142.1931 0.0000 -22.5516 0.0000
# 4 0.0000 0.0000 0.0000 20.7621 0.0000 -2.4995
# 5 -24.3152 10.8345 -22.5516 0.0000 43.0077 0.0000
# 6 0.0000 0.0000 0.0000 -2.4995 0.0000 30.8944
#
#
#
# Elastic Compliance Matrix: (Units=1/GPa)
#
#
# Indices 1 2 3 4 5 6 
#
# 1 0.010192 -0.006851 -0.000466 0.000000 0.007244 0.000000
# 2 -0.006851 0.024305 -0.004977 0.000000 -0.012606 0.000000
# 3 -0.000466 -0.004977 0.009113 0.000000 0.005769 0.000000
# 4 0.000000 0.000000 0.000000 0.048638 0.000000 0.003935
# 5 0.007244 -0.012606 0.005769 0.000000 0.033548 0.000000
# 6 0.000000 0.000000 0.000000 0.003935 0.000000 0.032687
#
#
# Mechanical properties :
#
#
# Convention : Reuss Voigt Hill
#
# Bulk Modulus (GPa) = 52.57254 62.39284 57.48269
# Shear Modulus (GPa) = 26.39758 34.87059 30.63409
#
# Velocity S-wave (km/s) = 3.38848 3.89451 3.65027
# Velocity P-wave (km/s) = 6.17866 6.88194 6.53976
#
# Compressibility (1/GPa) = 0.01902134
#
# Stress axis : x y z
#
# Youngs Moduli (GPa) = 98.11222 41.14427 109.73900
#
# Poissons Ratio (x) = 0.28189 0.05114
# Poissons Ratio (y) = 0.67219 0.54615
# Poissons Ratio (z) = 0.04572 0.20477
#
# Static dielectric constant tensor:
#      x y z
#    x 1.912220 0.000000 -0.017970 
#    y 0.000000 1.989940 0.000000 
#    z -0.017970 0.000000 1.877600 
# 
# From -- ./inp_files/60832.got.cif
#   From: 2010.05.17/outbox.cif.g08.bks.cpg/sg15_31_cif.got.tgz:60832.got - 2010.06.03 18:47:42.
