data_PCOD9255487
_publ_section_title
;
Structure prediction by ZEFSAII (Michael W. Deem and Ramdas Pophale) SiO2 
 PCOD9255487
Probable space group: C 2/C
;
_chemical_formula_sum "Si O2"
_cell_formula_units_Z 56
_cell_length_a 14.914824
_cell_length_b 22.884080
_cell_length_c 8.893424
_cell_angle_alpha 90.000000
_cell_angle_beta 109.094597
_cell_angle_gamma 90.000000
_cell_volume 2868.422346
_symmetry_space_group_name_H-M "C 2/C"
_symmetry_group_IT_number 15
_symmetry_cell_setting 'monoclinic'
loop_
_space_group_symop_operation_xyz
x,y,z
-x,y,1/2-z
-x,-y,-z
x,-y,1/2+z
1/2+x,1/2+y,z
1/2-x,1/2+y,1/2-z
1/2-x,1/2-y,-z
1/2+x,1/2-y,1/2+z
loop_
_atom_site_type_symbol
_atom_site_label
_atom_site_fract_x
_atom_site_fract_y
_atom_site_fract_z
Si Si1 0.728707 0.078885 0.943783
Si Si2 0.697910 0.799461 0.569243
Si Si3 0.765187 0.003104 0.714973
Si Si4 0.130661 0.926074 0.474058
Si Si5 0.187975 0.795224 0.561278
Si Si6 0.487665 0.737192 0.068825
Si Si7 0.953099 0.900633 0.562941
O O1 0.703367 0.050155 0.772021
O O2 0.693729 0.142473 0.967046
O O3 0.844457 0.080582 0.001308
O O4 0.705434 0.034691 0.065026
O O5 0.750000 0.750000 0.500000
O O6 0.759676 0.809085 0.752358
O O7 0.593456 0.776122 0.549235
O O8 0.843404 0.038282 0.660616
O O9 0.812090 0.958331 0.859656
O O10 0.164394 0.858609 0.476746
O O11 0.021895 0.924806 0.470635
O O12 0.250000 0.750000 0.500000
O O13 0.088576 0.764025 0.544122
O O14 0.500000 0.754712 0.250000
O O15 0.454127 0.669658 0.051439
O O16 0.000000 0.915321 0.750000
#
# Coordination Sequence:
#
# PCOD9255487 Si02
#       7
#     8   8   8   8   8   8   8
#     4  11  21  36  54  83 112 156 202 245 295 358
#     4  12  21  38  65  87 120 162 203 245 304 361
#     4  10  22  35  53  79 118 157 203 239 291 365
#     4  10  21  36  52  80 116 157 195 239 300 358
#     4  11  24  40  60  92 129 156 197 262 310 352
#     4  10  20  36  60  90 120 158 200 247 303 368
#     4  10  17  31  51  76 118 151 190 240 291 353
#
# _framework density 19.522926999999999
#
# number of rings (size 3 to 8) (size 9 to 14) (size 15 to 20)
#    0.000    1.429    5.714    0.857    2.000    4.571 
#    0.000    2.857    0.000    0.000    0.000   11.000 
#    0.000    0.000    0.000    0.000    0.000    0.000 
#
# Total GULP energy -156443.639315 kJ/mol
# GULP energy per Si atom -5587.272833 kJ/mol
# Density = 1.947849 g / cm^3
# Si number density = 19.522927 Si / 1000 Ang^3
#
#
#
# Elastic Constant Matrix: (Units=GPa)
#
#
# Indices 1 2 3 4 5 6 
#
# 1 81.9749 53.1118 14.8692 0.0000 -5.6299 0.0000
# 2 53.1118 114.8226 22.8465 0.0000 -16.7166 0.0000
# 3 14.8692 22.8465 33.5464 0.0000 -13.0624 0.0000
# 4 0.0000 0.0000 0.0000 26.7146 0.0000 -10.5117
# 5 -5.6299 -16.7166 -13.0624 0.0000 28.8008 0.0000
# 6 0.0000 0.0000 0.0000 -10.5117 0.0000 34.1184
#
#
#
# Elastic Compliance Matrix: (Units=1/GPa)
#
#
# Indices 1 2 3 4 5 6 
#
# 1 0.017786 -0.007917 -0.003555 0.000000 -0.002731 0.000000
# 2 -0.007917 0.013867 -0.004133 0.000000 0.004626 0.000000
# 3 -0.003555 -0.004133 0.040072 0.000000 0.015080 0.000000
# 4 0.000000 0.000000 0.000000 0.042597 0.000000 0.013124
# 5 -0.002731 0.004626 0.015080 0.000000 0.043712 0.000000
# 6 0.000000 0.000000 0.000000 0.013124 0.000000 0.033353
#
#
# Mechanical properties :
#
#
# Convention : Reuss Voigt Hill
#
# Bulk Modulus (GPa) = 24.68264 45.77766 35.23015
# Shear Modulus (GPa) = 21.17720 27.22782 24.20251
#
# Velocity S-wave (km/s) = 3.29710 3.73856 3.52475
# Velocity P-wave (km/s) = 5.21199 6.49114 5.88641
#
# Compressibility (1/GPa) = 0.04051431
#
# Stress axis : x y z
#
# Youngs Moduli (GPa) = 56.22517 72.11269 24.95492
#
# Poissons Ratio (x) = 0.57092 0.08871
# Poissons Ratio (y) = 0.44514 0.10315
# Poissons Ratio (z) = 0.19987 0.29807
#
# Static dielectric constant tensor:
#      x y z
#    x 1.679140 0.000000 -0.005700 
#    y 0.000000 1.704470 0.000000 
#    z -0.005700 0.000000 1.729010 
# 
# From -- ./inp_files/42746.got.cif
#   From: 2010.05.17/outbox.cif.g08.bks.cpg/sg15_22_cif.got.tgz:42746.got - 2010.06.03 18:47:42.
