data_PCOD9255670
_publ_section_title
;
Structure prediction by ZEFSAII (Michael W. Deem and Ramdas Pophale) SiO2 
 PCOD9255670
Probable space group: C 2/C
;
_chemical_formula_sum "Si O2"
_cell_formula_units_Z 56
_cell_length_a 21.536487
_cell_length_b 21.733453
_cell_length_c 11.610843
_cell_angle_alpha 90.000000
_cell_angle_beta 144.966431
_cell_angle_gamma 90.000000
_cell_volume 3119.764511
_symmetry_space_group_name_H-M "C 2/C"
_symmetry_group_IT_number 15
_symmetry_cell_setting 'monoclinic'
loop_
_space_group_symop_operation_xyz
x,y,z
-x,y,1/2-z
-x,-y,-z
x,-y,1/2+z
1/2+x,1/2+y,z
1/2-x,1/2+y,1/2-z
1/2-x,1/2-y,-z
1/2+x,1/2-y,1/2+z
loop_
_atom_site_type_symbol
_atom_site_label
_atom_site_fract_x
_atom_site_fract_y
_atom_site_fract_z
Si Si1 0.632240 0.295640 0.692125
Si Si2 0.597142 0.927221 0.062684
Si Si3 0.189138 0.331020 0.373728
Si Si4 0.276872 0.670518 0.410827
Si Si5 0.904627 0.758798 0.294090
Si Si6 0.500000 0.855914 0.250000
Si Si7 0.500000 0.836417 0.750000
Si Si8 0.120528 0.434996 0.627152
O O1 0.685101 0.227749 0.784315
O O2 0.651670 0.321107 0.594106
O O3 0.504611 0.287386 0.513973
O O4 0.699689 0.334154 0.887536
O O5 0.660445 0.891393 0.258742
O O6 0.642228 0.995703 0.118715
O O7 0.588750 0.881725 0.941271
O O8 0.472720 0.935371 0.916833
O O9 0.090170 0.320511 0.313358
O O10 0.179303 0.720433 0.257172
O O11 0.342866 0.690491 0.623984
O O12 0.221906 0.603837 0.326328
O O13 0.953210 0.708050 0.278078
O O14 0.567971 0.897788 0.441404
#
# Coordination Sequence:
#
# PCOD9255670 Si02
#       8
#     8   8   8   8   8   4   4   8
#     4  11  20  34  52  81 110 146 174 224 277 327
#     4  10  20  32  50  75 111 139 175 226 265 327
#     4  10  20  32  53  77 113 143 174 223 276 324
#     4  11  20  35  53  78 110 146 180 221 273 329
#     4  11  21  33  55  80 111 139 182 226 271 328
#     4  10  17  32  52  78 108 139 178 212 266 336
#     4  12  17  34  52  78 110 139 174 226 282 312
#     4  10  19  32  49  78 105 141 180 215 270 325
#
# _framework density 17.950073
#
# number of rings (size 3 to 8) (size 9 to 14) (size 15 to 20)
#    0.000    1.429    5.714    1.286    0.000    0.000 
#    0.000    0.000    0.000    0.857    0.000    6.000 
#    0.000    0.000    0.000    0.000    0.000    0.000 
#
# Total GULP energy -156245.661857 kJ/mol
# GULP energy per Si atom -5580.202209 kJ/mol
# Density = 1.790922 g / cm^3
# Si number density = 17.950073 Si / 1000 Ang^3
#
#
#
# Elastic Constant Matrix: (Units=GPa)
#
#
# Indices 1 2 3 4 5 6 
#
# 1 16.8901 2.8104 6.3144 0.0000 0.4182 0.0000
# 2 2.8104 86.0147 38.9128 0.0000 -1.6115 0.0000
# 3 6.3144 38.9128 110.3779 0.0000 10.2767 0.0000
# 4 0.0000 0.0000 0.0000 22.5851 0.0000 6.8506
# 5 0.4182 -1.6115 10.2767 0.0000 17.6147 0.0000
# 6 0.0000 0.0000 0.0000 6.8506 0.0000 13.0119
#
#
#
# Elastic Compliance Matrix: (Units=1/GPa)
#
#
# Indices 1 2 3 4 5 6 
#
# 1 0.060521 -0.000455 -0.003346 0.000000 0.000474 0.000000
# 2 -0.000455 0.014157 -0.005379 0.000000 0.004444 0.000000
# 3 -0.003346 -0.005379 0.011828 0.000000 -0.007313 0.000000
# 4 0.000000 0.000000 0.000000 0.052691 0.000000 -0.027741
# 5 0.000474 0.004444 -0.007313 0.000000 0.061433 0.000000
# 6 0.000000 0.000000 0.000000 -0.027741 0.000000 0.091458
#
#
# Mechanical properties :
#
#
# Convention : Reuss Voigt Hill
#
# Bulk Modulus (GPa) = 14.67400 34.37309 24.52354
# Shear Modulus (GPa) = 15.00760 21.65869 18.33315
#
# Velocity S-wave (km/s) = 2.89463 3.47739 3.19931
# Velocity P-wave (km/s) = 4.40051 5.94255 5.22869
#
# Compressibility (1/GPa) = 0.06814776
#
# Stress axis : x y z
#
# Youngs Moduli (GPa) = 16.52312 70.63450 84.54251
#
# Poissons Ratio (x) = 0.03213 0.28288
# Poissons Ratio (y) = 0.00752 0.45474
# Poissons Ratio (z) = 0.05529 0.37993
#
# Static dielectric constant tensor:
#      x y z
#    x 1.636400 0.000000 -0.007710 
#    y 0.000000 1.614910 0.000000 
#    z -0.007710 0.000000 1.637250 
# 
# From -- ./inp_files/120192.got.cif
#   From: 2010.05.17/outbox.cif.g08.bks.cpg/sg15_61_cif.got.tgz:120192.got - 2010.06.03 18:47:42.
