data_PCOD9255094
_publ_section_title
;
Structure prediction by ZEFSAII (Michael W. Deem and Ramdas Pophale) SiO2 
 PCOD9255094
Probable space group: C 2/C
;
_chemical_formula_sum "Si O2"
_cell_formula_units_Z 40
_cell_length_a 6.344280
_cell_length_b 34.326972
_cell_length_c 11.344064
_cell_angle_alpha 90.000000
_cell_angle_beta 108.686709
_cell_angle_gamma 90.000000
_cell_volume 2340.275545
_symmetry_space_group_name_H-M "C 2/C"
_symmetry_group_IT_number 15
_symmetry_cell_setting 'monoclinic'
loop_
_space_group_symop_operation_xyz
x,y,z
-x,y,1/2-z
-x,-y,-z
x,-y,1/2+z
1/2+x,1/2+y,z
1/2-x,1/2+y,1/2-z
1/2-x,1/2-y,-z
1/2+x,1/2-y,1/2+z
loop_
_atom_site_type_symbol
_atom_site_label
_atom_site_fract_x
_atom_site_fract_y
_atom_site_fract_z
Si Si1 0.191232 0.777881 0.380692
Si Si2 0.500000 0.185547 0.750000
Si Si3 0.080552 0.938442 0.048077
Si Si4 0.500000 0.032181 0.750000
Si Si5 0.950759 0.142698 0.875013
Si Si6 0.301501 0.497293 0.620627
O O1 0.250000 0.750000 0.500000
O O2 0.402621 0.788156 0.337487
O O3 0.000000 0.765204 0.250000
O O4 0.102504 0.819094 0.416563
O O5 0.699804 0.158614 0.831917
O O6 0.283898 0.942836 0.177768
O O7 0.013696 0.893605 0.033492
O O8 0.182964 0.957815 0.950263
O O9 0.877530 0.966309 0.052281
O O10 0.578278 0.006156 0.653044
O O11 0.000000 0.128590 0.750000
O O12 0.500000 0.494580 0.750000
#
# Coordination Sequence:
#
# PCOD9255094 Si02
#       6
#     8   4   8   4   8   8
#     4   9  19  34  55  80 103 131 165 205 252 311
#     4   8  17  32  52  76 102 126 158 210 252 290
#     4  10  18  30  48  70  94 128 162 208 242 286
#     4  10  17  28  46  70  90 122 176 202 240 284
#     4   9  17  29  49  77  99 122 161 207 249 286
#     4   9  19  31  45  65  96 133 168 198 242 287
#
# _framework density 17.092006000000001
#
# number of rings (size 3 to 8) (size 9 to 14) (size 15 to 20)
#    0.000    3.200    0.000    3.000    0.000    4.800 
#    0.000    0.000    6.600    0.000    2.600    0.000 
#    0.000    0.000    0.000    0.000    0.000    0.000 
#
# Total GULP energy -111349.761771 kJ/mol
# GULP energy per Si atom -5567.488089 kJ/mol
# Density = 1.705310 g / cm^3
# Si number density = 17.092006 Si / 1000 Ang^3
#
#
#
# Elastic Constant Matrix: (Units=GPa)
#
#
# Indices 1 2 3 4 5 6 
#
# 1 93.8335 38.6202 26.2937 0.0000 -23.0443 0.0000
# 2 38.6202 119.5291 53.7725 0.0000 -13.2336 0.0000
# 3 26.2937 53.7725 58.3175 0.0000 -11.2620 0.0000
# 4 0.0000 0.0000 0.0000 31.9998 0.0000 -3.8356
# 5 -23.0443 -13.2336 -11.2620 0.0000 25.0543 0.0000
# 6 0.0000 0.0000 0.0000 -3.8356 0.0000 10.8761
#
#
#
# Elastic Compliance Matrix: (Units=1/GPa)
#
#
# Indices 1 2 3 4 5 6 
#
# 1 0.015209 -0.002653 -0.002169 0.000000 0.011612 0.000000
# 2 -0.002653 0.014832 -0.012526 0.000000 -0.000236 0.000000
# 3 -0.002169 -0.012526 0.030675 0.000000 0.005178 0.000000
# 4 0.000000 0.000000 0.000000 0.032629 0.000000 0.011507
# 5 0.011612 -0.000236 0.005178 0.000000 0.052797 0.000000
# 6 0.000000 0.000000 0.000000 0.011507 0.000000 0.096003
#
#
# Mechanical properties :
#
#
# Convention : Reuss Voigt Hill
#
# Bulk Modulus (GPa) = 38.43004 56.56146 47.49575
# Shear Modulus (GPa) = 17.51240 23.78562 20.64901
#
# Velocity S-wave (km/s) = 3.20440 3.73449 3.47956
# Velocity P-wave (km/s) = 6.01864 7.19440 6.63262
#
# Compressibility (1/GPa) = 0.02602131
#
# Stress axis : x y z
#
# Youngs Moduli (GPa) = 65.75267 67.42165 32.60023
#
# Poissons Ratio (x) = 0.17885 0.07070
# Poissons Ratio (y) = 0.17442 0.40834
# Poissons Ratio (z) = 0.14259 0.84450
#
# Static dielectric constant tensor:
#      x y z
#    x 1.620650 0.000000 0.007620 
#    y 0.000000 1.576400 0.000000 
#    z 0.007620 0.000000 1.616880 
# 
# From -- ./inp_files/73643.got.cif
#   From: 2010.05.17/outbox.cif.g08.bks.cpg/sg15_37_cif.got.tgz:73643.got - 2010.06.03 18:47:42.
