data_PCOD9255654
_publ_section_title
;
Structure prediction by ZEFSAII (Michael W. Deem and Ramdas Pophale) SiO2 
 PCOD9255654
Probable space group: C 2/C
;
_chemical_formula_sum "Si O2"
_cell_formula_units_Z 40
_cell_length_a 18.227312
_cell_length_b 5.101256
_cell_length_c 23.275516
_cell_angle_alpha 90.000000
_cell_angle_beta 101.281757
_cell_angle_gamma 90.000000
_cell_volume 2122.389326
_symmetry_space_group_name_H-M "C 2/C"
_symmetry_group_IT_number 15
_symmetry_cell_setting 'monoclinic'
loop_
_space_group_symop_operation_xyz
x,y,z
-x,y,1/2-z
-x,-y,-z
x,-y,1/2+z
1/2+x,1/2+y,z
1/2-x,1/2+y,1/2-z
1/2-x,1/2-y,-z
1/2+x,1/2-y,1/2+z
loop_
_atom_site_type_symbol
_atom_site_label
_atom_site_fract_x
_atom_site_fract_y
_atom_site_fract_z
Si Si1 0.821612 0.437836 0.517919
Si Si2 0.932919 0.332575 0.195182
Si Si3 0.107142 0.151909 0.879073
Si Si4 0.246976 0.344546 0.594508
Si Si5 0.230880 0.348828 0.282180
O O1 0.750000 0.250000 0.500000
O O2 0.888096 0.266859 0.555367
O O3 0.823069 0.569316 0.455298
O O4 0.797445 0.657200 0.560937
O O5 0.923765 0.615922 0.164900
O O6 0.855732 0.290420 0.217743
O O7 0.000000 0.316789 0.250000
O O8 0.935889 0.110255 0.146068
O O9 0.195329 0.080813 0.881362
O O10 0.228522 0.199008 0.650516
O O11 0.240324 0.637906 0.259067
#
# Coordination Sequence:
#
# PCOD9255654 Si02
#       5
#     8   8   8   8   8
#     4   9  16  28  53  76 111 134 177 231 278 306
#     4  11  22  36  54  78 111 149 189 220 261 326
#     4  10  17  32  51  77 107 134 178 234 268 304
#     4   9  18  31  49  80 111 139 176 223 281 318
#     4  11  22  35  54  79 116 146 172 221 278 330
#
# _framework density 18.846682999999999
#
# number of rings (size 3 to 8) (size 9 to 14) (size 15 to 20)
#    0.000    2.000    4.000    3.000    2.800    0.000 
#    0.000    0.000    0.000    0.000    0.000    8.400 
#    0.000    0.000    0.000    0.000    0.000    0.000 
#
# Total GULP energy -111349.626308 kJ/mol
# GULP energy per Si atom -5567.481315 kJ/mol
# Density = 1.880379 g / cm^3
# Si number density = 18.846683 Si / 1000 Ang^3
#
#
#
# Elastic Constant Matrix: (Units=GPa)
#
#
# Indices 1 2 3 4 5 6 
#
# 1 27.1842 9.5285 16.3110 0.0000 18.5450 0.0000
# 2 9.5285 102.2159 31.5882 0.0000 18.9005 0.0000
# 3 16.3110 31.5882 103.3776 0.0000 27.5759 0.0000
# 4 0.0000 0.0000 0.0000 42.0605 0.0000 11.6276
# 5 18.5450 18.9005 27.5759 0.0000 29.3528 0.0000
# 6 0.0000 0.0000 0.0000 11.6276 0.0000 12.9269
#
#
#
# Elastic Compliance Matrix: (Units=1/GPa)
#
#
# Indices 1 2 3 4 5 6 
#
# 1 0.064953 0.001642 0.000639 0.000000 -0.042695 0.000000
# 2 0.001642 0.011460 -0.002023 0.000000 -0.006517 0.000000
# 3 0.000639 -0.002023 0.013278 0.000000 -0.011576 0.000000
# 4 0.000000 0.000000 0.000000 0.031644 0.000000 -0.028464
# 5 -0.042695 -0.006517 -0.011576 0.000000 0.076114 0.000000
# 6 0.000000 0.000000 0.000000 -0.028464 0.000000 0.102961
#
#
# Mechanical properties :
#
#
# Convention : Reuss Voigt Hill
#
# Bulk Modulus (GPa) = 11.08544 38.62591 24.85567
# Shear Modulus (GPa) = 15.15319 28.55804 21.85562
#
# Velocity S-wave (km/s) = 2.83861 3.89689 3.40906
# Velocity P-wave (km/s) = 4.07900 6.38646 5.35841
#
# Compressibility (1/GPa) = 0.09020845
#
# Stress axis : x y z
#
# Youngs Moduli (GPa) = 15.39566 87.25879 75.31074
#
# Poissons Ratio (x) = -0.14331 -0.04809
# Poissons Ratio (y) = -0.02528 0.15232
# Poissons Ratio (z) = -0.00983 0.17649
#
# Static dielectric constant tensor:
#      x y z
#    x 1.634430 0.000000 0.015810 
#    y 0.000000 1.741570 0.000000 
#    z 0.015810 0.000000 1.740100 
# 
# From -- ./inp_files/246263.got.cif
#   From: 2010.05.17/outbox.cif.g08.bks.cpg/sg15_124_cif.got.tgz:246263.got - 2010.06.03 18:47:42.
