data_PCOD9255240
_publ_section_title
;
Structure prediction by ZEFSAII (Michael W. Deem and Ramdas Pophale) SiO2 
 PCOD9255240
Probable space group: C 2/C
;
_chemical_formula_sum "Si O2"
_cell_formula_units_Z 44
_cell_length_a 17.714052
_cell_length_b 13.230800
_cell_length_c 8.214403
_cell_angle_alpha 90.000000
_cell_angle_beta 114.225344
_cell_angle_gamma 90.000000
_cell_volume 1755.681259
_symmetry_space_group_name_H-M "C 2/C"
_symmetry_group_IT_number 15
_symmetry_cell_setting 'monoclinic'
loop_
_space_group_symop_operation_xyz
x,y,z
-x,y,1/2-z
-x,-y,-z
x,-y,1/2+z
1/2+x,1/2+y,z
1/2-x,1/2+y,1/2-z
1/2-x,1/2-y,-z
1/2+x,1/2-y,1/2+z
loop_
_atom_site_type_symbol
_atom_site_label
_atom_site_fract_x
_atom_site_fract_y
_atom_site_fract_z
Si Si1 0.500000 0.941353 0.750000
Si Si2 0.746134 0.061974 0.991372
Si Si3 0.373746 0.952509 0.385200
Si Si4 0.448634 0.610407 0.876602
Si Si5 0.596095 0.621724 0.191968
Si Si6 0.316085 0.333597 0.047377
O O1 0.429797 0.893670 0.568866
O O2 0.558814 0.005857 0.682731
O O3 0.830240 0.121718 0.111076
O O4 0.676293 0.044834 0.070051
O O5 0.697554 0.098570 0.788089
O O6 0.777078 0.945729 0.999875
O O7 0.500000 0.603109 0.750000
O O8 0.413400 0.497422 0.867163
O O9 0.372943 0.677308 0.756165
O O10 0.498058 0.646622 0.079376
O O11 0.633596 0.679233 0.072861
O O12 0.250000 0.250000 0.000000
#
# Coordination Sequence:
#
# PCOD9255240 Si02
#       6
#     4   8   8   8   8   8
#     4   8  16  28  46  70 104 138 172 238 272 306
#     4  10  17  29  52  84 105 140 194 242 285 337
#     4   9  16  28  49  75 103 134 190 241 271 326
#     4   8  16  30  53  81 110 146 192 244 291 333
#     4   9  16  30  52  81 110 142 192 247 285 335
#     4  10  19  31  51  81 118 148 183 235 299 362
#
# _framework density 25.061496999999999
#
# number of rings (size 3 to 8) (size 9 to 14) (size 15 to 20)
#    0.000    2.909    1.818    0.000    0.000    0.000 
#    0.000    0.000   36.000    1.091    2.364    0.000 
#    0.000    0.000    0.000    0.000    0.000    0.000 
#
# Total GULP energy -122534.756909 kJ/mol
# GULP energy per Si atom -5569.761678 kJ/mol
# Density = 2.500446 g / cm^3
# Si number density = 25.061497 Si / 1000 Ang^3
#
#
#
# Elastic Constant Matrix: (Units=GPa)
#
#
# Indices 1 2 3 4 5 6 
#
# 1 97.0751 18.1138 54.7192 0.0000 29.6598 0.0000
# 2 18.1138 31.4417 29.5424 0.0000 11.1435 0.0000
# 3 54.7192 29.5424 298.1297 0.0000 71.4508 0.0000
# 4 0.0000 0.0000 0.0000 18.8669 0.0000 11.0854
# 5 29.6598 11.1435 71.4508 0.0000 59.1037 0.0000
# 6 0.0000 0.0000 0.0000 11.0854 0.0000 24.1492
#
#
#
# Elastic Compliance Matrix: (Units=1/GPa)
#
#
# Indices 1 2 3 4 5 6 
#
# 1 0.013134 -0.005180 -0.000777 0.000000 -0.004675 0.000000
# 2 -0.005180 0.037603 -0.002393 0.000000 -0.001598 0.000000
# 3 -0.000777 -0.002393 0.004973 0.000000 -0.005171 0.000000
# 4 0.000000 0.000000 0.000000 0.072578 0.000000 -0.033316
# 5 -0.004675 -0.001598 -0.005171 0.000000 0.025818 0.000000
# 6 0.000000 0.000000 0.000000 -0.033316 0.000000 0.056702
#
#
# Mechanical properties :
#
#
# Convention : Reuss Voigt Hill
#
# Bulk Modulus (GPa) = 25.63277 70.15527 47.89402
# Shear Modulus (GPa) = 20.78897 42.04204 31.41551
#
# Velocity S-wave (km/s) = 2.88326 4.10024 3.54437
# Velocity P-wave (km/s) = 4.61892 7.10422 5.99184
#
# Compressibility (1/GPa) = 0.03901256
#
# Stress axis : x y z
#
# Youngs Moduli (GPa) = 76.13702 26.59336 201.07442
#
# Poissons Ratio (x) = 0.13775 0.15621
# Poissons Ratio (y) = 0.39437 0.48107
# Poissons Ratio (z) = 0.05915 0.06362
#
# Static dielectric constant tensor:
#      x y z
#    x 1.930590 0.000000 0.058770 
#    y 0.000000 1.894540 0.000000 
#    z 0.058770 0.000000 2.080950 
# 
# From -- ./inp_files/47536.got.cif
#   From: 2010.05.17/outbox.cif.g08.bks.cpg/sg15_24_cif.got.tgz:47536.got - 2010.06.03 18:47:42.
