data_PCOD9255393
_publ_section_title
;
Structure prediction by ZEFSAII (Michael W. Deem and Ramdas Pophale) SiO2 
 PCOD9255393
Probable space group: C 2/C
;
_chemical_formula_sum "Si O2"
_cell_formula_units_Z 56
_cell_length_a 8.652566
_cell_length_b 20.904594
_cell_length_c 18.353396
_cell_angle_alpha 90.000000
_cell_angle_beta 60.605766
_cell_angle_gamma 90.000000
_cell_volume 2892.360811
_symmetry_space_group_name_H-M "C 2/C"
_symmetry_group_IT_number 15
_symmetry_cell_setting 'monoclinic'
loop_
_space_group_symop_operation_xyz
x,y,z
-x,y,1/2-z
-x,-y,-z
x,-y,1/2+z
1/2+x,1/2+y,z
1/2-x,1/2+y,1/2-z
1/2-x,1/2-y,-z
1/2+x,1/2-y,1/2+z
loop_
_atom_site_type_symbol
_atom_site_label
_atom_site_fract_x
_atom_site_fract_y
_atom_site_fract_z
Si Si1 0.008338 0.818349 0.941686
Si Si2 0.020506 0.279495 0.928238
Si Si3 0.828918 0.133660 0.341055
Si Si4 0.668399 0.734977 0.667278
Si Si5 0.816608 0.913435 0.330290
Si Si6 0.255398 0.897524 0.988249
Si Si7 0.943644 0.516748 0.095941
O O1 0.162949 0.779639 0.864064
O O2 0.107438 0.869633 0.969611
O O3 0.884278 0.851288 0.911509
O O4 0.931608 0.764840 0.014479
O O5 0.196672 0.308192 0.851445
O O6 0.901062 0.239045 0.899960
O O7 0.898421 0.341249 0.975234
O O8 0.712405 0.069382 0.365470
O O9 0.000000 0.129903 0.250000
O O10 0.500000 0.759920 0.750000
O O11 0.704758 0.661989 0.680308
O O12 0.825377 0.920433 0.416324
O O13 0.000000 0.934310 0.250000
O O14 0.644383 0.954439 0.348042
O O15 0.375363 0.950264 0.918887
O O16 0.000000 0.500000 0.000000
#
# Coordination Sequence:
#
# PCOD9255393 Si02
#       7
#     8   8   8   8   8   8   8
#     4  11  19  34  55  79 109 135 176 216 265 315
#     4  10  18  34  52  77 113 138 171 210 258 323
#     4  11  23  36  54  80 107 139 174 223 271 305
#     4  10  18  30  55  84 106 138 176 210 259 313
#     4  10  17  30  54  80 105 136 177 213 253 312
#     4   9  17  34  56  78 101 141 179 212 249 314
#     4   9  20  37  57  75 101 141 184 212 256 311
#
# _framework density 19.361346999999999
#
# number of rings (size 3 to 8) (size 9 to 14) (size 15 to 20)
#    0.000    2.000    2.857    2.571    0.000    0.000 
#    0.000    2.857    0.000    1.714    0.000    0.000 
#    0.000    0.000    0.000    0.000    0.000    0.000 
#
# Total GULP energy -156081.870459 kJ/mol
# GULP energy per Si atom -5574.352516 kJ/mol
# Density = 1.931728 g / cm^3
# Si number density = 19.361347 Si / 1000 Ang^3
#
#
#
# Elastic Constant Matrix: (Units=GPa)
#
#
# Indices 1 2 3 4 5 6 
#
# 1 44.0910 13.9222 0.5977 0.0000 0.3529 0.0000
# 2 13.9222 57.3981 20.7411 0.0000 -10.8803 0.0000
# 3 0.5977 20.7411 103.6659 0.0000 -25.2333 0.0000
# 4 0.0000 0.0000 0.0000 22.4130 0.0000 -10.6024
# 5 0.3529 -10.8803 -25.2333 0.0000 27.4608 0.0000
# 6 0.0000 0.0000 0.0000 -10.6024 0.0000 18.0601
#
#
#
# Elastic Compliance Matrix: (Units=1/GPa)
#
#
# Indices 1 2 3 4 5 6 
#
# 1 0.024805 -0.006694 0.000609 0.000000 -0.002411 0.000000
# 2 -0.006694 0.021166 -0.002749 0.000000 0.005946 0.000000
# 3 0.000609 -0.002749 0.012785 0.000000 0.010651 0.000000
# 4 0.000000 0.000000 0.000000 0.061771 0.000000 0.036264
# 5 -0.002411 0.005946 0.010651 0.000000 0.048590 0.000000
# 6 0.000000 0.000000 0.000000 0.036264 0.000000 0.076660
#
#
# Mechanical properties :
#
#
# Convention : Reuss Voigt Hill
#
# Bulk Modulus (GPa) = 24.33666 30.63079 27.48373
# Shear Modulus (GPa) = 18.04134 24.91306 21.47720
#
# Velocity S-wave (km/s) = 3.05589 3.59101 3.33420
# Velocity P-wave (km/s) = 5.00483 5.74880 5.38967
#
# Compressibility (1/GPa) = 0.04109027
#
# Stress axis : x y z
#
# Youngs Moduli (GPa) = 40.31437 47.24488 78.21363
#
# Poissons Ratio (x) = 0.31625 -0.04766
# Poissons Ratio (y) = 0.26986 0.21500
# Poissons Ratio (z) = -0.02457 0.12987
#
# Static dielectric constant tensor:
#      x y z
#    x 1.657390 0.000000 -0.002870 
#    y 0.000000 1.730120 0.000000 
#    z -0.002870 0.000000 1.709690 
# 
# From -- ./inp_files/233765.got.cif
#   From: 2010.05.17/outbox.cif.g08.bks.cpg/sg15_117_cif.got.tgz:233765.got - 2010.06.03 18:47:42.
