data_PCOD9255825
_publ_section_title
;
Structure prediction by ZEFSAII (Michael W. Deem and Ramdas Pophale) SiO2 
 PCOD9255825
Probable space group: C 2/C
;
_chemical_formula_sum "Si O2"
_cell_formula_units_Z 64
_cell_length_a 10.143610
_cell_length_b 12.884328
_cell_length_c 24.259357
_cell_angle_alpha 90.000000
_cell_angle_beta 122.046545
_cell_angle_gamma 90.000000
_cell_volume 2687.406902
_symmetry_space_group_name_H-M "C 2/C"
_symmetry_group_IT_number 15
_symmetry_cell_setting 'monoclinic'
loop_
_space_group_symop_operation_xyz
x,y,z
-x,y,1/2-z
-x,-y,-z
x,-y,1/2+z
1/2+x,1/2+y,z
1/2-x,1/2+y,1/2-z
1/2-x,1/2-y,-z
1/2+x,1/2-y,1/2+z
loop_
_atom_site_type_symbol
_atom_site_label
_atom_site_fract_x
_atom_site_fract_y
_atom_site_fract_z
Si Si1 0.859024 0.153021 0.254818
Si Si2 0.355146 0.447170 0.938165
Si Si3 0.914555 0.572801 0.906917
Si Si4 0.886675 0.871123 0.374326
Si Si5 0.006820 0.217849 0.392529
Si Si6 0.759074 0.866002 0.023951
Si Si7 0.187222 0.345486 0.606167
Si Si8 0.847433 0.088085 0.745746
O O1 0.872590 0.209948 0.315589
O O2 0.724597 0.150638 0.180084
O O3 0.000000 0.198237 0.250000
O O4 0.889842 0.030686 0.272771
O O5 0.298952 0.531005 0.881438
O O6 0.428480 0.347006 0.924565
O O7 0.500000 0.500000 0.000000
O O8 0.237369 0.428590 0.962048
O O9 0.039245 0.661629 0.915581
O O10 0.851308 0.620724 0.949292
O O11 0.912139 0.450007 0.922671
O O12 0.788131 0.580055 0.829243
O O13 0.879930 0.770303 0.411954
O O14 0.820616 0.856785 0.298178
O O15 0.070728 0.894110 0.413386
O O16 0.158647 0.160927 0.398976
O O17 0.750000 0.750000 0.000000
O O18 0.000000 0.133506 0.750000
#
# Coordination Sequence:
#
# PCOD9255825 Si02
#       8
#     8   8   8   8   8   8   8   8
#     4   8  16  30  57  88 120 153 192 245 302 370
#     4  10  21  36  62  85 111 157 211 252 294 358
#     4  11  22  38  64  91 125 161 209 256 309 381
#     4  11  21  39  62  90 124 158 204 259 316 369
#     4  11  19  38  61  86 120 165 205 247 312 364
#     4  11  22  41  60  87 118 156 211 264 300 357
#     4  10  22  38  58  90 129 157 197 251 316 386
#     4  10  17  32  62  96 119 155 204 259 308 361
#
# _framework density 23.814778
#
# number of rings (size 3 to 8) (size 9 to 14) (size 15 to 20)
#    0.000    1.750    3.750    3.000    0.000    0.000 
#    2.250    6.250    0.000    0.750    0.000    0.000 
#    0.000    0.000    0.000    0.000    0.000    0.000 
#
# Total GULP energy -178339.676997 kJ/mol
# GULP energy per Si atom -5573.114906 kJ/mol
# Density = 2.376057 g / cm^3
# Si number density = 23.814778 Si / 1000 Ang^3
#
#
#
# Elastic Constant Matrix: (Units=GPa)
#
#
# Indices 1 2 3 4 5 6 
#
# 1 54.0728 32.3686 31.3697 0.0000 -14.6326 0.0000
# 2 32.3686 150.0679 30.0398 0.0000 -26.2406 0.0000
# 3 31.3697 30.0398 122.3145 0.0000 -24.8482 0.0000
# 4 0.0000 0.0000 0.0000 36.1695 0.0000 -10.7488
# 5 -14.6326 -26.2406 -24.8482 0.0000 32.0433 0.0000
# 6 0.0000 0.0000 0.0000 -10.7488 0.0000 26.5752
#
#
#
# Elastic Compliance Matrix: (Units=1/GPa)
#
#
# Indices 1 2 3 4 5 6 
#
# 1 0.024499 -0.003551 -0.004426 0.000000 0.004847 0.000000
# 2 -0.003551 0.008347 -0.000095 0.000000 0.005141 0.000000
# 3 -0.004426 -0.000095 0.010573 0.000000 0.006100 0.000000
# 4 0.000000 0.000000 0.000000 0.031425 0.000000 0.012710
# 5 0.004847 0.005141 0.006100 0.000000 0.042361 0.000000
# 6 0.000000 0.000000 0.000000 0.012710 0.000000 0.042770
#
#
# Mechanical properties :
#
#
# Convention : Reuss Voigt Hill
#
# Bulk Modulus (GPa) = 36.66319 57.11236 46.88778
# Shear Modulus (GPa) = 26.99615 34.46940 30.73277
#
# Velocity S-wave (km/s) = 3.37053 3.80859 3.59624
# Velocity P-wave (km/s) = 5.52955 6.58593 6.08072
#
# Compressibility (1/GPa) = 0.02727531
#
# Stress axis : x y z
#
# Youngs Moduli (GPa) = 40.81863 119.79767 94.57653
#
# Poissons Ratio (x) = 0.42535 0.41863
# Poissons Ratio (y) = 0.14493 0.00900
# Poissons Ratio (z) = 0.18068 0.01140
#
# Static dielectric constant tensor:
#      x y z
#    x 1.959260 0.000000 -0.007780 
#    y 0.000000 2.066150 0.000000 
#    z -0.007780 0.000000 2.055090 
# 
# From -- ./inp_files/268890.got.cif
#   From: 2010.05.17/outbox.cif.g08.bks.cpg/sg15_135_cif.got.tgz:268890.got - 2010.06.03 18:47:42.
