data_PCOD9255064
_publ_section_title
;
Structure prediction by ZEFSAII (Michael W. Deem and Ramdas Pophale) SiO2 
 PCOD9255064
Probable space group: C 2/C
;
_chemical_formula_sum "Si O2"
_cell_formula_units_Z 52
_cell_length_a 30.576115
_cell_length_b 14.748007
_cell_length_c 9.353712
_cell_angle_alpha 90.000000
_cell_angle_beta 40.382306
_cell_angle_gamma 90.000000
_cell_volume 2732.733945
_symmetry_space_group_name_H-M "C 2/C"
_symmetry_group_IT_number 15
_symmetry_cell_setting 'monoclinic'
loop_
_space_group_symop_operation_xyz
x,y,z
-x,y,1/2-z
-x,-y,-z
x,-y,1/2+z
1/2+x,1/2+y,z
1/2-x,1/2+y,1/2-z
1/2-x,1/2-y,-z
1/2+x,1/2-y,1/2+z
loop_
_atom_site_type_symbol
_atom_site_label
_atom_site_fract_x
_atom_site_fract_y
_atom_site_fract_z
Si Si1 0.204182 0.347979 0.322772
Si Si2 0.329921 0.117416 0.895276
Si Si3 0.819444 0.119229 0.856364
Si Si4 0.500000 0.034881 0.750000
Si Si5 0.691328 0.212449 0.284544
Si Si6 0.586264 0.061472 0.281039
Si Si7 0.204285 0.985768 0.827607
O O1 0.176831 0.326808 0.233049
O O2 0.253343 0.272517 0.264916
O O3 0.141209 0.370321 0.581184
O O4 0.248367 0.441198 0.206289
O O5 0.375574 0.029368 0.760250
O O6 0.353336 0.168406 0.980689
O O7 0.255713 0.081273 0.120722
O O8 0.842547 0.216293 0.738748
O O9 0.831113 0.046652 0.703176
O O10 0.738314 0.138729 0.085884
O O11 0.840093 0.073400 0.953427
O O12 0.458353 0.971234 0.743074
O O13 0.544969 0.091117 0.524225
#
# Coordination Sequence:
#
# PCOD9255064 Si02
#       7
#     8   8   8   4   8   8   8
#     4  10  17  28  43  66  85 122 150 202 231 286
#     4  10  17  28  43  66  85 122 150 202 231 286
#     4   9  16  28  36  58  76 119 142 196 208 268
#     4  10  20  34  44  68  84 120 164 232 222 254
#     4   9  19  26  42  61  96 107 158 191 242 275
#     4  10  20  31  50  64  92 118 176 200 240 259
#     4   9  16  25  42  55  82 108 162 176 222 259
#
# _framework density 19.028561
#
# number of rings (size 3 to 8) (size 9 to 14) (size 15 to 20)
#    0.000    2.462    3.077    0.462    0.000    2.462 
#    0.000    0.000    0.000    0.000    0.000    0.000 
#    0.000    0.000    0.000    0.000    0.000  609.231 
#
# Total GULP energy -144836.490065 kJ/mol
# GULP energy per Si atom -5570.634233 kJ/mol
# Density = 1.898525 g / cm^3
# Si number density = 19.028561 Si / 1000 Ang^3
#
#
#
# Elastic Constant Matrix: (Units=GPa)
#
#
# Indices 1 2 3 4 5 6 
#
# 1 61.5886 8.3900 10.0583 0.0000 22.2440 0.0000
# 2 8.3900 60.0298 12.8174 0.0000 11.3727 0.0000
# 3 10.0583 12.8174 67.4434 0.0000 29.9036 0.0000
# 4 0.0000 0.0000 0.0000 18.1630 0.0000 14.6946
# 5 22.2440 11.3727 29.9036 0.0000 30.5257 0.0000
# 6 0.0000 0.0000 0.0000 14.6946 0.0000 28.3036
#
#
#
# Elastic Compliance Matrix: (Units=1/GPa)
#
#
# Indices 1 2 3 4 5 6 
#
# 1 0.023944 -0.000266 0.007375 0.000000 -0.024574 0.000000
# 2 -0.000266 0.017950 -0.000871 0.000000 -0.005641 0.000000
# 3 0.007375 -0.000871 0.028519 0.000000 -0.032988 0.000000
# 4 0.000000 0.000000 0.000000 0.094931 0.000000 -0.049286
# 5 -0.024574 -0.005641 -0.032988 0.000000 0.085084 0.000000
# 6 0.000000 0.000000 0.000000 -0.049286 0.000000 0.060919
#
#
# Mechanical properties :
#
#
# Convention : Reuss Voigt Hill
#
# Bulk Modulus (GPa) = 12.06399 27.95479 20.00939
# Shear Modulus (GPa) = 15.31396 25.91821 20.61608
#
# Velocity S-wave (km/s) = 2.83996 3.69463 3.29512
# Velocity P-wave (km/s) = 4.13612 5.73787 5.00153
#
# Compressibility (1/GPa) = 0.08289129
#
# Stress axis : x y z
#
# Youngs Moduli (GPa) = 41.76437 55.70993 35.06407
#
# Poissons Ratio (x) = 0.01480 -0.25861
# Poissons Ratio (y) = 0.01110 0.03053
# Poissons Ratio (z) = -0.30803 0.04850
#
# Static dielectric constant tensor:
#      x y z
#    x 1.722970 0.000000 0.051290 
#    y 0.000000 1.706290 0.000000 
#    z 0.051290 0.000000 1.698900 
# 
# From -- ./inp_files/66581.got.cif
#   From: 2010.05.17/outbox.cif.g08.bks.cpg/sg15_34_cif.got.tgz:66581.got - 2010.06.03 18:47:42.
