data_PCOD9255954
_publ_section_title
;
Structure prediction by ZEFSAII (Michael W. Deem and Ramdas Pophale) SiO2 
 PCOD9255954
Probable space group: C 2/C
;
_chemical_formula_sum "Si O2"
_cell_formula_units_Z 36
_cell_length_a 15.652815
_cell_length_b 11.834435
_cell_length_c 11.287652
_cell_angle_alpha 90.000000
_cell_angle_beta 40.921422
_cell_angle_gamma 90.000000
_cell_volume 1369.620941
_symmetry_space_group_name_H-M "C 2/C"
_symmetry_group_IT_number 15
_symmetry_cell_setting 'monoclinic'
loop_
_space_group_symop_operation_xyz
x,y,z
-x,y,1/2-z
-x,-y,-z
x,-y,1/2+z
1/2+x,1/2+y,z
1/2-x,1/2+y,1/2-z
1/2-x,1/2-y,-z
1/2+x,1/2-y,1/2+z
loop_
_atom_site_type_symbol
_atom_site_label
_atom_site_fract_x
_atom_site_fract_y
_atom_site_fract_z
Si Si1 0.366243 0.263004 0.705068
Si Si2 0.500000 0.642912 0.750000
Si Si3 0.241885 0.632099 0.888649
Si Si4 0.905029 0.062566 0.495864
Si Si5 0.186810 0.600743 0.541754
O O1 0.351064 0.215074 0.588316
O O2 0.479927 0.351890 0.599845
O O3 0.396789 0.162715 0.768728
O O4 0.227312 0.322361 0.886790
O O5 0.362636 0.688446 0.836577
O O6 0.547592 0.558669 0.596038
O O7 0.310414 0.564853 0.707103
O O8 0.165910 0.531463 0.036617
O O9 0.824877 0.101120 0.466090
#
# Coordination Sequence:
#
# PCOD9255954 Si02
#       5
#     8   4   8   8   8
#     4  10  18  32  57  85 108 144 195 236 272 332
#     4  10  18  32  52  84 108 142 186 244 266 322
#     4  10  20  32  56  83 112 145 192 235 279 330
#     4  10  17  33  59  82 106 147 194 231 271 333
#     4   9  19  34  55  87 112 142 192 243 271 330
#
# _framework density 26.284644
#
# number of rings (size 3 to 8) (size 9 to 14) (size 15 to 20)
#    0.000    2.222    4.444    0.667    0.000    0.000 
#    0.000    1.111    0.000   21.333    0.000    0.000 
#    0.000    0.000    0.000    0.000    0.000    0.000 
#
# Total GULP energy -100511.934807 kJ/mol
# GULP energy per Si atom -5583.996378 kJ/mol
# Density = 2.622482 g / cm^3
# Si number density = 26.284644 Si / 1000 Ang^3
#
#
#
# Elastic Constant Matrix: (Units=GPa)
#
#
# Indices 1 2 3 4 5 6 
#
# 1 128.5650 52.3202 13.1985 0.0000 25.5918 0.0000
# 2 52.3202 98.0754 14.3699 0.0000 5.5590 0.0000
# 3 13.1985 14.3699 69.6312 0.0000 13.5330 0.0000
# 4 0.0000 0.0000 0.0000 50.3816 0.0000 7.9154
# 5 25.5918 5.5590 13.5330 0.0000 38.8817 0.0000
# 6 0.0000 0.0000 0.0000 7.9154 0.0000 64.8335
#
#
#
# Elastic Compliance Matrix: (Units=1/GPa)
#
#
# Indices 1 2 3 4 5 6 
#
# 1 0.011452 -0.005773 0.000349 0.000000 -0.006834 0.000000
# 2 -0.005773 0.013448 -0.002194 0.000000 0.002641 0.000000
# 3 0.000349 -0.002194 0.015801 0.000000 -0.005415 0.000000
# 4 0.000000 0.000000 0.000000 0.020237 0.000000 -0.002471
# 5 -0.006834 0.002641 -0.005415 0.000000 0.031724 0.000000
# 6 0.000000 0.000000 0.000000 -0.002471 0.000000 0.015726
#
#
# Mechanical properties :
#
#
# Convention : Reuss Voigt Hill
#
# Bulk Modulus (GPa) = 39.27196 50.67208 44.97202
# Shear Modulus (GPa) = 37.84669 45.24487 41.54578
#
# Velocity S-wave (km/s) = 3.79869 4.15341 3.98000
# Velocity P-wave (km/s) = 5.84923 6.50547 6.18606
#
# Compressibility (1/GPa) = 0.02546346
#
# Stress axis : x y z
#
# Youngs Moduli (GPa) = 87.32064 74.36157 63.28888
#
# Poissons Ratio (x) = 0.42930 -0.02208
# Poissons Ratio (y) = 0.50411 0.13887
# Poissons Ratio (z) = -0.03046 0.16317
#
# Static dielectric constant tensor:
#      x y z
#    x 2.128630 0.000000 -0.009610 
#    y 0.000000 2.186010 0.000000 
#    z -0.009610 0.000000 2.136310 
# 
# From -- ./inp_files/103531.got.cif
#   From: 2010.05.17/outbox.cif.g08.bks.cpg/sg15_52_cif.got.tgz:103531.got - 2010.06.03 18:47:42.
