data_PCOD9255757
_publ_section_title
;
Structure prediction by ZEFSAII (Michael W. Deem and Ramdas Pophale) SiO2 
 PCOD9255757
Probable space group: C 2/C
;
_chemical_formula_sum "Si O2"
_cell_formula_units_Z 40
_cell_length_a 17.368862
_cell_length_b 24.009906
_cell_length_c 9.917294
_cell_angle_alpha 90.000000
_cell_angle_beta 149.281395
_cell_angle_gamma 90.000000
_cell_volume 2112.636075
_symmetry_space_group_name_H-M "C 2/C"
_symmetry_group_IT_number 15
_symmetry_cell_setting 'monoclinic'
loop_
_space_group_symop_operation_xyz
x,y,z
-x,y,1/2-z
-x,-y,-z
x,-y,1/2+z
1/2+x,1/2+y,z
1/2-x,1/2+y,1/2-z
1/2-x,1/2-y,-z
1/2+x,1/2-y,1/2+z
loop_
_atom_site_type_symbol
_atom_site_label
_atom_site_fract_x
_atom_site_fract_y
_atom_site_fract_z
Si Si1 0.889371 0.516459 0.711114
Si Si2 0.606662 0.707994 0.783757
Si Si3 0.773563 0.596994 0.988741
Si Si4 0.398191 0.880709 0.388177
Si Si5 0.576491 0.236148 0.719513
O O1 0.760606 0.469855 0.492168
O O2 0.841521 0.577831 0.685317
O O3 0.000000 0.517921 0.750000
O O4 0.000000 0.500000 0.000000
O O5 0.500000 0.721408 0.750000
O O6 0.661096 0.643768 0.875088
O O7 0.514980 0.719505 0.508371
O O8 0.750000 0.750000 0.000000
O O9 0.793174 0.610957 0.860244
O O10 0.934859 0.606486 0.303259
O O11 0.417601 0.819967 0.358201
O O12 0.500000 0.228824 0.750000
O O13 0.750000 0.250000 0.000000
#
# Coordination Sequence:
#
# PCOD9255757 Si02
#       5
#     8   8   8   8   8
#     4  10  17  32  56  93 121 155 209 264 301 359
#     4  12  24  42  67  90 125 171 214 256 317 391
#     4  10  19  35  60  90 121 156 211 256 305 366
#     4  10  19  35  61  91 122 160 207 264 304 366
#     4  12  25  40  59  92 126 159 204 262 319 371
#
# _framework density 18.933693000000002
#
# number of rings (size 3 to 8) (size 9 to 14) (size 15 to 20)
#    0.000    1.200    6.000    4.200    0.000    0.000 
#    0.000    0.000    0.000    6.000    0.000    0.000 
#    0.000    0.000    0.000    0.000    0.000    0.000 
#
# Total GULP energy -111470.401599 kJ/mol
# GULP energy per Si atom -5573.520080 kJ/mol
# Density = 1.889060 g / cm^3
# Si number density = 18.933693 Si / 1000 Ang^3
#
#
#
# Elastic Constant Matrix: (Units=GPa)
#
#
# Indices 1 2 3 4 5 6 
#
# 1 108.4844 34.0672 36.9845 0.0000 -11.4421 0.0000
# 2 34.0672 95.2594 18.4253 0.0000 -0.2751 0.0000
# 3 36.9845 18.4253 65.8476 0.0000 -5.3447 0.0000
# 4 0.0000 0.0000 0.0000 21.1771 0.0000 -2.8585
# 5 -11.4421 -0.2751 -5.3447 0.0000 32.6209 0.0000
# 6 0.0000 0.0000 0.0000 -2.8585 0.0000 28.8440
#
#
#
# Elastic Compliance Matrix: (Units=1/GPa)
#
#
# Indices 1 2 3 4 5 6 
#
# 1 0.012645 -0.003375 -0.005878 0.000000 0.003444 0.000000
# 2 -0.003375 0.012005 -0.001572 0.000000 -0.001340 0.000000
# 3 -0.005878 -0.001572 0.019013 0.000000 0.001040 0.000000
# 4 0.000000 0.000000 0.000000 0.047861 0.000000 0.004743
# 5 0.003444 -0.001340 0.001040 0.000000 0.032022 0.000000
# 6 0.000000 0.000000 0.000000 0.004743 0.000000 0.035139
#
#
# Mechanical properties :
#
#
# Convention : Reuss Voigt Hill
#
# Bulk Modulus (GPa) = 45.43180 49.83837 47.63509
# Shear Modulus (GPa) = 26.64195 28.53603 27.58899
#
# Velocity S-wave (km/s) = 3.75523 3.88642 3.82139
# Velocity P-wave (km/s) = 6.54596 6.82047 6.68462
#
# Compressibility (1/GPa) = 0.02201101
#
# Stress axis : x y z
#
# Youngs Moduli (GPa) = 79.08178 83.29892 52.59659
#
# Poissons Ratio (x) = 0.28116 0.30918
# Poissons Ratio (y) = 0.26692 0.08269
# Poissons Ratio (z) = 0.46487 0.13096
#
# Static dielectric constant tensor:
#      x y z
#    x 1.577500 0.000000 0.049830 
#    y 0.000000 1.910000 0.000000 
#    z 0.049830 0.000000 1.592300 
# 
# From -- ./inp_files/24568.got.cif
#   From: 2010.05.17/outbox.cif.g08.bks.cpg/sg15_13_cif.got.tgz:24568.got - 2010.06.03 18:47:42.
