data_PCOD9255223
_publ_section_title
;
Structure prediction by ZEFSAII (Michael W. Deem and Ramdas Pophale) SiO2 
 PCOD9255223
Probable space group: C 2/C
;
_chemical_formula_sum "Si O2"
_cell_formula_units_Z 40
_cell_length_a 11.659918
_cell_length_b 24.524219
_cell_length_c 9.606830
_cell_angle_alpha 90.000000
_cell_angle_beta 123.998115
_cell_angle_gamma 90.000000
_cell_volume 2277.480347
_symmetry_space_group_name_H-M "C 2/C"
_symmetry_group_IT_number 15
_symmetry_cell_setting 'monoclinic'
loop_
_space_group_symop_operation_xyz
x,y,z
-x,y,1/2-z
-x,-y,-z
x,-y,1/2+z
1/2+x,1/2+y,z
1/2-x,1/2+y,1/2-z
1/2-x,1/2-y,-z
1/2+x,1/2-y,1/2+z
loop_
_atom_site_type_symbol
_atom_site_label
_atom_site_fract_x
_atom_site_fract_y
_atom_site_fract_z
Si Si1 0.836399 0.329788 0.655382
Si Si2 0.131763 0.877162 0.033422
Si Si3 0.848499 0.205799 0.718852
Si Si4 0.314349 0.596156 0.230346
Si Si5 0.400562 0.477469 0.311941
O O1 0.808563 0.269353 0.699472
O O2 0.756899 0.326067 0.454210
O O3 0.780048 0.376966 0.716690
O O4 0.000000 0.335506 0.750000
O O5 0.145756 0.821747 0.127294
O O6 0.171341 0.925364 0.168492
O O7 0.210403 0.880459 0.940706
O O8 0.971081 0.888081 0.883466
O O9 0.000000 0.202336 0.750000
O O10 0.309285 0.530362 0.213612
O O11 0.500000 0.462391 0.250000
O O12 0.500000 0.500000 0.500000
#
# Coordination Sequence:
#
# PCOD9255223 Si02
#       5
#     8   8   8   8   8
#     4  10  22  36  53  78 112 144 179 221 271 324
#     4  10  19  31  56  86 105 137 180 229 270 309
#     4  10  19  35  58  80 101 144 190 222 262 318
#     4  10  19  33  51  81 116 136 175 226 273 314
#     4  10  17  29  50  87 112 129 171 234 274 307
#
# _framework density 17.563268999999998
#
# number of rings (size 3 to 8) (size 9 to 14) (size 15 to 20)
#    0.000    2.000    6.000    0.600    2.800    0.800 
#    0.000    1.000    0.000    4.800    0.000    0.000 
#    0.000    0.000    0.000    0.000    0.000    0.000 
#
# Total GULP energy -111448.898090 kJ/mol
# GULP energy per Si atom -5572.444904 kJ/mol
# Density = 1.752329 g / cm^3
# Si number density = 17.563269 Si / 1000 Ang^3
#
#
#
# Elastic Constant Matrix: (Units=GPa)
#
#
# Indices 1 2 3 4 5 6 
#
# 1 45.4550 9.0569 14.6147 0.0000 -4.4987 0.0000
# 2 9.0569 53.5852 18.6289 0.0000 -12.3719 0.0000
# 3 14.6147 18.6289 64.2852 0.0000 -13.4002 0.0000
# 4 0.0000 0.0000 0.0000 21.9001 0.0000 -14.7387
# 5 -4.4987 -12.3719 -13.4002 0.0000 27.6417 0.0000
# 6 0.0000 0.0000 0.0000 -14.7387 0.0000 5.1172
#
#
#
# Elastic Compliance Matrix: (Units=1/GPa)
#
#
# Indices 1 2 3 4 5 6 
#
# 1 0.024019 -0.002294 -0.004666 0.000000 0.000620 0.000000
# 2 -0.002294 0.022301 -0.004381 0.000000 0.007484 0.000000
# 3 -0.004666 -0.004381 0.019266 0.000000 0.006620 0.000000
# 4 0.000000 0.000000 0.000000 -0.048660 0.000000 -0.140152
# 5 0.000620 0.007484 0.006620 0.000000 0.042837 0.000000
# 6 0.000000 0.000000 0.000000 -0.140152 0.000000 -0.208250
#
#
# Mechanical properties :
#
#
# Convention : Reuss Voigt Hill
#
# Bulk Modulus (GPa) = 23.30868 27.54738 25.42803
# Shear Modulus (GPa) = -44.84098 19.00014 -12.92042
#
# Velocity S-wave (km/s) = -5.05831 3.29266 -2.71523
# Velocity P-wave (km/s) = 4.56238 5.49310 2.16320
#
# Compressibility (1/GPa) = 0.04290247
#
# Stress axis : x y z
#
# Youngs Moduli (GPa) = 41.63442 44.84195 51.90527
#
# Poissons Ratio (x) = 0.10288 0.24221
# Poissons Ratio (y) = 0.09552 0.22738
# Poissons Ratio (z) = 0.19428 0.19644
#
# Static dielectric constant tensor:
#      x y z
#    x 1.563080 0.000000 -0.006070 
#    y 0.000000 1.651250 0.000000 
#    z -0.006070 0.000000 1.601510 
# 
# From -- ./inp_files/31329.got.cif
#   From: 2010.05.17/outbox.cif.g08.bks.cpg/sg15_16_cif.got.tgz:31329.got - 2010.06.03 18:47:42.
