data_PCOD9255355
_publ_section_title
;
Structure prediction by ZEFSAII (Michael W. Deem and Ramdas Pophale) SiO2 
 PCOD9255355
Probable space group: C 2/C
;
_chemical_formula_sum "Si O2"
_cell_formula_units_Z 56
_cell_length_a 19.614449
_cell_length_b 29.765334
_cell_length_c 10.147237
_cell_angle_alpha 90.000000
_cell_angle_beta 141.456260
_cell_angle_gamma 90.000000
_cell_volume 3691.481742
_symmetry_space_group_name_H-M "C 2/C"
_symmetry_group_IT_number 15
_symmetry_cell_setting 'monoclinic'
loop_
_space_group_symop_operation_xyz
x,y,z
-x,y,1/2-z
-x,-y,-z
x,-y,1/2+z
1/2+x,1/2+y,z
1/2-x,1/2+y,1/2-z
1/2-x,1/2-y,-z
1/2+x,1/2-y,1/2+z
loop_
_atom_site_type_symbol
_atom_site_label
_atom_site_fract_x
_atom_site_fract_y
_atom_site_fract_z
Si Si1 0.420792 0.496215 0.755218
Si Si2 0.299685 0.684725 0.495232
Si Si3 0.783647 0.184568 0.152103
Si Si4 0.073805 0.726746 0.238592
Si Si5 0.411656 0.593595 0.734544
Si Si6 0.925178 0.268004 0.260999
Si Si7 0.929283 0.102973 0.275863
O O1 0.500000 0.495773 0.750000
O O2 0.357927 0.543738 0.655915
O O3 0.371592 0.446300 0.682931
O O4 0.500000 0.500000 0.000000
O O5 0.289620 0.685550 0.320654
O O6 0.186439 0.700065 0.389948
O O7 0.389773 0.721397 0.678944
O O8 0.332697 0.635166 0.590422
O O9 0.854664 0.225986 0.204567
O O10 0.840731 0.140411 0.179211
O O11 0.660464 0.193868 0.915357
O O12 0.000000 0.712350 0.250000
O O13 0.003793 0.720414 0.000956
O O14 0.500000 0.594036 0.750000
O O15 0.481057 0.601112 0.971963
O O16 0.000000 0.255441 0.250000
O O17 0.000000 0.111260 0.250000
#
# Coordination Sequence:
#
# PCOD9255355 Si02
#       7
#     8   8   8   8   8   8   8
#     4   8  16  28  45  71 101 130 153 194 250 292
#     4  11  21  33  54  76  93 132 176 198 241 296
#     4  11  21  33  52  75  96 135 172 197 244 295
#     4  11  22  36  51  71 103 129 164 212 246 283
#     4  10  17  30  52  73 101 131 163 199 241 296
#     4  11  22  35  49  71 105 133 163 208 247 283
#     4  10  19  31  47  75 107 129 160 201 244 293
#
# _framework density 15.170059999999999
#
# number of rings (size 3 to 8) (size 9 to 14) (size 15 to 20)
#    0.000    1.714    4.286    1.714    0.000    1.143 
#    0.000    0.000    0.000    0.000    0.000    2.000 
#    0.000    0.000    0.000    0.000    0.000    0.000 
#
# Total GULP energy -155981.951118 kJ/mol
# GULP energy per Si atom -5570.783969 kJ/mol
# Density = 1.513553 g / cm^3
# Si number density = 15.170060 Si / 1000 Ang^3
#
#
#
# Elastic Constant Matrix: (Units=GPa)
#
#
# Indices 1 2 3 4 5 6 
#
# 1 91.5828 22.6123 28.0949 0.0000 -14.6837 0.0000
# 2 22.6123 124.6657 27.1056 0.0000 6.8684 0.0000
# 3 28.0949 27.1056 79.0874 0.0000 -12.8832 0.0000
# 4 0.0000 0.0000 0.0000 104.0705 0.0000 -96.8939
# 5 -14.6837 6.8684 -12.8832 0.0000 31.7755 0.0000
# 6 0.0000 0.0000 0.0000 -96.8939 0.0000 135.1768
#
#
#
# Elastic Compliance Matrix: (Units=1/GPa)
#
#
# Indices 1 2 3 4 5 6 
#
# 1 0.013225 -0.002003 -0.003154 0.000000 0.005266 0.000000
# 2 -0.002003 0.009306 -0.003165 0.000000 -0.004220 0.000000
# 3 -0.003154 -0.003165 0.015765 0.000000 0.005618 0.000000
# 4 0.000000 0.000000 0.000000 0.028887 0.000000 0.020706
# 5 0.005266 -0.004220 0.005618 0.000000 0.037094 0.000000
# 6 0.000000 0.000000 0.000000 0.020706 0.000000 0.022240
#
#
# Mechanical properties :
#
#
# Convention : Reuss Voigt Hill
#
# Bulk Modulus (GPa) = 46.18691 50.10683 48.14687
# Shear Modulus (GPa) = 33.24945 68.70610 50.97777
#
# Velocity S-wave (km/s) = 4.68673 6.73713 5.80320
# Velocity P-wave (km/s) = 7.73301 9.67576 8.75842
#
# Compressibility (1/GPa) = 0.02165116
#
# Stress axis : x y z
#
# Youngs Moduli (GPa) = 75.61152 107.46304 63.43321
#
# Poissons Ratio (x) = 0.21528 0.20006
# Poissons Ratio (y) = 0.15147 0.20077
# Poissons Ratio (z) = 0.23846 0.34013
#
# Static dielectric constant tensor:
#      x y z
#    x 1.500120 0.000000 -0.018540 
#    y 0.000000 1.542900 0.000000 
#    z -0.018540 0.000000 1.501740 
# 
# From -- ./inp_files/35150.got.cif
#   From: 2010.05.17/outbox.cif.g08.bks.cpg/sg15_18_cif.got.tgz:35150.got - 2010.06.03 18:47:42.
