data_PCOD9255226
_publ_section_title
;
Structure prediction by ZEFSAII (Michael W. Deem and Ramdas Pophale) SiO2 
 PCOD9255226
Probable space group: C 2/C
;
_chemical_formula_sum "Si O2"
_cell_formula_units_Z 56
_cell_length_a 9.346467
_cell_length_b 24.474822
_cell_length_c 16.801942
_cell_angle_alpha 90.000000
_cell_angle_beta 56.130119
_cell_angle_gamma 90.000000
_cell_volume 3191.275833
_symmetry_space_group_name_H-M "C 2/C"
_symmetry_group_IT_number 15
_symmetry_cell_setting 'monoclinic'
loop_
_space_group_symop_operation_xyz
x,y,z
-x,y,1/2-z
-x,-y,-z
x,-y,1/2+z
1/2+x,1/2+y,z
1/2-x,1/2+y,1/2-z
1/2-x,1/2-y,-z
1/2+x,1/2-y,1/2+z
loop_
_atom_site_type_symbol
_atom_site_label
_atom_site_fract_x
_atom_site_fract_y
_atom_site_fract_z
Si Si1 0.343432 0.749964 0.856039
Si Si2 0.272140 0.856961 0.383111
Si Si3 0.813446 0.956454 0.479922
Si Si4 0.865582 0.337213 0.175473
Si Si5 0.107459 0.168634 0.515043
Si Si6 0.717480 0.482097 0.356669
Si Si7 0.789686 0.955772 0.314185
O O1 0.500000 0.762562 0.750000
O O2 0.206812 0.711977 0.853046
O O3 0.249135 0.803917 0.915522
O O4 0.409700 0.711857 0.907754
O O5 0.311207 0.831033 0.284580
O O6 0.428239 0.841511 0.391783
O O7 0.277753 0.922100 0.365999
O O8 0.079508 0.840468 0.466464
O O9 0.832791 0.890856 0.473678
O O10 0.734237 0.974677 0.419705
O O11 0.008979 0.979682 0.418858
O O12 0.732161 0.976568 0.588385
O O13 0.779047 0.394225 0.176047
O O14 0.768512 0.488159 0.247688
O O15 0.000000 0.953984 0.250000
#
# Coordination Sequence:
#
# PCOD9255226 Si02
#       7
#     8   8   8   8   8   8   8
#     4  11  20  33  54  77 101 137 184 225 263 318
#     4   9  18  31  49  78 105 133 172 223 267 312
#     4   9  15  29  50  76 103 135 178 216 260 320
#     4  10  17  29  51  75 104 132 175 226 262 307
#     4  10  20  32  54  79 103 138 179 221 267 317
#     4   8  16  27  48  76 104 134 172 214 265 319
#     4   9  15  26  48  74 103 137 177 221 263 306
#
# _framework density 17.547840999999998
#
# number of rings (size 3 to 8) (size 9 to 14) (size 15 to 20)
#    0.000    2.571    2.857    1.286    0.000    0.571 
#    0.000    0.714    6.286    1.714   18.571    0.000 
#    0.000    0.000    0.000    0.000    0.000    0.000 
#
# Total GULP energy -155905.698556 kJ/mol
# GULP energy per Si atom -5568.060663 kJ/mol
# Density = 1.750790 g / cm^3
# Si number density = 17.547841 Si / 1000 Ang^3
#
#
#
# Elastic Constant Matrix: (Units=GPa)
#
#
# Indices 1 2 3 4 5 6 
#
# 1 69.6715 10.1502 38.0523 0.0000 -3.1718 0.0000
# 2 10.1502 25.7064 30.8677 0.0000 1.3326 0.0000
# 3 38.0523 30.8677 101.1436 0.0000 14.6083 0.0000
# 4 0.0000 0.0000 0.0000 17.4664 0.0000 -1.7904
# 5 -3.1718 1.3326 14.6083 0.0000 23.0636 0.0000
# 6 0.0000 0.0000 0.0000 -1.7904 0.0000 8.3725
#
#
#
# Elastic Compliance Matrix: (Units=1/GPa)
#
#
# Indices 1 2 3 4 5 6 
#
# 1 0.019497 0.003396 -0.009610 0.000000 0.008572 0.000000
# 2 0.003396 0.063804 -0.022327 0.000000 0.010923 0.000000
# 3 -0.009610 -0.022327 0.022367 0.000000 -0.014199 0.000000
# 4 0.000000 0.000000 0.000000 0.058536 0.000000 0.012517
# 5 0.008572 0.010923 -0.014199 0.000000 0.052899 0.000000
# 6 0.000000 0.000000 0.000000 0.012517 0.000000 0.122116
#
#
# Mechanical properties :
#
#
# Convention : Reuss Voigt Hill
#
# Bulk Modulus (GPa) = 20.58193 39.40687 29.99440
# Shear Modulus (GPa) = 12.12134 17.61060 14.86597
#
# Velocity S-wave (km/s) = 2.63108 3.17136 2.91377
# Velocity P-wave (km/s) = 4.58090 5.99297 5.33387
#
# Compressibility (1/GPa) = 0.04858631
#
# Stress axis : x y z
#
# Youngs Moduli (GPa) = 51.28992 15.67307 44.70862
#
# Poissons Ratio (x) = -0.05323 0.42964
# Poissons Ratio (y) = -0.17420 0.99823
# Poissons Ratio (z) = 0.49288 0.34994
#
# Static dielectric constant tensor:
#      x y z
#    x 1.618660 0.000000 0.017800 
#    y 0.000000 1.559590 0.000000 
#    z 0.017800 0.000000 1.642280 
# 
# From -- ./inp_files/138546.got.cif
#   From: 2010.05.17/outbox.cif.g08.bks.cpg/sg15_70_cif.got.tgz:138546.got - 2010.06.03 18:47:42.
