data_PCOD9255228
_publ_section_title
;
Structure prediction by ZEFSAII (Michael W. Deem and Ramdas Pophale) SiO2 
 PCOD9255228
Probable space group: C 2/C
;
_chemical_formula_sum "Si O2"
_cell_formula_units_Z 40
_cell_length_a 10.451263
_cell_length_b 11.421292
_cell_length_c 13.695128
_cell_angle_alpha 90.000000
_cell_angle_beta 72.494742
_cell_angle_gamma 90.000000
_cell_volume 1559.039220
_symmetry_space_group_name_H-M "C 2/C"
_symmetry_group_IT_number 15
_symmetry_cell_setting 'monoclinic'
loop_
_space_group_symop_operation_xyz
x,y,z
-x,y,1/2-z
-x,-y,-z
x,-y,1/2+z
1/2+x,1/2+y,z
1/2-x,1/2+y,1/2-z
1/2-x,1/2-y,-z
1/2+x,1/2-y,1/2+z
loop_
_atom_site_type_symbol
_atom_site_label
_atom_site_fract_x
_atom_site_fract_y
_atom_site_fract_z
Si Si1 0.566349 0.201029 0.143695
Si Si2 0.123449 0.417811 0.448497
Si Si3 0.649362 0.557223 0.725635
Si Si4 0.659018 0.653408 0.921787
Si Si5 0.452795 0.732644 0.370848
O O1 0.500000 0.132081 0.250000
O O2 0.361061 0.311814 0.321590
O O3 0.443115 0.254170 0.107781
O O4 0.660533 0.133903 0.046288
O O5 0.232916 0.493697 0.365867
O O6 0.000000 0.500000 0.500000
O O7 0.066277 0.315921 0.391995
O O8 0.500000 0.513249 0.750000
O O9 0.676754 0.556809 0.833947
O O10 0.809091 0.700912 0.901722
O O11 0.582366 0.631414 0.041342
O O12 0.500000 0.712926 0.250000
#
# Coordination Sequence:
#
# PCOD9255228 Si02
#       5
#     8   8   8   8   8
#     4   8  17  33  53  75 105 133 182 228 266 318
#     4  11  21  31  50  81 109 146 180 218 274 330
#     4   9  17  34  55  76 101 142 184 229 268 315
#     4   8  16  30  50  79 100 132 176 222 274 305
#     4  10  17  29  51  77 110 134 172 224 271 320
#
# _framework density 25.656825000000001
#
# number of rings (size 3 to 8) (size 9 to 14) (size 15 to 20)
#    0.000    3.200    2.000    0.600    0.000    0.800 
#    0.000    0.000    0.000   15.600    0.000    0.000 
#    0.000    0.000    0.000    0.000    0.000    0.000 
#
# Total GULP energy -111625.932047 kJ/mol
# GULP energy per Si atom -5581.296602 kJ/mol
# Density = 2.559843 g / cm^3
# Si number density = 25.656825 Si / 1000 Ang^3
#
#
#
# Elastic Constant Matrix: (Units=GPa)
#
#
# Indices 1 2 3 4 5 6 
#
# 1 111.8590 3.8959 54.5939 0.0000 -13.2397 0.0000
# 2 3.8959 38.9571 34.6893 0.0000 8.2131 0.0000
# 3 54.5939 34.6893 292.3834 0.0000 -16.5827 0.0000
# 4 0.0000 0.0000 0.0000 7.3206 0.0000 -0.2469
# 5 -13.2397 8.2131 -16.5827 0.0000 55.8501 0.0000
# 6 0.0000 0.0000 0.0000 -0.2469 0.0000 18.3002
#
#
#
# Elastic Compliance Matrix: (Units=1/GPa)
#
#
# Indices 1 2 3 4 5 6 
#
# 1 0.010022 0.000213 -0.001794 0.000000 0.001812 0.000000
# 2 0.000213 0.030350 -0.003958 0.000000 -0.005588 0.000000
# 3 -0.001794 -0.003958 0.004306 0.000000 0.001435 0.000000
# 4 0.000000 0.000000 0.000000 0.136663 0.000000 0.001844
# 5 0.001812 -0.005588 0.001435 0.000000 0.019582 0.000000
# 6 0.000000 0.000000 0.000000 0.001844 0.000000 0.054669
#
#
# Mechanical properties :
#
#
# Convention : Reuss Voigt Hill
#
# Bulk Modulus (GPa) = 29.76039 69.95088 49.85564
# Shear Modulus (GPa) = 17.99399 39.62885 28.81142
#
# Velocity S-wave (km/s) = 2.65114 3.93437 3.35469
# Velocity P-wave (km/s) = 4.58214 6.92548 5.87189
#
# Compressibility (1/GPa) = 0.03360171
#
# Stress axis : x y z
#
# Youngs Moduli (GPa) = 99.77651 32.94903 232.23090
#
# Poissons Ratio (x) = -0.00702 0.41660
# Poissons Ratio (y) = -0.02126 0.91906
# Poissons Ratio (z) = 0.17899 0.13040
#
# Static dielectric constant tensor:
#      x y z
#    x 2.063840 0.000000 -0.027160 
#    y 0.000000 2.111050 0.000000 
#    z -0.027160 0.000000 2.208400 
# 
# From -- ./inp_files/144556.got.cif
#   From: 2010.05.17/outbox.cif.g08.bks.cpg/sg15_73_cif.got.tgz:144556.got - 2010.06.03 18:47:42.
