data_PCOD9255140
_publ_section_title
;
Structure prediction by ZEFSAII (Michael W. Deem and Ramdas Pophale) SiO2 
 PCOD9255140
Probable space group: C 2/C
;
_chemical_formula_sum "Si O2"
_cell_formula_units_Z 56
_cell_length_a 18.254357
_cell_length_b 9.690842
_cell_length_c 14.313035
_cell_angle_alpha 90.000000
_cell_angle_beta 118.438907
_cell_angle_gamma 90.000000
_cell_volume 2226.431827
_symmetry_space_group_name_H-M "C 2/C"
_symmetry_group_IT_number 15
_symmetry_cell_setting 'monoclinic'
loop_
_space_group_symop_operation_xyz
x,y,z
-x,y,1/2-z
-x,-y,-z
x,-y,1/2+z
1/2+x,1/2+y,z
1/2-x,1/2+y,1/2-z
1/2-x,1/2-y,-z
1/2+x,1/2-y,1/2+z
loop_
_atom_site_type_symbol
_atom_site_label
_atom_site_fract_x
_atom_site_fract_y
_atom_site_fract_z
Si Si1 0.681914 0.841210 0.405497
Si Si2 0.994074 0.356861 0.844653
Si Si3 0.816868 0.039712 0.876759
Si Si4 0.884153 0.085473 0.736948
Si Si5 0.940433 0.796297 0.800342
Si Si6 0.928205 0.314137 0.991478
Si Si7 0.160079 0.809101 0.478508
O O1 0.750000 0.750000 0.500000
O O2 0.731676 0.958964 0.383112
O O3 0.645494 0.753855 0.296451
O O4 0.620065 0.883343 0.451267
O O5 0.085782 0.301897 0.926348
O O6 0.000000 0.438883 0.750000
O O7 0.935777 0.224795 0.781865
O O8 0.944334 0.401494 0.907480
O O9 0.806656 0.068604 0.760521
O O10 0.878320 0.168156 0.942384
O O11 0.847634 0.889286 0.927759
O O12 0.860514 0.077148 0.614852
O O13 0.940507 0.960910 0.807432
O O14 0.000000 0.763668 0.750000
O O15 0.982277 0.726536 0.913409
O O16 0.250000 0.750000 0.500000
#
# Coordination Sequence:
#
# PCOD9255140 Si02
#       7
#     8   8   8   8   8   8   8
#     4   9  18  31  49  76 107 132 165 211 264 317
#     4   9  18  33  52  75 105 135 173 217 263 318
#     4  10  20  34  51  77 109 139 173 217 268 320
#     4  10  19  32  54  78 104 138 174 220 273 314
#     4  10  17  28  51  79 102 129 172 221 266 311
#     4   9  17  31  55  81 102 133 174 224 271 307
#     4  11  22  35  52  78 112 144 177 218 265 322
#
# _framework density 25.152353999999999
#
# number of rings (size 3 to 8) (size 9 to 14) (size 15 to 20)
#    0.000    2.286    0.000    5.571    0.000    4.571 
#    0.000    2.857    0.000    8.571    0.000    0.000 
#    0.000    0.000    0.000    0.000    0.000    0.000 
#
# Total GULP energy -156207.578069 kJ/mol
# GULP energy per Si atom -5578.842074 kJ/mol
# Density = 2.509511 g / cm^3
# Si number density = 25.152354 Si / 1000 Ang^3
#
#
#
# Elastic Constant Matrix: (Units=GPa)
#
#
# Indices 1 2 3 4 5 6 
#
# 1 142.9516 0.6818 17.0855 0.0000 -35.4157 0.0000
# 2 0.6818 59.9417 -11.6166 0.0000 -7.3700 0.0000
# 3 17.0855 -11.6166 40.4454 0.0000 -15.7032 0.0000
# 4 0.0000 0.0000 0.0000 23.0024 0.0000 0.9865
# 5 -35.4157 -7.3700 -15.7032 0.0000 43.6221 0.0000
# 6 0.0000 0.0000 0.0000 0.9865 0.0000 16.3745
#
#
#
# Elastic Compliance Matrix: (Units=1/GPa)
#
#
# Indices 1 2 3 4 5 6 
#
# 1 0.008817 0.000588 -0.000858 0.000000 0.006948 0.000000
# 2 0.000588 0.018963 0.007704 0.000000 0.006454 0.000000
# 3 -0.000858 0.007704 0.032008 0.000000 0.012128 0.000000
# 4 0.000000 0.000000 0.000000 0.043586 0.000000 -0.002626
# 5 0.006948 0.006454 0.012128 0.000000 0.034022 0.000000
# 6 0.000000 0.000000 0.000000 -0.002626 0.000000 0.061229
#
#
# Mechanical properties :
#
#
# Convention : Reuss Voigt Hill
#
# Bulk Modulus (GPa) = 13.39478 28.40447 20.89963
# Shear Modulus (GPa) = 23.96453 32.41234 28.18843
#
# Velocity S-wave (km/s) = 3.09005 3.59366 3.35133
# Velocity P-wave (km/s) = 4.25068 5.34197 4.82726
#
# Compressibility (1/GPa) = 0.07465593
#
# Stress axis : x y z
#
# Youngs Moduli (GPa) = 113.42322 52.73478 31.24177
#
# Poissons Ratio (x) = -0.03100 0.02680
# Poissons Ratio (y) = -0.06667 -0.24069
# Poissons Ratio (z) = 0.09730 -0.40627
#
# Static dielectric constant tensor:
#      x y z
#    x 2.158600 0.000000 0.049000 
#    y 0.000000 1.992150 0.000000 
#    z 0.049000 0.000000 2.106430 
# 
# From -- ./inp_files/161403.got.cif
#   From: 2010.05.17/outbox.cif.g08.bks.cpg/sg15_81_cif.got.tgz:161403.got - 2010.06.03 18:47:42.
