data_PCOD9255050
_publ_section_title
;
Structure prediction by ZEFSAII (Michael W. Deem and Ramdas Pophale) SiO2 
 PCOD9255050
Probable space group: C 2/C
;
_chemical_formula_sum "Si O2"
_cell_formula_units_Z 64
_cell_length_a 14.309214
_cell_length_b 20.545380
_cell_length_c 14.680307
_cell_angle_alpha 90.000000
_cell_angle_beta 140.432629
_cell_angle_gamma 90.000000
_cell_volume 2749.124213
_symmetry_space_group_name_H-M "C 2/C"
_symmetry_group_IT_number 15
_symmetry_cell_setting 'monoclinic'
loop_
_space_group_symop_operation_xyz
x,y,z
-x,y,1/2-z
-x,-y,-z
x,-y,1/2+z
1/2+x,1/2+y,z
1/2-x,1/2+y,1/2-z
1/2-x,1/2-y,-z
1/2+x,1/2-y,1/2+z
loop_
_atom_site_type_symbol
_atom_site_label
_atom_site_fract_x
_atom_site_fract_y
_atom_site_fract_z
Si Si1 0.566799 0.701851 0.167609
Si Si2 0.932068 0.518970 0.547464
Si Si3 0.441238 0.454293 0.106495
Si Si4 0.162603 0.576648 0.293657
Si Si5 0.849699 0.066295 0.244392
Si Si6 0.382165 0.793302 0.814795
Si Si7 0.544374 0.159217 0.620966
Si Si8 0.888122 0.844194 0.366521
O O1 0.618832 0.639933 0.265487
O O2 0.711923 0.714287 0.215565
O O3 0.527163 0.774826 0.167395
O O4 0.438885 0.675740 0.006009
O O5 0.020315 0.467680 0.673751
O O6 0.974996 0.592901 0.604961
O O7 0.000000 0.500000 0.500000
O O8 0.757616 0.524566 0.401057
O O9 0.500000 0.435051 0.250000
O O10 0.499998 0.527063 0.133535
O O11 0.527110 0.407024 0.102147
O O12 0.271820 0.444099 0.955423
O O13 0.262175 0.570503 0.274932
O O14 0.116836 0.652192 0.261357
O O15 0.431907 0.719190 0.838760
O O16 0.468730 0.823153 0.966914
O O17 0.715331 0.144443 0.734075
#
# Coordination Sequence:
#
# PCOD9255050 Si02
#       8
#     8   8   8   8   8   8   8   8
#     4   9  17  30  51  81 113 136 165 223 267 318
#     4  10  17  29  53  83 111 133 169 220 276 320
#     4  12  25  38  51  74 109 149 189 222 261 320
#     4  10  19  35  56  80 106 133 179 229 272 315
#     4  10  19  35  55  78 103 137 176 229 272 309
#     4   9  16  31  50  76 111 137 168 226 261 311
#     4  10  17  27  51  88 114 131 169 218 277 318
#     4  10  19  30  52  75 109 144 175 215 271 312
#
# _framework density 23.280141
#
# number of rings (size 3 to 8) (size 9 to 14) (size 15 to 20)
#    0.000    2.000    6.250    1.875    1.750    0.000 
#    0.000    1.250    0.000    0.000    0.000    3.500 
#    0.000    0.000    0.000    0.000    0.000    0.000 
#
# Total GULP energy -178630.498963 kJ/mol
# GULP energy per Si atom -5582.203093 kJ/mol
# Density = 2.322715 g / cm^3
# Si number density = 23.280141 Si / 1000 Ang^3
#
#
#
# Elastic Constant Matrix: (Units=GPa)
#
#
# Indices 1 2 3 4 5 6 
#
# 1 46.2521 -8.2909 24.8122 0.0000 -2.3727 0.0000
# 2 -8.2909 118.4883 12.1095 0.0000 5.4101 0.0000
# 3 24.8122 12.1095 135.4360 0.0000 24.1374 0.0000
# 4 0.0000 0.0000 0.0000 37.5365 0.0000 16.4763
# 5 -2.3727 5.4101 24.1374 0.0000 32.5501 0.0000
# 6 0.0000 0.0000 0.0000 16.4763 0.0000 -23.2540
#
#
#
# Elastic Compliance Matrix: (Units=1/GPa)
#
#
# Indices 1 2 3 4 5 6 
#
# 1 0.025469 0.002117 -0.005904 0.000000 0.005883 0.000000
# 2 0.002117 0.008721 -0.001079 0.000000 -0.000495 0.000000
# 3 -0.005904 -0.001079 0.009917 0.000000 -0.007605 0.000000
# 4 0.000000 0.000000 0.000000 0.020321 0.000000 0.014398
# 5 0.005883 -0.000495 -0.007605 0.000000 0.036872 0.000000
# 6 0.000000 0.000000 0.000000 0.014398 0.000000 -0.032802
#
#
# Mechanical properties :
#
#
# Convention : Reuss Voigt Hill
#
# Bulk Modulus (GPa) = 29.09151 39.71535 34.40343
# Shear Modulus (GPa) = 55.74874 27.46956 41.60915
#
# Velocity S-wave (km/s) = 4.89887 3.43878 4.23226
# Velocity P-wave (km/s) = 6.67248 5.73269 6.22036
#
# Compressibility (1/GPa) = 0.03437428
#
# Stress axis : x y z
#
# Youngs Moduli (GPa) = 39.26356 114.67006 100.83737
#
# Poissons Ratio (x) = -0.24274 0.59531
# Poissons Ratio (y) = -0.08312 0.10884
# Poissons Ratio (z) = 0.23180 0.12377
#
# Static dielectric constant tensor:
#      x y z
#    x 2.053620 0.000000 0.028340 
#    y 0.000000 1.916030 0.000000 
#    z 0.028340 0.000000 1.904130 
# 
# From -- ./inp_files/63276.got.cif
#   From: 2010.05.17/outbox.cif.g08.bks.cpg/sg15_32_cif.got.tgz:63276.got - 2010.06.03 18:47:42.
