data_PCOD9255835
_publ_section_title
;
Structure prediction by ZEFSAII (Michael W. Deem and Ramdas Pophale) SiO2 
 PCOD9255835
Probable space group: C 2/C
;
_chemical_formula_sum "Si O2"
_cell_formula_units_Z 52
_cell_length_a 26.481609
_cell_length_b 18.973408
_cell_length_c 25.313043
_cell_angle_alpha 90.000000
_cell_angle_beta 163.572742
_cell_angle_gamma 90.000000
_cell_volume 3596.748860
_symmetry_space_group_name_H-M "C 2/C"
_symmetry_group_IT_number 15
_symmetry_cell_setting 'monoclinic'
loop_
_space_group_symop_operation_xyz
x,y,z
-x,y,1/2-z
-x,-y,-z
x,-y,1/2+z
1/2+x,1/2+y,z
1/2-x,1/2+y,1/2-z
1/2-x,1/2-y,-z
1/2+x,1/2-y,1/2+z
loop_
_atom_site_type_symbol
_atom_site_label
_atom_site_fract_x
_atom_site_fract_y
_atom_site_fract_z
Si Si1 0.237482 0.017470 0.689601
Si Si2 0.324395 0.544768 0.261586
Si Si3 0.672470 0.157076 0.762873
Si Si4 0.001458 0.472110 0.365733
Si Si5 0.423052 0.310858 0.816897
Si Si6 0.000000 0.438226 0.250000
Si Si7 0.808246 0.174853 0.082079
O O1 0.296248 0.100346 0.752772
O O2 0.359009 0.992114 0.762614
O O3 0.027516 0.016363 0.464234
O O4 0.259269 0.977691 0.766443
O O5 0.340228 0.628850 0.270680
O O6 0.196797 0.518444 0.086610
O O7 0.552116 0.111103 0.681625
O O8 0.590725 0.233347 0.672073
O O9 0.869598 0.170121 0.983482
O O10 0.983778 0.485117 0.286382
O O11 0.329670 0.314381 0.666360
O O12 0.168269 0.386210 0.427743
O O13 0.000000 0.156431 0.250000
O O14 0.750000 0.250000 0.000000
#
# Coordination Sequence:
#
# PCOD9255835 Si02
#       7
#     8   8   8   8   8   4   8
#     4   8  20  32  47  65  79 111 155 185 223 270
#     4  10  17  33  49  61  83 112 152 188 226 254
#     4   9  20  29  43  62  86 111 154 184 219 257
#     4  10  19  32  44  61  86 113 151 178 220 260
#     4  11  18  31  42  62  86 118 150 189 215 255
#     4  12  22  30  40  64  84 120 148 184 214 260
#     4  12  23  29  40  56  87 120 155 184 213 244
#
# _framework density 14.457501000000001
#
# number of rings (size 3 to 8) (size 9 to 14) (size 15 to 20)
#    0.923    0.923    2.308    4.154    0.000    0.000 
#    0.000    0.000    0.000    0.000    0.000    0.000 
#    0.000    0.000    0.000    1.385    6.615    0.000 
#
# Total GULP energy -144750.217068 kJ/mol
# GULP energy per Si atom -5567.316041 kJ/mol
# Density = 1.442460 g / cm^3
# Si number density = 14.457501 Si / 1000 Ang^3
#
#
#
# Elastic Constant Matrix: (Units=GPa)
#
#
# Indices 1 2 3 4 5 6 
#
# 1 81.2622 26.0117 26.6608 0.0043 -9.7794 0.0037
# 2 26.0117 29.5604 12.4990 0.0249 -10.6415 0.0176
# 3 26.6608 12.4990 57.3568 -0.0114 -1.1926 -0.0073
# 4 0.0043 0.0249 -0.0114 15.8537 0.0029 -0.4541
# 5 -9.7794 -10.6415 -1.1926 0.0029 24.0946 0.0032
# 6 0.0037 0.0176 -0.0073 -0.4541 0.0032 24.4995
#
#
#
# Elastic Compliance Matrix: (Units=1/GPa)
#
#
# Indices 1 2 3 4 5 6 
#
# 1 0.018670 -0.013546 -0.005699 0.000012 0.001313 0.000005
# 2 -0.013546 0.054553 -0.005210 -0.000090 0.018338 -0.000043
# 3 -0.005699 -0.005210 0.021145 0.000026 -0.003568 0.000012
# 4 0.000012 -0.000090 0.000026 0.063110 -0.000042 0.001170
# 5 0.001313 0.018338 -0.003568 -0.000042 0.049958 -0.000022
# 6 0.000005 -0.000043 0.000012 0.001170 -0.000022 0.040839
#
#
# Mechanical properties :
#
#
# Convention : Reuss Voigt Hill
#
# Bulk Modulus (GPa) = 21.99856 33.16915 27.58386
# Shear Modulus (GPa) = 16.00827 19.75675 17.88251
#
# Velocity S-wave (km/s) = 3.33117 3.70068 3.52078
# Velocity P-wave (km/s) = 5.48130 6.42280 5.97064
#
# Compressibility (1/GPa) = 0.04545752
#
# Stress axis : x y z
#
# Youngs Moduli (GPa) = 53.56318 18.33063 47.29266
#
# Poissons Ratio (x) = 0.24831 0.26951
# Poissons Ratio (y) = 0.72557 0.24641
# Poissons Ratio (z) = 0.30525 0.09551
#
# Static dielectric constant tensor:
#      x y z
#    x 1.504480 -0.000010 0.025340 
#    y -0.000010 1.461950 -0.000010 
#    z 0.025340 -0.000010 1.513880 
# 
# From -- ./inp_files/256152.got.cif
#   From: 2010.05.17/outbox.cif.g08.bks.cpg/sg15_129_cif.got.tgz:256152.got - 2010.06.03 18:47:42.
