data_PCOD9255971
_publ_section_title
;
Structure prediction by ZEFSAII (Michael W. Deem and Ramdas Pophale) SiO2 
 PCOD9255971
Probable space group: C 2/C
;
_chemical_formula_sum "Si O2"
_cell_formula_units_Z 60
_cell_length_a 17.697599
_cell_length_b 10.664872
_cell_length_c 14.828260
_cell_angle_alpha 90.000000
_cell_angle_beta 92.238704
_cell_angle_gamma 90.000000
_cell_volume 2796.588655
_symmetry_space_group_name_H-M "C 2/C"
_symmetry_group_IT_number 15
_symmetry_cell_setting 'monoclinic'
loop_
_space_group_symop_operation_xyz
x,y,z
-x,y,1/2-z
-x,-y,-z
x,-y,1/2+z
1/2+x,1/2+y,z
1/2-x,1/2+y,1/2-z
1/2-x,1/2-y,-z
1/2+x,1/2-y,1/2+z
loop_
_atom_site_type_symbol
_atom_site_label
_atom_site_fract_x
_atom_site_fract_y
_atom_site_fract_z
Si Si1 0.355699 0.399994 0.916829
Si Si2 0.897234 0.807087 0.395754
Si Si3 0.335748 0.181970 0.779069
Si Si4 0.977986 0.834934 0.573954
Si Si5 0.000000 0.677252 0.750000
Si Si6 0.703570 0.570257 0.891319
Si Si7 0.242089 0.784428 0.893659
Si Si8 0.958906 0.911800 0.164050
O O1 0.369266 0.546659 0.893392
O O2 0.337290 0.321483 0.825623
O O3 0.434494 0.334534 0.950640
O O4 0.302120 0.393670 0.002504
O O5 0.921456 0.779468 0.499077
O O6 0.828957 0.720644 0.362868
O O7 0.978318 0.805750 0.350441
O O8 0.419858 0.121056 0.779951
O O9 0.277954 0.112840 0.842745
O O10 0.302605 0.193529 0.676533
O O11 0.972364 0.761961 0.666076
O O12 0.960057 0.980954 0.588263
O O13 0.704328 0.419895 0.886644
O O14 0.628659 0.622480 0.836176
O O15 0.250000 0.750000 0.000000
O O16 0.000000 0.978435 0.250000
#
# Coordination Sequence:
#
# PCOD9255971 Si02
#       8
#     8   8   8   8   4   8   8   8
#     4  10  20  38  63  93 127 160 209 260 318 376
#     4  11  20  37  60  91 127 159 200 261 325 380
#     4  11  26  39  65  91 125 168 215 259 314 380
#     4  10  17  33  61  92 119 155 199 261 314 368
#     4  10  20  38  60  86 120 168 212 250 302 382
#     4  12  23  41  63  96 131 167 211 264 319 378
#     4  12  25  40  63  94 130 166 207 263 327 383
#     4  11  19  31  59  91 125 153 202 258 317 365
#
# _framework density 21.454711
#
# number of rings (size 3 to 8) (size 9 to 14) (size 15 to 20)
#    0.000    1.067    4.667    3.600    5.600    0.000 
#    0.000    0.000    4.400    7.200    0.000    0.000 
#    0.000    0.000    0.000    0.000    0.000    0.000 
#
# Total GULP energy -167255.126391 kJ/mol
# GULP energy per Si atom -5575.170880 kJ/mol
# Density = 2.140588 g / cm^3
# Si number density = 21.454711 Si / 1000 Ang^3
#
#
#
# Elastic Constant Matrix: (Units=GPa)
#
#
# Indices 1 2 3 4 5 6 
#
# 1 155.1620 7.4989 37.7826 0.0000 -23.8109 0.0000
# 2 7.4989 11.0149 3.9723 0.0000 -6.0860 0.0000
# 3 37.7826 3.9723 90.9190 0.0000 -3.7525 0.0000
# 4 0.0000 0.0000 0.0000 14.8660 0.0000 -3.9959
# 5 -23.8109 -6.0860 -3.7525 0.0000 43.5328 0.0000
# 6 0.0000 0.0000 0.0000 -3.9959 0.0000 28.9937
#
#
#
# Elastic Compliance Matrix: (Units=1/GPa)
#
#
# Indices 1 2 3 4 5 6 
#
# 1 0.007858 -0.002201 -0.003015 0.000000 0.003730 0.000000
# 2 -0.002201 0.100289 -0.002948 0.000000 0.012563 0.000000
# 3 -0.003015 -0.002948 0.012339 0.000000 -0.000998 0.000000
# 4 0.000000 0.000000 0.000000 0.069855 0.000000 0.009627
# 5 0.003730 0.012563 -0.000998 0.000000 0.026682 0.000000
# 6 0.000000 0.000000 0.000000 0.009627 0.000000 0.035817
#
#
# Mechanical properties :
#
#
# Convention : Reuss Voigt Hill
#
# Bulk Modulus (GPa) = 9.60091 39.51147 24.55619
# Shear Modulus (GPa) = 16.45333 31.33464 23.89398
#
# Velocity S-wave (km/s) = 2.77228 3.82580 3.34083
# Velocity P-wave (km/s) = 3.83823 6.16213 5.13341
#
# Compressibility (1/GPa) = 0.10415684
#
# Stress axis : x y z
#
# Youngs Moduli (GPa) = 127.25943 9.97116 81.04057
#
# Poissons Ratio (x) = 0.02195 0.24437
# Poissons Ratio (y) = 0.28011 0.23894
# Poissons Ratio (z) = 0.38373 0.02940
#
# Static dielectric constant tensor:
#      x y z
#    x 1.879910 0.000000 -0.046240 
#    y 0.000000 1.753320 0.000000 
#    z -0.046240 0.000000 1.931890 
# 
# From -- ./inp_files/160921.got.cif
#   From: 2010.05.17/outbox.cif.g08.bks.cpg/sg15_81_cif.got.tgz:160921.got - 2010.06.03 18:47:42.
