data_PCOD9255409
_publ_section_title
;
Structure prediction by ZEFSAII (Michael W. Deem and Ramdas Pophale) SiO2 
 PCOD9255409
Probable space group: C 2/C
;
_chemical_formula_sum "Si O2"
_cell_formula_units_Z 56
_cell_length_a 27.898262
_cell_length_b 15.566366
_cell_length_c 14.989264
_cell_angle_alpha 90.000000
_cell_angle_beta 152.730932
_cell_angle_gamma 90.000000
_cell_volume 2982.435848
_symmetry_space_group_name_H-M "C 2/C"
_symmetry_group_IT_number 15
_symmetry_cell_setting 'monoclinic'
loop_
_space_group_symop_operation_xyz
x,y,z
-x,y,1/2-z
-x,-y,-z
x,-y,1/2+z
1/2+x,1/2+y,z
1/2-x,1/2+y,1/2-z
1/2-x,1/2-y,-z
1/2+x,1/2-y,1/2+z
loop_
_atom_site_type_symbol
_atom_site_label
_atom_site_fract_x
_atom_site_fract_y
_atom_site_fract_z
Si Si1 0.602764 0.082006 0.480539
Si Si2 0.342043 0.362975 0.557733
Si Si3 0.662543 0.582552 0.654428
Si Si4 0.532687 0.743325 0.441353
Si Si5 0.115146 0.605689 0.981762
Si Si6 0.171509 0.909410 0.765764
Si Si7 0.383659 0.783698 0.342697
O O1 0.500000 0.080913 0.250000
O O2 0.715293 0.098162 0.620784
O O3 0.590343 0.156484 0.531530
O O4 0.618117 0.983839 0.541629
O O5 0.347707 0.410744 0.471338
O O6 0.437728 0.296041 0.725117
O O7 0.344156 0.416972 0.653398
O O8 0.232247 0.312606 0.378621
O O9 0.592111 0.659374 0.574482
O O10 0.631540 0.491462 0.644764
O O11 0.619299 0.805390 0.541667
O O12 0.470717 0.797678 0.411841
O O13 0.000000 0.609193 0.750000
O O14 0.206002 0.598943 0.058830
O O15 0.121019 0.819008 0.652291
#
# Coordination Sequence:
#
# PCOD9255409 Si02
#       7
#     8   8   8   8   8   8   8
#     4   9  20  37  53  74 108 145 179 223 271 319
#     4  10  20  35  57  82 112 141 176 228 272 312
#     4  10  21  36  55  81 109 140 180 224 268 318
#     4  11  20  33  56  84 109 137 180 229 268 314
#     4  10  17  30  55  78 100 135 177 224 269 307
#     4  10  20  35  54  79 111 143 178 219 270 324
#     4  10  20  35  55  81 111 144 179 220 270 322
#
# _framework density 18.776598
#
# number of rings (size 3 to 8) (size 9 to 14) (size 15 to 20)
#    0.000    2.000    0.000    6.429    0.000    2.857 
#    0.000   10.714    0.000    0.000    0.000    0.000 
#    0.000    0.000    0.000    0.000    0.000    0.000 
#
# Total GULP energy -156009.231883 kJ/mol
# GULP energy per Si atom -5571.758282 kJ/mol
# Density = 1.873386 g / cm^3
# Si number density = 18.776598 Si / 1000 Ang^3
#
#
#
# Elastic Constant Matrix: (Units=GPa)
#
#
# Indices 1 2 3 4 5 6 
#
# 1 78.9729 18.5540 10.6373 0.0000 -2.8407 0.0000
# 2 18.5540 83.2221 28.9551 0.0000 -16.3463 0.0000
# 3 10.6373 28.9551 60.7314 0.0000 4.2289 0.0000
# 4 0.0000 0.0000 0.0000 18.1304 0.0000 6.9823
# 5 -2.8407 -16.3463 4.2289 0.0000 24.7155 0.0000
# 6 0.0000 0.0000 0.0000 6.9823 0.0000 28.8150
#
#
#
# Elastic Compliance Matrix: (Units=1/GPa)
#
#
# Indices 1 2 3 4 5 6 
#
# 1 0.013424 -0.002605 -0.001110 0.000000 0.000010 0.000000
# 2 -0.002605 0.018488 -0.009300 0.000000 0.013519 0.000000
# 3 -0.001110 -0.009300 0.021791 0.000000 -0.010007 0.000000
# 4 0.000000 0.000000 0.000000 0.060833 0.000000 -0.014741
# 5 0.000010 0.013519 -0.010007 0.000000 0.051115 0.000000
# 6 0.000000 0.000000 0.000000 -0.014741 0.000000 0.038276
#
#
# Mechanical properties :
#
#
# Convention : Reuss Voigt Hill
#
# Bulk Modulus (GPa) = 36.13476 37.69104 36.91290
# Shear Modulus (GPa) = 20.90466 25.31751 23.11109
#
# Velocity S-wave (km/s) = 3.34029 3.67598 3.51215
# Velocity P-wave (km/s) = 5.84492 6.17528 6.01237
#
# Compressibility (1/GPa) = 0.02767419
#
# Stress axis : x y z
#
# Youngs Moduli (GPa) = 74.49117 54.08985 45.89045
#
# Poissons Ratio (x) = 0.14088 0.05095
# Poissons Ratio (y) = 0.19402 0.42677
# Poissons Ratio (z) = 0.08270 0.50302
#
# Static dielectric constant tensor:
#      x y z
#    x 1.702480 0.000000 0.000300 
#    y 0.000000 1.679640 0.000000 
#    z 0.000300 0.000000 1.652110 
# 
# From -- ./inp_files/182165.got.cif
#   From: 2010.05.17/outbox.cif.g08.bks.cpg/sg15_92_cif.got.tgz:182165.got - 2010.06.03 18:47:42.
