data_PCOD9255862
_publ_section_title
;
Structure prediction by ZEFSAII (Michael W. Deem and Ramdas Pophale) SiO2 
 PCOD9255862
Probable space group: C 2/C
;
_chemical_formula_sum "Si O2"
_cell_formula_units_Z 56
_cell_length_a 8.000968
_cell_length_b 16.814783
_cell_length_c 19.430353
_cell_angle_alpha 90.000000
_cell_angle_beta 100.804385
_cell_angle_gamma 90.000000
_cell_volume 2567.714045
_symmetry_space_group_name_H-M "C 2/C"
_symmetry_group_IT_number 15
_symmetry_cell_setting 'monoclinic'
loop_
_space_group_symop_operation_xyz
x,y,z
-x,y,1/2-z
-x,-y,-z
x,-y,1/2+z
1/2+x,1/2+y,z
1/2-x,1/2+y,1/2-z
1/2-x,1/2-y,-z
1/2+x,1/2-y,1/2+z
loop_
_atom_site_type_symbol
_atom_site_label
_atom_site_fract_x
_atom_site_fract_y
_atom_site_fract_z
Si Si1 0.587396 0.126657 0.168110
Si Si2 0.829529 0.343980 0.056562
Si Si3 0.874705 0.822428 0.591484
Si Si4 0.153079 0.167948 0.207752
Si Si5 0.106469 0.206579 0.819643
Si Si6 0.625443 0.019958 0.444142
Si Si7 0.718048 0.835845 0.031773
O O1 0.735054 0.129108 0.122197
O O2 0.690408 0.118281 0.247924
O O3 0.494952 0.213122 0.163866
O O4 0.465504 0.060608 0.127858
O O5 0.840227 0.270113 0.109310
O O6 0.806959 0.434954 0.075611
O O7 0.016301 0.336725 0.035057
O O8 0.675466 0.327879 0.991690
O O9 0.060536 0.850172 0.628804
O O10 0.227411 0.255809 0.203405
O O11 0.000000 0.165314 0.250000
O O12 0.167914 0.159284 0.890711
O O13 0.000000 0.166784 0.750000
O O14 0.745552 0.087888 0.485704
O O15 0.500000 0.000000 0.500000
O O16 0.750000 0.750000 0.000000
#
# Coordination Sequence:
#
# PCOD9255862 Si02
#       7
#     8   8   8   8   8   8   8
#     4  10  18  33  56  82 107 147 190 233 277 342
#     4  10  20  31  56  81 112 146 186 233 277 332
#     4  10  17  33  53  83 106 145 190 228 274 332
#     4   9  19  31  55  82 109 143 192 233 275 337
#     4  10  19  33  55  84 111 144 190 233 285 343
#     4  10  19  33  53  85 112 146 189 229 280 337
#     4  11  18  32  56  83 106 148 186 231 276 339
#
# _framework density 21.809282
#
# number of rings (size 3 to 8) (size 9 to 14) (size 15 to 20)
#    0.000    2.000    5.714    0.000    0.000    0.000 
#    0.000    0.000    6.286   21.429    0.000    0.000 
#    0.000    0.000    0.000    0.000    0.000    0.000 
#
# Total GULP energy -156018.023074 kJ/mol
# GULP energy per Si atom -5572.072253 kJ/mol
# Density = 2.175964 g / cm^3
# Si number density = 21.809282 Si / 1000 Ang^3
#
#
#
# Elastic Constant Matrix: (Units=GPa)
#
#
# Indices 1 2 3 4 5 6 
#
# 1 47.7303 8.9337 32.9305 0.0000 15.9024 0.0000
# 2 8.9337 116.4328 58.6330 0.0000 18.9524 0.0000
# 3 32.9305 58.6330 179.7435 0.0000 48.1007 0.0000
# 4 0.0000 0.0000 0.0000 25.7626 0.0000 2.6576
# 5 15.9024 18.9524 48.1007 0.0000 40.4817 0.0000
# 6 0.0000 0.0000 0.0000 2.6576 0.0000 18.3432
#
#
#
# Elastic Compliance Matrix: (Units=1/GPa)
#
#
# Indices 1 2 3 4 5 6 
#
# 1 0.025123 0.000686 -0.003078 0.000000 -0.006532 0.000000
# 2 0.000686 0.010336 -0.003124 0.000000 -0.001397 0.000000
# 3 -0.003078 -0.003124 0.009430 0.000000 -0.008533 0.000000
# 4 0.000000 0.000000 0.000000 0.039405 0.000000 -0.005709
# 5 -0.006532 -0.001397 -0.008533 0.000000 0.038062 0.000000
# 6 0.000000 0.000000 0.000000 -0.005709 0.000000 0.055343
#
#
# Mechanical properties :
#
#
# Convention : Reuss Voigt Hill
#
# Bulk Modulus (GPa) = 29.53584 60.54456 45.04020
# Shear Modulus (GPa) = 24.99788 33.14480 29.07134
#
# Velocity S-wave (km/s) = 3.38924 3.90263 3.65496
# Velocity P-wave (km/s) = 5.37476 6.93748 6.20551
#
# Compressibility (1/GPa) = 0.03385718
#
# Stress axis : x y z
#
# Youngs Moduli (GPa) = 39.80431 96.74558 106.04597
#
# Poissons Ratio (x) = -0.06635 0.32644
# Poissons Ratio (y) = -0.02730 0.33124
# Poissons Ratio (z) = 0.12253 0.30219
#
# Static dielectric constant tensor:
#      x y z
#    x 1.876860 0.000000 -0.022430 
#    y 0.000000 1.785720 0.000000 
#    z -0.022430 0.000000 1.878390 
# 
# From -- ./inp_files/265326.got.cif
#   From: 2010.05.17/outbox.cif.g08.bks.cpg/sg15_133_cif.got.tgz:265326.got - 2010.06.03 18:47:42.
