data_PCOD9255689
_publ_section_title
;
Structure prediction by ZEFSAII (Michael W. Deem and Ramdas Pophale) SiO2 
 PCOD9255689
Probable space group: C 2/C
;
_chemical_formula_sum "Si O2"
_cell_formula_units_Z 52
_cell_length_a 10.973949
_cell_length_b 15.725442
_cell_length_c 19.976529
_cell_angle_alpha 90.000000
_cell_angle_beta 58.029321
_cell_angle_gamma 90.000000
_cell_volume 2924.456124
_symmetry_space_group_name_H-M "C 2/C"
_symmetry_group_IT_number 15
_symmetry_cell_setting 'monoclinic'
loop_
_space_group_symop_operation_xyz
x,y,z
-x,y,1/2-z
-x,-y,-z
x,-y,1/2+z
1/2+x,1/2+y,z
1/2-x,1/2+y,1/2-z
1/2-x,1/2-y,-z
1/2+x,1/2-y,1/2+z
loop_
_atom_site_type_symbol
_atom_site_label
_atom_site_fract_x
_atom_site_fract_y
_atom_site_fract_z
Si Si1 0.688497 0.853456 0.324732
Si Si2 0.000000 0.796832 0.250000
Si Si3 0.460923 0.192856 0.125176
Si Si4 0.732610 0.137600 0.536796
Si Si5 0.341958 0.235886 0.804617
Si Si6 0.476889 0.001535 0.426853
Si Si7 0.484257 0.746830 0.475326
O O1 0.673061 0.830031 0.251790
O O2 0.601349 0.939089 0.363692
O O3 0.612214 0.778373 0.390761
O O4 0.855872 0.852608 0.293087
O O5 0.002717 0.738238 0.315707
O O6 0.288293 0.199062 0.166623
O O7 0.511167 0.096282 0.104308
O O8 0.520805 0.243750 0.042729
O O9 0.678265 0.183958 0.620614
O O10 0.674186 0.042398 0.549469
O O11 0.643417 0.185162 0.504211
O O12 0.901577 0.158863 0.483282
O O13 0.500000 0.274321 0.750000
O O14 0.500000 0.000000 0.500000
#
# Coordination Sequence:
#
# PCOD9255689 Si02
#       7
#     8   4   8   8   8   8   8
#     4  10  20  35  58  76 110 143 183 213 270 320
#     4  10  24  40  52  76 110 154 180 208 260 344
#     4  10  21  34  53  80 108 138 182 219 271 319
#     4   9  17  28  53  80 107 128 176 224 267 308
#     4  10  17  32  53  81 101 140 183 225 258 315
#     4  11  19  33  54  85 106 136 176 229 274 309
#     4   9  16  31  53  80  99 139 176 221 254 319
#
# _framework density 17.781082999999999
#
# number of rings (size 3 to 8) (size 9 to 14) (size 15 to 20)
#    0.000    2.154    6.154    0.000    0.000    1.846 
#    1.385    0.000    0.000    0.923    0.000    0.000 
#    0.000    0.000    0.000    0.000    0.000    0.000 
#
# Total GULP energy -144809.083579 kJ/mol
# GULP energy per Si atom -5569.580138 kJ/mol
# Density = 1.774061 g / cm^3
# Si number density = 17.781083 Si / 1000 Ang^3
#
#
#
# Elastic Constant Matrix: (Units=GPa)
#
#
# Indices 1 2 3 4 5 6 
#
# 1 58.1728 9.7277 10.1793 0.0000 3.3414 0.0000
# 2 9.7277 58.7299 -5.4183 0.0000 2.3213 0.0000
# 3 10.1793 -5.4183 70.2418 0.0000 21.6842 0.0000
# 4 0.0000 0.0000 0.0000 25.4373 0.0000 -5.0754
# 5 3.3414 2.3213 21.6842 0.0000 37.0453 0.0000
# 6 0.0000 0.0000 0.0000 -5.0754 0.0000 19.8026
#
#
#
# Elastic Compliance Matrix: (Units=1/GPa)
#
#
# Indices 1 2 3 4 5 6 
#
# 1 0.018250 -0.003312 -0.002998 0.000000 0.000316 0.000000
# 2 -0.003312 0.017906 0.002582 0.000000 -0.002335 0.000000
# 3 -0.002998 0.002582 0.018109 0.000000 -0.010491 0.000000
# 4 0.000000 0.000000 0.000000 0.041431 0.000000 0.010619
# 5 0.000316 -0.002335 -0.010491 0.000000 0.033253 0.000000
# 6 0.000000 0.000000 0.000000 0.010619 0.000000 0.053220
#
#
# Mechanical properties :
#
#
# Convention : Reuss Voigt Hill
#
# Bulk Modulus (GPa) = 21.36316 24.01353 22.68835
# Shear Modulus (GPa) = 24.36309 27.96742 26.16525
#
# Velocity S-wave (km/s) = 3.70560 3.97025 3.84020
# Velocity P-wave (km/s) = 5.50901 5.87806 5.69653
#
# Compressibility (1/GPa) = 0.04680955
#
# Stress axis : x y z
#
# Youngs Moduli (GPa) = 54.79326 55.84669 55.22152
#
# Poissons Ratio (x) = 0.18496 0.16555
# Poissons Ratio (y) = 0.18147 -0.14258
# Poissons Ratio (z) = 0.16426 -0.14419
#
# Static dielectric constant tensor:
#      x y z
#    x 1.641110 0.000000 -0.013210 
#    y 0.000000 1.598630 0.000000 
#    z -0.013210 0.000000 1.639990 
# 
# From -- ./inp_files/197300.got.cif
#   From: 2010.05.17/outbox.cif.g08.bks.cpg/sg15_99_cif.got.tgz:197300.got - 2010.06.03 18:47:42.
