data_PCOD9255246
_publ_section_title
;
Structure prediction by ZEFSAII (Michael W. Deem and Ramdas Pophale) SiO2 
 PCOD9255246
Probable space group: C 2/C
;
_chemical_formula_sum "Si O2"
_cell_formula_units_Z 64
_cell_length_a 25.619476
_cell_length_b 9.163801
_cell_length_c 20.319815
_cell_angle_alpha 90.000000
_cell_angle_beta 126.268883
_cell_angle_gamma 90.000000
_cell_volume 3846.229535
_symmetry_space_group_name_H-M "C 2/C"
_symmetry_group_IT_number 15
_symmetry_cell_setting 'monoclinic'
loop_
_space_group_symop_operation_xyz
x,y,z
-x,y,1/2-z
-x,-y,-z
x,-y,1/2+z
1/2+x,1/2+y,z
1/2-x,1/2+y,1/2-z
1/2-x,1/2-y,-z
1/2+x,1/2-y,1/2+z
loop_
_atom_site_type_symbol
_atom_site_label
_atom_site_fract_x
_atom_site_fract_y
_atom_site_fract_z
Si Si1 0.377797 0.788362 0.870789
Si Si2 0.994554 0.172443 0.491564
Si Si3 0.664390 0.555994 0.768553
Si Si4 0.924713 0.657193 0.056099
Si Si5 0.686136 0.059130 0.626043
Si Si6 0.426554 0.712243 0.695629
Si Si7 0.618666 0.240772 0.691100
Si Si8 0.946622 0.474663 0.808736
O O1 0.433695 0.737848 0.962236
O O2 0.354603 0.651615 0.810228
O O3 0.323536 0.888748 0.862765
O O4 0.413234 0.898466 0.846820
O O5 0.964931 0.238075 0.536798
O O6 0.944818 0.216339 0.398204
O O7 0.000000 0.000000 0.500000
O O8 0.739883 0.584160 0.837593
O O9 0.620740 0.613505 0.796289
O O10 0.650035 0.386875 0.742932
O O11 0.905720 0.750321 0.106082
O O12 0.976621 0.534165 0.118477
O O13 0.864755 0.597144 0.969615
O O14 0.666076 0.157961 0.674614
O O15 0.500000 0.650591 0.750000
O O16 0.432916 0.866689 0.738480
O O17 0.589772 0.128131 0.723079
#
# Coordination Sequence:
#
# PCOD9255246 Si02
#       8
#     8   8   8   8   8   8   8   8
#     4   9  17  31  49  74 103 130 164 210 257 296
#     4  10  17  29  53  80 103 124 164 220 266 288
#     4  11  20  32  51  76 107 139 166 208 255 309
#     4   9  18  33  53  73 101 135 178 207 246 308
#     4  10  20  32  50  76 106 141 169 201 254 313
#     4   9  19  35  55  71  98 135 178 215 251 291
#     4  10  19  31  52  80 105 126 169 213 257 305
#     4   8  16  32  53  72  94 130 168 213 250 292
#
# _framework density 16.639672999999998
#
# number of rings (size 3 to 8) (size 9 to 14) (size 15 to 20)
#    0.000    2.500    1.250    2.250    0.000    3.500 
#    0.000    1.875    2.750    0.750    0.000    0.000 
#    0.000    0.000    0.000    0.000    0.000    0.000 
#
# Total GULP energy -178245.948831 kJ/mol
# GULP energy per Si atom -5570.185901 kJ/mol
# Density = 1.660180 g / cm^3
# Si number density = 16.639673 Si / 1000 Ang^3
#
#
#
# Elastic Constant Matrix: (Units=GPa)
#
#
# Indices 1 2 3 4 5 6 
#
# 1 94.3793 38.0231 37.2208 0.0000 17.8438 0.0000
# 2 38.0231 91.6753 22.5133 0.0000 12.4956 0.0000
# 3 37.2208 22.5133 56.5132 0.0000 7.7634 0.0000
# 4 0.0000 0.0000 0.0000 15.1301 0.0000 5.2164
# 5 17.8438 12.4956 7.7634 0.0000 23.5660 0.0000
# 6 0.0000 0.0000 0.0000 5.2164 0.0000 17.1444
#
#
#
# Elastic Compliance Matrix: (Units=1/GPa)
#
#
# Indices 1 2 3 4 5 6 
#
# 1 0.017063 -0.003872 -0.008592 0.000000 -0.008037 0.000000
# 2 -0.003872 0.013573 -0.002379 0.000000 -0.003481 0.000000
# 3 -0.008592 -0.002379 0.024336 0.000000 -0.000250 0.000000
# 4 0.000000 0.000000 0.000000 0.073839 0.000000 -0.022466
# 5 -0.008037 -0.003481 -0.000250 0.000000 0.050448 0.000000
# 6 0.000000 0.000000 0.000000 -0.022466 0.000000 0.065164
#
#
# Mechanical properties :
#
#
# Convention : Reuss Voigt Hill
#
# Bulk Modulus (GPa) = 39.54589 48.67581 44.11085
# Shear Modulus (GPa) = 17.69693 20.82215 19.25954
#
# Velocity S-wave (km/s) = 3.26473 3.54129 3.40582
# Velocity P-wave (km/s) = 6.16676 6.78508 6.48330
#
# Compressibility (1/GPa) = 0.02528708
#
# Stress axis : x y z
#
# Youngs Moduli (GPa) = 58.60564 73.67800 41.09192
#
# Poissons Ratio (x) = 0.28526 0.35305
# Poissons Ratio (y) = 0.22691 0.09774
# Poissons Ratio (z) = 0.50353 0.17525
#
# Static dielectric constant tensor:
#      x y z
#    x 1.575030 0.000000 -0.001520 
#    y 0.000000 1.580450 0.000000 
#    z -0.001520 0.000000 1.567620 
# 
# From -- ./inp_files/251927.got.cif
#   From: 2010.05.17/outbox.cif.g08.bks.cpg/sg15_126_cif.got.tgz:251927.got - 2010.06.03 18:47:42.
