data_PCOD9255350
_publ_section_title
;
Structure prediction by ZEFSAII (Michael W. Deem and Ramdas Pophale) SiO2 
 PCOD9255350
Probable space group: C 2/C
;
_chemical_formula_sum "Si O2"
_cell_formula_units_Z 64
_cell_length_a 26.892423
_cell_length_b 15.130217
_cell_length_c 9.699611
_cell_angle_alpha 90.000000
_cell_angle_beta 140.555227
_cell_angle_gamma 90.000000
_cell_volume 2507.446154
_symmetry_space_group_name_H-M "C 2/C"
_symmetry_group_IT_number 15
_symmetry_cell_setting 'monoclinic'
loop_
_space_group_symop_operation_xyz
x,y,z
-x,y,1/2-z
-x,-y,-z
x,-y,1/2+z
1/2+x,1/2+y,z
1/2-x,1/2+y,1/2-z
1/2-x,1/2-y,-z
1/2+x,1/2-y,1/2+z
loop_
_atom_site_type_symbol
_atom_site_label
_atom_site_fract_x
_atom_site_fract_y
_atom_site_fract_z
Si Si1 0.297085 0.662330 0.499416
Si Si2 0.260548 0.501074 0.102393
Si Si3 0.086566 0.041598 0.907040
Si Si4 0.593160 0.792713 0.636554
Si Si5 0.927979 0.299367 0.381112
Si Si6 0.773281 0.669952 0.654819
Si Si7 0.845334 0.400539 0.956790
Si Si8 0.890804 0.159767 0.084374
O O1 0.264174 0.592174 0.538082
O O2 0.373388 0.610024 0.609561
O O3 0.330000 0.754074 0.625131
O O4 0.231783 0.661039 0.239407
O O5 0.347659 0.529059 0.334645
O O6 0.196937 0.509407 0.089291
O O7 0.234190 0.577555 0.942208
O O8 0.000000 0.074071 0.750000
O O9 0.079706 0.939881 0.844897
O O10 0.521153 0.805713 0.585717
O O11 0.606235 0.883071 0.578205
O O12 0.580915 0.717775 0.487512
O O13 0.866487 0.312447 0.373817
O O14 0.914277 0.205738 0.277198
O O15 0.897847 0.365318 0.194401
O O16 0.750000 0.750000 0.500000
O O17 0.704094 0.660646 0.617661
#
# Coordination Sequence:
#
# PCOD9255350 Si02
#       8
#     8   8   8   8   8   8   8   8
#     4  11  22  35  56  85 120 158 197 241 299 363
#     4  10  20  36  51  80 115 154 193 239 294 345
#     4  11  22  33  48  79 126 159 182 233 299 353
#     4  11  20  36  60  86 111 153 204 246 294 352
#     4   9  19  34  57  81 109 145 204 246 285 336
#     4   9  18  33  54  77 106 150 200 240 277 340
#     4   9  20  37  57  81 115 155 200 243 289 347
#     4  10  17  30  51  80 110 149 194 228 280 348
#
# _framework density 25.523978
#
# number of rings (size 3 to 8) (size 9 to 14) (size 15 to 20)
#    0.000    2.000    2.500    3.375    0.000    2.500 
#    0.000    0.000    0.000    6.750    0.000    0.000 
#    0.000    2.000    0.000    0.000    0.000    0.000 
#
# Total GULP energy -178737.688629 kJ/mol
# GULP energy per Si atom -5585.552770 kJ/mol
# Density = 2.546588 g / cm^3
# Si number density = 25.523978 Si / 1000 Ang^3
#
#
#
# Elastic Constant Matrix: (Units=GPa)
#
#
# Indices 1 2 3 4 5 6 
#
# 1 76.3900 39.3828 20.6295 0.0000 30.4287 0.0000
# 2 39.3828 88.1233 24.1236 0.0000 8.1346 0.0000
# 3 20.6295 24.1236 86.1047 0.0000 19.7535 0.0000
# 4 0.0000 0.0000 0.0000 22.8166 0.0000 6.9694
# 5 30.4287 8.1346 19.7535 0.0000 50.1813 0.0000
# 6 0.0000 0.0000 0.0000 6.9694 0.0000 14.0567
#
#
#
# Elastic Compliance Matrix: (Units=1/GPa)
#
#
# Indices 1 2 3 4 5 6 
#
# 1 0.022591 -0.008940 -0.000107 0.000000 -0.012207 0.000000
# 2 -0.008940 0.015850 -0.003246 0.000000 0.004129 0.000000
# 3 -0.000107 -0.003246 0.013646 0.000000 -0.004780 0.000000
# 4 0.000000 0.000000 0.000000 0.051650 0.000000 -0.025608
# 5 -0.012207 0.004129 -0.004780 0.000000 0.028542 0.000000
# 6 0.000000 0.000000 0.000000 -0.025608 0.000000 0.083837
#
#
# Mechanical properties :
#
#
# Convention : Reuss Voigt Hill
#
# Bulk Modulus (GPa) = 36.36320 46.54330 41.45325
# Shear Modulus (GPa) = 20.01034 28.50971 24.26003
#
# Velocity S-wave (km/s) = 2.80301 3.34575 3.08633
# Velocity P-wave (km/s) = 4.97528 5.76195 5.38300
#
# Compressibility (1/GPa) = 0.02750033
#
# Stress axis : x y z
#
# Youngs Moduli (GPa) = 44.26488 63.08950 73.28366
#
# Poissons Ratio (x) = 0.56402 0.00787
# Poissons Ratio (y) = 0.39572 0.23789
# Poissons Ratio (z) = 0.00475 0.20480
#
# Static dielectric constant tensor:
#      x y z
#    x 2.121260 0.000000 -0.018730 
#    y 0.000000 1.991820 0.000000 
#    z -0.018730 0.000000 2.042580 
# 
# From -- ./inp_files/127301.got.cif
#   From: 2010.05.17/outbox.cif.g08.bks.cpg/sg15_64_cif.got.tgz:127301.got - 2010.06.03 18:47:42.
