data_PCOD9255037
_publ_section_title
;
Structure prediction by ZEFSAII (Michael W. Deem and Ramdas Pophale) SiO2 
 PCOD9255037
Probable space group: C 2/C
;
_chemical_formula_sum "Si O2"
_cell_formula_units_Z 40
_cell_length_a 6.967997
_cell_length_b 26.342927
_cell_length_c 7.936360
_cell_angle_alpha 90.000000
_cell_angle_beta 87.406378
_cell_angle_gamma 90.000000
_cell_volume 1455.285591
_symmetry_space_group_name_H-M "C 2/C"
_symmetry_group_IT_number 15
_symmetry_cell_setting 'monoclinic'
loop_
_space_group_symop_operation_xyz
x,y,z
-x,y,1/2-z
-x,-y,-z
x,-y,1/2+z
1/2+x,1/2+y,z
1/2-x,1/2+y,1/2-z
1/2-x,1/2-y,-z
1/2+x,1/2-y,1/2+z
loop_
_atom_site_type_symbol
_atom_site_label
_atom_site_fract_x
_atom_site_fract_y
_atom_site_fract_z
Si Si1 0.173921 0.578382 0.970386
Si Si2 0.998692 0.792735 0.045001
Si Si3 0.078321 0.103993 0.055283
Si Si4 0.213209 0.014189 0.826549
Si Si5 0.943689 0.683714 0.446564
O O1 0.389197 0.600377 0.946490
O O2 0.194842 0.539257 0.124158
O O3 0.038166 0.626816 0.980928
O O4 0.163130 0.541481 0.816854
O O5 0.959783 0.734957 0.986546
O O6 0.000000 0.792741 0.250000
O O7 0.861415 0.837768 0.981925
O O8 0.214727 0.804031 0.969051
O O9 0.000000 0.102460 0.250000
O O10 0.193705 0.054659 0.983424
O O11 0.000000 0.007180 0.750000
O O12 0.000000 0.678469 0.250000
#
# Coordination Sequence:
#
# PCOD9255037 Si02
#       5
#     8   8   8   8   8
#     4  10  18  30  48  70 101 136 169 208 257 308
#     4   9  17  32  55  78  98 131 176 216 254 300
#     4  10  17  27  48  79 106 126 162 219 269 301
#     4  10  18  29  48  76 105 130 168 217 260 303
#     4   9  18  32  52  74 101 138 176 208 249 309
#
# _framework density 27.486014999999998
#
# number of rings (size 3 to 8) (size 9 to 14) (size 15 to 20)
#    0.000    2.400    0.000    7.200    0.000    0.000 
#    0.000    1.000    0.000   48.000    0.000    0.000 
#    0.000    0.000    0.000    0.000    0.000    0.000 
#
# Total GULP energy -111779.850338 kJ/mol
# GULP energy per Si atom -5588.992517 kJ/mol
# Density = 2.742346 g / cm^3
# Si number density = 27.486015 Si / 1000 Ang^3
#
#
#
# Elastic Constant Matrix: (Units=GPa)
#
#
# Indices 1 2 3 4 5 6 
#
# 1 97.3453 39.8206 9.4216 0.0000 -3.5199 0.0000
# 2 39.8206 315.0113 55.6283 0.0000 -2.5965 0.0000
# 3 9.4216 55.6283 129.1697 0.0000 -4.6452 0.0000
# 4 0.0000 0.0000 0.0000 37.7235 0.0000 -5.4557
# 5 -3.5199 -2.5965 -4.6452 0.0000 21.3474 0.0000
# 6 0.0000 0.0000 0.0000 -5.4557 0.0000 46.8823
#
#
#
# Elastic Compliance Matrix: (Units=1/GPa)
#
#
# Indices 1 2 3 4 5 6 
#
# 1 0.010892 -0.001335 -0.000162 0.000000 0.001598 0.000000
# 2 -0.001335 0.003600 -0.001456 0.000000 -0.000099 0.000000
# 3 -0.000162 -0.001456 0.008440 0.000000 0.001633 0.000000
# 4 0.000000 0.000000 0.000000 0.026962 0.000000 0.003138
# 5 0.001598 -0.000099 0.001633 0.000000 0.047451 0.000000
# 6 0.000000 0.000000 0.000000 0.003138 0.000000 0.021695
#
#
# Mechanical properties :
#
#
# Convention : Reuss Voigt Hill
#
# Bulk Modulus (GPa) = 58.73927 83.47413 71.10670
# Shear Modulus (GPa) = 38.27847 50.30104 44.28975
#
# Velocity S-wave (km/s) = 3.73587 4.28256 4.01852
# Velocity P-wave (km/s) = 6.32661 7.40874 6.88895
#
# Compressibility (1/GPa) = 0.01702438
#
# Stress axis : x y z
#
# Youngs Moduli (GPa) = 91.80769 277.80623 118.49043
#
# Poissons Ratio (x) = 0.37090 0.01920
# Poissons Ratio (y) = 0.12257 0.17257
# Poissons Ratio (z) = 0.01487 0.40460
#
# Static dielectric constant tensor:
#      x y z
#    x 2.264600 0.000000 0.039990 
#    y 0.000000 2.265220 0.000000 
#    z 0.039990 0.000000 2.147930 
# 
# From -- ./inp_files/31724.got.cif
#   From: 2010.05.17/outbox.cif.g08.bks.cpg/sg15_16_cif.got.tgz:31724.got - 2010.06.03 18:47:42.
