data_PCOD9255309
_publ_section_title
;
Structure prediction by ZEFSAII (Michael W. Deem and Ramdas Pophale) SiO2 
 PCOD9255309
Probable space group: C 2/C
;
_chemical_formula_sum "Si O2"
_cell_formula_units_Z 48
_cell_length_a 16.597833
_cell_length_b 14.273115
_cell_length_c 8.889127
_cell_angle_alpha 90.000000
_cell_angle_beta 124.906939
_cell_angle_gamma 90.000000
_cell_volume 1726.978188
_symmetry_space_group_name_H-M "C 2/C"
_symmetry_group_IT_number 15
_symmetry_cell_setting 'monoclinic'
loop_
_space_group_symop_operation_xyz
x,y,z
-x,y,1/2-z
-x,-y,-z
x,-y,1/2+z
1/2+x,1/2+y,z
1/2-x,1/2+y,1/2-z
1/2-x,1/2-y,-z
1/2+x,1/2-y,1/2+z
loop_
_atom_site_type_symbol
_atom_site_label
_atom_site_fract_x
_atom_site_fract_y
_atom_site_fract_z
Si Si1 0.907483 0.810264 0.080047
Si Si2 0.000000 0.789606 0.750000
Si Si3 0.345208 0.984650 0.214045
Si Si4 0.208999 0.916422 0.325738
Si Si5 0.000000 0.000000 0.000000
Si Si6 0.398340 0.874413 0.989769
Si Si7 0.190525 0.809308 0.812594
O O1 0.831869 0.824211 0.136139
O O2 0.000000 0.758506 0.250000
O O3 0.856909 0.762418 0.883731
O O4 0.948965 0.909642 0.053045
O O5 0.046827 0.724219 0.929846
O O6 0.092740 0.849346 0.792507
O O7 0.286052 0.923786 0.272683
O O8 0.402620 0.918363 0.161024
O O9 0.418193 0.057994 0.372328
O O10 0.263992 0.032513 0.021650
O O11 0.109056 0.963043 0.157500
O O12 0.279241 0.868395 0.841699
O O13 0.250000 0.750000 0.000000
#
# Coordination Sequence:
#
# PCOD9255309 Si02
#       7
#     8   4   8   8   4   8   8
#     4  10  19  32  53  89 128 161 209 261 322 381
#     4  10  24  42  66  82 120 178 224 252 290 400
#     4  10  19  33  60  91 127 155 194 271 324 383
#     4  10  17  30  48  87 130 163 189 241 329 389
#     4  10  18  28  48  92 136 158 186 262 330 404
#     4  10  21  40  66  97 122 159 216 261 337 376
#     4  10  21  42  64  85 123 175 220 256 299 387
#
# _framework density 27.794212999999999
#
# number of rings (size 3 to 8) (size 9 to 14) (size 15 to 20)
#    0.000    2.000    3.333    1.000    0.000    3.333 
#    4.500    0.000   14.667    6.000    0.000    0.000 
#    0.000    0.000    0.000    0.000    0.000    0.000 
#
# Total GULP energy -133652.357284 kJ/mol
# GULP energy per Si atom -5568.848220 kJ/mol
# Density = 2.773095 g / cm^3
# Si number density = 27.794213 Si / 1000 Ang^3
#
#
#
# Elastic Constant Matrix: (Units=GPa)
#
#
# Indices 1 2 3 4 5 6 
#
# 1 113.3550 14.9577 50.2247 0.0000 26.4316 0.0000
# 2 14.9577 48.7769 33.9048 0.0000 5.0720 0.0000
# 3 50.2247 33.9048 167.8995 0.0000 -22.2590 0.0000
# 4 0.0000 0.0000 0.0000 10.7688 0.0000 -6.9641
# 5 26.4316 5.0720 -22.2590 0.0000 49.8634 0.0000
# 6 0.0000 0.0000 0.0000 -6.9641 0.0000 24.2581
#
#
#
# Elastic Compliance Matrix: (Units=1/GPa)
#
#
# Indices 1 2 3 4 5 6 
#
# 1 0.013352 0.000645 -0.005390 0.000000 -0.009549 0.000000
# 2 0.000645 0.025044 -0.005988 0.000000 -0.005563 0.000000
# 3 -0.005390 -0.005988 0.009818 0.000000 0.007849 0.000000
# 4 0.000000 0.000000 0.000000 0.114031 0.000000 0.032736
# 5 -0.009549 -0.005563 0.007849 0.000000 0.029186 0.000000
# 6 0.000000 0.000000 0.000000 0.032736 0.000000 0.050621
#
#
# Mechanical properties :
#
#
# Convention : Reuss Voigt Hill
#
# Bulk Modulus (GPa) = 37.38521 58.68950 48.03736
# Shear Modulus (GPa) = 18.35304 32.37434 25.36369
#
# Velocity S-wave (km/s) = 2.57245 3.41660 3.02413
# Velocity P-wave (km/s) = 4.72264 6.06018 5.43273
#
# Compressibility (1/GPa) = 0.02674854
#
# Stress axis : x y z
#
# Youngs Moduli (GPa) = 74.89724 39.92955 101.85282
#
# Poissons Ratio (x) = -0.02577 0.54901
# Poissons Ratio (y) = -0.04834 0.60987
# Poissons Ratio (z) = 0.40372 0.23909
#
# Static dielectric constant tensor:
#      x y z
#    x 2.321840 0.000000 -0.058150 
#    y 0.000000 2.375680 0.000000 
#    z -0.058150 0.000000 2.167050 
# 
# From -- ./inp_files/50439.got.cif
#   From: 2010.05.17/outbox.cif.g08.bks.cpg/sg15_26_cif.got.tgz:50439.got - 2010.06.03 18:47:42.
