data_PCOD9255084
_publ_section_title
;
Structure prediction by ZEFSAII (Michael W. Deem and Ramdas Pophale) SiO2 
 PCOD9255084
Probable space group: C 2/C
;
_chemical_formula_sum "Si O2"
_cell_formula_units_Z 60
_cell_length_a 12.107772
_cell_length_b 21.446685
_cell_length_c 14.664355
_cell_angle_alpha 90.000000
_cell_angle_beta 94.934651
_cell_angle_gamma 90.000000
_cell_volume 3793.801909
_symmetry_space_group_name_H-M "C 2/C"
_symmetry_group_IT_number 15
_symmetry_cell_setting 'monoclinic'
loop_
_space_group_symop_operation_xyz
x,y,z
-x,y,1/2-z
-x,-y,-z
x,-y,1/2+z
1/2+x,1/2+y,z
1/2-x,1/2+y,1/2-z
1/2-x,1/2-y,-z
1/2+x,1/2-y,1/2+z
loop_
_atom_site_type_symbol
_atom_site_label
_atom_site_fract_x
_atom_site_fract_y
_atom_site_fract_z
Si Si1 0.314618 0.670645 0.966315
Si Si2 0.000000 0.902195 0.250000
Si Si3 0.573775 0.770556 0.166759
Si Si4 0.114281 0.283354 0.890223
Si Si5 0.161526 0.171210 0.034517
Si Si6 0.498868 0.432733 0.455147
Si Si7 0.188480 0.200000 0.745783
Si Si8 0.919731 0.700221 0.502171
O O1 0.391134 0.609889 0.970345
O O2 0.299622 0.696771 0.862164
O O3 0.193821 0.662028 0.001540
O O4 0.379425 0.728292 0.016529
O O5 0.000029 0.938159 0.345360
O O6 0.893304 0.856888 0.238305
O O7 0.500000 0.758974 0.250000
O O8 0.606347 0.706802 0.116635
O O9 0.689252 0.802505 0.202955
O O10 0.504348 0.812187 0.090635
O O11 0.208735 0.331135 0.930734
O O12 0.132803 0.261204 0.788047
O O13 0.142177 0.220189 0.950250
O O14 0.992902 0.302424 0.915786
O O15 0.101578 0.108369 0.000385
O O16 0.500000 0.500000 0.500000
#
# Coordination Sequence:
#
# PCOD9255084 Si02
#       8
#     8   4   8   8   8   8   8   8
#     4  10  19  31  47  74 105 136 165 211 253 301
#     4  10  20  34  52  76  90 126 180 216 248 294
#     4  10  17  28  45  77 106 135 156 201 264 317
#     4   9  15  28  51  74 100 126 160 203 257 303
#     4   9  17  30  47  72  99 132 163 202 247 302
#     4  11  21  36  51  70 101 138 173 211 245 301
#     4  10  17  28  50  73 104 124 170 210 249 299
#     4  10  18  29  47  72 108 130 158 205 267 303
#
# _framework density 15.815270999999999
#
# number of rings (size 3 to 8) (size 9 to 14) (size 15 to 20)
#    0.000    2.133    5.333    1.600    0.000    0.000 
#    1.200    0.000    0.000    0.800    0.000    0.000 
#    0.000    0.000    0.000    0.000    0.000    0.000 
#
# Total GULP energy -167055.167651 kJ/mol
# GULP energy per Si atom -5568.505588 kJ/mol
# Density = 1.577927 g / cm^3
# Si number density = 15.815271 Si / 1000 Ang^3
#
#
#
# Elastic Constant Matrix: (Units=GPa)
#
#
# Indices 1 2 3 4 5 6 
#
# 1 133.8047 34.3819 41.4630 0.0000 -2.1198 0.0000
# 2 34.3819 71.2748 34.4669 0.0000 8.3234 0.0000
# 3 41.4630 34.4669 70.9721 0.0000 4.4177 0.0000
# 4 0.0000 0.0000 0.0000 20.1190 0.0000 2.3698
# 5 -2.1198 8.3234 4.4177 0.0000 27.6946 0.0000
# 6 0.0000 0.0000 0.0000 2.3698 0.0000 11.8760
#
#
#
# Elastic Compliance Matrix: (Units=1/GPa)
#
#
# Indices 1 2 3 4 5 6 
#
# 1 0.009581 -0.002759 -0.004399 0.000000 0.002264 0.000000
# 2 -0.002759 0.019611 -0.007608 0.000000 -0.004892 0.000000
# 3 -0.004399 -0.007608 0.020436 0.000000 -0.001310 0.000000
# 4 0.000000 0.000000 0.000000 0.050901 0.000000 -0.010157
# 5 0.002264 -0.004892 -0.001310 0.000000 0.037961 0.000000
# 6 0.000000 0.000000 0.000000 -0.010157 0.000000 0.086231
#
#
# Mechanical properties :
#
#
# Convention : Reuss Voigt Hill
#
# Bulk Modulus (GPa) = 49.75664 55.18613 52.47138
# Shear Modulus (GPa) = 19.16072 22.98724 21.07398
#
# Velocity S-wave (km/s) = 3.48448 3.81659 3.65431
# Velocity P-wave (km/s) = 6.90784 7.37508 7.14528
#
# Compressibility (1/GPa) = 0.02009782
#
# Stress axis : x y z
#
# Youngs Moduli (GPa) = 104.36785 50.99096 48.93368
#
# Poissons Ratio (x) = 0.14070 0.21524
# Poissons Ratio (y) = 0.28799 0.37226
# Poissons Ratio (z) = 0.45907 0.38791
#
# Static dielectric constant tensor:
#      x y z
#    x 1.584080 0.000000 -0.002740 
#    y 0.000000 1.476040 0.000000 
#    z -0.002740 0.000000 1.595780 
# 
# From -- ./inp_files/146761.got.cif
#   From: 2010.05.17/outbox.cif.g08.bks.cpg/sg15_74_cif.got.tgz:146761.got - 2010.06.03 18:47:42.
