data_PCOD9255299
_publ_section_title
;
Structure prediction by ZEFSAII (Michael W. Deem and Ramdas Pophale) SiO2 
 PCOD9255299
Probable space group: C 2/C
;
_chemical_formula_sum "Si O2"
_cell_formula_units_Z 48
_cell_length_a 20.914552
_cell_length_b 23.042265
_cell_length_c 10.595673
_cell_angle_alpha 90.000000
_cell_angle_beta 149.933684
_cell_angle_gamma 90.000000
_cell_volume 2558.242834
_symmetry_space_group_name_H-M "C 2/C"
_symmetry_group_IT_number 15
_symmetry_cell_setting 'monoclinic'
loop_
_space_group_symop_operation_xyz
x,y,z
-x,y,1/2-z
-x,-y,-z
x,-y,1/2+z
1/2+x,1/2+y,z
1/2-x,1/2+y,1/2-z
1/2-x,1/2-y,-z
1/2+x,1/2-y,1/2+z
loop_
_atom_site_type_symbol
_atom_site_label
_atom_site_fract_x
_atom_site_fract_y
_atom_site_fract_z
Si Si1 0.845882 0.171802 0.976083
Si Si2 0.655835 0.459235 0.030890
Si Si3 0.043142 0.255594 0.691526
Si Si4 0.790526 0.287889 0.734996
Si Si5 0.826408 0.168009 0.229090
Si Si6 0.633810 0.465758 0.717986
O O1 0.812946 0.106695 0.877766
O O2 0.789400 0.179811 0.020707
O O3 0.000000 0.174960 0.250000
O O4 0.805257 0.222354 0.813498
O O5 0.500000 0.460816 0.750000
O O6 0.703426 0.472177 0.971099
O O7 0.697758 0.505145 0.206240
O O8 0.097218 0.296463 0.674019
O O9 0.000000 0.284010 0.750000
O O10 0.931159 0.215701 0.446139
O O11 0.158627 0.212731 0.931481
O O12 0.779244 0.326418 0.841351
O O13 0.883843 0.103109 0.329762
O O14 0.500000 0.500000 0.500000
#
# Coordination Sequence:
#
# PCOD9255299 Si02
#       6
#     8   8   8   8   8   8
#     4  10  17  30  48  65  96 132 166 199 242 284
#     4   8  16  27  41  64  91 125 159 191 232 292
#     4   9  19  32  44  65  97 127 160 204 245 284
#     4  10  19  30  46  68  92 131 167 200 241 295
#     4  10  19  32  48  69 100 134 160 200 243 291
#     4   9  17  28  44  68  95 131 158 186 238 299
#
# _framework density 18.762878000000001
#
# number of rings (size 3 to 8) (size 9 to 14) (size 15 to 20)
#    0.000    2.667    1.667    1.500    0.000    6.000 
#    3.000    0.000    0.000    0.000    0.000    0.000 
#    0.000    9.333    0.000    1.167    0.000    0.667 
#
# Total GULP energy -133643.853673 kJ/mol
# GULP energy per Si atom -5568.493903 kJ/mol
# Density = 1.872017 g / cm^3
# Si number density = 18.762878 Si / 1000 Ang^3
#
#
#
# Elastic Constant Matrix: (Units=GPa)
#
#
# Indices 1 2 3 4 5 6 
#
# 1 148.8179 19.6006 5.1664 0.0000 -0.9122 0.0000
# 2 19.6006 37.9596 10.5202 0.0000 -5.6324 0.0000
# 3 5.1664 10.5202 16.8144 0.0000 -2.8616 0.0000
# 4 0.0000 0.0000 0.0000 14.8057 0.0000 -2.8693
# 5 -0.9122 -5.6324 -2.8616 0.0000 19.5233 0.0000
# 6 0.0000 0.0000 0.0000 -2.8693 0.0000 28.4129
#
#
#
# Elastic Compliance Matrix: (Units=1/GPa)
#
#
# Indices 1 2 3 4 5 6 
#
# 1 0.007221 -0.003861 0.000066 0.000000 -0.000767 0.000000
# 2 -0.003861 0.034742 -0.019358 0.000000 0.007005 0.000000
# 3 0.000066 -0.019358 0.072421 0.000000 0.005033 0.000000
# 4 0.000000 0.000000 0.000000 0.068890 0.000000 0.006957
# 5 -0.000767 0.007005 0.005033 0.000000 0.053944 0.000000
# 6 0.000000 0.000000 0.000000 0.006957 0.000000 0.035898
#
#
# Mechanical properties :
#
#
# Convention : Reuss Voigt Hill
#
# Bulk Modulus (GPa) = 14.68899 30.46292 22.57596
# Shear Modulus (GPa) = 14.61506 23.76870 19.19188
#
# Velocity S-wave (km/s) = 2.79397 3.56307 3.20169
# Velocity P-wave (km/s) = 4.27248 5.76179 5.07210
#
# Compressibility (1/GPa) = 0.06807819
#
# Stress axis : x y z
#
# Youngs Moduli (GPa) = 138.48266 28.78390 13.80822
#
# Poissons Ratio (x) = 0.11113 -0.00092
# Poissons Ratio (y) = 0.53465 0.26730
# Poissons Ratio (z) = -0.00918 0.55720
#
# Static dielectric constant tensor:
#      x y z
#    x 1.786190 0.000000 0.014480 
#    y 0.000000 1.622520 0.000000 
#    z 0.014480 0.000000 1.645620 
# 
# From -- ./inp_files/88375.got.cif
#   From: 2010.05.17/outbox.cif.g08.bks.cpg/sg15_45_cif.got.tgz:88375.got - 2010.06.03 18:47:42.
