data_PCOD9255852
_publ_section_title
;
Structure prediction by ZEFSAII (Michael W. Deem and Ramdas Pophale) SiO2 
 PCOD9255852
Probable space group: C 2/C
;
_chemical_formula_sum "Si O2"
_cell_formula_units_Z 60
_cell_length_a 32.499607
_cell_length_b 19.837287
_cell_length_c 15.559340
_cell_angle_alpha 90.000000
_cell_angle_beta 17.209181
_cell_angle_gamma 90.000000
_cell_volume 2967.832950
_symmetry_space_group_name_H-M "C 2/C"
_symmetry_group_IT_number 15
_symmetry_cell_setting 'monoclinic'
loop_
_space_group_symop_operation_xyz
x,y,z
-x,y,1/2-z
-x,-y,-z
x,-y,1/2+z
1/2+x,1/2+y,z
1/2-x,1/2+y,1/2-z
1/2-x,1/2-y,-z
1/2+x,1/2-y,1/2+z
loop_
_atom_site_type_symbol
_atom_site_label
_atom_site_fract_x
_atom_site_fract_y
_atom_site_fract_z
Si Si1 0.737866 0.339020 0.903022
Si Si2 0.290515 0.943260 0.927872
Si Si3 0.027093 0.710330 0.868800
Si Si4 0.921901 0.439437 0.235301
Si Si5 0.000000 0.523513 0.250000
Si Si6 0.472045 0.245685 0.444593
Si Si7 0.817469 0.635192 0.540471
Si Si8 0.198582 0.742606 0.377889
O O1 0.726721 0.412712 0.968089
O O2 0.799486 0.324712 0.685296
O O3 0.861351 0.301786 0.709715
O O4 0.591961 0.301724 0.198729
O O5 0.456270 0.935817 0.579451
O O6 0.290065 0.020550 0.959944
O O7 0.251382 0.897850 0.087262
O O8 0.100294 0.638714 0.703059
O O9 0.071460 0.751221 0.696699
O O10 0.074509 0.738835 0.864447
O O11 0.983568 0.477673 0.196803
O O12 0.869543 0.575156 0.499272
O O13 0.340687 0.260720 0.648611
O O14 0.546723 0.177175 0.262578
O O15 0.720365 0.691017 0.776618
#
# Coordination Sequence:
#
# PCOD9255852 Si02
#       8
#     8   8   8   8   4   8   8   8
#     4  10  20  35  56  78 111 148 194 225 272 341
#     4   9  18  32  51  79 105 146 185 232 265 336
#     4  11  22  36  53  85 122 140 183 238 293 333
#     4   9  19  31  52  82 113 145 182 231 290 313
#     4  10  18  30  54  78 114 146 188 238 272 334
#     4  11  20  37  54  79 113 158 185 221 285 353
#     4  10  17  33  52  75 109 149 189 217 275 342
#     4  11  23  32  53  83 118 148 179 238 289 332
#
# _framework density 20.216771000000001
#
# number of rings (size 3 to 8) (size 9 to 14) (size 15 to 20)
#    0.000    1.867    4.000    2.400    5.600    0.000 
#    0.000    0.000    0.000    0.800    0.000    0.000 
#    0.000    1.067    0.000    0.000    0.000    0.000 
#
# Total GULP energy -167083.582310 kJ/mol
# GULP energy per Si atom -5569.452744 kJ/mol
# Density = 2.017076 g / cm^3
# Si number density = 20.216771 Si / 1000 Ang^3
#
#
#
# Elastic Constant Matrix: (Units=GPa)
#
#
# Indices 1 2 3 4 5 6 
#
# 1 90.0177 18.4087 12.7770 0.0003 16.3392 -0.0003
# 2 18.4087 36.4008 19.5060 0.0003 7.9661 -0.0001
# 3 12.7770 19.5060 51.3082 -0.0003 7.1473 0.0002
# 4 0.0003 0.0003 -0.0003 14.8571 -0.0001 3.4577
# 5 16.3392 7.9661 7.1473 -0.0001 34.5139 0.0001
# 6 -0.0003 -0.0001 0.0002 3.4577 0.0001 23.8952
#
#
#
# Elastic Compliance Matrix: (Units=1/GPa)
#
#
# Indices 1 2 3 4 5 6 
#
# 1 0.013158 -0.005266 -0.000593 0.000000 -0.004891 0.000000
# 2 -0.005266 0.037615 -0.012487 -0.000001 -0.003603 0.000000
# 3 -0.000593 -0.012487 0.024656 0.000001 -0.001943 0.000000
# 4 0.000000 -0.000001 0.000001 0.069654 0.000000 -0.010079
# 5 -0.004891 -0.003603 -0.001943 0.000000 0.032523 0.000000
# 6 0.000000 0.000000 0.000000 -0.010079 0.000000 0.043308
#
#
# Mechanical properties :
#
#
# Convention : Reuss Voigt Hill
#
# Bulk Modulus (GPa) = 25.81587 31.01224 28.41405
# Shear Modulus (GPa) = 18.48311 23.12223 20.80267
#
# Velocity S-wave (km/s) = 3.02693 3.38555 3.21125
# Velocity P-wave (km/s) = 5.00137 5.53677 5.27586
#
# Compressibility (1/GPa) = 0.03873587
#
# Stress axis : x y z
#
# Youngs Moduli (GPa) = 76.00087 26.58532 40.55872
#
# Poissons Ratio (x) = 0.14000 0.02407
# Poissons Ratio (y) = 0.40021 0.50645
# Poissons Ratio (z) = 0.04510 0.33197
#
# Static dielectric constant tensor:
#      x y z
#    x 1.798300 0.000000 0.009760 
#    y 0.000000 1.796720 0.000000 
#    z 0.009760 0.000000 1.701690 
# 
# From -- ./inp_files/183062.got.cif
#   From: 2010.05.17/outbox.cif.g08.bks.cpg/sg15_92_cif.got.tgz:183062.got - 2010.06.03 18:47:42.
