data_PCOD9255137
_publ_section_title
;
Structure prediction by ZEFSAII (Michael W. Deem and Ramdas Pophale) SiO2 
 PCOD9255137
Probable space group: C 2/C
;
_chemical_formula_sum "Si O2"
_cell_formula_units_Z 40
_cell_length_a 22.037173
_cell_length_b 13.502738
_cell_length_c 12.491783
_cell_angle_alpha 90.000000
_cell_angle_beta 24.925148
_cell_angle_gamma 90.000000
_cell_volume 1566.504362
_symmetry_space_group_name_H-M "C 2/C"
_symmetry_group_IT_number 15
_symmetry_cell_setting 'monoclinic'
loop_
_space_group_symop_operation_xyz
x,y,z
-x,y,1/2-z
-x,-y,-z
x,-y,1/2+z
1/2+x,1/2+y,z
1/2-x,1/2+y,1/2-z
1/2-x,1/2-y,-z
1/2+x,1/2-y,1/2+z
loop_
_atom_site_type_symbol
_atom_site_label
_atom_site_fract_x
_atom_site_fract_y
_atom_site_fract_z
Si Si1 0.099864 0.401218 0.442207
Si Si2 0.724862 0.944651 0.580128
Si Si3 0.686237 0.609570 0.195563
Si Si4 0.289455 0.285409 0.632668
Si Si5 0.549236 0.781025 0.311113
O O1 0.197696 0.488618 0.233178
O O2 0.153412 0.327107 0.449337
O O3 0.086431 0.324620 0.366729
O O4 0.936609 0.439391 0.710854
O O5 0.792977 0.842856 0.514103
O O6 0.816380 0.997983 0.341556
O O7 0.641876 0.643580 0.384936
O O8 0.606519 0.670113 0.228616
O O9 0.851854 0.649197 0.919809
O O10 0.119703 0.278968 0.928699
#
# Coordination Sequence:
#
# PCOD9255137 Si02
#       5
#     8   8   8   8   8
#     4   8  16  29  45  72 104 130 164 209 252 296
#     4   9  17  30  47  74 105 131 166 208 249 303
#     4   9  16  27  45  75 105 127 161 205 248 298
#     4  10  17  28  51  77 103 133 162 206 258 290
#     4   8  15  26  44  73 103 125 158 211 255 286
#
# _framework density 25.534559999999999
#
# number of rings (size 3 to 8) (size 9 to 14) (size 15 to 20)
#    0.000    3.200    0.000    3.000    0.000    0.000 
#    0.000    0.000    0.000   12.000    0.000   30.800 
#    0.000    1.600    0.000    0.000    0.000    0.000 
#
# Total GULP energy -111505.681322 kJ/mol
# GULP energy per Si atom -5575.284066 kJ/mol
# Density = 2.547644 g / cm^3
# Si number density = 25.534560 Si / 1000 Ang^3
#
#
#
# Elastic Constant Matrix: (Units=GPa)
#
#
# Indices 1 2 3 4 5 6 
#
# 1 50.2336 51.8177 15.9578 0.0000 -5.1221 0.0000
# 2 51.8177 105.9687 -3.5945 0.0000 -0.0197 0.0000
# 3 15.9578 -3.5945 43.7148 0.0000 0.3326 0.0000
# 4 0.0000 0.0000 0.0000 28.2147 0.0000 -13.1735
# 5 -5.1221 -0.0197 0.3326 0.0000 10.9403 0.0000
# 6 0.0000 0.0000 0.0000 -13.1735 0.0000 3.1348
#
#
#
# Elastic Compliance Matrix: (Units=1/GPa)
#
#
# Indices 1 2 3 4 5 6 
#
# 1 0.065883 -0.033126 -0.027014 0.000000 0.031607 -0.000001
# 2 -0.033126 0.026119 0.014361 0.000000 -0.015899 0.000000
# 3 -0.027014 0.014361 0.034022 0.000000 -0.013656 0.000001
# 4 0.000000 0.000000 0.000000 -0.036840 -0.000001 -0.154814
# 5 0.031607 -0.015899 -0.013656 -0.000001 0.106590 -0.000001
# 6 -0.000001 0.000000 0.000001 -0.154814 -0.000001 -0.331579
#
#
# Mechanical properties :
#
#
# Convention : Reuss Voigt Hill
#
# Bulk Modulus (GPa) = 29.01516 36.47545 32.74530
# Shear Modulus (GPa) = -152.63198 17.50704 -67.56247
#
# Velocity S-wave (km/s) = -7.73980 2.62128 -5.14943
# Velocity P-wave (km/s) = 8.27556 4.84533 4.74382
#
# Compressibility (1/GPa) = 0.03446474
#
# Stress axis : x y z
#
# Youngs Moduli (GPa) = 15.17852 38.28574 29.39290
#
# Poissons Ratio (x) = 1.26827 0.79403
# Poissons Ratio (y) = 0.50281 -0.42212
# Poissons Ratio (z) = 0.41004 -0.54983
#
# Static dielectric constant tensor:
#      x y z
#    x 2.152860 0.000000 -0.039250 
#    y 0.000000 2.172720 0.000000 
#    z -0.039250 0.000000 2.042690 
# 
# From -- ./inp_files/95365.got.cif
#   From: 2010.05.17/outbox.cif.g08.bks.cpg/sg15_48_cif.got.tgz:95365.got - 2010.06.03 18:47:42.
