data_PCOD9255353
_publ_section_title
;
Structure prediction by ZEFSAII (Michael W. Deem and Ramdas Pophale) SiO2 
 PCOD9255353
Probable space group: C 2/C
;
_chemical_formula_sum "Si O2"
_cell_formula_units_Z 52
_cell_length_a 21.127235
_cell_length_b 20.057291
_cell_length_c 14.129001
_cell_angle_alpha 90.000000
_cell_angle_beta 30.176531
_cell_angle_gamma 90.000000
_cell_volume 3009.579418
_symmetry_space_group_name_H-M "C 2/C"
_symmetry_group_IT_number 15
_symmetry_cell_setting 'monoclinic'
loop_
_space_group_symop_operation_xyz
x,y,z
-x,y,1/2-z
-x,-y,-z
x,-y,1/2+z
1/2+x,1/2+y,z
1/2-x,1/2+y,1/2-z
1/2-x,1/2-y,-z
1/2+x,1/2-y,1/2+z
loop_
_atom_site_type_symbol
_atom_site_label
_atom_site_fract_x
_atom_site_fract_y
_atom_site_fract_z
Si Si1 0.736567 0.184984 0.784172
Si Si2 0.991899 0.128816 0.366993
Si Si3 0.360384 0.327697 0.646367
Si Si4 0.500000 0.498868 0.250000
Si Si5 0.117488 0.207552 0.713802
Si Si6 0.717227 0.394358 0.930914
Si Si7 0.526468 0.860743 0.821617
O O1 0.855410 0.148443 0.584064
O O2 0.705744 0.255778 0.775193
O O3 0.778092 0.200238 0.838905
O O4 0.606937 0.143645 0.952564
O O5 0.000000 0.157945 0.250000
O O6 0.099432 0.153197 0.299893
O O7 0.006363 0.049686 0.330391
O O8 0.492989 0.325170 0.418543
O O9 0.283355 0.378237 0.679950
O O10 0.376721 0.453810 0.421191
O O11 0.161494 0.168523 0.563781
O O12 0.077373 0.284033 0.750840
O O13 0.860929 0.401962 0.777704
O O14 0.500000 0.884123 0.750000
#
# Coordination Sequence:
#
# PCOD9255353 Si02
#       7
#     8   8   8   4   8   8   8
#     4  10  19  35  58  88 120 148 189 240 305 347
#     4   9  23  44  58  81 110 159 209 249 276 323
#     4  10  19  32  60  88 110 143 194 246 295 341
#     4  10  24  42  58  80 114 160 216 230 272 346
#     4  10  17  30  51  89 126 145 174 229 297 363
#     4  12  19  33  55  89 121 155 186 228 295 361
#     4  11  20  28  51  90 127 148 170 232 312 360
#
# _framework density 17.278161000000001
#
# number of rings (size 3 to 8) (size 9 to 14) (size 15 to 20)
#    0.462    1.231    4.615    2.308    0.000    1.231 
#    0.000    0.769    0.000    0.000    0.000    0.000 
#    0.000    0.000    0.000    0.000    0.000    0.000 
#
# Total GULP energy -144866.973493 kJ/mol
# GULP energy per Si atom -5571.806673 kJ/mol
# Density = 1.723883 g / cm^3
# Si number density = 17.278161 Si / 1000 Ang^3
#
#
#
# Elastic Constant Matrix: (Units=GPa)
#
#
# Indices 1 2 3 4 5 6 
#
# 1 156.5621 39.9646 43.8981 0.0000 -13.6905 0.0000
# 2 39.9646 56.3394 27.6610 0.0000 -6.5770 0.0000
# 3 43.8981 27.6610 67.3288 0.0000 -8.7705 0.0000
# 4 0.0000 0.0000 0.0000 54.7922 0.0000 -28.7117
# 5 -13.6905 -6.5770 -8.7705 0.0000 33.3644 0.0000
# 6 0.0000 0.0000 0.0000 -28.7117 0.0000 42.9058
#
#
#
# Elastic Compliance Matrix: (Units=1/GPa)
#
#
# Indices 1 2 3 4 5 6 
#
# 1 0.008627 -0.004090 -0.003715 0.000000 0.001757 0.000000
# 2 -0.004090 0.024310 -0.007160 0.000000 0.001232 0.000000
# 3 -0.003715 -0.007160 0.020537 0.000000 0.002463 0.000000
# 4 0.000000 0.000000 0.000000 0.028107 0.000000 0.018808
# 5 0.001757 0.001232 0.002463 0.000000 0.031583 0.000000
# 6 0.000000 0.000000 0.000000 0.018808 0.000000 0.035893
#
#
# Mechanical properties :
#
#
# Convention : Reuss Voigt Hill
#
# Bulk Modulus (GPa) = 42.47598 55.91974 49.19786
# Shear Modulus (GPa) = 26.76144 37.45960 32.11052
#
# Velocity S-wave (km/s) = 3.93982 4.66126 4.31565
# Velocity P-wave (km/s) = 6.73300 7.83610 7.30540
#
# Compressibility (1/GPa) = 0.02354272
#
# Stress axis : x y z
#
# Youngs Moduli (GPa) = 115.91966 41.13501 48.69179
#
# Poissons Ratio (x) = 0.16825 0.18091
# Poissons Ratio (y) = 0.47413 0.34865
# Poissons Ratio (z) = 0.43068 0.29454
#
# Static dielectric constant tensor:
#      x y z
#    x 1.622500 0.000000 -0.017970 
#    y 0.000000 1.584110 0.000000 
#    z -0.017970 0.000000 1.599220 
# 
# From -- ./inp_files/169405.got.cif
#   From: 2010.05.17/outbox.cif.g08.bks.cpg/sg15_85_cif.got.tgz:169405.got - 2010.06.03 18:47:42.
