data_PCOD9255760
_publ_section_title
;
Structure prediction by ZEFSAII (Michael W. Deem and Ramdas Pophale) SiO2 
 PCOD9255760
Probable space group: C 2/C
;
_chemical_formula_sum "Si O2"
_cell_formula_units_Z 64
_cell_length_a 8.245139
_cell_length_b 14.807875
_cell_length_c 24.229290
_cell_angle_alpha 90.000000
_cell_angle_beta 68.075419
_cell_angle_gamma 90.000000
_cell_volume 2744.276081
_symmetry_space_group_name_H-M "C 2/C"
_symmetry_group_IT_number 15
_symmetry_cell_setting 'monoclinic'
loop_
_space_group_symop_operation_xyz
x,y,z
-x,y,1/2-z
-x,-y,-z
x,-y,1/2+z
1/2+x,1/2+y,z
1/2-x,1/2+y,1/2-z
1/2-x,1/2-y,-z
1/2+x,1/2-y,1/2+z
loop_
_atom_site_type_symbol
_atom_site_label
_atom_site_fract_x
_atom_site_fract_y
_atom_site_fract_z
Si Si1 0.182512 0.231280 0.084159
Si Si2 0.255750 0.743759 0.704709
Si Si3 0.072037 0.532228 0.067899
Si Si4 0.214600 0.022096 0.057862
Si Si5 0.324155 0.764286 0.164367
Si Si6 0.540623 0.621118 0.647579
Si Si7 0.944403 0.397095 0.815294
Si Si8 0.946554 0.742962 0.455227
O O1 0.202517 0.238940 0.148387
O O2 0.369834 0.267415 0.037475
O O3 0.991570 0.275335 0.102915
O O4 0.177082 0.127230 0.068011
O O5 0.139305 0.743393 0.774643
O O6 0.352668 0.646373 0.694893
O O7 0.397583 0.824474 0.696427
O O8 0.078073 0.530344 0.133105
O O9 0.038954 0.637960 0.060585
O O10 0.895921 0.489917 0.064829
O O11 0.241628 0.502192 0.011433
O O12 0.068748 0.971871 0.112520
O O13 0.190197 0.846530 0.170688
O O14 0.224496 0.669386 0.163910
O O15 0.557748 0.693529 0.596625
O O16 0.000000 0.439928 0.750000
O O17 0.750000 0.750000 0.500000
#
# Coordination Sequence:
#
# PCOD9255760 Si02
#       8
#     8   8   8   8   8   8   8   8
#     4  10  20  35  54  87 113 149 197 245 297 341
#     4   9  17  34  56  78 106 154 200 235 281 354
#     4  10  17  33  56  83 113 153 198 231 290 345
#     4  10  20  31  57  86 118 145 192 249 287 344
#     4  10  19  33  56  80 111 146 196 250 286 342
#     4  10  18  32  58  83 108 147 196 236 289 346
#     4   9  16  31  58  80 102 148 202 230 269 356
#     4  10  17  32  57  76 108 156 202 222 276 359
#
# _framework density 23.321268
#
# number of rings (size 3 to 8) (size 9 to 14) (size 15 to 20)
#    0.000    2.250    6.250    1.500    0.000    0.000 
#    0.000    3.750    5.500    0.000    0.000    0.000 
#    0.000    0.000    0.000    0.000    0.000    0.000 
#
# Total GULP energy -178218.885206 kJ/mol
# GULP energy per Si atom -5569.340163 kJ/mol
# Density = 2.326819 g / cm^3
# Si number density = 23.321268 Si / 1000 Ang^3
#
#
#
# Elastic Constant Matrix: (Units=GPa)
#
#
# Indices 1 2 3 4 5 6 
#
# 1 27.5990 7.7952 27.4044 0.0000 -6.5579 0.0000
# 2 7.7952 41.4842 27.1495 0.0000 11.7803 0.0000
# 3 27.4044 27.1495 126.8725 0.0000 -11.2730 0.0000
# 4 0.0000 0.0000 0.0000 17.1953 0.0000 -1.0551
# 5 -6.5579 11.7803 -11.2730 0.0000 37.1196 0.0000
# 6 0.0000 0.0000 0.0000 -1.0551 0.0000 5.9822
#
#
#
# Elastic Compliance Matrix: (Units=1/GPa)
#
#
# Indices 1 2 3 4 5 6 
#
# 1 0.048100 -0.005675 -0.008489 0.000000 0.007721 0.000000
# 2 -0.005675 0.033895 -0.007268 0.000000 -0.013967 0.000000
# 3 -0.008489 -0.007268 0.011657 0.000000 0.004347 0.000000
# 4 0.000000 0.000000 0.000000 0.058792 0.000000 0.010369
# 5 0.007721 -0.013967 0.004347 0.000000 0.034057 0.000000
# 6 0.000000 0.000000 0.000000 0.010369 0.000000 0.168992
#
#
# Mechanical properties :
#
#
# Convention : Reuss Voigt Hill
#
# Bulk Modulus (GPa) = 19.69014 35.62822 27.65918
# Shear Modulus (GPa) = 12.03987 20.96652 16.50320
#
# Velocity S-wave (km/s) = 2.27460 3.00164 2.66305
# Velocity P-wave (km/s) = 3.91915 5.22718 4.61969
#
# Compressibility (1/GPa) = 0.05078683
#
# Stress axis : x y z
#
# Youngs Moduli (GPa) = 20.79005 29.50290 85.78397
#
# Poissons Ratio (x) = 0.16743 0.72823
# Poissons Ratio (y) = 0.11799 0.62351
# Poissons Ratio (z) = 0.17649 0.21444
#
# Static dielectric constant tensor:
#      x y z
#    x 2.081020 0.000000 -0.046100 
#    y 0.000000 1.836910 0.000000 
#    z -0.046100 0.000000 2.012790 
# 
# From -- ./inp_files/307996.got.cif
#   From: 2010.05.17/outbox.cif.g08.bks.cpg/sg15_154_cif.got.tgz:307996.got - 2010.06.03 18:47:42.
