data_PCOD9255686
_publ_section_title
;
Structure prediction by ZEFSAII (Michael W. Deem and Ramdas Pophale) SiO2 
 PCOD9255686
Probable space group: C 2/C
;
_chemical_formula_sum "Si O2"
_cell_formula_units_Z 64
_cell_length_a 12.606158
_cell_length_b 31.770657
_cell_length_c 17.767440
_cell_angle_alpha 90.000000
_cell_angle_beta 151.606629
_cell_angle_gamma 90.000000
_cell_volume 3383.800956
_symmetry_space_group_name_H-M "C 2/C"
_symmetry_group_IT_number 15
_symmetry_cell_setting 'monoclinic'
loop_
_space_group_symop_operation_xyz
x,y,z
-x,y,1/2-z
-x,-y,-z
x,-y,1/2+z
1/2+x,1/2+y,z
1/2-x,1/2+y,1/2-z
1/2-x,1/2-y,-z
1/2+x,1/2-y,1/2+z
loop_
_atom_site_type_symbol
_atom_site_label
_atom_site_fract_x
_atom_site_fract_y
_atom_site_fract_z
Si Si1 0.015989 0.285503 0.007021
Si Si2 0.257615 0.778925 0.078174
Si Si3 0.754068 0.134198 0.129811
Si Si4 0.610231 0.222868 0.238661
Si Si5 0.776757 0.045795 0.067355
Si Si6 0.582736 0.649659 0.107361
Si Si7 0.533186 0.438302 0.980852
Si Si8 0.880473 0.503353 0.256387
O O1 0.235385 0.263981 0.177685
O O2 0.823843 0.251801 0.906440
O O3 0.929807 0.328858 0.990274
O O4 0.030174 0.286131 0.924822
O O5 0.500000 0.794253 0.250000
O O6 0.250000 0.750000 0.000000
O O7 0.099505 0.818785 0.972550
O O8 0.699600 0.089267 0.058898
O O9 0.788012 0.130393 0.240598
O O10 0.000000 0.146098 0.250000
O O11 0.500000 0.229471 0.250000
O O12 0.761479 0.181012 0.341387
O O13 0.860599 0.058237 0.036111
O O14 0.000000 0.030761 0.250000
O O15 0.578705 0.011926 0.935143
O O16 0.479853 0.609925 0.001859
O O17 0.284950 0.458411 0.826602
O O18 0.703412 0.465164 0.137413
O O19 0.000000 0.510909 0.250000
#
# Coordination Sequence:
#
# PCOD9255686 Si02
#       8
#     8   8   8   8   8   8   8   8
#     4  10  20  34  53  76 108 146 189 225 286 337
#     4  11  21  33  52  83 118 151 181 230 290 350
#     4  10  17  32  53  79 113 140 168 230 286 337
#     4  10  21  37  54  75 103 147 197 239 273 329
#     4  10  19  34  57  87 109 144 185 224 289 342
#     4  10  20  33  52  80 107 143 189 226 279 343
#     4  10  19  38  56  82 116 145 190 232 285 351
#     4   9  21  37  58  82 114 151 183 234 291 343
#
# _framework density 18.913640999999998
#
# number of rings (size 3 to 8) (size 9 to 14) (size 15 to 20)
#    0.000    2.000    2.500    3.750    0.000    2.500 
#    4.500    0.000    0.000    0.000    0.000    0.000 
#    0.000    0.000    0.000    0.000    0.000    0.000 
#
# Total GULP energy -178320.862203 kJ/mol
# GULP energy per Si atom -5572.526944 kJ/mol
# Density = 1.887059 g / cm^3
# Si number density = 18.913641 Si / 1000 Ang^3
#
#
#
# Elastic Constant Matrix: (Units=GPa)
#
#
# Indices 1 2 3 4 5 6 
#
# 1 62.2958 17.2932 12.6837 0.0000 5.4966 0.0000
# 2 17.2932 91.6851 24.9713 0.0001 9.2583 0.0001
# 3 12.6837 24.9713 66.8029 -0.0004 2.8990 -0.0002
# 4 0.0000 0.0001 -0.0004 -18.9448 -0.0002 -23.8914
# 5 5.4966 9.2583 2.8990 -0.0002 21.3142 -0.0001
# 6 0.0000 0.0001 -0.0002 -23.8914 -0.0001 11.7391
#
#
#
# Elastic Compliance Matrix: (Units=1/GPa)
#
#
# Indices 1 2 3 4 5 6 
#
# 1 0.017451 -0.002345 -0.002299 0.000000 -0.003169 0.000000
# 2 -0.002345 0.012942 -0.004200 0.000000 -0.004446 0.000000
# 3 -0.002299 -0.004200 0.016971 0.000000 0.000109 0.000000
# 4 0.000000 0.000000 0.000000 -0.014800 0.000000 -0.030120
# 5 -0.003169 -0.004446 0.000109 0.000000 0.049651 0.000000
# 6 0.000000 0.000000 0.000000 -0.030120 0.000000 0.023884
#
#
# Mechanical properties :
#
#
# Convention : Reuss Voigt Hill
#
# Bulk Modulus (GPa) = 33.69722 36.74225 35.21974
# Shear Modulus (GPa) = 37.40292 13.87741 25.64017
#
# Velocity S-wave (km/s) = 4.45180 2.71167 3.68590
# Velocity P-wave (km/s) = 6.65431 5.41043 6.06434
#
# Compressibility (1/GPa) = 0.02967603
#
# Stress axis : x y z
#
# Youngs Moduli (GPa) = 57.30253 77.26806 58.92385
#
# Poissons Ratio (x) = 0.18122 0.13548
# Poissons Ratio (y) = 0.13439 0.24745
# Poissons Ratio (z) = 0.13175 0.32449
#
# Static dielectric constant tensor:
#      x y z
#    x 1.678560 0.000000 -0.002610 
#    y 0.000000 1.674140 0.000000 
#    z -0.002610 0.000000 1.695840 
# 
# From -- ./inp_files/201490.got.cif
#   From: 2010.05.17/outbox.cif.g08.bks.cpg/sg15_101_cif.got.tgz:201490.got - 2010.06.03 18:47:42.
