data_PCOD9255382
_publ_section_title
;
Structure prediction by ZEFSAII (Michael W. Deem and Ramdas Pophale) SiO2 
 PCOD9255382
Probable space group: C 2/C
;
_chemical_formula_sum "Si O2"
_cell_formula_units_Z 64
_cell_length_a 15.334606
_cell_length_b 14.309446
_cell_length_c 16.672462
_cell_angle_alpha 90.000000
_cell_angle_beta 127.941260
_cell_angle_gamma 90.000000
_cell_volume 2885.192641
_symmetry_space_group_name_H-M "C 2/C"
_symmetry_group_IT_number 15
_symmetry_cell_setting 'monoclinic'
loop_
_space_group_symop_operation_xyz
x,y,z
-x,y,1/2-z
-x,-y,-z
x,-y,1/2+z
1/2+x,1/2+y,z
1/2-x,1/2+y,1/2-z
1/2-x,1/2-y,-z
1/2+x,1/2-y,1/2+z
loop_
_atom_site_type_symbol
_atom_site_label
_atom_site_fract_x
_atom_site_fract_y
_atom_site_fract_z
Si Si1 0.261395 0.137367 0.412783
Si Si2 0.534794 0.663325 0.925019
Si Si3 0.179579 0.231029 0.776842
Si Si4 0.872577 0.655326 0.097605
Si Si5 0.409689 0.209645 0.639529
Si Si6 0.426930 0.728606 0.395072
Si Si7 0.824594 0.938744 0.102103
Si Si8 0.026308 0.599529 0.053510
O O1 0.340895 0.147859 0.536868
O O2 0.182558 0.227568 0.368575
O O3 0.345096 0.121839 0.386428
O O4 0.190674 0.043959 0.380338
O O5 0.415268 0.706143 0.840004
O O6 0.621610 0.744660 0.946256
O O7 0.561131 0.580500 0.879373
O O8 0.552908 0.647280 0.028516
O O9 0.297259 0.259882 0.808190
O O10 0.191255 0.135340 0.835170
O O11 0.136477 0.308713 0.816553
O O12 0.977185 0.603970 0.115359
O O13 0.770970 0.590197 0.015458
O O14 0.500000 0.162493 0.750000
O O15 0.489837 0.276214 0.631574
O O16 0.463801 0.822734 0.464063
O O17 0.000000 0.500000 0.000000
#
# Coordination Sequence:
#
# PCOD9255382 Si02
#       8
#     8   8   8   8   8   8   8   8
#     4  10  22  39  64  84 116 162 202 256 297 346
#     4  10  20  33  57  92 122 157 194 232 308 376
#     4  11  19  33  58  92 125 159 189 234 304 372
#     4  10  17  30  53  83 125 153 182 235 291 353
#     4  10  24  44  63  84 110 157 216 253 298 354
#     4  10  20  37  60  81 116 157 196 251 293 361
#     4  11  17  34  59  86 127 154 186 245 306 351
#     4  10  17  31  57  84 110 157 199 236 291 345
#
# _framework density 22.182227000000001
#
# number of rings (size 3 to 8) (size 9 to 14) (size 15 to 20)
#    0.000    1.750    5.000    2.250    0.000    5.000 
#    0.000    1.875    0.000    1.500    0.000    0.000 
#    0.000    0.000    0.000    0.000    0.000    0.000 
#
# Total GULP energy -178529.123686 kJ/mol
# GULP energy per Si atom -5579.035115 kJ/mol
# Density = 2.213174 g / cm^3
# Si number density = 22.182227 Si / 1000 Ang^3
#
#
#
# Elastic Constant Matrix: (Units=GPa)
#
#
# Indices 1 2 3 4 5 6 
#
# 1 137.9964 6.4539 8.0903 0.0000 13.2691 0.0000
# 2 6.4539 53.3023 -4.3595 0.0000 4.2797 0.0000
# 3 8.0903 -4.3595 81.0629 0.0000 14.4672 0.0000
# 4 0.0000 0.0000 0.0000 13.1977 0.0000 3.5118
# 5 13.2691 4.2797 14.4672 0.0000 26.5867 0.0000
# 6 0.0000 0.0000 0.0000 3.5118 0.0000 28.8069
#
#
#
# Elastic Compliance Matrix: (Units=1/GPa)
#
#
# Indices 1 2 3 4 5 6 
#
# 1 0.007634 -0.000646 -0.000150 0.000000 -0.003625 0.000000
# 2 -0.000646 0.019285 0.001770 0.000000 -0.003745 0.000000
# 3 -0.000150 0.001770 0.013826 0.000000 -0.007734 0.000000
# 4 0.000000 0.000000 0.000000 0.078311 0.000000 -0.009547
# 5 -0.003625 -0.003745 -0.007734 0.000000 0.044233 0.000000
# 6 0.000000 0.000000 0.000000 -0.009547 0.000000 0.035878
#
#
# Mechanical properties :
#
#
# Convention : Reuss Voigt Hill
#
# Bulk Modulus (GPa) = 23.42227 32.52568 27.97397
# Shear Modulus (GPa) = 23.64635 31.19672 27.42153
#
# Velocity S-wave (km/s) = 3.26851 3.75425 3.51977
# Velocity P-wave (km/s) = 4.98259 5.78682 5.39970
#
# Compressibility (1/GPa) = 0.04269441
#
# Stress axis : x y z
#
# Youngs Moduli (GPa) = 130.99171 51.85496 72.32501
#
# Poissons Ratio (x) = 0.03348 0.01083
# Poissons Ratio (y) = 0.08456 -0.12801
# Poissons Ratio (z) = 0.01961 -0.09178
#
# Static dielectric constant tensor:
#      x y z
#    x 1.865610 0.000000 -0.012860 
#    y 0.000000 1.797980 0.000000 
#    z -0.012860 0.000000 1.917020 
# 
# From -- ./inp_files/205730.got.cif
#   From: 2010.05.17/outbox.cif.g08.bks.cpg/sg15_103_cif.got.tgz:205730.got - 2010.06.03 18:47:42.
