data_PCOD9255296
_publ_section_title
;
Structure prediction by ZEFSAII (Michael W. Deem and Ramdas Pophale) SiO2 
 PCOD9255296
Probable space group: C 2/C
;
_chemical_formula_sum "Si O2"
_cell_formula_units_Z 44
_cell_length_a 30.902144
_cell_length_b 7.278796
_cell_length_c 9.970887
_cell_angle_alpha 90.000000
_cell_angle_beta 124.663232
_cell_angle_gamma 90.000000
_cell_volume 1844.687113
_symmetry_space_group_name_H-M "C 2/C"
_symmetry_group_IT_number 15
_symmetry_cell_setting 'monoclinic'
loop_
_space_group_symop_operation_xyz
x,y,z
-x,y,1/2-z
-x,-y,-z
x,-y,1/2+z
1/2+x,1/2+y,z
1/2-x,1/2+y,1/2-z
1/2-x,1/2-y,-z
1/2+x,1/2-y,1/2+z
loop_
_atom_site_type_symbol
_atom_site_label
_atom_site_fract_x
_atom_site_fract_y
_atom_site_fract_z
Si Si1 0.645092 0.595106 0.420791
Si Si2 0.000000 0.158188 0.750000
Si Si3 0.297584 0.371859 0.750375
Si Si4 0.951270 0.213563 0.090816
Si Si5 0.595639 0.799849 0.765623
Si Si6 0.709997 0.885025 0.016162
O O1 0.680886 0.536532 0.613090
O O2 0.669183 0.661246 0.324082
O O3 0.597852 0.712053 0.396287
O O4 0.620083 0.402836 0.328647
O O5 0.952354 0.287074 0.714142
O O6 0.971371 0.001131 0.603593
O O7 0.295979 0.203750 0.847778
O O8 0.241164 0.429414 0.594970
O O9 0.000000 0.303307 0.250000
O O10 0.933367 0.310588 0.926079
O O11 0.650320 0.911841 0.861722
O O12 0.750000 0.750000 0.000000
#
# Coordination Sequence:
#
# PCOD9255296 Si02
#       6
#     8   4   8   8   8   8
#     4  10  18  31  51  76 116 144 181 224 277 334
#     4   8  18  24  46  74 104 148 178 224 278 346
#     4  11  21  37  56  80 113 157 182 228 281 330
#     4   9  17  24  46  74 112 146 178 216 288 341
#     4  10  17  30  47  75 113 148 175 230 283 329
#     4  11  22  37  58  81 120 149 186 233 283 331
#
# _framework density 23.852284000000001
#
# number of rings (size 3 to 8) (size 9 to 14) (size 15 to 20)
#    0.545    1.455    5.455    0.545    0.000    0.727 
#    0.000    0.000    0.000    0.000    0.000    1.273 
#    2.727    0.000    0.000    0.000    0.000    0.000 
#
# Total GULP energy -122664.121788 kJ/mol
# GULP energy per Si atom -5575.641899 kJ/mol
# Density = 2.379800 g / cm^3
# Si number density = 23.852284 Si / 1000 Ang^3
#
#
#
# Elastic Constant Matrix: (Units=GPa)
#
#
# Indices 1 2 3 4 5 6 
#
# 1 149.7356 22.9341 50.9597 0.0000 10.8105 0.0000
# 2 22.9341 31.6060 14.3137 0.0000 1.5594 0.0000
# 3 50.9597 14.3137 140.5368 0.0000 28.3540 0.0000
# 4 0.0000 0.0000 0.0000 18.3611 0.0000 4.7252
# 5 10.8105 1.5594 28.3540 0.0000 47.9739 0.0000
# 6 0.0000 0.0000 0.0000 4.7252 0.0000 16.4669
#
#
#
# Elastic Compliance Matrix: (Units=1/GPa)
#
#
# Indices 1 2 3 4 5 6 
#
# 1 0.008280 -0.004885 -0.002453 0.000000 -0.000257 0.000000
# 2 -0.004885 0.036097 -0.002147 0.000000 0.001196 0.000000
# 3 -0.002453 -0.002147 0.009194 0.000000 -0.004812 0.000000
# 4 0.000000 0.000000 0.000000 0.058806 0.000000 -0.016874
# 5 -0.000257 0.001196 -0.004812 0.000000 0.023708 0.000000
# 6 0.000000 0.000000 0.000000 -0.016874 0.000000 0.065570
#
#
# Mechanical properties :
#
#
# Convention : Reuss Voigt Hill
#
# Bulk Modulus (GPa) = 28.89910 55.36592 42.13251
# Shear Modulus (GPa) = 21.53711 32.13844 26.83778
#
# Velocity S-wave (km/s) = 3.00815 3.67467 3.35799
# Velocity P-wave (km/s) = 4.92011 6.42391 5.72163
#
# Compressibility (1/GPa) = 0.03460315
#
# Stress axis : x y z
#
# Youngs Moduli (GPa) = 120.77326 27.70310 108.76121
#
# Poissons Ratio (x) = 0.13532 0.26679
# Poissons Ratio (y) = 0.58992 0.23347
# Poissons Ratio (z) = 0.29625 0.05947
#
# Static dielectric constant tensor:
#      x y z
#    x 2.234990 0.000000 0.064980 
#    y 0.000000 2.093060 0.000000 
#    z 0.064980 0.000000 1.965390 
# 
# From -- ./inp_files/68908.got.cif
#   From: 2010.05.17/outbox.cif.g08.bks.cpg/sg15_35_cif.got.tgz:68908.got - 2010.06.03 18:47:42.
