data_PCOD9255470
_publ_section_title
;
Structure prediction by ZEFSAII (Michael W. Deem and Ramdas Pophale) SiO2 
 PCOD9255470
Probable space group: C 2/C
;
_chemical_formula_sum "Si O2"
_cell_formula_units_Z 60
_cell_length_a 16.431509
_cell_length_b 17.775561
_cell_length_c 11.832956
_cell_angle_alpha 90.000000
_cell_angle_beta 73.644877
_cell_angle_gamma 90.000000
_cell_volume 3316.307217
_symmetry_space_group_name_H-M "C 2/C"
_symmetry_group_IT_number 15
_symmetry_cell_setting 'monoclinic'
loop_
_space_group_symop_operation_xyz
x,y,z
-x,y,1/2-z
-x,-y,-z
x,-y,1/2+z
1/2+x,1/2+y,z
1/2-x,1/2+y,1/2-z
1/2-x,1/2-y,-z
1/2+x,1/2-y,1/2+z
loop_
_atom_site_type_symbol
_atom_site_label
_atom_site_fract_x
_atom_site_fract_y
_atom_site_fract_z
Si Si1 0.701983 0.238184 0.841789
Si Si2 0.345699 0.168930 0.411907
Si Si3 0.614280 0.621664 0.304783
Si Si4 0.113015 0.009120 0.636474
Si Si5 0.193119 0.893641 0.304650
Si Si6 0.252291 0.972313 0.893177
Si Si7 0.500000 0.741025 0.750000
Si Si8 0.985884 0.884163 0.060156
O O1 0.760886 0.292479 0.894943
O O2 0.647641 0.292854 0.782605
O O3 0.763691 0.183088 0.749348
O O4 0.650196 0.191062 0.957050
O O5 0.421144 0.205753 0.311257
O O6 0.330088 0.080450 0.397696
O O7 0.596324 0.570559 0.202801
O O8 0.689921 0.574379 0.334946
O O9 0.539164 0.626156 0.425751
O O10 0.143120 0.070106 0.718110
O O11 0.031552 0.044320 0.603813
O O12 0.194313 0.009421 0.523581
O O13 0.264847 0.949813 0.322801
O O14 0.114265 0.890940 0.422337
O O15 0.507310 0.685760 0.855439
#
# Coordination Sequence:
#
# PCOD9255470 Si02
#       8
#     8   8   8   8   8   8   4   8
#     4  10  17  31  50  72 103 136 170 208 253 299
#     4  10  18  31  52  74 105 130 168 216 257 296
#     4   9  20  31  47  74 106 141 166 207 253 312
#     4  10  18  32  47  71 110 142 161 202 256 314
#     4  11  19  30  50  74 107 135 166 211 253 305
#     4   9  20  32  48  76 102 138 173 204 254 306
#     4  12  18  30  54  80 104 126 164 218 264 296
#     4  11  19  30  46  80 110 132 159 210 261 306
#
# _framework density 18.092413000000001
#
# number of rings (size 3 to 8) (size 9 to 14) (size 15 to 20)
#    0.000    1.867    5.333    0.000    0.000    5.867 
#    0.000    0.667    0.000    0.800    3.467    0.000 
#    0.000    0.000    0.000    0.000    0.000    0.000 
#
# Total GULP energy -167201.870450 kJ/mol
# GULP energy per Si atom -5573.395682 kJ/mol
# Density = 1.805123 g / cm^3
# Si number density = 18.092413 Si / 1000 Ang^3
#
#
#
# Elastic Constant Matrix: (Units=GPa)
#
#
# Indices 1 2 3 4 5 6 
#
# 1 43.5481 40.1076 20.5015 0.0000 -2.2100 0.0000
# 2 40.1076 111.4419 33.3134 0.0000 2.9092 0.0000
# 3 20.5015 33.3134 45.1209 0.0000 -2.2828 0.0000
# 4 0.0000 0.0000 0.0000 11.4010 0.0000 -6.7332
# 5 -2.2100 2.9092 -2.2828 0.0000 7.9066 0.0000
# 6 0.0000 0.0000 0.0000 -6.7332 0.0000 22.5248
#
#
#
# Elastic Compliance Matrix: (Units=1/GPa)
#
#
# Indices 1 2 3 4 5 6 
#
# 1 0.038126 -0.011629 -0.008100 0.000000 0.012597 0.000000
# 2 -0.011629 0.015432 -0.006659 0.000000 -0.010851 0.000000
# 3 -0.008100 -0.006659 0.031225 0.000000 0.009201 0.000000
# 4 0.000000 0.000000 0.000000 0.106516 0.000000 0.031840
# 5 0.012597 -0.010851 0.009201 0.000000 0.136647 0.000000
# 6 0.000000 0.000000 0.000000 0.031840 0.000000 0.053913
#
#
# Mechanical properties :
#
#
# Convention : Reuss Voigt Hill
#
# Bulk Modulus (GPa) = 31.24299 43.10622 37.17460
# Shear Modulus (GPa) = 11.22826 15.44570 13.33698
#
# Velocity S-wave (km/s) = 2.49390 2.92500 2.71801
# Velocity P-wave (km/s) = 5.05952 5.94010 5.51741
#
# Compressibility (1/GPa) = 0.03200718
#
# Stress axis : x y z
#
# Youngs Moduli (GPa) = 26.22893 64.79883 32.02543
#
# Poissons Ratio (x) = 0.75354 0.25941
# Poissons Ratio (y) = 0.30501 0.21326
# Poissons Ratio (z) = 0.21246 0.43151
#
# Static dielectric constant tensor:
#      x y z
#    x 1.632150 0.000000 0.016420 
#    y 0.000000 1.663440 0.000000 
#    z 0.016420 0.000000 1.666150 
# 
# From -- ./inp_files/106379.got.cif
#   From: 2010.05.17/outbox.cif.g08.bks.cpg/sg15_54_cif.got.tgz:106379.got - 2010.06.03 18:47:42.
