data_PCOD9255840
_publ_section_title
;
Structure prediction by ZEFSAII (Michael W. Deem and Ramdas Pophale) SiO2 
 PCOD9255840
Probable space group: C 2/C
;
_chemical_formula_sum "Si O2"
_cell_formula_units_Z 64
_cell_length_a 33.529876
_cell_length_b 15.416690
_cell_length_c 22.758263
_cell_angle_alpha 90.000000
_cell_angle_beta 17.682646
_cell_angle_gamma 90.000000
_cell_volume 3573.309406
_symmetry_space_group_name_H-M "C 2/C"
_symmetry_group_IT_number 15
_symmetry_cell_setting 'monoclinic'
loop_
_space_group_symop_operation_xyz
x,y,z
-x,y,1/2-z
-x,-y,-z
x,-y,1/2+z
1/2+x,1/2+y,z
1/2-x,1/2+y,1/2-z
1/2-x,1/2-y,-z
1/2+x,1/2-y,1/2+z
loop_
_atom_site_type_symbol
_atom_site_label
_atom_site_fract_x
_atom_site_fract_y
_atom_site_fract_z
Si Si1 0.644855 0.209588 0.066697
Si Si2 0.073285 0.095636 0.396268
Si Si3 0.645070 0.945394 0.049417
Si Si4 0.849076 0.433723 0.848191
Si Si5 0.727747 0.371361 0.795512
Si Si6 0.359645 0.593159 0.949626
Si Si7 0.860733 0.459902 0.063121
Si Si8 0.324809 0.689833 0.699099
O O1 0.500000 0.179479 0.250000
O O2 0.682447 0.152722 0.069970
O O3 0.628526 0.312396 0.098182
O O4 0.748521 0.199450 0.868523
O O5 0.114043 0.122884 0.405474
O O6 0.971631 0.161270 0.508794
O O7 0.214172 0.096062 0.164818
O O8 0.000000 0.000000 0.500000
O O9 0.500000 0.900013 0.250000
O O10 0.656965 0.989154 0.096040
O O11 0.634950 0.018580 0.012635
O O12 0.998170 0.424914 0.616977
O O13 0.753875 0.451325 0.927910
O O14 0.826539 0.448770 0.640391
O O15 0.799325 0.278403 0.699508
O O16 0.673561 0.390441 0.936219
O O17 0.500000 0.547917 0.750000
O O18 0.747665 0.389791 0.231575
#
# Coordination Sequence:
#
# PCOD9255840 Si02
#       8
#     8   8   8   8   8   8   8   8
#     4  10  17  33  49  81 117 147 194 236 297 368
#     4  11  20  37  65  85 113 163 206 249 294 356
#     4   9  18  33  58  89 108 145 204 257 293 347
#     4  11  18  32  57  78 111 158 195 241 305 365
#     4  10  24  39  51  88 127 152 202 246 296 373
#     4  10  24  31  46  79 123 161 182 240 301 366
#     4  10  19  36  59  81 117 156 198 247 294 361
#     4  11  20  34  60  91 116 154 200 253 301 342
#
# _framework density 17.910567
#
# number of rings (size 3 to 8) (size 9 to 14) (size 15 to 20)
#    0.000    1.750    5.000    0.750    3.500    2.500 
#    0.000    0.000    0.000    6.750    0.000   10.500 
#    0.000    0.000    0.000    0.000    0.000    0.000 
#
# Total GULP energy -178262.841090 kJ/mol
# GULP energy per Si atom -5570.713784 kJ/mol
# Density = 1.786980 g / cm^3
# Si number density = 17.910567 Si / 1000 Ang^3
#
#
#
# Elastic Constant Matrix: (Units=GPa)
#
#
# Indices 1 2 3 4 5 6 
#
# 1 113.0671 35.5482 52.8847 -0.0004 -29.5348 0.0002
# 2 35.5482 76.9192 33.0532 -0.0011 -7.7035 0.0007
# 3 52.8847 33.0532 120.8672 -0.0010 -24.6128 0.0006
# 4 -0.0004 -0.0011 -0.0010 32.0664 0.0007 -3.7825
# 5 -29.5348 -7.7035 -24.6128 0.0007 26.2683 -0.0004
# 6 0.0002 0.0007 0.0006 -3.7825 -0.0004 24.8093
#
#
#
# Elastic Compliance Matrix: (Units=1/GPa)
#
#
# Indices 1 2 3 4 5 6 
#
# 1 0.014852 -0.004429 -0.002659 0.000000 0.012909 0.000000
# 2 -0.004429 0.016062 -0.003101 0.000000 -0.003175 0.000000
# 3 -0.002659 -0.003101 0.011729 0.000000 0.007091 0.000000
# 4 0.000000 0.000000 0.000000 0.031756 -0.000001 0.004842
# 5 0.012909 -0.003175 0.007091 -0.000001 0.058296 0.000001
# 6 0.000000 0.000000 0.000000 0.004842 0.000001 0.041046
#
#
# Mechanical properties :
#
#
# Convention : Reuss Voigt Hill
#
# Bulk Modulus (GPa) = 44.91111 61.53617 53.22364
# Shear Modulus (GPa) = 24.80890 29.25331 27.03111
#
# Velocity S-wave (km/s) = 3.72580 4.04579 3.88909
# Velocity P-wave (km/s) = 6.60594 7.50044 7.06736
#
# Compressibility (1/GPa) = 0.02226620
#
# Stress axis : x y z
#
# Youngs Moduli (GPa) = 67.32957 62.25861 85.25975
#
# Poissons Ratio (x) = 0.27572 0.22668
# Poissons Ratio (y) = 0.29818 0.26441
# Poissons Ratio (z) = 0.17901 0.19308
#
# Static dielectric constant tensor:
#      x y z
#    x 1.625700 0.000000 -0.013830 
#    y 0.000000 1.635320 0.000000 
#    z -0.013830 0.000000 1.658640 
# 
# From -- ./inp_files/259433.got.cif
#   From: 2010.05.17/outbox.cif.g08.bks.cpg/sg15_130_cif.got.tgz:259433.got - 2010.06.03 18:47:42.
