data_PCOD9255143
_publ_section_title
;
Structure prediction by ZEFSAII (Michael W. Deem and Ramdas Pophale) SiO2 
 PCOD9255143
Probable space group: C 2/C
;
_chemical_formula_sum "Si O2"
_cell_formula_units_Z 56
_cell_length_a 10.494307
_cell_length_b 15.040159
_cell_length_c 18.362173
_cell_angle_alpha 90.000000
_cell_angle_beta 66.565118
_cell_angle_gamma 90.000000
_cell_volume 2659.146945
_symmetry_space_group_name_H-M "C 2/C"
_symmetry_group_IT_number 15
_symmetry_cell_setting 'monoclinic'
loop_
_space_group_symop_operation_xyz
x,y,z
-x,y,1/2-z
-x,-y,-z
x,-y,1/2+z
1/2+x,1/2+y,z
1/2-x,1/2+y,1/2-z
1/2-x,1/2-y,-z
1/2+x,1/2-y,1/2+z
loop_
_atom_site_type_symbol
_atom_site_label
_atom_site_fract_x
_atom_site_fract_y
_atom_site_fract_z
Si Si1 0.662280 0.621879 0.158990
Si Si2 0.765893 0.142060 0.066672
Si Si3 0.500000 0.741983 0.750000
Si Si4 0.717307 0.343627 0.100219
Si Si5 0.500000 0.220706 0.750000
Si Si6 0.936411 0.386250 0.659613
Si Si7 0.681874 0.927612 0.282040
Si Si8 0.403613 0.461041 0.667944
O O1 0.587554 0.717253 0.174576
O O2 0.828748 0.624083 0.116836
O O3 0.640766 0.592257 0.248407
O O4 0.570033 0.553021 0.133048
O O5 0.792648 0.247140 0.074985
O O6 0.598843 0.126878 0.106333
O O7 0.840403 0.082884 0.110444
O O8 0.810368 0.122484 0.974186
O O9 0.420348 0.682452 0.825044
O O10 0.402815 0.809134 0.726285
O O11 0.792649 0.409300 0.138450
O O12 0.394057 0.157326 0.732393
O O13 0.910154 0.483100 0.699846
O O14 0.823532 0.947557 0.204702
#
# Coordination Sequence:
#
# PCOD9255143 Si02
#       8
#     8   8   4   8   4   8   8   8
#     4   9  18  33  54  80 112 155 187 229 287 351
#     4  10  20  38  56  84 117 156 189 236 289 346
#     4  10  19  38  59  84 112 156 200 234 277 354
#     4  10  21  33  58  84 115 148 198 242 281 332
#     4  10  17  28  51  82 114 142 194 242 275 322
#     4  10  19  33  56  81 113 145 188 231 289 342
#     4  11  19  31  55  87 111 150 195 241 278 338
#     4   9  18  33  55  78 111 146 188 226 285 338
#
# _framework density 21.059386
#
# number of rings (size 3 to 8) (size 9 to 14) (size 15 to 20)
#    0.000    2.286    0.000    7.286    0.000    2.857 
#    0.000    0.000    0.000   29.143    0.000   10.000 
#    0.000    2.286    0.000    0.000    0.000    0.000 
#
# Total GULP energy -156117.503561 kJ/mol
# GULP energy per Si atom -5575.625127 kJ/mol
# Density = 2.101145 g / cm^3
# Si number density = 21.059386 Si / 1000 Ang^3
#
#
#
# Elastic Constant Matrix: (Units=GPa)
#
#
# Indices 1 2 3 4 5 6 
#
# 1 144.4304 44.1344 43.1978 0.0000 17.9764 0.0000
# 2 44.1344 79.7134 23.9708 0.0000 4.3303 0.0000
# 3 43.1978 23.9708 108.2991 0.0000 23.3319 0.0000
# 4 0.0000 0.0000 0.0000 20.3273 0.0000 11.9825
# 5 17.9764 4.3303 23.3319 0.0000 24.7711 0.0000
# 6 0.0000 0.0000 0.0000 11.9825 0.0000 30.9690
#
#
#
# Elastic Compliance Matrix: (Units=1/GPa)
#
#
# Indices 1 2 3 4 5 6 
#
# 1 0.009348 -0.004391 -0.001832 0.000000 -0.004290 0.000000
# 2 -0.004391 0.015509 -0.002238 0.000000 0.002583 0.000000
# 3 -0.001832 -0.002238 0.012658 0.000000 -0.010201 0.000000
# 4 0.000000 0.000000 0.000000 0.063731 0.000000 -0.024659
# 5 -0.004290 0.002583 -0.010201 0.000000 0.052640 0.000000
# 6 0.000000 0.000000 0.000000 -0.024659 0.000000 0.041831
#
#
# Mechanical properties :
#
#
# Convention : Reuss Voigt Hill
#
# Bulk Modulus (GPa) = 48.56399 61.67209 55.11804
# Shear Modulus (GPa) = 22.77879 29.95616 26.36748
#
# Velocity S-wave (km/s) = 3.29241 3.77564 3.54228
# Velocity P-wave (km/s) = 6.12893 6.95383 6.55437
#
# Compressibility (1/GPa) = 0.02059139
#
# Stress axis : x y z
#
# Youngs Moduli (GPa) = 106.97895 64.47934 79.00396
#
# Poissons Ratio (x) = 0.28315 0.14476
# Poissons Ratio (y) = 0.46979 0.17678
# Poissons Ratio (z) = 0.19602 0.14428
#
# Static dielectric constant tensor:
#      x y z
#    x 1.873750 0.000000 -0.040990 
#    y 0.000000 1.815750 0.000000 
#    z -0.040990 0.000000 1.763790 
# 
# From -- ./inp_files/197802.got.cif
#   From: 2010.05.17/outbox.cif.g08.bks.cpg/sg15_99_cif.got.tgz:197802.got - 2010.06.03 18:47:42.
