data_PCOD9255615
_publ_section_title
;
Structure prediction by ZEFSAII (Michael W. Deem and Ramdas Pophale) SiO2 
 PCOD9255615
Probable space group: C 2/C
;
_chemical_formula_sum "Si O2"
_cell_formula_units_Z 48
_cell_length_a 28.694312
_cell_length_b 10.060664
_cell_length_c 23.071180
_cell_angle_alpha 90.000000
_cell_angle_beta 18.088429
_cell_angle_gamma 90.000000
_cell_volume 2067.912429
_symmetry_space_group_name_H-M "C 2/C"
_symmetry_group_IT_number 15
_symmetry_cell_setting 'monoclinic'
loop_
_space_group_symop_operation_xyz
x,y,z
-x,y,1/2-z
-x,-y,-z
x,-y,1/2+z
1/2+x,1/2+y,z
1/2-x,1/2+y,1/2-z
1/2-x,1/2-y,-z
1/2+x,1/2-y,1/2+z
loop_
_atom_site_type_symbol
_atom_site_label
_atom_site_fract_x
_atom_site_fract_y
_atom_site_fract_z
Si Si1 0.551185 0.029465 0.063596
Si Si2 0.728648 0.532961 0.391525
Si Si3 0.281285 0.777368 0.611224
Si Si4 0.290002 0.616948 0.419409
Si Si5 0.154791 0.050997 0.345223
Si Si6 0.500000 0.937524 0.750000
Si Si7 0.000000 0.950628 0.250000
O O1 0.405383 0.051896 0.196366
O O2 0.535872 0.112981 0.141613
O O3 0.569613 0.870747 0.060496
O O4 0.708439 0.039439 0.842954
O O5 0.702999 0.373003 0.426112
O O6 0.671442 0.561261 0.394449
O O7 0.635318 0.609465 0.552140
O O8 0.180993 0.849710 0.681254
O O9 0.194299 0.802746 0.773344
O O10 0.250000 0.750000 0.500000
O O11 0.418591 0.539458 0.298852
O O12 0.146250 0.523363 0.590311
O O13 0.000000 0.000000 0.500000
#
# Coordination Sequence:
#
# PCOD9255615 Si02
#       7
#     8   8   8   8   8   4   4
#     4   9  21  34  51  75 107 147 182 225 266 329
#     4  12  22  35  54  80 115 149 189 222 276 333
#     4   9  22  33  54  75 113 147 186 221 272 327
#     4  11  18  28  44  75 108 139 171 213 265 327
#     4  10  23  37  52  74 110 150 190 228 273 333
#     4  10  17  32  46  68 105 136 168 215 270 320
#     4  12  23  26  52  84 109 142 182 219 276 334
#
# _framework density 23.211814
#
# number of rings (size 3 to 8) (size 9 to 14) (size 15 to 20)
#    1.000    0.667    3.333    2.000    7.000    0.000 
#    0.000    0.000    0.000    0.000    0.000    1.167 
#    0.000    8.000    0.000    0.167    0.000    0.000 
#
# Total GULP energy -133663.247018 kJ/mol
# GULP energy per Si atom -5569.301959 kJ/mol
# Density = 2.315898 g / cm^3
# Si number density = 23.211814 Si / 1000 Ang^3
#
#
#
# Elastic Constant Matrix: (Units=GPa)
#
#
# Indices 1 2 3 4 5 6 
#
# 1 172.6540 4.5997 71.8201 -0.0004 -2.1326 -0.0003
# 2 4.5997 43.2423 4.4592 -0.0002 -5.4995 0.0000
# 3 71.8201 4.4592 151.0844 -0.0010 -8.6246 -0.0005
# 4 -0.0004 -0.0002 -0.0010 4.0067 0.0008 -3.9355
# 5 -2.1326 -5.4995 -8.6246 0.0008 59.8165 0.0004
# 6 -0.0003 0.0000 -0.0005 -3.9355 0.0004 7.8734
#
#
#
# Elastic Compliance Matrix: (Units=1/GPa)
#
#
# Indices 1 2 3 4 5 6 
#
# 1 0.007232 -0.000450 -0.003440 0.000000 -0.000280 0.000000
# 2 -0.000450 0.023476 -0.000360 0.000001 0.002090 0.000000
# 3 -0.003440 -0.000360 0.008324 0.000004 0.001045 0.000002
# 4 0.000000 0.000001 0.000004 0.490296 -0.000008 0.245073
# 5 -0.000280 0.002090 0.001045 -0.000008 0.017051 -0.000005
# 6 0.000000 0.000000 0.000002 0.245073 -0.000005 0.249509
#
#
# Mechanical properties :
#
#
# Convention : Reuss Voigt Hill
#
# Bulk Modulus (GPa) = 32.75206 58.74874 45.75040
# Shear Modulus (GPa) = 6.13824 33.41278 19.77551
#
# Velocity S-wave (km/s) = 1.62794 3.79815 2.92200
# Velocity P-wave (km/s) = 4.20408 6.67828 5.58004
#
# Compressibility (1/GPa) = 0.03053243
#
# Stress axis : x y z
#
# Youngs Moduli (GPa) = 138.28296 42.59610 120.12805
#
# Poissons Ratio (x) = 0.01917 0.41328
# Poissons Ratio (y) = 0.06223 0.04320
# Poissons Ratio (z) = 0.47573 0.01532
#
# Static dielectric constant tensor:
#      x y z
#    x 1.875200 0.000000 0.053000 
#    y 0.000000 1.941070 0.000000 
#    z 0.053000 0.000000 2.096760 
# 
# From -- ./inp_files/257968.got.cif
#   From: 2010.05.17/outbox.cif.g08.bks.cpg/sg15_129_cif.got.tgz:257968.got - 2010.06.03 18:47:42.
