data_PCOD9255964
_publ_section_title
;
Structure prediction by ZEFSAII (Michael W. Deem and Ramdas Pophale) SiO2 
 PCOD9255964
Probable space group: C 2/C
;
_chemical_formula_sum "Si O2"
_cell_formula_units_Z 56
_cell_length_a 14.648845
_cell_length_b 18.546784
_cell_length_c 14.643483
_cell_angle_alpha 90.000000
_cell_angle_beta 142.144253
_cell_angle_gamma 90.000000
_cell_volume 2441.491476
_symmetry_space_group_name_H-M "C 2/C"
_symmetry_group_IT_number 15
_symmetry_cell_setting 'monoclinic'
loop_
_space_group_symop_operation_xyz
x,y,z
-x,y,1/2-z
-x,-y,-z
x,-y,1/2+z
1/2+x,1/2+y,z
1/2-x,1/2+y,1/2-z
1/2-x,1/2-y,-z
1/2+x,1/2-y,1/2+z
loop_
_atom_site_type_symbol
_atom_site_label
_atom_site_fract_x
_atom_site_fract_y
_atom_site_fract_z
Si Si1 0.852176 0.886603 0.880013
Si Si2 0.460198 0.728860 0.057629
Si Si3 0.147744 0.418493 0.963335
Si Si4 0.624144 0.633666 0.725493
Si Si5 0.858244 0.493133 0.736892
Si Si6 0.062107 0.711591 0.168047
Si Si7 0.827946 0.341844 0.208641
O O1 0.935114 0.842214 0.865782
O O2 0.775091 0.964170 0.804476
O O3 0.713863 0.834022 0.794296
O O4 0.977771 0.893513 0.057353
O O5 0.529898 0.791245 0.172629
O O6 0.460396 0.764508 0.955711
O O7 0.297422 0.698823 0.948493
O O8 0.165141 0.448929 0.875731
O O9 0.016925 0.468439 0.902179
O O10 0.073470 0.338680 0.907094
O O11 0.299324 0.415475 0.138664
O O12 0.584829 0.712152 0.733787
O O13 0.749958 0.649463 0.747468
O O14 0.858053 0.575881 0.709511
#
# Coordination Sequence:
#
# PCOD9255964 Si02
#       7
#     8   8   8   8   8   8   8
#     4   9  17  32  51  82 117 145 183 236 284 340
#     4  10  17  33  60  85 114 145 192 244 287 333
#     4  10  20  38  54  79 119 161 188 226 287 351
#     4  10  18  31  59  86 110 148 194 236 285 345
#     4  10  23  37  52  79 123 160 183 229 287 353
#     4   9  15  32  55  83 113 147 187 235 280 350
#     4  10  20  36  60  88 113 144 192 244 289 338
#
# _framework density 22.936799000000001
#
# number of rings (size 3 to 8) (size 9 to 14) (size 15 to 20)
#    0.000    2.571    4.286    0.857    0.000    3.429 
#    0.000   22.143    0.000    3.429    0.000    0.000 
#    0.000    0.000    0.000    0.000    0.000    0.000 
#
# Total GULP energy -156320.961047 kJ/mol
# GULP energy per Si atom -5582.891466 kJ/mol
# Density = 2.288459 g / cm^3
# Si number density = 22.936799 Si / 1000 Ang^3
#
#
#
# Elastic Constant Matrix: (Units=GPa)
#
#
# Indices 1 2 3 4 5 6 
#
# 1 46.4776 17.8703 7.9717 0.0000 -7.7038 0.0000
# 2 17.8703 136.3759 50.8605 0.0000 14.4959 0.0000
# 3 7.9717 50.8605 91.1543 0.0001 20.1179 0.0001
# 4 0.0000 0.0000 0.0001 15.5276 0.0000 -6.7585
# 5 -7.7038 14.4959 20.1179 0.0000 14.4566 0.0000
# 6 0.0000 0.0000 0.0001 -6.7585 0.0000 12.2928
#
#
#
# Elastic Compliance Matrix: (Units=1/GPa)
#
#
# Indices 1 2 3 4 5 6 
#
# 1 0.029163 -0.004503 -0.006443 0.000000 0.029022 0.000000
# 2 -0.004503 0.010047 -0.003549 0.000000 -0.007536 0.000000
# 3 -0.006443 -0.003549 0.019465 0.000000 -0.026962 0.000000
# 4 0.000000 0.000000 0.000000 0.084661 0.000000 0.046546
# 5 0.029022 -0.007536 -0.026962 0.000000 0.129715 0.000000
# 6 0.000000 0.000000 0.000000 0.046546 0.000000 0.106939
#
#
# Mechanical properties :
#
#
# Convention : Reuss Voigt Hill
#
# Bulk Modulus (GPa) = 33.68819 47.49032 40.58926
# Shear Modulus (GPa) = 11.93673 21.60907 16.77290
#
# Velocity S-wave (km/s) = 2.28374 3.07272 2.70713
# Velocity P-wave (km/s) = 4.65545 5.77396 5.24461
#
# Compressibility (1/GPa) = 0.02968399
#
# Stress axis : x y z
#
# Youngs Moduli (GPa) = 34.29011 99.52824 51.37528
#
# Poissons Ratio (x) = 0.44822 0.33101
# Poissons Ratio (y) = 0.15443 0.18233
# Poissons Ratio (z) = 0.22093 0.35323
#
# Static dielectric constant tensor:
#      x y z
#    x 1.956400 0.000000 -0.003820 
#    y 0.000000 1.872920 0.000000 
#    z -0.003820 0.000000 1.870210 
# 
# From -- ./inp_files/211903.got.cif
#   From: 2010.05.17/outbox.cif.g08.bks.cpg/sg15_106_cif.got.tgz:211903.got - 2010.06.03 18:47:42.
