data_PCOD9255189
_publ_section_title
;
Structure prediction by ZEFSAII (Michael W. Deem and Ramdas Pophale) SiO2 
 PCOD9255189
Probable space group: C 2/C
;
_chemical_formula_sum "Si O2"
_cell_formula_units_Z 56
_cell_length_a 8.378252
_cell_length_b 27.179670
_cell_length_c 14.504050
_cell_angle_alpha 90.000000
_cell_angle_beta 44.382052
_cell_angle_gamma 90.000000
_cell_volume 2310.133294
_symmetry_space_group_name_H-M "C 2/C"
_symmetry_group_IT_number 15
_symmetry_cell_setting 'monoclinic'
loop_
_space_group_symop_operation_xyz
x,y,z
-x,y,1/2-z
-x,-y,-z
x,-y,1/2+z
1/2+x,1/2+y,z
1/2-x,1/2+y,1/2-z
1/2-x,1/2-y,-z
1/2+x,1/2-y,1/2+z
loop_
_atom_site_type_symbol
_atom_site_label
_atom_site_fract_x
_atom_site_fract_y
_atom_site_fract_z
Si Si1 0.698410 0.872785 0.511737
Si Si2 0.693183 0.185519 0.300657
Si Si3 0.576487 0.133501 0.842914
Si Si4 0.315715 0.977213 0.208458
Si Si5 0.046973 0.791802 0.338792
Si Si6 0.828771 0.806554 0.954324
Si Si7 0.810201 0.981867 0.459192
O O1 0.462447 0.860526 0.658414
O O2 0.638832 0.870875 0.426451
O O3 0.805957 0.924674 0.488142
O O4 0.867677 0.828023 0.457763
O O5 0.552329 0.236005 0.366867
O O6 0.782895 0.180170 0.366977
O O7 0.901164 0.192427 0.145940
O O8 0.657339 0.080399 0.775585
O O9 0.713509 0.180587 0.749435
O O10 0.316239 0.150679 0.936704
O O11 0.252424 0.983528 0.125113
O O12 0.080352 0.997969 0.354318
O O13 0.581480 0.996141 0.103711
O O14 0.000000 0.790509 0.250000
O O15 0.750000 0.750000 0.000000
#
# Coordination Sequence:
#
# PCOD9255189 Si02
#       7
#     8   8   8   8   8   8   8
#     4   9  17  28  42  64  90 118 156 191 230 280
#     4  10  20  30  46  69  91 127 165 191 231 281
#     4   9  16  28  45  61  86 126 155 184 235 281
#     4   9  16  26  41  62  86 119 156 189 236 288
#     4  10  17  29  48  66  92 126 161 193 228 275
#     4  10  19  32  46  64  96 128 155 196 235 277
#     4   9  16  26  41  61  89 119 151 193 235 286
#
# _framework density 24.241026999999999
#
# number of rings (size 3 to 8) (size 9 to 14) (size 15 to 20)
#    0.000    2.571    2.857    0.429    0.000    1.143 
#    0.000    5.714    0.000    0.000    0.000    0.000 
#    0.000    3.429    0.000    0.143    0.000    0.000 
#
# Total GULP energy -156114.326970 kJ/mol
# GULP energy per Si atom -5575.511677 kJ/mol
# Density = 2.418585 g / cm^3
# Si number density = 24.241027 Si / 1000 Ang^3
#
#
#
# Elastic Constant Matrix: (Units=GPa)
#
#
# Indices 1 2 3 4 5 6 
#
# 1 65.0270 4.7870 19.7963 0.0000 11.4009 0.0000
# 2 4.7870 56.5621 45.1718 0.0000 -21.0303 0.0000
# 3 19.7963 45.1718 146.7932 0.0000 -47.2391 0.0000
# 4 0.0000 0.0000 0.0000 39.4265 0.0000 -8.7285
# 5 11.4009 -21.0303 -47.2391 0.0000 32.3162 0.0000
# 6 0.0000 0.0000 0.0000 -8.7285 0.0000 15.3313
#
#
#
# Elastic Compliance Matrix: (Units=1/GPa)
#
#
# Indices 1 2 3 4 5 6 
#
# 1 0.023165 -0.003134 -0.010283 0.000000 -0.025244 0.000000
# 2 -0.003134 0.025301 -0.003226 0.000000 0.012854 0.000000
# 3 -0.010283 -0.003226 0.018285 0.000000 0.028257 0.000000
# 4 0.000000 0.000000 0.000000 0.029022 0.000000 0.016523
# 5 -0.025244 0.012854 0.028257 0.000000 0.089521 0.000000
# 6 0.000000 0.000000 0.000000 0.016523 0.000000 0.074633
#
#
# Mechanical properties :
#
#
# Convention : Reuss Voigt Hill
#
# Bulk Modulus (GPa) = 29.88270 45.32138 37.60204
# Shear Modulus (GPa) = 16.42736 30.65661 23.54198
#
# Velocity S-wave (km/s) = 2.60603 3.56006 3.11973
# Velocity P-wave (km/s) = 4.62702 5.96954 5.34063
#
# Compressibility (1/GPa) = 0.03346418
#
# Stress axis : x y z
#
# Youngs Moduli (GPa) = 43.16766 39.52408 54.68847
#
# Poissons Ratio (x) = 0.12387 0.56238
# Poissons Ratio (y) = 0.13529 0.17645
# Poissons Ratio (z) = 0.44391 0.12752
#
# Static dielectric constant tensor:
#      x y z
#    x 1.965390 0.000000 -0.011680 
#    y 0.000000 1.832690 0.000000 
#    z -0.011680 0.000000 2.040370 
# 
# From -- ./inp_files/174872.got.cif
#   From: 2010.05.17/outbox.cif.g08.bks.cpg/sg15_88_cif.got.tgz:174872.got - 2010.06.03 18:47:42.
