data_PCOD9255460
_publ_section_title
;
Structure prediction by ZEFSAII (Michael W. Deem and Ramdas Pophale) SiO2 
 PCOD9255460
Probable space group: C 2/C
;
_chemical_formula_sum "Si O2"
_cell_formula_units_Z 64
_cell_length_a 24.068023
_cell_length_b 11.953191
_cell_length_c 21.043943
_cell_angle_alpha 90.000000
_cell_angle_beta 35.152154
_cell_angle_gamma 90.000000
_cell_volume 3485.660988
_symmetry_space_group_name_H-M "C 2/C"
_symmetry_group_IT_number 15
_symmetry_cell_setting 'monoclinic'
loop_
_space_group_symop_operation_xyz
x,y,z
-x,y,1/2-z
-x,-y,-z
x,-y,1/2+z
1/2+x,1/2+y,z
1/2-x,1/2+y,1/2-z
1/2-x,1/2-y,-z
1/2+x,1/2-y,1/2+z
loop_
_atom_site_type_symbol
_atom_site_label
_atom_site_fract_x
_atom_site_fract_y
_atom_site_fract_z
Si Si1 0.565370 0.709637 0.268345
Si Si2 0.647221 0.782942 0.891037
Si Si3 0.757913 0.099638 0.774483
Si Si4 0.930960 0.703750 0.589569
Si Si5 0.903820 0.945751 0.560459
Si Si6 0.692255 0.863363 0.070517
Si Si7 0.126359 0.095097 0.020424
Si Si8 0.746603 0.446634 0.613892
O O1 0.573102 0.757473 0.333021
O O2 0.598831 0.814154 0.193400
O O3 0.460210 0.652240 0.358170
O O4 0.645058 0.610731 0.190302
O O5 0.694647 0.719203 0.787644
O O6 0.709408 0.873653 0.869739
O O7 0.541561 0.827706 0.973923
O O8 0.638671 0.685088 0.952227
O O9 0.648310 0.111871 0.853041
O O10 0.816414 0.006892 0.679087
O O11 0.764569 0.065960 0.842099
O O12 0.907460 0.815071 0.571017
O O13 0.903560 0.982129 0.487304
O O14 0.000000 0.000000 0.500000
O O15 0.750000 0.750000 0.000000
O O16 0.770896 0.921656 0.042364
O O17 0.684928 0.931465 0.011694
#
# Coordination Sequence:
#
# PCOD9255460 Si02
#       8
#     8   8   8   8   8   8   8   8
#     4  10  17  31  49  73 105 137 167 216 275 317
#     4  10  19  33  50  77 106 136 175 224 270 321
#     4  11  19  32  53  75 108 144 174 222 278 318
#     4  11  20  32  53  80 106 140 178 226 274 322
#     4  11  17  32  55  82 107 137 182 228 265 320
#     4  10  20  32  46  74 112 139 167 216 261 332
#     4  10  18  30  51  76 104 136 172 214 268 314
#     4  11  20  34  49  74 112 141 178 215 268 337
#
# _framework density 18.360937
#
# number of rings (size 3 to 8) (size 9 to 14) (size 15 to 20)
#    0.000    1.500    8.750    0.750    0.000    2.500 
#    0.000    0.000    0.000    0.750    0.000    0.000 
#    0.000    0.000    0.000    0.000    0.000    0.125 
#
# Total GULP energy -178346.634903 kJ/mol
# GULP energy per Si atom -5573.332341 kJ/mol
# Density = 1.831915 g / cm^3
# Si number density = 18.360937 Si / 1000 Ang^3
#
#
#
# Elastic Constant Matrix: (Units=GPa)
#
#
# Indices 1 2 3 4 5 6 
#
# 1 81.0320 32.7434 43.4156 0.0000 -3.3348 0.0000
# 2 32.7434 35.8015 28.3423 0.0000 -1.1226 0.0000
# 3 43.4156 28.3423 99.0699 0.0000 -0.4459 0.0000
# 4 0.0000 0.0000 0.0000 25.1354 0.0000 7.9408
# 5 -3.3348 -1.1226 -0.4459 0.0000 35.4430 0.0000
# 6 0.0000 0.0000 0.0000 7.9408 0.0000 27.2131
#
#
#
# Elastic Compliance Matrix: (Units=1/GPa)
#
#
# Indices 1 2 3 4 5 6 
#
# 1 0.021309 -0.015586 -0.004873 0.000000 0.001450 0.000000
# 2 -0.015586 0.047546 -0.006772 0.000000 -0.000046 0.000000
# 3 -0.004873 -0.006772 0.014165 0.000000 -0.000495 0.000000
# 4 0.000000 0.000000 0.000000 0.043824 0.000000 -0.012788
# 5 0.001450 -0.000046 -0.000495 0.000000 0.028343 0.000000
# 6 0.000000 0.000000 0.000000 -0.012788 0.000000 0.040479
#
#
# Mechanical properties :
#
#
# Convention : Reuss Voigt Hill
#
# Bulk Modulus (GPa) = 35.01658 47.21177 41.11418
# Shear Modulus (GPa) = 19.25687 24.98512 22.12099
#
# Velocity S-wave (km/s) = 3.24202 3.69287 3.47477
# Velocity P-wave (km/s) = 5.75560 6.62963 6.20802
#
# Compressibility (1/GPa) = 0.02855790
#
# Stress axis : x y z
#
# Youngs Moduli (GPa) = 46.92777 21.03217 70.59871
#
# Poissons Ratio (x) = 0.32781 0.34403
# Poissons Ratio (y) = 0.73141 0.47810
# Poissons Ratio (z) = 0.22868 0.14243
#
# Static dielectric constant tensor:
#      x y z
#    x 1.737390 0.000000 0.004740 
#    y 0.000000 1.660010 0.000000 
#    z 0.004740 0.000000 1.721970 
# 
# From -- ./inp_files/283486.got.cif
#   From: 2010.05.17/outbox.cif.g08.bks.cpg/sg15_142_cif.got.tgz:283486.got - 2010.06.03 18:47:42.
