data_PCOD9255431
_publ_section_title
;
Structure prediction by ZEFSAII (Michael W. Deem and Ramdas Pophale) SiO2 
 PCOD9255431
Probable space group: C 2/C
;
_chemical_formula_sum "Si O2"
_cell_formula_units_Z 40
_cell_length_a 17.439576
_cell_length_b 15.985980
_cell_length_c 8.108430
_cell_angle_alpha 90.000000
_cell_angle_beta 44.643250
_cell_angle_gamma 90.000000
_cell_volume 1588.458729
_symmetry_space_group_name_H-M "C 2/C"
_symmetry_group_IT_number 15
_symmetry_cell_setting 'monoclinic'
loop_
_space_group_symop_operation_xyz
x,y,z
-x,y,1/2-z
-x,-y,-z
x,-y,1/2+z
1/2+x,1/2+y,z
1/2-x,1/2+y,1/2-z
1/2-x,1/2-y,-z
1/2+x,1/2-y,1/2+z
loop_
_atom_site_type_symbol
_atom_site_label
_atom_site_fract_x
_atom_site_fract_y
_atom_site_fract_z
Si Si1 0.000000 0.112586 0.750000
Si Si2 0.860615 0.344781 0.731824
Si Si3 0.294729 0.468794 0.385286
Si Si4 0.645305 0.251035 0.925329
Si Si5 0.296797 0.366502 0.038241
Si Si6 0.500000 0.760425 0.250000
O O1 0.093832 0.059494 0.693279
O O2 0.056754 0.176951 0.535958
O O3 0.754731 0.297283 0.821712
O O4 0.957543 0.322327 0.460081
O O5 0.811494 0.435358 0.852445
O O6 0.887383 0.304227 0.867163
O O7 0.299047 0.423225 0.201882
O O8 0.292193 0.568575 0.395246
O O9 0.688669 0.189778 0.718316
O O10 0.399688 0.305082 0.880813
#
# Coordination Sequence:
#
# PCOD9255431 Si02
#       6
#     4   8   8   8   8   4
#     4  10  17  30  57  80 100 132 178 222 263 308
#     4   8  16  32  51  73 104 141 177 215 262 316
#     4  10  21  36  54  79 111 143 176 218 268 319
#     4   8  16  32  51  73 104 141 177 215 262 316
#     4  10  21  36  54  79 111 143 176 218 268 319
#     4  10  17  30  57  80 100 132 178 222 263 308
#
# _framework density 25.181643000000001
#
# number of rings (size 3 to 8) (size 9 to 14) (size 15 to 20)
#    0.000    2.800    0.000    4.200    0.000    4.800 
#    0.000    5.000    0.000   22.800    0.000    0.000 
#    0.000    0.000    0.000    0.000    0.000    0.000 
#
# Total GULP energy -111889.020847 kJ/mol
# GULP energy per Si atom -5594.451042 kJ/mol
# Density = 2.512433 g / cm^3
# Si number density = 25.181643 Si / 1000 Ang^3
#
#
#
# Elastic Constant Matrix: (Units=GPa)
#
#
# Indices 1 2 3 4 5 6 
#
# 1 55.8154 31.4693 41.1670 0.0000 -4.8258 0.0000
# 2 31.4693 112.6219 76.7290 0.0000 -0.4246 0.0000
# 3 41.1670 76.7290 197.8112 0.0000 -1.6175 0.0000
# 4 0.0000 0.0000 0.0000 62.0760 0.0000 5.5446
# 5 -4.8258 -0.4246 -1.6175 0.0000 41.7028 0.0000
# 6 0.0000 0.0000 0.0000 5.5446 0.0000 31.2278
#
#
#
# Elastic Compliance Matrix: (Units=1/GPa)
#
#
# Indices 1 2 3 4 5 6 
#
# 1 0.022802 -0.004272 -0.003068 0.000000 0.002476 0.000000
# 2 -0.004272 0.012869 -0.004107 0.000000 -0.000523 0.000000
# 3 -0.003068 -0.004107 0.007286 0.000000 -0.000114 0.000000
# 4 0.000000 0.000000 0.000000 0.016369 0.000000 -0.002906
# 5 0.002476 -0.000523 -0.000114 0.000000 0.024256 0.000000
# 6 0.000000 0.000000 0.000000 -0.002906 0.000000 0.032539
#
#
# Mechanical properties :
#
#
# Convention : Reuss Voigt Hill
#
# Bulk Modulus (GPa) = 49.84314 73.88656 61.86485
# Shear Modulus (GPa) = 34.31671 41.46020 37.88845
#
# Velocity S-wave (km/s) = 3.69557 4.06204 3.88313
# Velocity P-wave (km/s) = 6.16815 7.16976 6.68773
#
# Compressibility (1/GPa) = 0.02006294
#
# Stress axis : x y z
#
# Youngs Moduli (GPa) = 43.85652 77.70586 137.24971
#
# Poissons Ratio (x) = 0.33194 0.42110
# Poissons Ratio (y) = 0.18734 0.56369
# Poissons Ratio (z) = 0.13456 0.31914
#
# Static dielectric constant tensor:
#      x y z
#    x 2.009530 0.000000 0.041950 
#    y 0.000000 1.949660 0.000000 
#    z 0.041950 0.000000 2.048620 
# 
# From -- ./inp_files/56380.got.cif
#   From: 2010.05.17/outbox.cif.g08.bks.cpg/sg15_29_cif.got.tgz:56380.got - 2010.06.03 18:47:42.
