data_PCOD9255502
_publ_section_title
;
Structure prediction by ZEFSAII (Michael W. Deem and Ramdas Pophale) SiO2 
 PCOD9255502
Probable space group: C 2/C
;
_chemical_formula_sum "Si O2"
_cell_formula_units_Z 56
_cell_length_a 13.170657
_cell_length_b 13.849859
_cell_length_c 21.713210
_cell_angle_alpha 90.000000
_cell_angle_beta 37.918739
_cell_angle_gamma 90.000000
_cell_volume 2434.048750
_symmetry_space_group_name_H-M "C 2/C"
_symmetry_group_IT_number 15
_symmetry_cell_setting 'monoclinic'
loop_
_space_group_symop_operation_xyz
x,y,z
-x,y,1/2-z
-x,-y,-z
x,-y,1/2+z
1/2+x,1/2+y,z
1/2-x,1/2+y,1/2-z
1/2-x,1/2-y,-z
1/2+x,1/2-y,1/2+z
loop_
_atom_site_type_symbol
_atom_site_label
_atom_site_fract_x
_atom_site_fract_y
_atom_site_fract_z
Si Si1 0.910681 0.799033 0.468404
Si Si2 0.627770 0.629534 0.307451
Si Si3 0.324945 0.112699 0.565355
Si Si4 0.634150 0.290696 0.487204
Si Si5 0.122126 0.243868 0.748499
Si Si6 0.107833 0.994004 0.510080
Si Si7 0.282526 0.099404 0.101469
O O1 0.692609 0.799404 0.474472
O O2 0.027963 0.796854 0.474142
O O3 0.029229 0.793203 0.353343
O O4 0.817125 0.901218 0.516791
O O5 0.497903 0.710057 0.393947
O O6 0.784303 0.659131 0.274385
O O7 0.532213 0.532706 0.372520
O O8 0.680286 0.622334 0.211964
O O9 0.244892 0.160197 0.664550
O O10 0.521924 0.096878 0.475805
O O11 0.245847 0.007294 0.592717
O O12 0.717202 0.396692 0.453415
O O13 0.733735 0.192015 0.434696
O O14 0.000000 0.262473 0.750000
O O15 0.000000 0.000000 0.500000
#
# Coordination Sequence:
#
# PCOD9255502 Si02
#       7
#     8   8   8   8   8   8   8
#     4  10  17  33  48  71 105 131 166 206 252 304
#     4  10  17  32  45  74 100 137 168 207 257 301
#     4  10  20  32  48  74 104 137 164 209 265 310
#     4   8  16  28  48  73  98 126 163 203 262 304
#     4  12  22  32  46  71 110 146 175 199 246 316
#     4   8  15  28  51  67  99 131 157 215 251 305
#     4  10  17  31  52  71 108 129 160 221 262 304
#
# _framework density 23.006933
#
# number of rings (size 3 to 8) (size 9 to 14) (size 15 to 20)
#    0.857    1.429    5.714    0.857    0.000    0.571 
#    0.000    0.000    0.000    0.000    0.000    1.000 
#    0.000   26.000    0.000    0.000    0.000    0.000 
#
# Total GULP energy -155996.248361 kJ/mol
# GULP energy per Si atom -5571.294584 kJ/mol
# Density = 2.295457 g / cm^3
# Si number density = 23.006933 Si / 1000 Ang^3
#
#
#
# Elastic Constant Matrix: (Units=GPa)
#
#
# Indices 1 2 3 4 5 6 
#
# 1 84.6890 34.2524 29.3882 0.0000 5.8337 0.0000
# 2 34.2524 236.9730 49.3078 -0.0001 27.6155 0.0000
# 3 29.3882 49.3078 159.3411 -0.0006 38.5918 0.0001
# 4 0.0000 -0.0001 -0.0006 30.9641 0.0002 9.9689
# 5 5.8337 27.6155 38.5918 0.0002 12.3153 0.0000
# 6 0.0000 0.0000 0.0001 9.9689 0.0000 20.8707
#
#
#
# Elastic Compliance Matrix: (Units=1/GPa)
#
#
# Indices 1 2 3 4 5 6 
#
# 1 0.014011 -0.003220 -0.007173 0.000000 0.023062 0.000000
# 2 -0.003220 0.007936 0.008624 0.000001 -0.043295 0.000000
# 3 -0.007173 0.008624 0.036470 0.000002 -0.130223 -0.000001
# 4 0.000000 0.000001 0.000002 0.038164 -0.000007 -0.018229
# 5 0.023062 -0.043295 -0.130223 -0.000007 0.575432 0.000005
# 6 0.000000 0.000000 -0.000001 -0.018229 0.000005 0.056621
#
#
# Mechanical properties :
#
#
# Convention : Reuss Voigt Hill
#
# Bulk Modulus (GPa) = 18.22220 78.54443 48.38332
# Shear Modulus (GPa) = 6.66253 37.36700 22.01476
#
# Velocity S-wave (km/s) = 1.70357 4.03446 3.09670
# Velocity P-wave (km/s) = 3.43614 7.47771 5.81907
#
# Compressibility (1/GPa) = 0.05487812
#
# Stress axis : x y z
#
# Youngs Moduli (GPa) = 71.37312 126.00372 27.42004
#
# Poissons Ratio (x) = 0.40575 0.19669
# Poissons Ratio (y) = 0.22983 -0.23647
# Poissons Ratio (z) = 0.51197 -1.08664
#
# Static dielectric constant tensor:
#      x y z
#    x 1.946740 0.000000 0.010520 
#    y 0.000000 1.933240 0.000000 
#    z 0.010520 0.000000 1.840420 
# 
# From -- ./inp_files/274158.got.cif
#   From: 2010.05.17/outbox.cif.g08.bks.cpg/sg15_138_cif.got.tgz:274158.got - 2010.06.03 18:47:42.
