data_PCOD9255139
_publ_section_title
;
Structure prediction by ZEFSAII (Michael W. Deem and Ramdas Pophale) SiO2 
 PCOD9255139
Probable space group: C 2/C
;
_chemical_formula_sum "Si O2"
_cell_formula_units_Z 56
_cell_length_a 9.917456
_cell_length_b 17.597192
_cell_length_c 16.804808
_cell_angle_alpha 90.000000
_cell_angle_beta 132.871465
_cell_angle_gamma 90.000000
_cell_volume 2149.369900
_symmetry_space_group_name_H-M "C 2/C"
_symmetry_group_IT_number 15
_symmetry_cell_setting 'monoclinic'
loop_
_space_group_symop_operation_xyz
x,y,z
-x,y,1/2-z
-x,-y,-z
x,-y,1/2+z
1/2+x,1/2+y,z
1/2-x,1/2+y,1/2-z
1/2-x,1/2-y,-z
1/2+x,1/2-y,1/2+z
loop_
_atom_site_type_symbol
_atom_site_label
_atom_site_fract_x
_atom_site_fract_y
_atom_site_fract_z
Si Si1 0.229418 0.485276 0.313828
Si Si2 0.535331 0.313346 0.904942
Si Si3 0.983403 0.772238 0.418642
Si Si4 0.611911 0.168762 0.691547
Si Si5 0.342493 0.476759 0.543428
Si Si6 0.313265 0.621398 0.621343
Si Si7 0.390206 0.855115 0.783419
O O1 0.123727 0.412696 0.237110
O O2 0.260966 0.483706 0.421813
O O3 0.443010 0.494938 0.372011
O O4 0.118273 0.555489 0.232575
O O5 0.554489 0.230110 0.871511
O O6 0.656951 0.387240 0.933062
O O7 0.325880 0.336945 0.802687
O O8 0.527618 0.299623 0.996055
O O9 0.789325 0.794233 0.302601
O O10 0.987307 0.683238 0.397348
O O11 0.128898 0.822268 0.427137
O O12 0.664443 0.156499 0.620920
O O13 0.254617 0.538533 0.566323
O O14 0.500000 0.613379 0.750000
O O15 0.500000 0.822910 0.750000
#
# Coordination Sequence:
#
# PCOD9255139 Si02
#       7
#     8   8   8   8   8   8   8
#     4  10  18  33  53  75 108 141 184 226 270 336
#     4  10  20  32  55  79 109 149 180 222 276 343
#     4  10  17  32  49  76 111 135 170 218 278 332
#     4  10  19  32  51  85 112 136 176 236 281 312
#     4  10  17  32  56  80 104 148 193 218 274 337
#     4  10  17  28  51  78 114 133 174 233 267 323
#     4  10  21  31  48  81 107 138 180 223 280 336
#
# _framework density 26.054148000000001
#
# number of rings (size 3 to 8) (size 9 to 14) (size 15 to 20)
#    0.000    2.000    4.286    3.857    0.000    3.429 
#    0.000    0.714    0.000    0.857    0.000    3.000 
#    0.000    0.000    0.000    0.000    0.000    0.000 
#
# Total GULP energy -156580.107582 kJ/mol
# GULP energy per Si atom -5592.146699 kJ/mol
# Density = 2.599485 g / cm^3
# Si number density = 26.054148 Si / 1000 Ang^3
#
#
#
# Elastic Constant Matrix: (Units=GPa)
#
#
# Indices 1 2 3 4 5 6 
#
# 1 64.3089 22.3674 16.4264 0.0000 3.4227 0.0000
# 2 22.3674 229.2734 68.8327 0.0000 2.1844 0.0000
# 3 16.4264 68.8327 104.1630 0.0000 -12.8669 0.0000
# 4 0.0000 0.0000 0.0000 124.9562 0.0000 52.2098
# 5 3.4227 2.1844 -12.8669 0.0000 13.7045 0.0000
# 6 0.0000 0.0000 0.0000 52.2098 0.0000 60.2200
#
#
#
# Elastic Compliance Matrix: (Units=1/GPa)
#
#
# Indices 1 2 3 4 5 6 
#
# 1 0.016947 -0.000652 -0.003113 0.000000 -0.007051 0.000000
# 2 -0.000652 0.005760 -0.004295 0.000000 -0.004788 0.000000
# 3 -0.003113 -0.004295 0.014830 0.000000 0.015386 0.000000
# 4 0.000000 0.000000 0.000000 0.012548 0.000000 -0.010879
# 5 -0.007051 -0.004788 0.015386 0.000000 0.089938 0.000000
# 6 0.000000 0.000000 0.000000 -0.010879 0.000000 0.026038
#
#
# Mechanical properties :
#
#
# Convention : Reuss Voigt Hill
#
# Bulk Modulus (GPa) = 46.68983 68.11094 57.40038
# Shear Modulus (GPa) = 26.41018 59.11740 42.76379
#
# Velocity S-wave (km/s) = 3.18726 4.76859 4.05574
# Velocity P-wave (km/s) = 5.61285 7.51785 6.63409
#
# Compressibility (1/GPa) = 0.02141794
#
# Stress axis : x y z
#
# Youngs Moduli (GPa) = 59.00749 173.60196 67.43012
#
# Poissons Ratio (x) = 0.11311 0.20991
# Poissons Ratio (y) = 0.03845 0.28963
# Poissons Ratio (z) = 0.18369 0.74566
#
# Static dielectric constant tensor:
#      x y z
#    x 2.077890 0.000000 -0.018890 
#    y 0.000000 4.521280 0.000000 
#    z -0.018890 0.000000 1.981030 
# 
# From -- ./inp_files/199571.got.cif
#   From: 2010.05.17/outbox.cif.g08.bks.cpg/sg15_100_cif.got.tgz:199571.got - 2010.06.03 18:47:42.
