data_PCOD9255211
_publ_section_title
;
Structure prediction by ZEFSAII (Michael W. Deem and Ramdas Pophale) SiO2 
 PCOD9255211
Probable space group: C 2/C
;
_chemical_formula_sum "Si O2"
_cell_formula_units_Z 64
_cell_length_a 13.969515
_cell_length_b 17.233437
_cell_length_c 14.570325
_cell_angle_alpha 90.000000
_cell_angle_beta 59.123023
_cell_angle_gamma 90.000000
_cell_volume 3010.558035
_symmetry_space_group_name_H-M "C 2/C"
_symmetry_group_IT_number 15
_symmetry_cell_setting 'monoclinic'
loop_
_space_group_symop_operation_xyz
x,y,z
-x,y,1/2-z
-x,-y,-z
x,-y,1/2+z
1/2+x,1/2+y,z
1/2-x,1/2+y,1/2-z
1/2-x,1/2-y,-z
1/2+x,1/2-y,1/2+z
loop_
_atom_site_type_symbol
_atom_site_label
_atom_site_fract_x
_atom_site_fract_y
_atom_site_fract_z
Si Si1 0.821053 0.215347 0.048116
Si Si2 0.641144 0.872189 0.401542
Si Si3 0.455739 0.460652 0.170304
Si Si4 0.688724 0.980572 0.987385
Si Si5 0.331279 0.459258 0.572448
Si Si6 0.888014 0.365177 0.610703
Si Si7 0.549532 0.283775 0.325633
Si Si8 0.946878 0.513051 0.679132
O O1 0.945031 0.208801 0.946232
O O2 0.750000 0.250000 0.000000
O O3 0.813912 0.285486 0.123447
O O4 0.788656 0.129436 0.094250
O O5 0.516357 0.862541 0.508049
O O6 0.625409 0.913488 0.312480
O O7 0.711641 0.936739 0.424865
O O8 0.500000 0.486121 0.250000
O O9 0.368093 0.511812 0.155043
O O10 0.410256 0.372595 0.204223
O O11 0.562000 0.460257 0.049229
O O12 0.556180 0.985252 0.062111
O O13 0.746198 0.985765 0.057988
O O14 0.697641 0.901434 0.923087
O O15 0.873816 0.282029 0.665792
O O16 0.887858 0.432683 0.686976
O O17 0.500000 0.258935 0.250000
O O18 0.000000 0.516486 0.750000
#
# Coordination Sequence:
#
# PCOD9255211 Si02
#       8
#     8   8   8   8   8   8   8   8
#     4  10  17  29  50  72  91 119 161 200 235 277
#     4   8  15  28  44  65  98 124 150 184 230 285
#     4   9  20  38  53  69  92 126 169 205 243 281
#     4   9  16  29  45  71  97 124 157 187 234 292
#     4  10  19  34  55  71  94 127 161 206 245 280
#     4   8  15  27  46  67  98 125 148 183 234 291
#     4   9  17  31  50  69  92 125 160 199 235 277
#     4   9  16  27  42  68 102 131 149 180 232 293
#
# _framework density 21.258516
#
# number of rings (size 3 to 8) (size 9 to 14) (size 15 to 20)
#    0.000    3.000    1.250    1.875    0.000    0.000 
#    4.500    1.250    0.000    0.000    0.000    0.000 
#    0.000    0.000    0.000    0.000    0.000    0.000 
#
# Total GULP energy -178224.129615 kJ/mol
# GULP energy per Si atom -5569.504050 kJ/mol
# Density = 2.121013 g / cm^3
# Si number density = 21.258516 Si / 1000 Ang^3
#
#
#
# Elastic Constant Matrix: (Units=GPa)
#
#
# Indices 1 2 3 4 5 6 
#
# 1 71.2233 55.6446 34.3616 0.0000 26.7214 0.0000
# 2 55.6446 143.3339 54.5940 0.0000 35.7793 0.0000
# 3 34.3616 54.5940 87.8812 0.0000 28.6950 0.0000
# 4 0.0000 0.0000 0.0000 26.8538 0.0000 6.9931
# 5 26.7214 35.7793 28.6950 0.0000 53.8317 0.0000
# 6 0.0000 0.0000 0.0000 6.9931 0.0000 24.8516
#
#
#
# Elastic Compliance Matrix: (Units=1/GPa)
#
#
# Indices 1 2 3 4 5 6 
#
# 1 0.022377 -0.006141 -0.003197 0.000000 -0.005322 0.000000
# 2 -0.006141 0.011473 -0.003913 0.000000 -0.002492 0.000000
# 3 -0.003197 -0.003913 0.016578 0.000000 -0.004649 0.000000
# 4 0.000000 0.000000 0.000000 0.040183 0.000000 -0.011307
# 5 -0.005322 -0.002492 -0.004649 0.000000 0.025353 0.000000
# 6 0.000000 0.000000 0.000000 -0.011307 0.000000 0.043421
#
#
# Mechanical properties :
#
#
# Convention : Reuss Voigt Hill
#
# Bulk Modulus (GPa) = 41.79387 65.73764 53.76575
# Shear Modulus (GPa) = 25.79171 31.62997 28.71084
#
# Velocity S-wave (km/s) = 3.48694 3.86148 3.67898
# Velocity P-wave (km/s) = 5.99284 7.13242 6.58732
#
# Compressibility (1/GPa) = 0.02392696
#
# Stress axis : x y z
#
# Youngs Moduli (GPa) = 44.68843 87.16110 60.32219
#
# Poissons Ratio (x) = 0.53527 0.19283
# Poissons Ratio (y) = 0.27444 0.23602
# Poissons Ratio (z) = 0.14286 0.34103
#
# Static dielectric constant tensor:
#      x y z
#    x 1.858410 0.000000 -0.078130 
#    y 0.000000 1.790120 0.000000 
#    z -0.078130 0.000000 1.851920 
# 
# From -- ./inp_files/154852.got.cif
#   From: 2010.05.17/outbox.cif.g08.bks.cpg/sg15_78_cif.got.tgz:154852.got - 2010.06.03 18:47:42.
