data_PCOD9255583
_publ_section_title
;
Structure prediction by ZEFSAII (Michael W. Deem and Ramdas Pophale) SiO2 
 PCOD9255583
Probable space group: C 2/C
;
_chemical_formula_sum "Si O2"
_cell_formula_units_Z 52
_cell_length_a 30.265818
_cell_length_b 16.259534
_cell_length_c 14.261437
_cell_angle_alpha 90.000000
_cell_angle_beta 18.631895
_cell_angle_gamma 90.000000
_cell_volume 2242.212632
_symmetry_space_group_name_H-M "C 2/C"
_symmetry_group_IT_number 15
_symmetry_cell_setting 'monoclinic'
loop_
_space_group_symop_operation_xyz
x,y,z
-x,y,1/2-z
-x,-y,-z
x,-y,1/2+z
1/2+x,1/2+y,z
1/2-x,1/2+y,1/2-z
1/2-x,1/2-y,-z
1/2+x,1/2-y,1/2+z
loop_
_atom_site_type_symbol
_atom_site_label
_atom_site_fract_x
_atom_site_fract_y
_atom_site_fract_z
Si Si1 0.998761 0.155193 0.864328
Si Si2 0.752074 0.564016 0.903767
Si Si3 0.689055 0.127692 0.216729
Si Si4 0.956257 0.034355 0.447233
Si Si5 0.334285 0.922787 0.019028
Si Si6 0.478545 0.182421 0.487162
Si Si7 0.000000 0.571998 0.750000
O O1 0.156954 0.160115 0.581800
O O2 0.944754 0.062996 0.988496
O O3 0.924911 0.228265 0.067034
O O4 0.000000 0.168207 0.750000
O O5 0.793461 0.469703 0.841194
O O6 0.791705 0.582359 0.714250
O O7 0.848898 0.623578 0.767478
O O8 0.586214 0.570089 0.242186
O O9 0.589244 0.175353 0.347526
O O10 0.611667 0.125611 0.471980
O O11 0.000000 0.040235 0.250000
O O12 0.807546 0.075650 0.754467
O O13 0.416746 0.009523 0.848870
O O14 0.435204 0.854401 0.775038
#
# Coordination Sequence:
#
# PCOD9255583 Si02
#       7
#     8   8   8   8   8   8   4
#     4  10  20  36  58  81 111 153 189 225 283 347
#     4   9  17  33  53  83 114 152 187 226 279 338
#     4  10  21  35  57  85 111 150 191 235 277 346
#     4   8  17  33  55  75 113 157 194 215 269 349
#     4  10  17  31  57  86 110 149 192 234 272 332
#     4  12  20  32  60  92 114 132 193 252 283 314
#     4  10  18  34  60  80 110 154 206 218 280 350
#
# _framework density 23.191376999999999
#
# number of rings (size 3 to 8) (size 9 to 14) (size 15 to 20)
#    0.000    2.154    3.077    4.615    0.000    0.000 
#    0.000    3.077   15.231    3.692    0.000    0.000 
#    0.000    0.000    0.000    0.000    0.000    0.000 
#
# Total GULP energy -145389.845117 kJ/mol
# GULP energy per Si atom -5591.917120 kJ/mol
# Density = 2.313859 g / cm^3
# Si number density = 23.191377 Si / 1000 Ang^3
#
#
#
# Elastic Constant Matrix: (Units=GPa)
#
#
# Indices 1 2 3 4 5 6 
#
# 1 68.6164 6.5337 6.9539 -0.0007 -13.0124 0.0005
# 2 6.5337 47.5191 20.0201 -0.0016 -11.1016 0.0013
# 3 6.9539 20.0201 88.0507 -0.0025 -30.6178 0.0022
# 4 -0.0007 -0.0016 -0.0025 -88.7302 -0.0003 80.7357
# 5 -13.0124 -11.1016 -30.6178 -0.0003 46.0801 0.0003
# 6 0.0005 0.0013 0.0022 80.7357 0.0003 -54.9150
#
#
#
# Elastic Compliance Matrix: (Units=1/GPa)
#
#
# Indices 1 2 3 4 5 6 
#
# 1 0.015486 -0.001354 0.000640 0.000000 0.004472 0.000000
# 2 -0.001354 0.023657 -0.004452 0.000000 0.002359 0.000000
# 3 0.000640 -0.004452 0.015617 0.000000 0.009485 0.000000
# 4 0.000000 0.000000 0.000000 0.033370 0.000000 0.049061
# 5 0.004472 0.002359 0.009485 0.000000 0.029835 0.000000
# 6 0.000000 0.000000 0.000000 0.049061 0.000000 0.053919
#
#
# Mechanical properties :
#
#
# Convention : Reuss Voigt Hill
#
# Bulk Modulus (GPa) = 22.50820 30.13351 26.32086
# Shear Modulus (GPa) = 25.37759 -8.13446 8.62156
#
# Velocity S-wave (km/s) = 3.31156 -1.87487 1.93019
# Velocity P-wave (km/s) = 4.93441 2.88700 4.04247
#
# Compressibility (1/GPa) = 0.04442825
#
# Stress axis : x y z
#
# Youngs Moduli (GPa) = 64.57469 42.27079 64.03343
#
# Poissons Ratio (x) = 0.05724 -0.04098
# Poissons Ratio (y) = 0.08744 0.28505
# Poissons Ratio (z) = -0.04132 0.18817
#
# Static dielectric constant tensor:
#      x y z
#    x 1.910930 0.000000 0.002970 
#    y 0.000000 1.833830 0.000000 
#    z 0.002970 0.000000 1.861660 
# 
# From -- ./inp_files/182845.got.cif
#   From: 2010.05.17/outbox.cif.g08.bks.cpg/sg15_92_cif.got.tgz:182845.got - 2010.06.03 18:47:42.
