data_PCOD9255352
_publ_section_title
;
Structure prediction by ZEFSAII (Michael W. Deem and Ramdas Pophale) SiO2 
 PCOD9255352
Probable space group: C 2/C
;
_chemical_formula_sum "Si O2"
_cell_formula_units_Z 48
_cell_length_a 5.446423
_cell_length_b 24.799848
_cell_length_c 17.616214
_cell_angle_alpha 90.000000
_cell_angle_beta 125.723970
_cell_angle_gamma 90.000000
_cell_volume 1931.714993
_symmetry_space_group_name_H-M "C 2/C"
_symmetry_group_IT_number 15
_symmetry_cell_setting 'monoclinic'
loop_
_space_group_symop_operation_xyz
x,y,z
-x,y,1/2-z
-x,-y,-z
x,-y,1/2+z
1/2+x,1/2+y,z
1/2-x,1/2+y,1/2-z
1/2-x,1/2-y,-z
1/2+x,1/2-y,1/2+z
loop_
_atom_site_type_symbol
_atom_site_label
_atom_site_fract_x
_atom_site_fract_y
_atom_site_fract_z
Si Si1 0.247756 0.467246 0.849195
Si Si2 0.860757 0.649749 0.887232
Si Si3 0.233083 0.183356 0.395000
Si Si4 0.759231 0.856926 0.908433
Si Si5 0.166072 0.477063 0.103961
Si Si6 0.854870 0.192892 0.884009
O O1 0.368224 0.418962 0.923914
O O2 0.505499 0.495180 0.845626
O O3 0.000000 0.440260 0.750000
O O4 0.051681 0.507263 0.865611
O O5 0.800247 0.586990 0.890108
O O6 0.548548 0.680648 0.844616
O O7 0.049837 0.660121 0.845498
O O8 0.086792 0.671745 0.993916
O O9 0.405013 0.146648 0.364397
O O10 0.276300 0.244641 0.378402
O O11 0.890546 0.169998 0.356106
O O12 0.916238 0.825613 0.006898
O O13 0.000000 0.500000 0.000000
#
# Coordination Sequence:
#
# PCOD9255352 Si02
#       6
#     8   8   8   8   8   8
#     4  12  26  43  61  88 127 170 210 258 324 388
#     4  10  18  29  49  80 112 148 188 236 298 347
#     4  10  18  30  52  86 122 146 182 245 305 354
#     4  10  18  32  51  76 111 155 195 232 293 366
#     4  12  23  40  64  92 123 157 210 267 309 363
#     4  10  17  30  51  86 123 146 181 246 307 354
#
# _framework density 24.848386999999999
#
# number of rings (size 3 to 8) (size 9 to 14) (size 15 to 20)
#    0.000    1.333    0.000   12.000    0.000    0.000 
#    0.000    0.000    0.000    0.000    0.000   39.667 
#    0.000    0.000    0.000    0.000    0.000    0.000 
#
# Total GULP energy -134254.353104 kJ/mol
# GULP energy per Si atom -5593.931379 kJ/mol
# Density = 2.479183 g / cm^3
# Si number density = 24.848387 Si / 1000 Ang^3
#
#
#
# Elastic Constant Matrix: (Units=GPa)
#
#
# Indices 1 2 3 4 5 6 
#
# 1 217.6109 25.7365 7.3967 0.0000 -5.0316 0.0000
# 2 25.7365 108.7661 -13.3938 0.0000 -5.1353 0.0000
# 3 7.3967 -13.3938 49.2431 0.0000 -4.1790 0.0000
# 4 0.0000 0.0000 0.0000 -10.1004 0.0000 2.4067
# 5 -5.0316 -5.1353 -4.1790 0.0000 21.4342 0.0000
# 6 0.0000 0.0000 0.0000 2.4067 0.0000 54.2577
#
#
#
# Elastic Compliance Matrix: (Units=1/GPa)
#
#
# Indices 1 2 3 4 5 6 
#
# 1 0.004789 -0.001226 -0.000999 0.000000 0.000636 0.000000
# 2 -0.001226 0.009999 0.003134 0.000000 0.002719 0.000000
# 3 -0.000999 0.003134 0.021713 0.000000 0.004750 0.000000
# 4 0.000000 0.000000 0.000000 -0.097971 0.000000 0.004346
# 5 0.000636 0.002719 0.004750 0.000000 0.048381 0.000000
# 6 0.000000 0.000000 0.000000 0.004346 0.000000 0.018238
#
#
# Mechanical properties :
#
#
# Convention : Reuss Voigt Hill
#
# Bulk Modulus (GPa) = 26.09647 46.12209 36.10928
# Shear Modulus (GPa) = 310.49880 36.84369 173.67124
#
# Velocity S-wave (km/s) = 11.19056 3.85481 8.36923
# Velocity P-wave (km/s) = 13.32278 6.19794 10.39016
#
# Compressibility (1/GPa) = 0.03831935
#
# Stress axis : x y z
#
# Youngs Moduli (GPa) = 208.81062 100.01465 46.05517
#
# Poissons Ratio (x) = 0.12264 0.04601
# Poissons Ratio (y) = 0.25604 -0.14436
# Poissons Ratio (z) = 0.20858 -0.31349
#
# Static dielectric constant tensor:
#      x y z
#    x 2.033270 0.000000 -0.022090 
#    y 0.000000 1.894380 0.000000 
#    z -0.022090 0.000000 2.086140 
# 
# From -- ./inp_files/228246.got.cif
#   From: 2010.05.17/outbox.cif.g08.bks.cpg/sg15_115_cif.got.tgz:228246.got - 2010.06.03 18:47:42.
