data_PCOD9255109
_publ_section_title
;
Structure prediction by ZEFSAII (Michael W. Deem and Ramdas Pophale) SiO2 
 PCOD9255109
Probable space group: C 2/C
;
_chemical_formula_sum "Si O2"
_cell_formula_units_Z 40
_cell_length_a 11.968546
_cell_length_b 23.896183
_cell_length_c 8.666771
_cell_angle_alpha 90.000000
_cell_angle_beta 42.637924
_cell_angle_gamma 90.000000
_cell_volume 1678.992469
_symmetry_space_group_name_H-M "C 2/C"
_symmetry_group_IT_number 15
_symmetry_cell_setting 'monoclinic'
loop_
_space_group_symop_operation_xyz
x,y,z
-x,y,1/2-z
-x,-y,-z
x,-y,1/2+z
1/2+x,1/2+y,z
1/2-x,1/2+y,1/2-z
1/2-x,1/2-y,-z
1/2+x,1/2-y,1/2+z
loop_
_atom_site_type_symbol
_atom_site_label
_atom_site_fract_x
_atom_site_fract_y
_atom_site_fract_z
Si Si1 0.886974 0.461625 0.726195
Si Si2 0.059134 0.776112 0.511908
Si Si3 0.878214 0.112756 0.162681
Si Si4 0.918210 0.331114 0.164950
Si Si5 0.209969 0.928007 0.410487
O O1 0.776557 0.412333 0.768886
O O2 0.758694 0.510203 0.910514
O O3 0.000000 0.442669 0.750000
O O4 0.000000 0.500000 0.500000
O O5 0.943447 0.824984 0.560261
O O6 0.040117 0.713841 0.462070
O O7 0.000000 0.771438 0.750000
O O8 0.246145 0.796827 0.329302
O O9 0.828117 0.106638 0.393986
O O10 0.043755 0.075040 0.979902
O O11 0.856976 0.392827 0.180287
O O12 0.000000 0.340509 0.250000
#
# Coordination Sequence:
#
# PCOD9255109 Si02
#       5
#     8   8   8   8   8
#     4  12  24  38  57  83 111 147 191 235 280 328
#     4  10  17  28  47  79 113 145 175 227 283 331
#     4  10  20  36  54  77 116 149 184 224 284 333
#     4  10  18  26  48  79 116 141 177 225 287 326
#     4  10  20  36  54  81 114 149 181 232 279 336
#
# _framework density 23.823812
#
# number of rings (size 3 to 8) (size 9 to 14) (size 15 to 20)
#    0.000    1.600    6.000    3.600    0.000    0.000 
#    0.000    0.000    0.000    0.000    0.000   12.600 
#    0.000    0.000    0.000    0.000    0.000    0.000 
#
# Total GULP energy -111582.753385 kJ/mol
# GULP energy per Si atom -5579.137669 kJ/mol
# Density = 2.376959 g / cm^3
# Si number density = 23.823812 Si / 1000 Ang^3
#
#
#
# Elastic Constant Matrix: (Units=GPa)
#
#
# Indices 1 2 3 4 5 6 
#
# 1 138.6019 47.3088 47.4243 0.0000 -52.1801 0.0000
# 2 47.3088 117.0746 25.6525 0.0000 -24.0979 0.0000
# 3 47.4243 25.6525 57.4699 0.0000 -36.7794 0.0000
# 4 0.0000 0.0000 0.0000 32.9925 0.0000 -15.4838
# 5 -52.1801 -24.0979 -36.7794 0.0000 42.6017 0.0000
# 6 0.0000 0.0000 0.0000 -15.4838 0.0000 25.4834
#
#
#
# Elastic Compliance Matrix: (Units=1/GPa)
#
#
# Indices 1 2 3 4 5 6 
#
# 1 0.013979 -0.002365 -0.000845 0.000000 0.015054 0.000000
# 2 -0.002365 0.010153 -0.001696 0.000000 0.001383 0.000000
# 3 -0.000845 -0.001696 0.039282 0.000000 0.031919 0.000000
# 4 0.000000 0.000000 0.000000 0.042401 0.000000 0.025763
# 5 0.015054 0.001383 0.031919 0.000000 0.070251 0.000000
# 6 0.000000 0.000000 0.000000 0.025763 0.000000 0.054895
#
#
# Mechanical properties :
#
#
# Convention : Reuss Voigt Hill
#
# Bulk Modulus (GPa) = 18.65570 61.54639 40.10104
# Shear Modulus (GPa) = 19.33184 33.06626 26.19905
#
# Velocity S-wave (km/s) = 2.85169 3.72956 3.31977
# Velocity P-wave (km/s) = 4.32325 6.66605 5.61813
#
# Compressibility (1/GPa) = 0.05360293
#
# Stress axis : x y z
#
# Youngs Moduli (GPa) = 71.53615 98.48972 25.45670
#
# Poissons Ratio (x) = 0.23291 0.02152
# Poissons Ratio (y) = 0.16917 0.04316
# Poissons Ratio (z) = 0.06048 0.16700
#
# Static dielectric constant tensor:
#      x y z
#    x 1.877290 0.000000 0.015330 
#    y 0.000000 2.009520 0.000000 
#    z 0.015330 0.000000 2.047970 
# 
# From -- ./inp_files/42433.got.cif
#   From: 2010.05.17/outbox.cif.g08.bks.cpg/sg15_22_cif.got.tgz:42433.got - 2010.06.03 18:47:42.
