data_PCOD9255253
_publ_section_title
;
Structure prediction by ZEFSAII (Michael W. Deem and Ramdas Pophale) SiO2 
 PCOD9255253
Probable space group: C 2/C
;
_chemical_formula_sum "Si O2"
_cell_formula_units_Z 40
_cell_length_a 17.899561
_cell_length_b 8.030031
_cell_length_c 23.037128
_cell_angle_alpha 90.000000
_cell_angle_beta 25.814132
_cell_angle_gamma 90.000000
_cell_volume 1441.880848
_symmetry_space_group_name_H-M "C 2/C"
_symmetry_group_IT_number 15
_symmetry_cell_setting 'monoclinic'
loop_
_space_group_symop_operation_xyz
x,y,z
-x,y,1/2-z
-x,-y,-z
x,-y,1/2+z
1/2+x,1/2+y,z
1/2-x,1/2+y,1/2-z
1/2-x,1/2-y,-z
1/2+x,1/2-y,1/2+z
loop_
_atom_site_type_symbol
_atom_site_label
_atom_site_fract_x
_atom_site_fract_y
_atom_site_fract_z
Si Si1 0.686287 0.585607 0.601450
Si Si2 0.985376 0.479933 0.691155
Si Si3 0.048886 0.145874 0.097835
Si Si4 0.292012 0.047725 0.219805
Si Si5 0.616253 0.156230 0.455644
O O1 0.500000 0.661281 0.750000
O O2 0.865476 0.637408 0.443761
O O3 0.628139 0.455061 0.593690
O O4 0.762835 0.492859 0.605053
O O5 0.000000 0.480151 0.750000
O O6 0.009665 0.672795 0.653497
O O7 0.820926 0.424847 0.767542
O O8 0.899148 0.045620 0.169943
O O9 0.168937 0.192485 0.959713
O O10 0.421323 0.900298 0.107160
O O11 0.364576 0.191653 0.125253
#
# Coordination Sequence:
#
# PCOD9255253 Si02
#       5
#     8   8   8   8   8
#     4  10  17  29  53  83 113 139 172 222 281 327
#     4  10  22  35  54  85 114 141 183 231 280 321
#     4  10  18  29  56  83 108 140 180 232 271 324
#     4   9  18  33  52  76 113 147 177 228 278 325
#     4   9  18  31  50  81 111 146 180 221 280 334
#
# _framework density 27.741544000000001
#
# number of rings (size 3 to 8) (size 9 to 14) (size 15 to 20)
#    0.000    2.800    2.000    3.000    2.800    0.000 
#    0.000    1.000    0.000    1.200   31.200    0.000 
#    0.000    0.000    0.000    0.000    0.000    0.000 
#
# Total GULP energy -111427.983791 kJ/mol
# GULP energy per Si atom -5571.399190 kJ/mol
# Density = 2.767840 g / cm^3
# Si number density = 27.741544 Si / 1000 Ang^3
#
#
#
# Elastic Constant Matrix: (Units=GPa)
#
#
# Indices 1 2 3 4 5 6 
#
# 1 277.9763 38.5622 43.1691 -0.0001 -0.0063 0.0001
# 2 38.5622 67.5591 9.6959 -0.0003 -14.2400 0.0004
# 3 43.1691 9.6959 114.7622 0.0005 -9.3158 0.0001
# 4 -0.0001 -0.0003 0.0005 19.5050 0.0001 4.4127
# 5 -0.0063 -14.2400 -9.3158 0.0001 68.1562 0.0000
# 6 0.0001 0.0004 0.0001 4.4127 0.0000 21.3152
#
#
#
# Elastic Compliance Matrix: (Units=1/GPa)
#
#
# Indices 1 2 3 4 5 6 
#
# 1 0.004136 -0.002300 -0.001416 0.000000 -0.000674 0.000000
# 2 -0.002300 0.016890 -0.000279 0.000000 0.003491 0.000000
# 3 -0.001416 -0.000279 0.009369 0.000000 0.001222 0.000000
# 4 0.000000 0.000000 0.000000 0.053788 0.000000 -0.011135
# 5 -0.000674 0.003491 0.001222 0.000000 0.015568 0.000000
# 6 0.000000 0.000000 0.000000 -0.011135 0.000000 0.049220
#
#
# Mechanical properties :
#
#
# Convention : Reuss Voigt Hill
#
# Bulk Modulus (GPa) = 44.62989 71.46134 58.04562
# Shear Modulus (GPa) = 30.40792 46.38663 38.39727
#
# Velocity S-wave (km/s) = 3.31435 4.09357 3.72440
# Velocity P-wave (km/s) = 5.54701 6.93964 6.28204
#
# Compressibility (1/GPa) = 0.02240651
#
# Stress axis : x y z
#
# Youngs Moduli (GPa) = 241.75596 59.20568 106.73273
#
# Poissons Ratio (x) = 0.13616 0.15117
# Poissons Ratio (y) = 0.55598 0.02973
# Poissons Ratio (z) = 0.34241 0.01649
#
# Static dielectric constant tensor:
#      x y z
#    x 2.142790 0.000000 0.052120 
#    y 0.000000 2.295770 0.000000 
#    z 0.052120 0.000000 2.437390 
# 
# From -- ./inp_files/274000.got.cif
#   From: 2010.05.17/outbox.cif.g08.bks.cpg/sg15_137_cif.got.tgz:274000.got - 2010.06.03 18:47:42.
