data_PCOD9255210
_publ_section_title
;
Structure prediction by ZEFSAII (Michael W. Deem and Ramdas Pophale) SiO2 
 PCOD9255210
Probable space group: C 2/C
;
_chemical_formula_sum "Si O2"
_cell_formula_units_Z 56
_cell_length_a 10.210228
_cell_length_b 28.511847
_cell_length_c 7.000275
_cell_angle_alpha 90.000000
_cell_angle_beta 98.100059
_cell_angle_gamma 90.000000
_cell_volume 2017.536509
_symmetry_space_group_name_H-M "C 2/C"
_symmetry_group_IT_number 15
_symmetry_cell_setting 'monoclinic'
loop_
_space_group_symop_operation_xyz
x,y,z
-x,y,1/2-z
-x,-y,-z
x,-y,1/2+z
1/2+x,1/2+y,z
1/2-x,1/2+y,1/2-z
1/2-x,1/2-y,-z
1/2+x,1/2-y,1/2+z
loop_
_atom_site_type_symbol
_atom_site_label
_atom_site_fract_x
_atom_site_fract_y
_atom_site_fract_z
Si Si1 0.487842 0.323905 0.971069
Si Si2 0.480677 0.573241 0.476806
Si Si3 0.719101 0.963569 0.865032
Si Si4 0.144504 0.365339 0.873126
Si Si5 0.220416 0.435649 0.422065
Si Si6 0.211890 0.667027 0.971705
Si Si7 0.463661 0.221463 0.018902
O O1 0.500000 0.329483 0.750000
O O2 0.432890 0.374234 0.027193
O O3 0.641806 0.319726 0.072004
O O4 0.417654 0.274133 0.977822
O O5 0.500000 0.573555 0.250000
O O6 0.367769 0.534651 0.480657
O O7 0.623385 0.566273 0.598132
O O8 0.665347 0.917485 0.960830
O O9 0.718034 0.944517 0.649873
O O10 0.660381 0.015329 0.839509
O O11 0.099441 0.293157 0.437250
O O12 0.000000 0.370778 0.750000
O O13 0.135431 0.322377 0.019570
O O14 0.167122 0.383533 0.380271
O O15 0.225131 0.653933 0.203886
O O16 0.500000 0.222073 0.250000
#
# Coordination Sequence:
#
# PCOD9255210 Si02
#       7
#     8   8   8   8   8   8   8
#     4  10  17  29  50  72  89 115 154 191 224 267
#     4   8  16  29  46  67  93 120 146 178 227 285
#     4  10  17  31  47  66  91 121 150 186 227 269
#     4   8  16  31  48  65  91 126 157 183 221 280
#     4   9  17  29  49  69  88 116 153 185 224 273
#     4   8  16  32  49  64  89 126 154 177 222 286
#     4   9  18  33  48  65  91 124 154 184 225 274
#
# _framework density 27.756620000000002
#
# number of rings (size 3 to 8) (size 9 to 14) (size 15 to 20)
#    0.000    3.429    0.000    3.429    0.000    0.000 
#    0.000   17.143    0.000    0.000    0.000    0.000 
#    0.000    0.000    0.000    0.000    0.000    0.000 
#
# Total GULP energy -156324.207160 kJ/mol
# GULP energy per Si atom -5583.007399 kJ/mol
# Density = 2.769344 g / cm^3
# Si number density = 27.756620 Si / 1000 Ang^3
#
#
#
# Elastic Constant Matrix: (Units=GPa)
#
#
# Indices 1 2 3 4 5 6 
#
# 1 68.0658 27.3851 -13.5912 0.0000 7.4133 0.0000
# 2 27.3851 241.7634 5.4222 0.0000 -8.5738 0.0000
# 3 -13.5912 5.4222 68.5114 0.0000 1.0457 0.0000
# 4 0.0000 0.0000 0.0000 39.2187 0.0000 -1.5794
# 5 7.4133 -8.5738 1.0457 0.0000 14.2184 0.0000
# 6 0.0000 0.0000 0.0000 -1.5794 0.0000 27.1774
#
#
#
# Elastic Compliance Matrix: (Units=1/GPa)
#
#
# Indices 1 2 3 4 5 6 
#
# 1 0.017656 -0.002476 0.003866 0.000000 -0.010983 0.000000
# 2 -0.002476 0.004584 -0.000917 0.000000 0.004122 0.000000
# 3 0.003866 -0.000917 0.015492 0.000000 -0.003708 0.000000
# 4 0.000000 0.000000 0.000000 0.025558 0.000000 0.001485
# 5 -0.010983 0.004122 -0.003708 0.000000 0.078817 0.000000
# 6 0.000000 0.000000 0.000000 0.001485 0.000000 0.036882
#
#
# Mechanical properties :
#
#
# Convention : Reuss Voigt Hill
#
# Bulk Modulus (GPa) = 25.85436 46.30807 36.08121
# Shear Modulus (GPa) = 26.18701 40.06452 33.12577
#
# Velocity S-wave (km/s) = 3.07490 3.80336 3.45836
# Velocity P-wave (km/s) = 4.68418 6.00060 5.38279
#
# Compressibility (1/GPa) = 0.03867820
#
# Stress axis : x y z
#
# Youngs Moduli (GPa) = 56.63760 218.17319 64.54837
#
# Poissons Ratio (x) = 0.54023 -0.24956
# Poissons Ratio (y) = 0.14024 0.05918
# Poissons Ratio (z) = -0.21897 0.20004
#
# Static dielectric constant tensor:
#      x y z
#    x 2.245620 0.000000 -0.042410 
#    y 0.000000 2.250310 0.000000 
#    z -0.042410 0.000000 2.239490 
# 
# From -- ./inp_files/90377.got.cif
#   From: 2010.05.17/outbox.cif.g08.bks.cpg/sg15_46_cif.got.tgz:90377.got - 2010.06.03 18:47:42.
