data_PCOD9255311
_publ_section_title
;
Structure prediction by ZEFSAII (Michael W. Deem and Ramdas Pophale) SiO2 
 PCOD9255311
Probable space group: C 2/C
;
_chemical_formula_sum "Si O2"
_cell_formula_units_Z 44
_cell_length_a 9.326275
_cell_length_b 14.773224
_cell_length_c 15.366246
_cell_angle_alpha 90.000000
_cell_angle_beta 114.427931
_cell_angle_gamma 90.000000
_cell_volume 1927.625783
_symmetry_space_group_name_H-M "C 2/C"
_symmetry_group_IT_number 15
_symmetry_cell_setting 'monoclinic'
loop_
_space_group_symop_operation_xyz
x,y,z
-x,y,1/2-z
-x,-y,-z
x,-y,1/2+z
1/2+x,1/2+y,z
1/2-x,1/2+y,1/2-z
1/2-x,1/2-y,-z
1/2+x,1/2-y,1/2+z
loop_
_atom_site_type_symbol
_atom_site_label
_atom_site_fract_x
_atom_site_fract_y
_atom_site_fract_z
Si Si1 0.031995 0.108726 0.938982
Si Si2 0.168931 0.952552 0.691389
Si Si3 0.385115 0.871110 0.981597
Si Si4 0.132234 0.442392 0.916416
Si Si5 0.000000 0.086436 0.750000
Si Si6 0.450262 0.300747 0.590324
O O1 0.019062 0.147171 0.838922
O O2 0.211641 0.109133 0.011913
O O3 0.955371 0.010126 0.900621
O O4 0.939088 0.159111 0.989498
O O5 0.329354 0.953705 0.676803
O O6 0.090060 0.853735 0.674398
O O7 0.147140 0.015725 0.771278
O O8 0.469343 0.804131 0.072463
O O9 0.363242 0.963126 0.030312
O O10 0.482910 0.890957 0.918527
O O11 0.218535 0.826856 0.913528
#
# Coordination Sequence:
#
# PCOD9255311 Si02
#       6
#     8   8   8   8   4   8
#     4   9  16  30  47  70  85 125 155 194 212 292
#     4   9  16  30  47  70  85 125 155 194 212 292
#     4  10  18  26  48  76  92 122 140 204 236 274
#     4  10  17  30  49  69  95 113 161 186 239 268
#     4   8  16  26  52  66  84 128 160 174 232 270
#     4  10  17  30  49  69  97 115 161 182 237 268
#
# _framework density 22.826007000000001
#
# number of rings (size 3 to 8) (size 9 to 14) (size 15 to 20)
#    1.091    1.455    3.636    1.091    0.000    2.909 
#    0.000    0.000    0.000   34.909    0.000    0.000 
#    0.000    0.000    0.000    0.000    0.000    0.000 
#
# Total GULP energy -122486.054289 kJ/mol
# GULP energy per Si atom -5567.547922 kJ/mol
# Density = 2.277405 g / cm^3
# Si number density = 22.826007 Si / 1000 Ang^3
#
#
#
# Elastic Constant Matrix: (Units=GPa)
#
#
# Indices 1 2 3 4 5 6 
#
# 1 151.4454 17.6035 20.2815 0.0000 -41.9189 0.0000
# 2 17.6035 26.4127 -2.8460 0.0000 -7.9241 0.0000
# 3 20.2815 -2.8460 45.3871 0.0000 -15.8747 0.0000
# 4 0.0000 0.0000 0.0000 10.2363 0.0000 1.9695
# 5 -41.9189 -7.9241 -15.8747 0.0000 28.3526 0.0000
# 6 0.0000 0.0000 0.0000 1.9695 0.0000 10.3938
#
#
#
# Elastic Compliance Matrix: (Units=1/GPa)
#
#
# Indices 1 2 3 4 5 6 
#
# 1 0.011367 -0.002624 0.000469 0.000000 0.016335 0.000000
# 2 -0.002624 0.044572 0.008664 0.000000 0.013428 0.000000
# 3 0.000469 0.008664 0.029168 0.000000 0.019447 0.000000
# 4 0.000000 0.000000 0.000000 0.101388 0.000000 -0.019212
# 5 0.016335 0.013428 0.019447 0.000000 0.074062 0.000000
# 6 0.000000 0.000000 0.000000 -0.019212 0.000000 0.099851
#
#
# Mechanical properties :
#
#
# Convention : Reuss Voigt Hill
#
# Bulk Modulus (GPa) = 10.19105 32.59145 21.39125
# Shear Modulus (GPa) = 13.15451 22.34362 17.74907
#
# Velocity S-wave (km/s) = 2.40322 3.13208 2.79154
# Velocity P-wave (km/s) = 3.48926 5.23346 4.44770
#
# Compressibility (1/GPa) = 0.09812535
#
# Stress axis : x y z
#
# Youngs Moduli (GPa) = 87.97774 22.43565 34.28416
#
# Poissons Ratio (x) = 0.05888 -0.01610
# Poissons Ratio (y) = 0.23088 -0.29705
# Poissons Ratio (z) = -0.04131 -0.19439
#
# Static dielectric constant tensor:
#      x y z
#    x 1.918460 0.000000 -0.068530 
#    y 0.000000 1.912860 0.000000 
#    z -0.068530 0.000000 2.018070 
# 
# From -- ./inp_files/188955.got.cif
#   From: 2010.05.17/outbox.cif.g08.bks.cpg/sg15_95_cif.got.tgz:188955.got - 2010.06.03 18:47:42.
