data_PCOD9255021
_publ_section_title
;
Structure prediction by ZEFSAII (Michael W. Deem and Ramdas Pophale) SiO2 
 PCOD9255021
Probable space group: C 2/C
;
_chemical_formula_sum "Si O2"
_cell_formula_units_Z 44
_cell_length_a 6.837482
_cell_length_b 12.207107
_cell_length_c 18.755077
_cell_angle_alpha 90.000000
_cell_angle_beta 81.883007
_cell_angle_gamma 90.000000
_cell_volume 1549.726361
_symmetry_space_group_name_H-M "C 2/C"
_symmetry_group_IT_number 15
_symmetry_cell_setting 'monoclinic'
loop_
_space_group_symop_operation_xyz
x,y,z
-x,y,1/2-z
-x,-y,-z
x,-y,1/2+z
1/2+x,1/2+y,z
1/2-x,1/2+y,1/2-z
1/2-x,1/2-y,-z
1/2+x,1/2-y,1/2+z
loop_
_atom_site_type_symbol
_atom_site_label
_atom_site_fract_x
_atom_site_fract_y
_atom_site_fract_z
Si Si1 0.268424 0.481503 0.025511
Si Si2 0.798499 0.407234 0.688818
Si Si3 0.229064 0.168002 0.568193
Si Si4 0.500000 0.893342 0.250000
Si Si5 0.259418 0.853017 0.841596
Si Si6 0.736030 0.710082 0.884973
O O1 0.245782 0.552584 0.099074
O O2 0.197174 0.359301 0.048344
O O3 0.500000 0.500000 0.000000
O O4 0.187733 0.551398 0.962075
O O5 0.684306 0.385528 0.768454
O O6 0.719366 0.342188 0.623071
O O7 0.874033 0.530163 0.700391
O O8 0.005666 0.342079 0.680203
O O9 0.250000 0.250000 0.500000
O O10 0.324970 0.239156 0.626061
O O11 0.994954 0.168948 0.599363
O O12 0.662181 0.833433 0.192936
#
# Coordination Sequence:
#
# PCOD9255021 Si02
#       6
#     8   8   8   4   8   8
#     4   9  14  22  39  69 100 126 168 206 242 310
#     4   9  16  26  46  65 100 134 165 220 259 301
#     4   8  15  24  43  72 106 133 173 217 250 310
#     4  10  18  32  48  70 106 132 170 218 262 306
#     4   8  13  26  39  65 101 127 164 214 254 291
#     4  10  17  27  46  72 104 139 170 212 272 300
#
# _framework density 28.392109000000001
#
# number of rings (size 3 to 8) (size 9 to 14) (size 15 to 20)
#    0.000    3.273    3.636    0.000    0.000    0.000 
#    0.000    0.000    0.000    5.455    0.000   12.727 
#    0.000    0.182    0.000    0.000    0.000    0.000 
#
# Total GULP energy -122610.589914 kJ/mol
# GULP energy per Si atom -5573.208632 kJ/mol
# Density = 2.832749 g / cm^3
# Si number density = 28.392109 Si / 1000 Ang^3
#
#
#
# Elastic Constant Matrix: (Units=GPa)
#
#
# Indices 1 2 3 4 5 6 
#
# 1 94.3446 -7.0039 18.6627 0.0000 -5.1228 0.0000
# 2 -7.0039 167.2053 65.1058 0.0000 0.7123 0.0000
# 3 18.6627 65.1058 182.3436 0.0000 -34.7410 0.0000
# 4 0.0000 0.0000 0.0000 62.9743 0.0000 6.0058
# 5 -5.1228 0.7123 -34.7410 0.0000 27.7013 0.0000
# 6 0.0000 0.0000 0.0000 6.0058 0.0000 31.2312
#
#
#
# Elastic Compliance Matrix: (Units=1/GPa)
#
#
# Indices 1 2 3 4 5 6 
#
# 1 0.010973 0.001026 -0.001455 0.000000 0.000178 0.000000
# 2 0.001026 0.007460 -0.003638 0.000000 -0.004565 0.000000
# 3 -0.001455 -0.003638 0.009065 0.000000 0.011193 0.000000
# 4 0.000000 0.000000 0.000000 0.016176 0.000000 -0.003111
# 5 0.000178 -0.004565 0.011193 0.000000 0.050286 0.000000
# 6 0.000000 0.000000 0.000000 -0.003111 0.000000 0.032617
#
#
# Mechanical properties :
#
#
# Convention : Reuss Voigt Hill
#
# Bulk Modulus (GPa) = 51.64926 66.38029 59.01478
# Shear Modulus (GPa) = 35.41895 48.85663 42.13779
#
# Velocity S-wave (km/s) = 3.53582 4.15273 3.85663
# Velocity P-wave (km/s) = 5.90764 6.81353 6.37669
#
# Compressibility (1/GPa) = 0.01936136
#
# Stress axis : x y z
#
# Youngs Moduli (GPa) = 91.13168 134.05366 110.31938
#
# Poissons Ratio (x) = -0.13749 0.16056
# Poissons Ratio (y) = -0.09346 0.40136
# Poissons Ratio (z) = 0.13264 0.48771
#
# Static dielectric constant tensor:
#      x y z
#    x 2.376150 0.000000 0.088910 
#    y 0.000000 2.390420 0.000000 
#    z 0.088910 0.000000 2.153060 
# 
# From -- ./inp_files/291806.got.cif
#   From: 2010.05.17/outbox.cif.g08.bks.cpg/sg15_146_cif.got.tgz:291806.got - 2010.06.03 18:47:42.
