data_PCOD9255104
_publ_section_title
;
Structure prediction by ZEFSAII (Michael W. Deem and Ramdas Pophale) SiO2 
 PCOD9255104
Probable space group: C 2/C
;
_chemical_formula_sum "Si O2"
_cell_formula_units_Z 56
_cell_length_a 5.006231
_cell_length_b 32.872267
_cell_length_c 19.089018
_cell_angle_alpha 90.000000
_cell_angle_beta 125.777869
_cell_angle_gamma 90.000000
_cell_volume 2548.590692
_symmetry_space_group_name_H-M "C 2/C"
_symmetry_group_IT_number 15
_symmetry_cell_setting 'monoclinic'
loop_
_space_group_symop_operation_xyz
x,y,z
-x,y,1/2-z
-x,-y,-z
x,-y,1/2+z
1/2+x,1/2+y,z
1/2-x,1/2+y,1/2-z
1/2-x,1/2-y,-z
1/2+x,1/2-y,1/2+z
loop_
_atom_site_type_symbol
_atom_site_label
_atom_site_fract_x
_atom_site_fract_y
_atom_site_fract_z
Si Si1 0.760932 0.477653 0.644485
Si Si2 0.265143 0.526796 0.644639
Si Si3 0.872583 0.103755 0.807154
Si Si4 0.571081 0.667055 0.566574
Si Si5 0.445791 0.343920 0.663940
Si Si6 0.678339 0.112155 0.396630
Si Si7 0.562979 0.791139 0.492160
O O1 0.408769 0.492253 0.616875
O O2 0.747423 0.434608 0.604574
O O3 0.000000 0.473399 0.750000
O O4 0.914333 0.512768 0.618635
O O5 0.500000 0.527138 0.750000
O O6 0.353392 0.570701 0.626002
O O7 0.500000 0.085219 0.750000
O O8 0.000000 0.115212 0.750000
O O9 0.844467 0.142732 0.851352
O O10 0.382304 0.634522 0.488486
O O11 0.878046 0.681356 0.567796
O O12 0.319020 0.704133 0.545201
O O13 0.500000 0.326458 0.750000
O O14 0.732684 0.362159 0.659709
O O15 0.260557 0.311354 0.586903
O O16 0.200462 0.381439 0.641749
O O17 0.750000 0.750000 0.500000
#
# Coordination Sequence:
#
# PCOD9255104 Si02
#       7
#     8   8   8   8   8   8   8
#     4  10  17  28  47  74 105 140 182 224 265 318
#     4   9  18  30  47  73 104 141 183 224 273 316
#     4  11  21  38  60  80 107 147 193 240 276 319
#     4  10  22  39  59  83 110 144 186 224 279 344
#     4  10  19  33  54  81 110 146 184 218 265 330
#     4  10  20  33  52  79 113 145 180 227 275 325
#     4  10  21  39  61  84 115 149 176 219 281 338
#
# _framework density 21.972926000000001
#
# number of rings (size 3 to 8) (size 9 to 14) (size 15 to 20)
#    0.000    2.000    0.000    5.571    0.000    1.143 
#    0.000    3.571    0.000    1.714    0.000    3.000 
#    0.000    0.000    0.000    0.000    0.000    0.000 
#
# Total GULP energy -156309.450356 kJ/mol
# GULP energy per Si atom -5582.480370 kJ/mol
# Density = 2.192292 g / cm^3
# Si number density = 21.972926 Si / 1000 Ang^3
#
#
#
# Elastic Constant Matrix: (Units=GPa)
#
#
# Indices 1 2 3 4 5 6 
#
# 1 95.0999 2.0511 27.7892 0.0000 -25.4728 0.0000
# 2 2.0511 68.1210 20.5824 0.0000 -16.9474 0.0000
# 3 27.7892 20.5824 46.8422 0.0000 -27.4412 0.0000
# 4 0.0000 0.0000 0.0000 23.4658 0.0000 -15.7373
# 5 -25.4728 -16.9474 -27.4412 0.0000 27.5660 0.0000
# 6 0.0000 0.0000 0.0000 -15.7373 0.0000 33.9368
#
#
#
# Elastic Compliance Matrix: (Units=1/GPa)
#
#
# Indices 1 2 3 4 5 6 
#
# 1 0.014753 0.003642 -0.002530 0.000000 0.013353 0.000000
# 2 0.003642 0.018444 -0.003960 0.000000 0.010763 0.000000
# 3 -0.002530 -0.003960 0.052283 0.000000 0.047274 0.000000
# 4 0.000000 0.000000 0.000000 0.061851 0.000000 0.028682
# 5 0.013353 0.010763 0.047274 0.000000 0.102293 0.000000
# 6 0.000000 0.000000 0.000000 0.028682 0.000000 0.042767
#
#
# Mechanical properties :
#
#
# Convention : Reuss Voigt Hill
#
# Bulk Modulus (GPa) = 12.53365 34.54540 23.53952
# Shear Modulus (GPa) = 15.39976 27.63643 21.51809
#
# Velocity S-wave (km/s) = 2.65023 3.55032 3.13277
# Velocity P-wave (km/s) = 3.88349 5.70634 4.88077
#
# Compressibility (1/GPa) = 0.07978523
#
# Stress axis : x y z
#
# Youngs Moduli (GPa) = 67.78450 54.21755 19.12657
#
# Poissons Ratio (x) = -0.19747 0.04839
# Poissons Ratio (y) = -0.24689 0.07574
# Poissons Ratio (z) = 0.17148 0.21470
#
# Static dielectric constant tensor:
#      x y z
#    x 1.785670 0.000000 0.017410 
#    y 0.000000 1.818510 0.000000 
#    z 0.017410 0.000000 1.851260 
# 
# From -- ./inp_files/186804.got.cif
#   From: 2010.05.17/outbox.cif.g08.bks.cpg/sg15_94_cif.got.tgz:186804.got - 2010.06.03 18:47:42.
