data_PCOD9255935
_publ_section_title
;
Structure prediction by ZEFSAII (Michael W. Deem and Ramdas Pophale) SiO2 
 PCOD9255935
Probable space group: C 2/C
;
_chemical_formula_sum "Si O2"
_cell_formula_units_Z 56
_cell_length_a 19.253273
_cell_length_b 19.206822
_cell_length_c 8.998297
_cell_angle_alpha 90.000000
_cell_angle_beta 65.720647
_cell_angle_gamma 90.000000
_cell_volume 3033.203991
_symmetry_space_group_name_H-M "C 2/C"
_symmetry_group_IT_number 15
_symmetry_cell_setting 'monoclinic'
loop_
_space_group_symop_operation_xyz
x,y,z
-x,y,1/2-z
-x,-y,-z
x,-y,1/2+z
1/2+x,1/2+y,z
1/2-x,1/2+y,1/2-z
1/2-x,1/2-y,-z
1/2+x,1/2-y,1/2+z
loop_
_atom_site_type_symbol
_atom_site_label
_atom_site_fract_x
_atom_site_fract_y
_atom_site_fract_z
Si Si1 0.625991 0.864753 0.587414
Si Si2 0.556460 0.013524 0.584258
Si Si3 0.336142 0.323799 0.749510
Si Si4 0.247601 0.206945 0.659063
Si Si5 0.174493 0.373572 0.885753
Si Si6 0.461814 0.276509 0.434554
Si Si7 0.887359 0.772285 0.013521
O O1 0.702703 0.860706 0.421164
O O2 0.650110 0.858051 0.737357
O O3 0.576013 0.798235 0.578096
O O4 0.583724 0.937642 0.611839
O O5 0.500000 0.050047 0.750000
O O6 0.628682 0.060055 0.481671
O O7 0.500000 0.000000 0.500000
O O8 0.292289 0.252525 0.741921
O O9 0.265929 0.377667 0.813789
O O10 0.398682 0.326618 0.563799
O O11 0.375052 0.316664 0.875506
O O12 0.250000 0.250000 0.500000
O O13 0.165008 0.198673 0.804223
O O14 0.144268 0.304865 0.995882
O O15 0.500000 0.303720 0.250000
O O16 0.527457 0.266175 0.499603
#
# Coordination Sequence:
#
# PCOD9255935 Si02
#       7
#     8   8   8   8   8   8   8
#     4  11  21  38  56  79 114 157 195 227 270 339
#     4  12  25  38  56  81 113 156 199 228 265 324
#     4  10  22  34  54  84 114 147 185 240 296 337
#     4  10  17  33  58  77 104 149 192 229 282 342
#     4  11  21  39  55  76 119 154 194 236 274 333
#     4  11  20  34  59  83 114 150 188 228 288 349
#     4  11  20  34  54  87 115 144 187 240 297 335
#
# _framework density 18.462326999999998
#
# number of rings (size 3 to 8) (size 9 to 14) (size 15 to 20)
#    0.000    1.143    5.714    4.286    0.000    4.571 
#    0.000    0.000    0.000    0.000    0.000    1.000 
#    0.000    0.000    0.000    0.000    0.000    0.000 
#
# Total GULP energy -156116.282052 kJ/mol
# GULP energy per Si atom -5575.581502 kJ/mol
# Density = 1.842031 g / cm^3
# Si number density = 18.462327 Si / 1000 Ang^3
#
#
#
# Elastic Constant Matrix: (Units=GPa)
#
#
# Indices 1 2 3 4 5 6 
#
# 1 113.5973 21.8415 53.4678 0.0000 1.5021 0.0000
# 2 21.8415 37.5024 36.9852 0.0000 -12.6860 0.0000
# 3 53.4678 36.9852 107.5554 0.0000 -10.3362 0.0000
# 4 0.0000 0.0000 0.0000 19.7607 0.0000 -10.8836
# 5 1.5021 -12.6860 -10.3362 0.0000 43.3612 0.0000
# 6 0.0000 0.0000 0.0000 -10.8836 0.0000 27.5575
#
#
#
# Elastic Compliance Matrix: (Units=1/GPa)
#
#
# Indices 1 2 3 4 5 6 
#
# 1 0.011774 -0.002522 -0.005216 0.000000 -0.002389 0.000000
# 2 -0.002522 0.044369 -0.013047 0.000000 0.009958 0.000000
# 3 -0.005216 -0.013047 0.016403 0.000000 0.000274 0.000000
# 4 0.000000 0.000000 0.000000 0.064673 0.000000 0.025542
# 5 -0.002389 0.009958 0.000274 0.000000 0.026124 0.000000
# 6 0.000000 0.000000 0.000000 0.025542 0.000000 0.046375
#
#
# Mechanical properties :
#
#
# Convention : Reuss Voigt Hill
#
# Bulk Modulus (GPa) = 32.28075 53.69378 42.98727
# Shear Modulus (GPa) = 19.11224 27.89326 23.50275
#
# Velocity S-wave (km/s) = 3.22095 3.89114 3.57180
# Velocity P-wave (km/s) = 5.59958 7.02382 6.35174
#
# Compressibility (1/GPa) = 0.03097821
#
# Stress axis : x y z
#
# Youngs Moduli (GPa) = 84.92998 22.53829 60.96451
#
# Poissons Ratio (x) = 0.05684 0.31797
# Poissons Ratio (y) = 0.21418 0.79538
# Poissons Ratio (z) = 0.44297 0.29405
#
# Static dielectric constant tensor:
#      x y z
#    x 1.731380 0.000000 -0.005560 
#    y 0.000000 1.675570 0.000000 
#    z -0.005560 0.000000 1.714940 
# 
# From -- ./inp_files/57460.got.cif
#   From: 2010.05.17/outbox.cif.g08.bks.cpg/sg15_29_cif.got.tgz:57460.got - 2010.06.03 18:47:42.
