data_PCOD9255934
_publ_section_title
;
Structure prediction by ZEFSAII (Michael W. Deem and Ramdas Pophale) SiO2 
 PCOD9255934
Probable space group: C 2/C
;
_chemical_formula_sum "Si O2"
_cell_formula_units_Z 60
_cell_length_a 8.749588
_cell_length_b 19.745241
_cell_length_c 19.671681
_cell_angle_alpha 90.000000
_cell_angle_beta 130.930530
_cell_angle_gamma 90.000000
_cell_volume 2567.607063
_symmetry_space_group_name_H-M "C 2/C"
_symmetry_group_IT_number 15
_symmetry_cell_setting 'monoclinic'
loop_
_space_group_symop_operation_xyz
x,y,z
-x,y,1/2-z
-x,-y,-z
x,-y,1/2+z
1/2+x,1/2+y,z
1/2-x,1/2+y,1/2-z
1/2-x,1/2-y,-z
1/2+x,1/2-y,1/2+z
loop_
_atom_site_type_symbol
_atom_site_label
_atom_site_fract_x
_atom_site_fract_y
_atom_site_fract_z
Si Si1 0.482718 0.393530 0.010938
Si Si2 0.395329 0.665697 0.341472
Si Si3 0.823545 0.299629 0.959358
Si Si4 0.538539 0.726671 0.905910
Si Si5 0.765155 0.694058 0.845500
Si Si6 0.000000 0.932605 0.250000
Si Si7 0.250513 0.974431 0.739465
Si Si8 0.317865 0.009062 0.600757
O O1 0.393763 0.349422 0.922577
O O2 0.325002 0.453782 0.976286
O O3 0.498780 0.350283 0.083005
O O4 0.704424 0.420375 0.054154
O O5 0.629220 0.654450 0.390294
O O6 0.333975 0.744567 0.315661
O O7 0.267802 0.607243 0.267933
O O8 0.871075 0.266149 0.900128
O O9 0.750000 0.250000 0.000000
O O10 0.038477 0.323321 0.050821
O O11 0.588681 0.726563 0.841571
O O12 0.750000 0.750000 0.000000
O O13 0.683993 0.621285 0.799416
O O14 0.051658 0.985848 0.205467
O O15 0.285566 0.995861 0.671786
O O16 0.445406 0.997005 0.840428
#
# Coordination Sequence:
#
# PCOD9255934 Si02
#       8
#     8   8   8   8   8   4   8   8
#     4  10  17  33  64  91 115 148 211 259 312 366
#     4  10  20  39  63  89 121 165 215 263 307 388
#     4   9  17  34  59  94 119 154 202 273 316 363
#     4  10  17  33  57  94 124 144 199 264 320 365
#     4  10  22  38  61  93 123 166 210 265 322 374
#     4  12  26  42  58  90 142 172 202 266 330 374
#     4  10  23  44  57  84 131 173 212 254 316 386
#     4   9  21  37  62  83 113 168 211 251 300 385
#
# _framework density 23.368061000000001
#
# number of rings (size 3 to 8) (size 9 to 14) (size 15 to 20)
#    0.000    2.133    4.000    0.800    1.867    2.133 
#    4.800    0.667    0.000    0.000    0.000    0.000 
#    0.000    0.000    0.000    0.000    0.000    0.000 
#
# Total GULP energy -167226.595954 kJ/mol
# GULP energy per Si atom -5574.219865 kJ/mol
# Density = 2.331487 g / cm^3
# Si number density = 23.368061 Si / 1000 Ang^3
#
#
#
# Elastic Constant Matrix: (Units=GPa)
#
#
# Indices 1 2 3 4 5 6 
#
# 1 77.9489 24.8379 11.2934 0.0000 2.7505 0.0000
# 2 24.8379 94.5511 27.1031 0.0000 13.2721 0.0000
# 3 11.2934 27.1031 83.3124 0.0000 18.2830 0.0000
# 4 0.0000 0.0000 0.0000 25.1367 0.0000 3.2094
# 5 2.7505 13.2721 18.2830 0.0000 26.9980 0.0000
# 6 0.0000 0.0000 0.0000 3.2094 0.0000 19.3849
#
#
#
# Elastic Compliance Matrix: (Units=1/GPa)
#
#
# Indices 1 2 3 4 5 6 
#
# 1 0.014067 -0.003555 -0.000962 0.000000 0.000966 0.000000
# 2 -0.003555 0.012889 -0.002819 0.000000 -0.004065 0.000000
# 3 -0.000962 -0.002819 0.014946 0.000000 -0.008638 0.000000
# 4 0.000000 0.000000 0.000000 0.040642 0.000000 -0.006729
# 5 0.000966 -0.004065 -0.008638 0.000000 0.044789 0.000000
# 6 0.000000 0.000000 0.000000 -0.006729 0.000000 0.052701
#
#
# Mechanical properties :
#
#
# Convention : Reuss Voigt Hill
#
# Bulk Modulus (GPa) = 36.72559 42.47570 39.60065
# Shear Modulus (GPa) = 24.53600 27.14247 25.83923
#
# Velocity S-wave (km/s) = 3.24386 3.41180 3.32889
# Velocity P-wave (km/s) = 5.45714 5.80834 5.63548
#
# Compressibility (1/GPa) = 0.02722897
#
# Stress axis : x y z
#
# Youngs Moduli (GPa) = 71.08809 77.58650 66.90725
#
# Poissons Ratio (x) = 0.27583 0.06439
# Poissons Ratio (y) = 0.25272 0.18861
# Poissons Ratio (z) = 0.06841 0.21872
#
# Static dielectric constant tensor:
#      x y z
#    x 1.916100 0.000000 -0.002570 
#    y 0.000000 1.896820 0.000000 
#    z -0.002570 0.000000 1.992400 
# 
# From -- ./inp_files/290126.got.cif
#   From: 2010.05.17/outbox.cif.g08.bks.cpg/sg15_146_cif.got.tgz:290126.got - 2010.06.03 18:47:42.
