data_PCOD9255762
_publ_section_title
;
Structure prediction by ZEFSAII (Michael W. Deem and Ramdas Pophale) SiO2 
 PCOD9255762
Probable space group: C 2/C
;
_chemical_formula_sum "Si O2"
_cell_formula_units_Z 48
_cell_length_a 11.468895
_cell_length_b 14.492239
_cell_length_c 21.444709
_cell_angle_alpha 90.000000
_cell_angle_beta 42.638787
_cell_angle_gamma 90.000000
_cell_volume 2414.381105
_symmetry_space_group_name_H-M "C 2/C"
_symmetry_group_IT_number 15
_symmetry_cell_setting 'monoclinic'
loop_
_space_group_symop_operation_xyz
x,y,z
-x,y,1/2-z
-x,-y,-z
x,-y,1/2+z
1/2+x,1/2+y,z
1/2-x,1/2+y,1/2-z
1/2-x,1/2-y,-z
1/2+x,1/2-y,1/2+z
loop_
_atom_site_type_symbol
_atom_site_label
_atom_site_fract_x
_atom_site_fract_y
_atom_site_fract_z
Si Si1 0.726280 0.474257 0.771075
Si Si2 0.205379 0.007830 0.423235
Si Si3 0.293796 0.309997 0.068393
Si Si4 0.515325 0.296683 0.863823
Si Si5 0.037187 0.348064 0.660762
Si Si6 0.652063 0.679912 0.805353
O O1 0.767615 0.491222 0.827653
O O2 0.571037 0.401398 0.828635
O O3 0.895179 0.416443 0.684071
O O4 0.668428 0.575823 0.772688
O O5 0.281717 0.100898 0.421635
O O6 0.270284 0.912420 0.427272
O O7 0.000000 0.000000 0.500000
O O8 0.339561 0.318133 0.122659
O O9 0.142005 0.238004 0.116347
O O10 0.450925 0.288129 0.960430
O O11 0.680907 0.234338 0.785680
O O12 0.008880 0.243971 0.649570
O O13 0.000000 0.343894 0.750000
#
# Coordination Sequence:
#
# PCOD9255762 Si02
#       6
#     8   8   8   8   8   8
#     4   9  18  34  56  79 110 145 182 228 268 330
#     4  10  17  32  57  81 104 139 188 234 269 315
#     4  10  20  33  58  84 107 144 186 231 269 333
#     4  10  19  34  57  83 112 143 187 225 276 327
#     4   9  19  34  55  80 111 145 182 228 281 327
#     4  10  20  35  57  82 110 145 185 229 278 330
#
# _framework density 19.880872
#
# number of rings (size 3 to 8) (size 9 to 14) (size 15 to 20)
#    0.000    2.333    1.667    1.500    0.000    2.667 
#    0.000    6.667    0.000   18.000    0.000    0.000 
#    0.000    0.000    0.000    0.000    0.000    0.000 
#
# Total GULP energy -133667.143307 kJ/mol
# GULP energy per Si atom -5569.464304 kJ/mol
# Density = 1.983562 g / cm^3
# Si number density = 19.880872 Si / 1000 Ang^3
#
#
#
# Elastic Constant Matrix: (Units=GPa)
#
#
# Indices 1 2 3 4 5 6 
#
# 1 49.7205 52.5330 6.5679 0.0000 -15.0921 0.0000
# 2 52.5330 177.4854 32.0227 0.0000 -15.4803 0.0000
# 3 6.5679 32.0227 32.2080 0.0000 -15.8302 0.0000
# 4 0.0000 0.0000 0.0000 24.1757 0.0000 -7.6544
# 5 -15.0921 -15.4803 -15.8302 0.0000 20.5218 0.0000
# 6 0.0000 0.0000 0.0000 -7.6544 0.0000 42.9451
#
#
#
# Elastic Compliance Matrix: (Units=1/GPa)
#
#
# Indices 1 2 3 4 5 6 
#
# 1 0.044149 -0.014018 0.025280 0.000000 0.041394 0.000000
# 2 -0.014018 0.011317 -0.014922 0.000000 -0.013283 0.000000
# 3 0.025280 -0.014922 0.071407 0.000000 0.062417 0.000000
# 4 0.000000 0.000000 0.000000 0.043838 0.000000 0.007813
# 5 0.041394 -0.013283 0.062417 0.000000 0.117298 0.000000
# 6 0.000000 0.000000 0.000000 0.007813 0.000000 0.024678
#
#
# Mechanical properties :
#
#
# Convention : Reuss Voigt Hill
#
# Bulk Modulus (GPa) = 8.36456 49.07347 28.71901
# Shear Modulus (GPa) = 13.89434 28.74788 21.32111
#
# Velocity S-wave (km/s) = 2.64650 3.80677 3.27837
# Velocity P-wave (km/s) = 3.68173 6.63772 5.36723
#
# Compressibility (1/GPa) = 0.11955205
#
# Stress axis : x y z
#
# Youngs Moduli (GPa) = 22.65073 88.36139 14.00420
#
# Poissons Ratio (x) = 1.23865 -0.35402
# Poissons Ratio (y) = 0.31752 0.20897
# Poissons Ratio (z) = -0.57260 1.31852
#
# Static dielectric constant tensor:
#      x y z
#    x 1.746390 0.000000 -0.024230 
#    y 0.000000 1.774840 0.000000 
#    z -0.024230 0.000000 1.726740 
# 
# From -- ./inp_files/143811.got.cif
#   From: 2010.05.17/outbox.cif.g08.bks.cpg/sg15_72_cif.got.tgz:143811.got - 2010.06.03 18:47:42.
