data_PCOD9255952
_publ_section_title
;
Structure prediction by ZEFSAII (Michael W. Deem and Ramdas Pophale) SiO2 
 PCOD9255952
Probable space group: C 2/C
;
_chemical_formula_sum "Si O2"
_cell_formula_units_Z 52
_cell_length_a 12.936941
_cell_length_b 14.773422
_cell_length_c 20.202529
_cell_angle_alpha 90.000000
_cell_angle_beta 40.809527
_cell_angle_gamma 90.000000
_cell_volume 2523.451201
_symmetry_space_group_name_H-M "C 2/C"
_symmetry_group_IT_number 15
_symmetry_cell_setting 'monoclinic'
loop_
_space_group_symop_operation_xyz
x,y,z
-x,y,1/2-z
-x,-y,-z
x,-y,1/2+z
1/2+x,1/2+y,z
1/2-x,1/2+y,1/2-z
1/2-x,1/2-y,-z
1/2+x,1/2-y,1/2+z
loop_
_atom_site_type_symbol
_atom_site_label
_atom_site_fract_x
_atom_site_fract_y
_atom_site_fract_z
Si Si1 0.665598 0.976487 0.130670
Si Si2 0.986210 0.323267 0.373866
Si Si3 0.067417 0.176037 0.645870
Si Si4 0.349306 0.827089 0.586079
Si Si5 0.176639 0.125548 0.837780
Si Si6 0.597695 0.135606 0.066474
Si Si7 0.500000 0.677174 0.250000
O O1 0.500000 0.985442 0.250000
O O2 0.643268 0.887783 0.097064
O O3 0.798653 0.953214 0.120118
O O4 0.667602 0.060342 0.080884
O O5 0.160030 0.367996 0.283032
O O6 0.992731 0.237625 0.321026
O O7 0.934096 0.314426 0.474491
O O8 0.254878 0.165335 0.549941
O O9 0.039104 0.280709 0.639597
O O10 0.000000 0.156266 0.750000
O O11 0.973166 0.117722 0.637106
O O12 0.335754 0.724138 0.620874
O O13 0.454776 0.885295 0.585961
O O14 0.172525 0.868096 0.667197
#
# Coordination Sequence:
#
# PCOD9255952 Si02
#       7
#     8   8   8   8   8   8   4
#     4  10  19  36  57  81 111 150 197 237 286 353
#     4  10  17  33  59  81 110 152 188 240 294 339
#     4  10  20  38  58  81 117 149 193 242 286 342
#     4  10  19  33  55  85 113 144 195 243 287 336
#     4   9  19  34  57  87 110 150 198 236 287 345
#     4  10  22  35  57  85 112 154 194 238 294 347
#     4  10  18  32  56  88 110 148 192 248 286 340
#
# _framework density 20.606698000000002
#
# number of rings (size 3 to 8) (size 9 to 14) (size 15 to 20)
#    0.000    2.154    3.846    1.846    0.000    1.231 
#    0.000    1.538    8.462    0.000    0.000    0.000 
#    0.000    0.000    0.000    0.000    0.000    0.000 
#
# Total GULP energy -144950.642213 kJ/mol
# GULP energy per Si atom -5575.024700 kJ/mol
# Density = 2.055980 g / cm^3
# Si number density = 20.606698 Si / 1000 Ang^3
#
#
#
# Elastic Constant Matrix: (Units=GPa)
#
#
# Indices 1 2 3 4 5 6 
#
# 1 626.8771 528.9958 -375.8938 -0.0003 -25.9767 -0.0001
# 2 528.9958 536.3675 -427.7128 -0.0003 -7.0242 -0.0001
# 3 -375.8938 -427.7128 450.9864 0.0000 30.7644 0.0001
# 4 -0.0003 -0.0003 0.0000 5.7515 0.0001 -3.0616
# 5 -25.9767 -7.0242 30.7644 0.0001 39.2549 0.0000
# 6 -0.0001 -0.0001 0.0001 -3.0616 0.0000 2.4099
#
#
#
# Elastic Compliance Matrix: (Units=1/GPa)
#
#
# Indices 1 2 3 4 5 6 
#
# 1 0.016728 -0.024582 -0.010381 -0.000002 0.014807 -0.000003
# 2 -0.024582 0.044634 0.023672 0.000004 -0.026832 0.000006
# 3 -0.010381 0.023672 0.017109 0.000003 -0.016043 0.000003
# 4 -0.000002 0.000004 0.000003 0.537071 -0.000003 0.682309
# 5 0.014807 -0.026832 -0.016043 -0.000003 0.043044 -0.000004
# 6 -0.000003 0.000006 0.000003 0.682309 -0.000004 1.281776
#
#
# Mechanical properties :
#
#
# Convention : Reuss Voigt Hill
#
# Bulk Modulus (GPa) = 17.89311 118.33437 68.11374
# Shear Modulus (GPa) = 2.52325 135.40605 68.96465
#
# Velocity S-wave (km/s) = 1.10776 8.11495 5.79135
# Velocity P-wave (km/s) = 3.21530 12.05624 8.82302
#
# Compressibility (1/GPa) = 0.05588743
#
# Stress axis : x y z
#
# Youngs Moduli (GPa) = 59.78010 22.40444 58.44808
#
# Poissons Ratio (x) = 0.55076 0.60676
# Poissons Ratio (y) = 1.46954 -1.38357
# Poissons Ratio (z) = 0.62059 -0.53035
#
# Static dielectric constant tensor:
#      x y z
#    x 1.773730 0.000000 0.009500 
#    y 0.000000 1.776040 0.000000 
#    z 0.009500 0.000000 1.746280 
# 
# From -- ./inp_files/239743.got.cif
#   From: 2010.05.17/outbox.cif.g08.bks.cpg/sg15_120_cif.got.tgz:239743.got - 2010.06.03 18:47:42.
