data_PCOD9255733
_publ_section_title
;
Structure prediction by ZEFSAII (Michael W. Deem and Ramdas Pophale) SiO2 
 PCOD9255733
Probable space group: C 2/C
;
_chemical_formula_sum "Si O2"
_cell_formula_units_Z 64
_cell_length_a 12.117715
_cell_length_b 13.007094
_cell_length_c 23.960165
_cell_angle_alpha 90.000000
_cell_angle_beta 117.192386
_cell_angle_gamma 90.000000
_cell_volume 3359.120575
_symmetry_space_group_name_H-M "C 2/C"
_symmetry_group_IT_number 15
_symmetry_cell_setting 'monoclinic'
loop_
_space_group_symop_operation_xyz
x,y,z
-x,y,1/2-z
-x,-y,-z
x,-y,1/2+z
1/2+x,1/2+y,z
1/2-x,1/2+y,1/2-z
1/2-x,1/2-y,-z
1/2+x,1/2-y,1/2+z
loop_
_atom_site_type_symbol
_atom_site_label
_atom_site_fract_x
_atom_site_fract_y
_atom_site_fract_z
Si Si1 0.453280 0.236786 0.045761
Si Si2 0.605360 0.884190 0.733476
Si Si3 0.250168 0.959940 0.154132
Si Si4 0.581393 0.033208 0.401826
Si Si5 0.530554 0.468008 0.443159
Si Si6 0.169672 0.152059 0.416601
Si Si7 0.726851 0.770431 0.665859
Si Si8 0.935734 0.330601 0.038807
O O1 0.388622 0.141418 0.061666
O O2 0.411257 0.353705 0.044248
O O3 0.592495 0.236201 0.104270
O O4 0.466631 0.211209 0.983557
O O5 0.500000 0.835870 0.750000
O O6 0.525969 0.944301 0.668191
O O7 0.695400 0.809006 0.720295
O O8 0.685792 0.961582 0.788916
O O9 0.283432 0.843094 0.176966
O O10 0.302624 0.987120 0.104985
O O11 0.102423 0.967256 0.118322
O O12 0.536704 0.944993 0.433600
O O13 0.500000 0.500000 0.500000
O O14 0.613643 0.550340 0.430595
O O15 0.191754 0.156284 0.355307
O O16 0.085668 0.248715 0.416735
O O17 0.304019 0.165314 0.476351
#
# Coordination Sequence:
#
# PCOD9255733 Si02
#       8
#     8   8   8   8   8   8   8   8
#     4   9  19  32  55  79 113 147 177 220 275 330
#     4   9  20  38  57  79 103 139 185 233 274 322
#     4  10  20  37  56  77 106 146 183 227 275 325
#     4  10  18  34  58  79 106 143 191 227 269 318
#     4  11  20  35  54  80 113 149 181 216 273 335
#     4  10  19  32  56  82 112 146 180 218 271 331
#     4   9  18  37  57  76 106 147 182 215 280 336
#     4  10  17  32  55  84 108 145 182 221 267 326
#
# _framework density 19.052606000000001
#
# number of rings (size 3 to 8) (size 9 to 14) (size 15 to 20)
#    0.000    2.250    2.500    1.125    0.000    0.000 
#    2.250    8.125    2.750    0.000    0.000    0.000 
#    0.000    0.000    0.000    0.000    0.000    0.000 
#
# Total GULP energy -178451.802101 kJ/mol
# GULP energy per Si atom -5576.618816 kJ/mol
# Density = 1.900924 g / cm^3
# Si number density = 19.052606 Si / 1000 Ang^3
#
#
#
# Elastic Constant Matrix: (Units=GPa)
#
#
# Indices 1 2 3 4 5 6 
#
# 1 78.0202 58.5924 26.7582 0.0000 -30.4861 0.0000
# 2 58.5924 151.4426 26.7671 0.0000 -36.9175 0.0000
# 3 26.7582 26.7671 52.0107 0.0000 -23.0274 0.0000
# 4 0.0000 0.0000 0.0000 19.6714 0.0000 -7.7635
# 5 -30.4861 -36.9175 -23.0274 0.0000 33.5114 0.0000
# 6 0.0000 0.0000 0.0000 -7.7635 0.0000 32.2043
#
#
#
# Elastic Compliance Matrix: (Units=1/GPa)
#
#
# Indices 1 2 3 4 5 6 
#
# 1 0.022828 -0.005110 -0.003467 0.000000 0.012755 0.000000
# 2 -0.005110 0.010176 0.000427 0.000000 0.006855 0.000000
# 3 -0.003467 0.000427 0.028174 0.000000 0.016676 0.000000
# 4 0.000000 0.000000 0.000000 0.056180 0.000000 0.013543
# 5 0.012755 0.006855 0.016676 0.000000 0.060455 0.000000
# 6 0.000000 0.000000 0.000000 0.013543 0.000000 0.034317
#
#
# Mechanical properties :
#
#
# Convention : Reuss Voigt Hill
#
# Bulk Modulus (GPa) = 22.28297 56.18988 39.23642
# Shear Modulus (GPa) = 20.54326 28.36780 24.45553
#
# Velocity S-wave (km/s) = 3.28722 3.86284 3.58659
# Velocity P-wave (km/s) = 5.11162 7.03217 6.14736
#
# Compressibility (1/GPa) = 0.04487732
#
# Stress axis : x y z
#
# Youngs Moduli (GPa) = 43.80616 98.27378 35.49360
#
# Poissons Ratio (x) = 0.50215 0.12307
# Poissons Ratio (y) = 0.22384 -0.01515
# Poissons Ratio (z) = 0.15189 -0.04195
#
# Static dielectric constant tensor:
#      x y z
#    x 1.692470 0.000000 -0.009970 
#    y 0.000000 1.668130 0.000000 
#    z -0.009970 0.000000 1.657430 
# 
# From -- ./inp_files/268898.got.cif
#   From: 2010.05.17/outbox.cif.g08.bks.cpg/sg15_135_cif.got.tgz:268898.got - 2010.06.03 18:47:42.
