data_PCOD9255784
_publ_section_title
;
Structure prediction by ZEFSAII (Michael W. Deem and Ramdas Pophale) SiO2 
 PCOD9255784
Probable space group: C 2/C
;
_chemical_formula_sum "Si O2"
_cell_formula_units_Z 56
_cell_length_a 9.149342
_cell_length_b 15.350549
_cell_length_c 25.463936
_cell_angle_alpha 90.000000
_cell_angle_beta 55.847127
_cell_angle_gamma 90.000000
_cell_volume 2959.577235
_symmetry_space_group_name_H-M "C 2/C"
_symmetry_group_IT_number 15
_symmetry_cell_setting 'monoclinic'
loop_
_space_group_symop_operation_xyz
x,y,z
-x,y,1/2-z
-x,-y,-z
x,-y,1/2+z
1/2+x,1/2+y,z
1/2-x,1/2+y,1/2-z
1/2-x,1/2-y,-z
1/2+x,1/2-y,1/2+z
loop_
_atom_site_type_symbol
_atom_site_label
_atom_site_fract_x
_atom_site_fract_y
_atom_site_fract_z
Si Si1 0.609748 0.823471 0.332518
Si Si2 0.543071 0.241302 0.031730
Si Si3 0.601103 0.177906 0.336641
Si Si4 0.986741 0.498293 0.096530
Si Si5 0.500000 0.722988 0.250000
Si Si6 0.813605 0.426680 0.540508
Si Si7 0.566350 0.700363 0.048629
Si Si8 0.000000 0.230560 0.750000
O O1 0.529187 0.781977 0.295982
O O2 0.556765 0.761075 0.391719
O O3 0.820999 0.824561 0.287780
O O4 0.535193 0.917918 0.360575
O O5 0.444048 0.245662 0.107305
O O6 0.462656 0.149634 0.023373
O O7 0.750000 0.250000 0.000000
O O8 0.505189 0.313394 0.995125
O O9 0.507823 0.088202 0.372923
O O10 0.525253 0.210963 0.296971
O O11 0.814784 0.170661 0.291909
O O12 0.823736 0.510981 0.088505
O O13 0.137364 0.474581 0.023515
O O14 0.626544 0.381575 0.570250
O O15 0.750000 0.750000 0.000000
#
# Coordination Sequence:
#
# PCOD9255784 Si02
#       8
#     8   8   8   8   4   8   8   4
#     4  11  20  36  59  82 110 147 192 236 269 334
#     4  10  18  31  58  87 110 139 182 233 288 329
#     4  10  22  37  57  79 112 152 183 234 278 334
#     4  10  19  33  58  83 115 143 179 236 289 329
#     4  10  22  38  56  80 106 152 212 222 256 342
#     4   9  19  33  54  90 112 145 178 226 295 346
#     4  10  17  32  58  85 107 143 186 229 275 337
#     4  10  24  40  54  78 112 154 192 218 278 332
#
# _framework density 18.921621999999999
#
# number of rings (size 3 to 8) (size 9 to 14) (size 15 to 20)
#    0.000    2.000    2.857    3.429    0.000    1.143 
#    0.000    0.000    0.000   22.286    0.000    0.000 
#    0.000    0.000    0.000    0.000    0.000    0.000 
#
# Total GULP energy -155903.559667 kJ/mol
# GULP energy per Si atom -5567.984274 kJ/mol
# Density = 1.887856 g / cm^3
# Si number density = 18.921622 Si / 1000 Ang^3
#
#
#
# Elastic Constant Matrix: (Units=GPa)
#
#
# Indices 1 2 3 4 5 6 
#
# 1 78.4837 -9.7743 8.8289 0.0000 8.1536 0.0000
# 2 -9.7743 30.0257 1.3509 0.0000 10.1096 0.0000
# 3 8.8289 1.3509 78.8336 0.0000 18.4397 0.0000
# 4 0.0000 0.0000 0.0000 37.9829 0.0000 11.6729
# 5 8.1536 10.1096 18.4397 0.0000 31.4141 0.0000
# 6 0.0000 0.0000 0.0000 11.6729 0.0000 16.9497
#
#
#
# Elastic Compliance Matrix: (Units=1/GPa)
#
#
# Indices 1 2 3 4 5 6 
#
# 1 0.014170 0.006493 -0.000405 0.000000 -0.005530 0.000000
# 2 0.006493 0.040763 0.002361 0.000000 -0.016190 0.000000
# 3 -0.000405 0.002361 0.014887 0.000000 -0.009393 0.000000
# 4 0.000000 0.000000 0.000000 0.033396 0.000000 -0.022999
# 5 -0.005530 -0.016190 -0.009393 0.000000 0.043992 0.000000
# 6 0.000000 0.000000 0.000000 -0.022999 0.000000 0.074837
#
#
# Mechanical properties :
#
#
# Convention : Reuss Voigt Hill
#
# Bulk Modulus (GPa) = 11.53148 20.90598 16.21873
# Shear Modulus (GPa) = 21.36273 29.73183 25.54728
#
# Velocity S-wave (km/s) = 3.36372 3.96828 3.67844
# Velocity P-wave (km/s) = 4.60367 5.66296 5.16056
#
# Compressibility (1/GPa) = 0.08671911
#
# Stress axis : x y z
#
# Youngs Moduli (GPa) = 70.57083 24.53192 67.17280
#
# Poissons Ratio (x) = -0.15928 0.02719
# Poissons Ratio (y) = -0.45821 -0.15861
# Poissons Ratio (z) = 0.02856 -0.05792
#
# Static dielectric constant tensor:
#      x y z
#    x 1.678120 0.000000 0.006910 
#    y 0.000000 1.704700 0.000000 
#    z 0.006910 0.000000 1.679000 
# 
# From -- ./inp_files/265197.got.cif
#   From: 2010.05.17/outbox.cif.g08.bks.cpg/sg15_133_cif.got.tgz:265197.got - 2010.06.03 18:47:42.
