data_PCOD9255268
_publ_section_title
;
Structure prediction by ZEFSAII (Michael W. Deem and Ramdas Pophale) SiO2 
 PCOD9255268
Probable space group: C 2/C
;
_chemical_formula_sum "Si O2"
_cell_formula_units_Z 56
_cell_length_a 8.133109
_cell_length_b 35.114022
_cell_length_c 7.844260
_cell_angle_alpha 90.000000
_cell_angle_beta 91.941860
_cell_angle_gamma 90.000000
_cell_volume 2238.925662
_symmetry_space_group_name_H-M "C 2/C"
_symmetry_group_IT_number 15
_symmetry_cell_setting 'monoclinic'
loop_
_space_group_symop_operation_xyz
x,y,z
-x,y,1/2-z
-x,-y,-z
x,-y,1/2+z
1/2+x,1/2+y,z
1/2-x,1/2+y,1/2-z
1/2-x,1/2-y,-z
1/2+x,1/2-y,1/2+z
loop_
_atom_site_type_symbol
_atom_site_label
_atom_site_fract_x
_atom_site_fract_y
_atom_site_fract_z
Si Si1 0.756976 0.655922 0.907810
Si Si2 0.574399 0.126896 0.061518
Si Si3 0.196096 0.184993 0.283656
Si Si4 0.386208 0.419853 0.003877
Si Si5 0.281875 0.439641 0.632009
Si Si6 0.305995 0.764044 0.306308
Si Si7 0.869361 0.519462 0.870240
O O1 0.752292 0.672424 0.099064
O O2 0.632680 0.620395 0.902506
O O3 0.939820 0.638462 0.919671
O O4 0.735566 0.693168 0.790836
O O5 0.500000 0.128082 0.250000
O O6 0.727233 0.156252 0.076938
O O7 0.635315 0.083986 0.044867
O O8 0.255772 0.228528 0.309837
O O9 0.000000 0.184206 0.250000
O O10 0.330490 0.416045 0.803661
O O11 0.567155 0.437622 0.993834
O O12 0.259975 0.449925 0.074665
O O13 0.235118 0.481959 0.689450
O O14 0.500000 0.767204 0.250000
O O15 0.250000 0.750000 0.500000
O O16 0.000000 0.537751 0.750000
O O17 0.000000 0.500000 0.000000
#
# Coordination Sequence:
#
# PCOD9255268 Si02
#       7
#     8   8   8   8   8   8   8
#     4  10  19  32  54  85 117 153 201 251 304 357
#     4  10  17  29  55  86 116 148 205 253 292 350
#     4   9  16  30  52  80 109 151 194 246 295 352
#     4  11  22  37  62  89 122 166 201 253 313 375
#     4  11  21  38  60  92 122 158 212 255 303 372
#     4   9  19  35  56  82 118 155 197 247 305 368
#     4  12  24  41  62  90 127 161 208 258 313 370
#
# _framework density 25.011996
#
# number of rings (size 3 to 8) (size 9 to 14) (size 15 to 20)
#    0.000    1.714    4.286    2.571    0.000    0.571 
#    0.000    2.857    0.000   10.286    0.000    0.000 
#    0.000    0.000    0.000    0.000    0.000    0.000 
#
# Total GULP energy -156215.458149 kJ/mol
# GULP energy per Si atom -5579.123505 kJ/mol
# Density = 2.495507 g / cm^3
# Si number density = 25.011996 Si / 1000 Ang^3
#
#
#
# Elastic Constant Matrix: (Units=GPa)
#
#
# Indices 1 2 3 4 5 6 
#
# 1 71.8376 34.3963 34.2282 0.0000 -31.7276 0.0000
# 2 34.3963 181.4266 35.4699 0.0000 -29.0307 0.0000
# 3 34.2282 35.4699 84.0907 0.0000 -30.9654 0.0000
# 4 0.0000 0.0000 0.0000 73.1589 0.0000 15.8916
# 5 -31.7276 -29.0307 -30.9654 0.0000 35.2710 0.0000
# 6 0.0000 0.0000 0.0000 15.8916 0.0000 39.2446
#
#
#
# Elastic Compliance Matrix: (Units=1/GPa)
#
#
# Indices 1 2 3 4 5 6 
#
# 1 0.023666 -0.001088 -0.002460 0.000000 0.018234 0.000000
# 2 -0.001088 0.006469 -0.001013 0.000000 0.003456 0.000000
# 3 -0.002460 -0.001013 0.018026 0.000000 0.012779 0.000000
# 4 0.000000 0.000000 0.000000 0.014987 0.000000 -0.006069
# 5 0.018234 0.003456 0.012779 0.000000 0.058818 0.000000
# 6 0.000000 0.000000 0.000000 -0.006069 0.000000 0.027939
#
#
# Mechanical properties :
#
#
# Convention : Reuss Voigt Hill
#
# Bulk Modulus (GPa) = 25.61499 60.61597 43.11548
# Shear Modulus (GPa) = 29.06279 45.08560 37.07419
#
# Velocity S-wave (km/s) = 3.41244 4.25026 3.85419
# Velocity P-wave (km/s) = 5.07835 6.95512 6.08947
#
# Compressibility (1/GPa) = 0.03903965
#
# Stress axis : x y z
#
# Youngs Moduli (GPa) = 42.25402 154.57564 55.47450
#
# Poissons Ratio (x) = 0.16823 0.13646
# Poissons Ratio (y) = 0.04599 0.05620
# Poissons Ratio (z) = 0.10394 0.15659
#
# Static dielectric constant tensor:
#      x y z
#    x 1.764460 0.000000 0.031640 
#    y 0.000000 2.019770 0.000000 
#    z 0.031640 0.000000 2.053190 
# 
# From -- ./inp_files/82119.got.cif
#   From: 2010.05.17/outbox.cif.g08.bks.cpg/sg15_42_cif.got.tgz:82119.got - 2010.06.03 18:47:42.
