data_PCOD9255329
_publ_section_title
;
Structure prediction by ZEFSAII (Michael W. Deem and Ramdas Pophale) SiO2 
 PCOD9255329
Probable space group: C 2/C
;
_chemical_formula_sum "Si O2"
_cell_formula_units_Z 56
_cell_length_a 25.521437
_cell_length_b 18.164266
_cell_length_c 8.772472
_cell_angle_alpha 90.000000
_cell_angle_beta 135.113266
_cell_angle_gamma 90.000000
_cell_volume 2869.919592
_symmetry_space_group_name_H-M "C 2/C"
_symmetry_group_IT_number 15
_symmetry_cell_setting 'monoclinic'
loop_
_space_group_symop_operation_xyz
x,y,z
-x,y,1/2-z
-x,-y,-z
x,-y,1/2+z
1/2+x,1/2+y,z
1/2-x,1/2+y,1/2-z
1/2-x,1/2-y,-z
1/2+x,1/2-y,1/2+z
loop_
_atom_site_type_symbol
_atom_site_label
_atom_site_fract_x
_atom_site_fract_y
_atom_site_fract_z
Si Si1 0.153827 0.498243 0.616104
Si Si2 0.108161 0.211287 0.267115
Si Si3 0.182606 0.761764 0.585823
Si Si4 0.309748 0.151082 0.447896
Si Si5 0.763086 0.122192 0.872019
Si Si6 0.439227 0.058114 0.317174
Si Si7 0.033263 0.726657 0.145813
O O1 0.152210 0.423697 0.517771
O O2 0.230969 0.542386 0.765133
O O3 0.088366 0.550500 0.414466
O O4 0.133586 0.467904 0.740195
O O5 0.144234 0.223399 0.172502
O O6 0.134884 0.281055 0.420540
O O7 0.149888 0.140933 0.426418
O O8 0.020772 0.221049 0.062634
O O9 0.244606 0.824499 0.698385
O O10 0.225638 0.684017 0.687206
O O11 0.116787 0.756579 0.330248
O O12 0.273044 0.139094 0.537353
O O13 0.463196 0.141624 0.400061
O O14 0.500000 0.000000 0.500000
O O15 0.000000 0.724257 0.250000
#
# Coordination Sequence:
#
# PCOD9255329 Si02
#       7
#     8   8   8   8   8   8   8
#     4  12  21  34  50  73 107 138 165 204 254 307
#     4   8  16  28  51  71  94 129 173 211 240 292
#     4   8  15  28  50  71  96 126 169 216 242 289
#     4   9  17  31  48  72  96 129 174 208 247 295
#     4   9  16  31  49  72  97 132 172 207 243 294
#     4  12  24  32  47  75 110 138 160 198 257 315
#     4  10  17  30  50  74  99 130 170 210 252 294
#
# _framework density 19.512741999999999
#
# number of rings (size 3 to 8) (size 9 to 14) (size 15 to 20)
#    0.000    2.286    2.857    3.857    2.000    0.000 
#    0.000    0.714    0.000    0.857    0.000    0.000 
#    0.000    0.000    0.000    0.000    0.000    0.571 
#
# Total GULP energy -156016.616708 kJ/mol
# GULP energy per Si atom -5572.022025 kJ/mol
# Density = 1.946833 g / cm^3
# Si number density = 19.512742 Si / 1000 Ang^3
#
#
#
# Elastic Constant Matrix: (Units=GPa)
#
#
# Indices 1 2 3 4 5 6 
#
# 1 7.4502 0.3620 11.5249 0.0000 3.9468 0.0000
# 2 0.3620 27.7527 6.8029 0.0000 3.2396 0.0000
# 3 11.5249 6.8029 96.7062 0.0000 25.1831 0.0000
# 4 0.0000 0.0000 0.0000 27.7685 0.0000 8.7003
# 5 3.9468 3.2396 25.1831 0.0000 18.0023 0.0000
# 6 0.0000 0.0000 0.0000 8.7003 0.0000 15.5293
#
#
#
# Elastic Compliance Matrix: (Units=1/GPa)
#
#
# Indices 1 2 3 4 5 6 
#
# 1 0.167039 0.003515 -0.016442 0.000000 -0.014254 0.000000
# 2 0.003515 0.036994 -0.001710 0.000000 -0.005036 0.000000
# 3 -0.016442 -0.001710 0.017935 0.000000 -0.021176 0.000000
# 4 0.000000 0.000000 0.000000 0.043679 0.000000 -0.024471
# 5 -0.014254 -0.005036 -0.021176 0.000000 0.089203 0.000000
# 6 0.000000 0.000000 0.000000 -0.024471 0.000000 0.078104
#
#
# Mechanical properties :
#
#
# Convention : Reuss Voigt Hill
#
# Bulk Modulus (GPa) = 5.18957 18.80987 11.99972
# Shear Modulus (GPa) = 9.49742 19.80798 14.65270
#
# Velocity S-wave (km/s) = 2.20859 3.18957 2.74328
# Velocity P-wave (km/s) = 3.02806 4.81925 4.02457
#
# Compressibility (1/GPa) = 0.19269425
#
# Stress axis : x y z
#
# Youngs Moduli (GPa) = 5.98661 27.03169 55.75755
#
# Poissons Ratio (x) = -0.09503 0.91678
# Poissons Ratio (y) = -0.02105 0.09534
# Poissons Ratio (z) = 0.09843 0.04622
#
# Static dielectric constant tensor:
#      x y z
#    x 1.779280 0.000000 -0.042040 
#    y 0.000000 1.650590 0.000000 
#    z -0.042040 0.000000 1.763730 
# 
# From -- ./inp_files/70482.got.cif
#   From: 2010.05.17/outbox.cif.g08.bks.cpg/sg15_36_cif.got.tgz:70482.got - 2010.06.03 18:47:42.
