data_PCOD9255922
_publ_section_title
;
Structure prediction by ZEFSAII (Michael W. Deem and Ramdas Pophale) SiO2 
 PCOD9255922
Probable space group: C 2/C
;
_chemical_formula_sum "Si O2"
_cell_formula_units_Z 56
_cell_length_a 14.499329
_cell_length_b 8.743067
_cell_length_c 23.571657
_cell_angle_alpha 90.000000
_cell_angle_beta 113.233353
_cell_angle_gamma 90.000000
_cell_volume 2745.824944
_symmetry_space_group_name_H-M "C 2/C"
_symmetry_group_IT_number 15
_symmetry_cell_setting 'monoclinic'
loop_
_space_group_symop_operation_xyz
x,y,z
-x,y,1/2-z
-x,-y,-z
x,-y,1/2+z
1/2+x,1/2+y,z
1/2-x,1/2+y,1/2-z
1/2-x,1/2-y,-z
1/2+x,1/2-y,1/2+z
loop_
_atom_site_type_symbol
_atom_site_label
_atom_site_fract_x
_atom_site_fract_y
_atom_site_fract_z
Si Si1 0.944390 0.864807 0.521927
Si Si2 0.066462 0.944384 0.366170
Si Si3 0.120445 0.669401 0.606042
Si Si4 0.235809 0.922137 0.831774
Si Si5 0.236033 0.111607 0.603236
Si Si6 0.703501 0.192923 0.429691
Si Si7 0.647099 0.435964 0.690800
O O1 0.846991 0.829991 0.461491
O O2 0.018473 0.721536 0.550096
O O3 0.918631 0.941549 0.576322
O O4 0.000000 0.000000 0.500000
O O5 0.097458 0.776296 0.395115
O O6 0.145488 0.980114 0.336430
O O7 0.954068 0.972939 0.318548
O O8 0.157354 0.496899 0.624879
O O9 0.212005 0.742539 0.592592
O O10 0.119368 0.764166 0.664555
O O11 0.217741 0.757782 0.855405
O O12 0.222941 0.926591 0.761184
O O13 0.300897 0.987771 0.583841
O O14 0.187191 0.020788 0.644401
O O15 0.750000 0.250000 0.500000
#
# Coordination Sequence:
#
# PCOD9255922 Si02
#       7
#     8   8   8   8   8   8   8
#     4  11  17  37  61  84 113 154 201 238 300 361
#     4  10  20  35  61  84 113 156 193 245 301 351
#     4   9  20  34  57  82 113 156 192 240 292 358
#     4  11  23  37  53  91 121 151 197 248 303 352
#     4  11  22  35  63  87 116 158 193 249 305 354
#     4  10  17  33  57  86 113 146 193 238 290 358
#     4  10  20  40  62  76 112 166 207 233 285 368
#
# _framework density 20.394598999999999
#
# number of rings (size 3 to 8) (size 9 to 14) (size 15 to 20)
#    0.000    1.714    5.714    1.286    0.000    1.143 
#    0.000    2.857    0.000    5.143    0.000    0.000 
#    0.000    0.000    0.000    0.000    0.000    0.000 
#
# Total GULP energy -156053.488054 kJ/mol
# GULP energy per Si atom -5573.338859 kJ/mol
# Density = 2.034818 g / cm^3
# Si number density = 20.394599 Si / 1000 Ang^3
#
#
#
# Elastic Constant Matrix: (Units=GPa)
#
#
# Indices 1 2 3 4 5 6 
#
# 1 36.4214 17.0529 9.9199 0.0000 -0.3891 0.0000
# 2 17.0529 99.8005 35.8805 0.0000 13.0574 0.0000
# 3 9.9199 35.8805 107.4826 0.0000 2.5258 0.0000
# 4 0.0000 0.0000 0.0000 20.1708 0.0000 3.9176
# 5 -0.3891 13.0574 2.5258 0.0000 18.7879 0.0000
# 6 0.0000 0.0000 0.0000 3.9176 0.0000 28.9099
#
#
#
# Elastic Compliance Matrix: (Units=1/GPa)
#
#
# Indices 1 2 3 4 5 6 
#
# 1 0.030322 -0.005372 -0.001111 0.000000 0.004511 0.000000
# 2 -0.005372 0.013474 -0.003792 0.000000 -0.008966 0.000000
# 3 -0.001111 -0.003792 0.010644 0.000000 0.001181 0.000000
# 4 0.000000 0.000000 0.000000 0.050917 0.000000 -0.006900
# 5 0.004511 -0.008966 0.001181 0.000000 0.059391 0.000000
# 6 0.000000 0.000000 0.000000 -0.006900 0.000000 0.035525
#
#
# Mechanical properties :
#
#
# Convention : Reuss Voigt Hill
#
# Bulk Modulus (GPa) = 29.50586 41.04566 35.27576
# Shear Modulus (GPa) = 21.54052 25.63046 23.58549
#
# Velocity S-wave (km/s) = 3.25343 3.54888 3.40436
# Velocity P-wave (km/s) = 5.34902 6.07965 5.72600
#
# Compressibility (1/GPa) = 0.03389158
#
# Stress axis : x y z
#
# Youngs Moduli (GPa) = 32.97892 74.21680 93.94653
#
# Poissons Ratio (x) = 0.39868 0.10440
# Poissons Ratio (y) = 0.17716 0.35620
# Poissons Ratio (z) = 0.03665 0.28139
#
# Static dielectric constant tensor:
#      x y z
#    x 1.733970 0.000000 -0.006170 
#    y 0.000000 1.820800 0.000000 
#    z -0.006170 0.000000 1.754960 
# 
# From -- ./inp_files/273231.got.cif
#   From: 2010.05.17/outbox.cif.g08.bks.cpg/sg15_137_cif.got.tgz:273231.got - 2010.06.03 18:47:42.
