data_PCOD9255428
_publ_section_title
;
Structure prediction by ZEFSAII (Michael W. Deem and Ramdas Pophale) SiO2 
 PCOD9255428
Probable space group: C 2/C
;
_chemical_formula_sum "Si O2"
_cell_formula_units_Z 56
_cell_length_a 11.442165
_cell_length_b 15.943586
_cell_length_c 14.369202
_cell_angle_alpha 90.000000
_cell_angle_beta 76.861358
_cell_angle_gamma 90.000000
_cell_volume 2552.741515
_symmetry_space_group_name_H-M "C 2/C"
_symmetry_group_IT_number 15
_symmetry_cell_setting 'monoclinic'
loop_
_space_group_symop_operation_xyz
x,y,z
-x,y,1/2-z
-x,-y,-z
x,-y,1/2+z
1/2+x,1/2+y,z
1/2-x,1/2+y,1/2-z
1/2-x,1/2-y,-z
1/2+x,1/2-y,1/2+z
loop_
_atom_site_type_symbol
_atom_site_label
_atom_site_fract_x
_atom_site_fract_y
_atom_site_fract_z
Si Si1 0.893317 0.727864 0.083622
Si Si2 0.760001 0.563197 0.457677
Si Si3 0.000000 0.221012 0.750000
Si Si4 0.144864 0.227967 0.443400
Si Si5 0.500000 0.061320 0.750000
Si Si6 0.735808 0.885443 0.132000
Si Si7 0.222955 0.870433 0.164820
Si Si8 0.031621 0.556206 0.406215
O O1 0.922946 0.729681 0.189110
O O2 0.792561 0.798436 0.086789
O O3 0.879076 0.628311 0.074737
O O4 0.012220 0.752998 0.004127
O O5 0.670220 0.629605 0.425693
O O6 0.736617 0.468517 0.431288
O O7 0.751091 0.572143 0.571317
O O8 0.896726 0.589707 0.405113
O O9 0.090393 0.166178 0.672758
O O10 0.250000 0.250000 0.500000
O O11 0.181246 0.293501 0.356368
O O12 0.407317 0.114889 0.826808
O O13 0.433017 0.000623 0.688064
O O14 0.783339 0.901033 0.228567
O O15 0.000000 0.500000 0.500000
#
# Coordination Sequence:
#
# PCOD9255428 Si02
#       8
#     8   8   4   8   4   8   8   8
#     4  11  20  36  59  99 113 160 208 258 306 371
#     4  10  19  38  58  91 122 163 198 255 310 363
#     4  10  17  30  56  92 123 148 200 263 306 356
#     4  10  17  33  63  85 122 153 199 264 317 352
#     4  10  23  42  56  92 127 160 204 273 306 356
#     4  10  24  36  61  93 125 161 209 254 310 369
#     4  10  18  35  58  88 124 161 202 256 310 361
#     4  11  21  36  65  87 115 159 215 251 301 362
#
# _framework density 21.937200000000001
#
# number of rings (size 3 to 8) (size 9 to 14) (size 15 to 20)
#    0.000    1.714    5.714    1.286    0.000    4.000 
#    0.000    2.857    0.000    0.000    0.000    0.000 
#    0.000    0.000    0.000    0.000    0.000    0.000 
#
# Total GULP energy -156184.188268 kJ/mol
# GULP energy per Si atom -5578.006724 kJ/mol
# Density = 2.188727 g / cm^3
# Si number density = 21.937200 Si / 1000 Ang^3
#
#
#
# Elastic Constant Matrix: (Units=GPa)
#
#
# Indices 1 2 3 4 5 6 
#
# 1 35.2052 49.1873 22.2937 0.0000 -19.1421 0.0000
# 2 49.1873 163.0293 54.2054 0.0000 -8.0660 0.0000
# 3 22.2937 54.2054 97.9747 0.0000 -10.1825 0.0000
# 4 0.0000 0.0000 0.0000 42.0146 0.0000 -3.1779
# 5 -19.1421 -8.0660 -10.1825 0.0000 42.6232 0.0000
# 6 0.0000 0.0000 0.0000 -3.1779 0.0000 34.8528
#
#
#
# Elastic Compliance Matrix: (Units=1/GPa)
#
#
# Indices 1 2 3 4 5 6 
#
# 1 0.073309 -0.019786 -0.002771 0.000000 0.028517 0.000000
# 2 -0.019786 0.012865 -0.003369 0.000000 -0.007256 0.000000
# 3 -0.002771 -0.003369 0.012824 0.000000 0.001182 0.000000
# 4 0.000000 0.000000 0.000000 0.023967 0.000000 0.002185
# 5 0.028517 -0.007256 0.001182 0.000000 0.035177 0.000000
# 6 0.000000 0.000000 0.000000 0.002185 0.000000 0.028891
#
#
# Mechanical properties :
#
#
# Convention : Reuss Voigt Hill
#
# Bulk Modulus (GPa) = 21.21081 60.84244 41.02662
# Shear Modulus (GPa) = 19.63864 35.26631 27.45247
#
# Velocity S-wave (km/s) = 2.99527 4.01384 3.54137
# Velocity P-wave (km/s) = 4.65318 7.01971 5.95518
#
# Compressibility (1/GPa) = 0.04714578
#
# Stress axis : x y z
#
# Youngs Moduli (GPa) = 13.64093 77.73202 77.97760
#
# Poissons Ratio (x) = 1.53799 0.21605
# Poissons Ratio (y) = 0.26990 0.26275
# Poissons Ratio (z) = 0.03779 0.26192
#
# Static dielectric constant tensor:
#      x y z
#    x 1.919420 0.000000 0.031370 
#    y 0.000000 1.914940 0.000000 
#    z 0.031370 0.000000 1.829060 
# 
# From -- ./inp_files/204391.got.cif
#   From: 2010.05.17/outbox.cif.g08.bks.cpg/sg15_103_cif.got.tgz:204391.got - 2010.06.03 18:47:42.
