data_PCOD9255685
_publ_section_title
;
Structure prediction by ZEFSAII (Michael W. Deem and Ramdas Pophale) SiO2 
 PCOD9255685
Probable space group: C 2/C
;
_chemical_formula_sum "Si O2"
_cell_formula_units_Z 64
_cell_length_a 8.119356
_cell_length_b 13.267311
_cell_length_c 24.067386
_cell_angle_alpha 90.000000
_cell_angle_beta 117.085783
_cell_angle_gamma 90.000000
_cell_volume 2308.247542
_symmetry_space_group_name_H-M "C 2/C"
_symmetry_group_IT_number 15
_symmetry_cell_setting 'monoclinic'
loop_
_space_group_symop_operation_xyz
x,y,z
-x,y,1/2-z
-x,-y,-z
x,-y,1/2+z
1/2+x,1/2+y,z
1/2-x,1/2+y,1/2-z
1/2-x,1/2-y,-z
1/2+x,1/2-y,1/2+z
loop_
_atom_site_type_symbol
_atom_site_label
_atom_site_fract_x
_atom_site_fract_y
_atom_site_fract_z
Si Si1 0.506768 0.971736 0.838279
Si Si2 0.070919 0.059936 0.408110
Si Si3 0.915029 0.291967 0.952803
Si Si4 0.650030 0.767168 0.226398
Si Si5 0.649181 0.034957 0.476534
Si Si6 0.401770 0.241919 0.905465
Si Si7 0.701596 0.526023 0.215804
Si Si8 0.518641 0.271997 0.147775
O O1 0.586290 0.010171 0.908614
O O2 0.649383 0.989348 0.810388
O O3 0.306648 0.011245 0.786957
O O4 0.482224 0.850340 0.841757
O O5 0.239677 0.134329 0.416838
O O6 0.912612 0.135688 0.405363
O O7 0.991619 0.999080 0.343643
O O8 0.153532 0.994655 0.470247
O O9 0.899493 0.210016 0.901630
O O10 0.109184 0.347027 0.967544
O O11 0.947338 0.277878 0.023457
O O12 0.500000 0.788305 0.250000
O O13 0.570812 0.793480 0.153615
O O14 0.672958 0.645618 0.223649
O O15 0.844736 0.807117 0.281726
O O16 0.500000 0.000000 0.500000
O O17 0.196979 0.201288 0.885444
#
# Coordination Sequence:
#
# PCOD9255685 Si02
#       8
#     8   8   8   8   8   8   8   8
#     4   9  16  31  53  78 109 136 176 236 285 331
#     4  10  19  34  54  82 111 144 192 232 289 348
#     4  10  21  35  53  78 117 148 183 237 297 343
#     4  10  19  31  52  81 114 143 182 239 293 339
#     4   9  20  36  53  78 111 153 183 227 289 351
#     4  11  20  33  54  85 112 143 187 241 293 346
#     4   9  17  30  52  82 105 134 180 238 288 325
#     4  10  17  32  53  79 110 144 184 233 289 342
#
# _framework density 27.726664
#
# number of rings (size 3 to 8) (size 9 to 14) (size 15 to 20)
#    0.000    2.250    2.500    2.625    0.000    2.500 
#    0.000    0.000    0.000    6.000   19.500    0.000 
#    0.000    0.000    0.000    0.000    0.000    0.000 
#
# Total GULP energy -178847.843992 kJ/mol
# GULP energy per Si atom -5588.995125 kJ/mol
# Density = 2.766356 g / cm^3
# Si number density = 27.726664 Si / 1000 Ang^3
#
#
#
# Elastic Constant Matrix: (Units=GPa)
#
#
# Indices 1 2 3 4 5 6 
#
# 1 117.0045 5.8333 85.3790 0.0000 8.5518 0.0000
# 2 5.8333 60.9414 29.7810 0.0000 13.6050 0.0000
# 3 85.3790 29.7810 276.5886 0.0000 29.6743 0.0000
# 4 0.0000 0.0000 0.0000 54.1878 0.0000 13.8419
# 5 8.5518 13.6050 29.6743 0.0000 61.4142 0.0000
# 6 0.0000 0.0000 0.0000 13.8419 0.0000 18.4752
#
#
#
# Elastic Compliance Matrix: (Units=1/GPa)
#
#
# Indices 1 2 3 4 5 6 
#
# 1 0.011055 0.000643 -0.003482 0.000000 0.000000 0.000000
# 2 0.000643 0.017935 -0.001786 0.000000 -0.003200 0.000000
# 3 -0.003482 -0.001786 0.005050 0.000000 -0.001559 0.000000
# 4 0.000000 0.000000 0.000000 0.022822 0.000000 -0.017099
# 5 0.000000 -0.003200 -0.001559 0.000000 0.017745 0.000000
# 6 0.000000 0.000000 0.000000 -0.017099 0.000000 0.066937
#
#
# Mechanical properties :
#
#
# Convention : Reuss Voigt Hill
#
# Bulk Modulus (GPa) = 40.33878 77.39124 58.86501
# Shear Modulus (GPa) = 31.43509 49.05152 40.24330
#
# Velocity S-wave (km/s) = 3.37077 4.21064 3.81390
# Velocity P-wave (km/s) = 5.45250 7.18416 6.37738
#
# Compressibility (1/GPa) = 0.02479004
#
# Stress axis : x y z
#
# Youngs Moduli (GPa) = 90.45367 55.75721 198.02130
#
# Poissons Ratio (x) = -0.03587 0.68950
# Poissons Ratio (y) = -0.05818 0.35374
# Poissons Ratio (z) = 0.31496 0.09960
#
# Static dielectric constant tensor:
#      x y z
#    x 2.226270 0.000000 -0.056400 
#    y 0.000000 2.357270 0.000000 
#    z -0.056400 0.000000 2.233820 
# 
# From -- ./inp_files/265934.got.cif
#   From: 2010.05.17/outbox.cif.g08.bks.cpg/sg15_133_cif.got.tgz:265934.got - 2010.06.03 18:47:42.
