data_PCOD9255439
_publ_section_title
;
Structure prediction by ZEFSAII (Michael W. Deem and Ramdas Pophale) SiO2 
 PCOD9255439
Probable space group: C 2/C
;
_chemical_formula_sum "Si O2"
_cell_formula_units_Z 56
_cell_length_a 15.519333
_cell_length_b 30.845309
_cell_length_c 7.286657
_cell_angle_alpha 90.000000
_cell_angle_beta 128.764006
_cell_angle_gamma 90.000000
_cell_volume 2719.791153
_symmetry_space_group_name_H-M "C 2/C"
_symmetry_group_IT_number 15
_symmetry_cell_setting 'monoclinic'
loop_
_space_group_symop_operation_xyz
x,y,z
-x,y,1/2-z
-x,-y,-z
x,-y,1/2+z
1/2+x,1/2+y,z
1/2-x,1/2+y,1/2-z
1/2-x,1/2-y,-z
1/2+x,1/2-y,1/2+z
loop_
_atom_site_type_symbol
_atom_site_label
_atom_site_fract_x
_atom_site_fract_y
_atom_site_fract_z
Si Si1 0.130671 0.955620 0.614069
Si Si2 0.000000 0.654994 0.250000
Si Si3 0.101536 0.693160 0.016467
Si Si4 0.207340 0.130398 0.192123
Si Si5 0.319286 0.277828 0.242756
Si Si6 0.381391 0.447373 0.340137
Si Si7 0.000000 0.827041 0.250000
Si Si8 0.773403 0.630536 0.853908
O O1 0.209321 0.916939 0.783458
O O2 0.118819 0.946009 0.381788
O O3 0.012451 0.949812 0.556982
O O4 0.166417 0.005318 0.675808
O O5 0.094316 0.626919 0.479430
O O6 0.941060 0.683352 0.331103
O O7 0.000000 0.683782 0.750000
O O8 0.208222 0.664255 0.108809
O O9 0.138653 0.743002 0.056392
O O10 0.080321 0.145600 0.992198
O O11 0.251180 0.128727 0.042755
O O12 0.421285 0.298076 0.268542
O O13 0.257568 0.320029 0.240469
O O14 0.250000 0.250000 0.000000
O O15 0.310182 0.407280 0.322613
#
# Coordination Sequence:
#
# PCOD9255439 Si02
#       8
#     8   4   8   8   8   8   4   8
#     4   9  16  30  55  77 106 139 175 227 286 337
#     4  10  19  38  60  76 110 160 182 232 283 326
#     4  11  23  38  57  85 115 150 195 232 278 339
#     4   9  17  33  55  83 108 143 188 233 277 338
#     4  11  18  32  56  81 109 149 190 231 277 338
#     4   9  17  31  52  81 106 137 179 227 285 342
#     4  10  17  30  60  82 106 146 192 226 285 334
#     4   9  18  32  55  78 105 145 190 221 277 340
#
# _framework density 20.589815000000002
#
# number of rings (size 3 to 8) (size 9 to 14) (size 15 to 20)
#    0.000    2.286    4.286    3.000    0.000    0.000 
#    2.571    2.857    7.857    2.571    0.000    0.000 
#    0.000    0.000    0.000    0.000    0.000    0.000 
#
# Total GULP energy -156008.589093 kJ/mol
# GULP energy per Si atom -5571.735325 kJ/mol
# Density = 2.054295 g / cm^3
# Si number density = 20.589815 Si / 1000 Ang^3
#
#
#
# Elastic Constant Matrix: (Units=GPa)
#
#
# Indices 1 2 3 4 5 6 
#
# 1 42.8253 22.5137 14.0038 0.0000 5.8475 0.0000
# 2 22.5137 168.1137 31.5887 0.0000 26.7310 0.0000
# 3 14.0038 31.5887 56.9899 0.0000 13.5889 0.0000
# 4 0.0000 0.0000 0.0000 13.7896 0.0000 -1.7996
# 5 5.8475 26.7310 13.5889 0.0000 38.8977 0.0000
# 6 0.0000 0.0000 0.0000 -1.7996 0.0000 8.9240
#
#
#
# Elastic Compliance Matrix: (Units=1/GPa)
#
#
# Indices 1 2 3 4 5 6 
#
# 1 0.026366 -0.002519 -0.004964 0.000000 -0.000498 0.000000
# 2 -0.002519 0.007370 -0.002562 0.000000 -0.003791 0.000000
# 3 -0.004964 -0.002562 0.021369 0.000000 -0.004958 0.000000
# 4 0.000000 0.000000 0.000000 0.074479 0.000000 0.015019
# 5 -0.000498 -0.003791 -0.004958 0.000000 0.030121 0.000000
# 6 0.000000 0.000000 0.000000 0.015019 0.000000 0.115086
#
#
# Mechanical properties :
#
#
# Convention : Reuss Voigt Hill
#
# Bulk Modulus (GPa) = 28.55878 44.90459 36.73169
# Shear Modulus (GPa) = 16.31046 25.64376 20.97711
#
# Velocity S-wave (km/s) = 2.81759 3.53293 3.19534
# Velocity P-wave (km/s) = 4.94829 6.20473 5.61178
#
# Compressibility (1/GPa) = 0.03501550
#
# Stress axis : x y z
#
# Youngs Moduli (GPa) = 37.92741 135.68700 46.79653
#
# Poissons Ratio (x) = 0.34180 0.23228
# Poissons Ratio (y) = 0.09554 0.11990
# Poissons Ratio (z) = 0.18826 0.34765
#
# Static dielectric constant tensor:
#      x y z
#    x 1.737020 0.000000 -0.005710 
#    y 0.000000 1.805330 0.000000 
#    z -0.005710 0.000000 1.833080 
# 
# From -- ./inp_files/52684.got.cif
#   From: 2010.05.17/outbox.cif.g08.bks.cpg/sg15_27_cif.got.tgz:52684.got - 2010.06.03 18:47:42.
