data_PCOD9255794
_publ_section_title
;
Structure prediction by ZEFSAII (Michael W. Deem and Ramdas Pophale) SiO2 
 PCOD9255794
Probable space group: C 2/C
;
_chemical_formula_sum "Si O2"
_cell_formula_units_Z 44
_cell_length_a 29.260512
_cell_length_b 15.073837
_cell_length_c 13.534226
_cell_angle_alpha 90.000000
_cell_angle_beta 15.227131
_cell_angle_gamma 90.000000
_cell_volume 1567.870292
_symmetry_space_group_name_H-M "C 2/C"
_symmetry_group_IT_number 15
_symmetry_cell_setting 'monoclinic'
loop_
_space_group_symop_operation_xyz
x,y,z
-x,y,1/2-z
-x,-y,-z
x,-y,1/2+z
1/2+x,1/2+y,z
1/2-x,1/2+y,1/2-z
1/2-x,1/2-y,-z
1/2+x,1/2-y,1/2+z
loop_
_atom_site_type_symbol
_atom_site_label
_atom_site_fract_x
_atom_site_fract_y
_atom_site_fract_z
Si Si1 0.500000 0.374649 0.750000
Si Si2 0.048733 0.415961 0.765068
Si Si3 0.922943 0.005558 0.052551
Si Si4 0.254756 0.308834 0.891515
Si Si5 0.784448 0.245854 0.103614
Si Si6 0.579786 0.090675 0.472384
O O1 0.436073 0.447935 0.804459
O O2 0.611703 0.305934 0.453115
O O3 0.236430 0.460263 0.405932
O O4 0.071291 0.311633 0.740135
O O5 0.000000 0.411662 0.750000
O O6 0.911266 0.490634 0.086209
O O7 0.889198 0.109199 0.105704
O O8 0.000000 0.000000 0.000000
O O9 0.286618 0.262955 0.718283
O O10 0.250000 0.250000 0.000000
O O11 0.066760 0.356487 0.280279
O O12 0.748004 0.152203 0.128831
O O13 0.500000 0.087965 0.750000
#
# Coordination Sequence:
#
# PCOD9255794 Si02
#       6
#     4   8   8   8   8   8
#     4  10  18  34  56  88 120 158 210 250 322 376
#     4   9  19  34  56  85 119 154 207 252 310 369
#     4  10  21  34  59  91 125 161 204 265 313 375
#     4  10  18  30  53  84 117 150 202 248 304 372
#     4  10  17  32  59  78 109 159 199 241 305 369
#     4   8  15  30  51  77 107 144 193 241 287 361
#
# _framework density 28.063545000000001
#
# number of rings (size 3 to 8) (size 9 to 14) (size 15 to 20)
#    0.000    2.545    2.727    2.182    2.545    0.000 
#    1.636    0.000    0.000   46.909    0.000    0.000 
#    0.000    0.000    0.000    0.000    0.000    0.000 
#
# Total GULP energy -122734.472897 kJ/mol
# GULP energy per Si atom -5578.839677 kJ/mol
# Density = 2.799967 g / cm^3
# Si number density = 28.063545 Si / 1000 Ang^3
#
#
#
# Elastic Constant Matrix: (Units=GPa)
#
#
# Indices 1 2 3 4 5 6 
#
# 1 117.1247 24.8617 22.3994 0.0003 -6.6913 0.0003
# 2 24.8617 228.9637 48.5014 -0.0004 -7.4627 0.0006
# 3 22.3994 48.5014 122.9791 -0.0004 -21.4043 0.0008
# 4 0.0003 -0.0004 -0.0004 25.6760 0.0002 -12.3716
# 5 -6.6913 -7.4627 -21.4043 0.0002 43.3317 0.0002
# 6 0.0003 0.0006 0.0008 -12.3716 0.0002 28.5633
#
#
#
# Elastic Compliance Matrix: (Units=1/GPa)
#
#
# Indices 1 2 3 4 5 6 
#
# 1 0.008960 -0.000687 -0.001248 0.000000 0.000649 0.000000
# 2 -0.000687 0.004819 -0.001804 0.000000 -0.000168 0.000000
# 3 -0.001248 -0.001804 0.009828 0.000000 0.004351 0.000000
# 4 0.000000 0.000000 0.000000 0.049219 0.000000 0.021318
# 5 0.000649 -0.000168 0.004351 0.000000 0.025298 0.000000
# 6 0.000000 0.000000 0.000000 0.021318 0.000000 0.044243
#
#
# Mechanical properties :
#
#
# Convention : Reuss Voigt Hill
#
# Bulk Modulus (GPa) = 62.00906 73.39916 67.70411
# Shear Modulus (GPa) = 32.21202 44.40123 38.30662
#
# Velocity S-wave (km/s) = 3.39163 3.98196 3.69859
# Velocity P-wave (km/s) = 6.12221 6.88133 6.51284
#
# Compressibility (1/GPa) = 0.01612667
#
# Stress axis : x y z
#
# Youngs Moduli (GPa) = 111.61303 207.51516 101.75312
#
# Poissons Ratio (x) = 0.14264 0.12698
# Poissons Ratio (y) = 0.07672 0.18361
# Poissons Ratio (z) = 0.13928 0.37446
#
# Static dielectric constant tensor:
#      x y z
#    x 2.213510 0.000000 -0.104290 
#    y 0.000000 2.200410 0.000000 
#    z -0.104290 0.000000 2.484760 
# 
# From -- ./inp_files/182272.got.cif
#   From: 2010.05.17/outbox.cif.g08.bks.cpg/sg15_92_cif.got.tgz:182272.got - 2010.06.03 18:47:42.
