data_PCOD9255293
_publ_section_title
;
Structure prediction by ZEFSAII (Michael W. Deem and Ramdas Pophale) SiO2 
 PCOD9255293
Probable space group: C 2/C
;
_chemical_formula_sum "Si O2"
_cell_formula_units_Z 32
_cell_length_a 11.851291
_cell_length_b 14.328277
_cell_length_c 14.970754
_cell_angle_alpha 90.000000
_cell_angle_beta 33.543818
_cell_angle_gamma 90.000000
_cell_volume 1404.734298
_symmetry_space_group_name_H-M "C 2/C"
_symmetry_group_IT_number 15
_symmetry_cell_setting 'monoclinic'
loop_
_space_group_symop_operation_xyz
x,y,z
-x,y,1/2-z
-x,-y,-z
x,-y,1/2+z
1/2+x,1/2+y,z
1/2-x,1/2+y,1/2-z
1/2-x,1/2-y,-z
1/2+x,1/2-y,1/2+z
loop_
_atom_site_type_symbol
_atom_site_label
_atom_site_fract_x
_atom_site_fract_y
_atom_site_fract_z
Si Si1 0.185396 0.692797 0.845681
Si Si2 0.509277 0.336649 0.641291
Si Si3 0.281287 0.452481 0.128098
Si Si4 0.097387 0.624841 0.324588
O O1 0.999095 0.749015 0.920861
O O2 0.260948 0.623696 0.719573
O O3 0.344822 0.776454 0.760129
O O4 0.105980 0.639478 0.984639
O O5 0.500000 0.310223 0.750000
O O6 0.692680 0.401417 0.484580
O O7 0.289472 0.385100 0.766601
O O8 0.117557 0.533672 0.251564
O O9 0.500000 0.500000 0.000000
#
# Coordination Sequence:
#
# PCOD9255293 Si02
#       4
#     8   8   8   8
#     4  10  17  30  47  70  96 123 162 194 242 276
#     4   9  18  31  47  71 103 131 149 195 241 292
#     4  10  18  31  45  68  99 124 165 193 234 286
#     4   9  18  29  47  70  97 128 160 193 236 280
#
# _framework density 22.780107999999998
#
# number of rings (size 3 to 8) (size 9 to 14) (size 15 to 20)
#    1.500    1.000    2.500    0.750    0.000    4.000 
#    0.000    0.000    0.000    0.000    0.000   15.750 
#    0.000    0.000    0.000    0.500    0.000    0.000 
#
# Total GULP energy -89145.437822 kJ/mol
# GULP energy per Si atom -5571.589864 kJ/mol
# Density = 2.272826 g / cm^3
# Si number density = 22.780108 Si / 1000 Ang^3
#
#
#
# Elastic Constant Matrix: (Units=GPa)
#
#
# Indices 1 2 3 4 5 6 
#
# 1 30.6083 0.5461 -8.3003 -0.0014 10.0481 0.0013
# 2 0.5461 127.8780 65.5634 -0.0007 -0.5342 0.0009
# 3 -8.3003 65.5634 142.6795 -0.0003 -3.0361 0.0008
# 4 -0.0014 -0.0007 -0.0003 60.3588 0.0014 1.5026
# 5 10.0481 -0.5342 -3.0361 0.0014 9.7197 -0.0017
# 6 0.0013 0.0009 0.0008 1.5026 -0.0017 -7.6929
#
#
#
# Elastic Compliance Matrix: (Units=1/GPa)
#
#
# Indices 1 2 3 4 5 6 
#
# 1 0.050229 -0.001790 0.002655 0.000002 -0.051196 0.000020
# 2 -0.001790 0.010302 -0.004819 0.000000 0.000911 0.000000
# 3 0.002655 -0.004819 0.009376 0.000000 -0.000081 0.000001
# 4 0.000002 0.000000 0.000000 0.016487 -0.000004 0.003220
# 5 -0.051196 0.000911 -0.000081 -0.000004 0.155835 -0.000044
# 6 0.000020 0.000000 0.000001 0.003220 -0.000044 -0.129362
#
#
# Mechanical properties :
#
#
# Convention : Reuss Voigt Hill
#
# Bulk Modulus (GPa) = 16.12890 46.30937 31.21914
# Shear Modulus (GPa) = 35.35053 28.70090 32.02572
#
# Velocity S-wave (km/s) = 3.94358 3.55337 3.75355
# Velocity P-wave (km/s) = 5.27555 6.09986 5.70262
#
# Compressibility (1/GPa) = 0.06200051
#
# Stress axis : x y z
#
# Youngs Moduli (GPa) = 19.90868 97.06928 106.65901
#
# Poissons Ratio (x) = 0.17372 -0.28318
# Poissons Ratio (y) = 0.03563 0.51395
# Poissons Ratio (z) = -0.05286 0.46774
#
# Static dielectric constant tensor:
#      x y z
#    x 1.858760 0.000000 -0.025340 
#    y 0.000000 1.900780 0.000000 
#    z -0.025340 0.000000 1.809260 
# 
# From -- ./inp_files/36560.got.cif
#   From: 2010.05.17/outbox.cif.g08.bks.cpg/sg15_19_cif.got.tgz:36560.got - 2010.06.03 18:47:42.
