data_PCOD9255492
_publ_section_title
;
Structure prediction by ZEFSAII (Michael W. Deem and Ramdas Pophale) SiO2 
 PCOD9255492
Probable space group: C 2/C
;
_chemical_formula_sum "Si O2"
_cell_formula_units_Z 40
_cell_length_a 10.325725
_cell_length_b 15.053570
_cell_length_c 11.481806
_cell_angle_alpha 90.000000
_cell_angle_beta 72.971321
_cell_angle_gamma 90.000000
_cell_volume 1706.475514
_symmetry_space_group_name_H-M "C 2/C"
_symmetry_group_IT_number 15
_symmetry_cell_setting 'monoclinic'
loop_
_space_group_symop_operation_xyz
x,y,z
-x,y,1/2-z
-x,-y,-z
x,-y,1/2+z
1/2+x,1/2+y,z
1/2-x,1/2+y,1/2-z
1/2-x,1/2-y,-z
1/2+x,1/2-y,1/2+z
loop_
_atom_site_type_symbol
_atom_site_label
_atom_site_fract_x
_atom_site_fract_y
_atom_site_fract_z
Si Si1 0.350839 0.709199 0.069339
Si Si2 0.361060 0.871456 0.726894
Si Si3 0.500000 0.529619 0.750000
Si Si4 0.313838 0.602065 0.423245
Si Si5 0.377433 0.331293 0.136358
Si Si6 0.500000 0.746001 0.250000
O O1 0.266197 0.629841 0.152232
O O2 0.413095 0.774600 0.155775
O O3 0.250000 0.750000 0.000000
O O4 0.478673 0.670551 0.968174
O O5 0.500000 0.899810 0.750000
O O6 0.316662 0.919390 0.620519
O O7 0.371697 0.766462 0.691459
O O8 0.571521 0.471553 0.630881
O O9 0.614576 0.594095 0.769172
O O10 0.277663 0.634153 0.561759
O O11 0.385622 0.686839 0.343303
#
# Coordination Sequence:
#
# PCOD9255492 Si02
#       6
#     8   8   4   8   8   4
#     4  10  17  31  51  80 113 145 184 243 282 330
#     4  11  20  35  55  89 116 153 194 235 289 362
#     4  11  20  38  60  90 112 149 202 245 286 346
#     4   9  20  33  54  82 118 148 183 245 291 334
#     4  11  20  36  60  88 114 151 201 242 291 334
#     4   7  16  28  44  72 104 137 178 219 274 326
#
# _framework density 23.440124999999998
#
# number of rings (size 3 to 8) (size 9 to 14) (size 15 to 20)
#    0.000    2.000    3.000    2.400    0.000    0.000 
#    0.000    0.000    0.000    4.800   18.200    0.000 
#    0.000    0.000    0.000    0.000    0.000    0.000 
#
# Total GULP energy -111408.394632 kJ/mol
# GULP energy per Si atom -5570.419732 kJ/mol
# Density = 2.338677 g / cm^3
# Si number density = 23.440125 Si / 1000 Ang^3
#
#
#
# Elastic Constant Matrix: (Units=GPa)
#
#
# Indices 1 2 3 4 5 6 
#
# 1 132.4873 -14.6081 10.0377 0.0000 36.7245 0.0000
# 2 -14.6081 34.1803 1.4288 0.0000 3.0009 0.0000
# 3 10.0377 1.4288 54.7838 0.0000 24.7857 0.0000
# 4 0.0000 0.0000 0.0000 16.5999 0.0000 -0.7524
# 5 36.7245 3.0009 24.7857 0.0000 59.1942 0.0000
# 6 0.0000 0.0000 0.0000 -0.7524 0.0000 11.1579
#
#
#
# Elastic Compliance Matrix: (Units=1/GPa)
#
#
# Indices 1 2 3 4 5 6 
#
# 1 0.009890 0.004781 0.001171 0.000000 -0.006869 0.000000
# 2 0.004781 0.031699 0.000452 0.000000 -0.004762 0.000000
# 3 0.001171 0.000452 0.022659 0.000000 -0.010237 0.000000
# 4 0.000000 0.000000 0.000000 0.060426 0.000000 0.004075
# 5 -0.006869 -0.004762 -0.010237 0.000000 0.025683 0.000000
# 6 0.000000 0.000000 0.000000 0.004075 0.000000 0.089898
#
#
# Mechanical properties :
#
#
# Convention : Reuss Voigt Hill
#
# Bulk Modulus (GPa) = 12.97768 23.90759 18.44263
# Shear Modulus (GPa) = 19.75250 32.36324 26.05787
#
# Velocity S-wave (km/s) = 2.90604 3.71978 3.33780
# Velocity P-wave (km/s) = 4.09984 5.35449 4.76861
#
# Compressibility (1/GPa) = 0.07705538
#
# Stress axis : x y z
#
# Youngs Moduli (GPa) = 101.10946 31.54656 44.13316
#
# Poissons Ratio (x) = -0.15082 -0.05167
# Poissons Ratio (y) = -0.48341 -0.01994
# Poissons Ratio (z) = -0.11837 -0.01426
#
# Static dielectric constant tensor:
#      x y z
#    x 2.027860 0.000000 0.091630 
#    y 0.000000 1.884120 0.000000 
#    z 0.091630 0.000000 1.989840 
# 
# From -- ./inp_files/85584.got.cif
#   From: 2010.05.17/outbox.cif.g08.bks.cpg/sg15_43_cif.got.tgz:85584.got - 2010.06.03 18:47:42.
