data_PCOD9255458
_publ_section_title
;
Structure prediction by ZEFSAII (Michael W. Deem and Ramdas Pophale) SiO2 
 PCOD9255458
Probable space group: C 2/C
;
_chemical_formula_sum "Si O2"
_cell_formula_units_Z 64
_cell_length_a 21.494956
_cell_length_b 18.141521
_cell_length_c 24.633584
_cell_angle_alpha 90.000000
_cell_angle_beta 158.372796
_cell_angle_gamma 90.000000
_cell_volume 3540.406191
_symmetry_space_group_name_H-M "C 2/C"
_symmetry_group_IT_number 15
_symmetry_cell_setting 'monoclinic'
loop_
_space_group_symop_operation_xyz
x,y,z
-x,y,1/2-z
-x,-y,-z
x,-y,1/2+z
1/2+x,1/2+y,z
1/2-x,1/2+y,1/2-z
1/2-x,1/2-y,-z
1/2+x,1/2-y,1/2+z
loop_
_atom_site_type_symbol
_atom_site_label
_atom_site_fract_x
_atom_site_fract_y
_atom_site_fract_z
Si Si1 0.734986 0.777507 0.357636
Si Si2 0.003293 0.101172 0.399601
Si Si3 0.510106 0.219164 0.026432
Si Si4 0.469295 0.894604 0.162363
Si Si5 0.767327 0.505397 0.674389
Si Si6 0.733386 0.348078 0.694134
Si Si7 0.952755 0.430897 0.422982
Si Si8 0.714949 0.614574 0.375234
O O1 0.569380 0.827225 0.213287
O O2 0.691362 0.702517 0.352629
O O3 0.866054 0.830325 0.495359
O O4 0.835823 0.750390 0.386107
O O5 0.853515 0.125435 0.319268
O O6 0.933158 0.083493 0.283042
O O7 0.103877 0.036790 0.511648
O O8 0.592407 0.189753 0.147908
O O9 0.384192 0.286790 0.927698
O O10 0.424550 0.146837 0.930064
O O11 0.500000 0.878933 0.250000
O O12 0.573211 0.967917 0.231604
O O13 0.276347 0.900957 0.986247
O O14 0.756777 0.419709 0.677033
O O15 0.801523 0.545119 0.760369
O O16 0.000000 0.500000 0.500000
O O17 0.117913 0.413493 0.520902
#
# Coordination Sequence:
#
# PCOD9255458 Si02
#       8
#     8   8   8   8   8   8   8   8
#     4   9  18  31  48  70 104 136 168 212 248 300
#     4  10  18  29  49  75 101 135 168 198 256 304
#     4  10  21  29  50  75 104 137 168 202 252 310
#     4  10  22  36  52  72  97 139 184 217 254 294
#     4  10  21  34  50  71 105 136 170 213 251 298
#     4  11  20  33  48  78 106 138 167 200 254 310
#     4  10  17  31  49  71 100 138 172 199 244 309
#     4  10  18  30  49  70  99 136 173 211 251 297
#
# _framework density 18.077023000000001
#
# number of rings (size 3 to 8) (size 9 to 14) (size 15 to 20)
#    0.000    2.000    3.750    1.125    8.750    0.500 
#    0.000    2.500    0.000    0.000    0.000    0.875 
#    0.000    0.000    0.000    0.000    0.000    0.000 
#
# Total GULP energy -178417.894345 kJ/mol
# GULP energy per Si atom -5575.559198 kJ/mol
# Density = 1.803588 g / cm^3
# Si number density = 18.077023 Si / 1000 Ang^3
#
#
#
# Elastic Constant Matrix: (Units=GPa)
#
#
# Indices 1 2 3 4 5 6 
#
# 1 25.3276 33.7150 23.8163 -0.0088 -13.0069 0.0039
# 2 33.7150 137.2419 57.1407 -0.0012 -12.3921 -0.0002
# 3 23.8163 57.1407 116.1556 -0.0214 -38.5626 0.0067
# 4 -0.0088 -0.0012 -0.0214 26.4693 -0.0046 -1.0698
# 5 -13.0069 -12.3921 -38.5626 -0.0046 28.3033 0.0001
# 6 0.0039 -0.0002 0.0067 -1.0698 0.0001 3.9070
#
#
#
# Elastic Compliance Matrix: (Units=1/GPa)
#
#
# Indices 1 2 3 4 5 6 
#
# 1 0.075325 -0.017116 0.003615 0.000030 0.032047 -0.000074
# 2 -0.017116 0.013293 -0.006772 -0.000011 -0.011273 0.000026
# 3 0.003615 -0.006772 0.019659 0.000020 0.025481 -0.000032
# 4 0.000030 -0.000011 0.000020 0.038202 0.000042 0.010460
# 5 0.032047 -0.011273 0.025481 0.000042 0.079840 -0.000066
# 6 -0.000074 0.000026 -0.000032 0.010460 -0.000066 0.258817
#
#
# Mechanical properties :
#
#
# Convention : Reuss Voigt Hill
#
# Bulk Modulus (GPa) = 14.76451 56.45212 35.60831
# Shear Modulus (GPa) = 9.11976 22.67280 15.89628
#
# Velocity S-wave (km/s) = 2.24853 3.54536 2.96862
# Velocity P-wave (km/s) = 3.86348 6.93223 5.61170
#
# Compressibility (1/GPa) = 0.06772999
#
# Stress axis : x y z
#
# Youngs Moduli (GPa) = 13.27584 75.22859 50.86752
#
# Poissons Ratio (x) = 1.28759 -0.18387
# Poissons Ratio (y) = 0.22722 0.34448
# Poissons Ratio (z) = -0.04799 0.50946
#
# Static dielectric constant tensor:
#      x y z
#    x 1.666900 -0.000010 -0.014970 
#    y -0.000010 1.607050 -0.000010 
#    z -0.014970 -0.000010 1.700600 
# 
# From -- ./inp_files/302442.got.cif
#   From: 2010.05.17/outbox.cif.g08.bks.cpg/sg15_152_cif.got.tgz:302442.got - 2010.06.03 18:47:42.
