data_PCOD9255642
_publ_section_title
;
Structure prediction by ZEFSAII (Michael W. Deem and Ramdas Pophale) SiO2 
 PCOD9255642
Probable space group: C 2/C
;
_chemical_formula_sum "Si O2"
_cell_formula_units_Z 40
_cell_length_a 8.555496
_cell_length_b 19.302988
_cell_length_c 17.241503
_cell_angle_alpha 90.000000
_cell_angle_beta 36.787566
_cell_angle_gamma 90.000000
_cell_volume 1705.150727
_symmetry_space_group_name_H-M "C 2/C"
_symmetry_group_IT_number 15
_symmetry_cell_setting 'monoclinic'
loop_
_space_group_symop_operation_xyz
x,y,z
-x,y,1/2-z
-x,-y,-z
x,-y,1/2+z
1/2+x,1/2+y,z
1/2-x,1/2+y,1/2-z
1/2-x,1/2-y,-z
1/2+x,1/2-y,1/2+z
loop_
_atom_site_type_symbol
_atom_site_label
_atom_site_fract_x
_atom_site_fract_y
_atom_site_fract_z
Si Si1 0.184949 0.439623 0.075124
Si Si2 0.392918 0.344026 0.409007
Si Si3 0.129156 0.016271 0.825556
Si Si4 0.791761 0.780724 0.606486
Si Si5 0.468879 0.785045 0.174617
O O1 0.283084 0.461291 0.122083
O O2 0.911340 0.482839 0.170210
O O3 0.105825 0.359362 0.111058
O O4 0.424753 0.454113 0.921021
O O5 0.444536 0.422426 0.365995
O O6 0.194614 0.295013 0.441576
O O7 0.344861 0.336653 0.519446
O O8 0.666074 0.306191 0.286752
O O9 0.500000 0.796109 0.750000
O O10 0.987389 0.772137 0.600173
O O11 0.500000 0.759071 0.250000
#
# Coordination Sequence:
#
# PCOD9255642 Si02
#       5
#     8   8   8   8   8
#     4   9  16  30  49  77 101 133 174 214 261 311
#     4   9  17  34  50  73 101 137 177 210 259 312
#     4   9  16  30  51  74 103 133 173 217 255 317
#     4   9  19  32  51  72 104 138 174 214 256 314
#     4  10  17  32  50  74 104 133 173 213 264 311
#
# _framework density 23.458338000000001
#
# number of rings (size 3 to 8) (size 9 to 14) (size 15 to 20)
#    0.000    2.800    4.000    0.000    0.000    0.800 
#    7.200    1.000    0.000    0.000    0.000    0.000 
#    0.000    0.000    0.000    0.000    0.000    0.000 
#
# Total GULP energy -111486.435616 kJ/mol
# GULP energy per Si atom -5574.321781 kJ/mol
# Density = 2.340495 g / cm^3
# Si number density = 23.458338 Si / 1000 Ang^3
#
#
#
# Elastic Constant Matrix: (Units=GPa)
#
#
# Indices 1 2 3 4 5 6 
#
# 1 72.1682 26.2921 27.8164 0.0022 9.4165 -0.0023
# 2 26.2921 27.9652 37.9903 0.0005 -1.5445 -0.0005
# 3 27.8164 37.9903 113.9745 -0.0039 -18.7626 -0.0011
# 4 0.0022 0.0005 -0.0039 7.8210 -0.0012 -30.1803
# 5 9.4165 -1.5445 -18.7626 -0.0012 29.7839 0.0011
# 6 -0.0023 -0.0005 -0.0011 -30.1803 0.0011 -1.7159
#
#
#
# Elastic Compliance Matrix: (Units=1/GPa)
#
#
# Indices 1 2 3 4 5 6 
#
# 1 0.023036 -0.023163 0.000783 -0.000002 -0.007991 0.000001
# 2 -0.023163 0.092393 -0.025828 0.000001 -0.004156 0.000004
# 3 0.000783 -0.025828 0.018889 0.000000 0.010313 -0.000003
# 4 -0.000002 0.000001 0.000000 0.001856 0.000002 -0.032653
# 5 -0.007991 -0.004156 0.010313 0.000002 0.042383 -0.000003
# 6 0.000001 0.000004 -0.000003 -0.032653 -0.000003 -0.008462
#
#
# Mechanical properties :
#
#
# Convention : Reuss Voigt Hill
#
# Bulk Modulus (GPa) = 26.38301 44.25617 35.31959
# Shear Modulus (GPa) = 17.91181 15.31174 16.61177
#
# Velocity S-wave (km/s) = 2.76625 2.55761 2.66398
# Velocity P-wave (km/s) = 4.63401 5.25630 4.95493
#
# Compressibility (1/GPa) = 0.03790318
#
# Stress axis : x y z
#
# Youngs Moduli (GPa) = 43.41037 10.82332 52.93970
#
# Poissons Ratio (x) = 0.25070 -0.04146
# Poissons Ratio (y) = 1.00552 1.36732
# Poissons Ratio (z) = -0.03400 0.27954
#
# Static dielectric constant tensor:
#      x y z
#    x 1.951540 0.000000 0.049020 
#    y 0.000000 1.883400 0.000000 
#    z 0.049020 0.000000 2.440200 
# 
# From -- ./inp_files/77943.got.cif
#   From: 2010.05.17/outbox.cif.g08.bks.cpg/sg15_39_cif.got.tgz:77943.got - 2010.06.03 18:47:42.
