data_PCOD9255081
_publ_section_title
;
Structure prediction by ZEFSAII (Michael W. Deem and Ramdas Pophale) SiO2 
 PCOD9255081
Probable space group: C 2/C
;
_chemical_formula_sum "Si O2"
_cell_formula_units_Z 56
_cell_length_a 17.631807
_cell_length_b 5.336759
_cell_length_c 29.342623
_cell_angle_alpha 90.000000
_cell_angle_beta 74.035987
_cell_angle_gamma 90.000000
_cell_volume 2654.563448
_symmetry_space_group_name_H-M "C 2/C"
_symmetry_group_IT_number 15
_symmetry_cell_setting 'monoclinic'
loop_
_space_group_symop_operation_xyz
x,y,z
-x,y,1/2-z
-x,-y,-z
x,-y,1/2+z
1/2+x,1/2+y,z
1/2-x,1/2+y,1/2-z
1/2-x,1/2-y,-z
1/2+x,1/2-y,1/2+z
loop_
_atom_site_type_symbol
_atom_site_label
_atom_site_fract_x
_atom_site_fract_y
_atom_site_fract_z
Si Si1 0.777366 0.227882 0.613971
Si Si2 0.284305 0.705968 0.721175
Si Si3 0.906771 0.349326 0.765955
Si Si4 0.428288 0.354562 0.796982
Si Si5 0.308573 0.772520 0.058614
Si Si6 0.628165 0.271854 0.049996
Si Si7 0.597560 0.772045 0.103815
O O1 0.781303 0.229262 0.667661
O O2 0.816844 0.474927 0.586137
O O3 0.686543 0.229296 0.610670
O O4 0.815563 0.975268 0.587838
O O5 0.260774 0.432648 0.744773
O O6 0.373367 0.758906 0.723860
O O7 0.877986 0.623427 0.785331
O O8 0.000000 0.383396 0.750000
O O9 0.886102 0.125695 0.804581
O O10 0.500000 0.391427 0.750000
O O11 0.454847 0.274371 0.842699
O O12 0.218556 0.772438 0.053901
O O13 0.364453 0.762164 0.005302
O O14 0.592425 0.537141 0.070908
O O15 0.586660 0.035477 0.080773
#
# Coordination Sequence:
#
# PCOD9255081 Si02
#       7
#     8   8   8   8   8   8   8
#     4  10  19  29  46  68 100 136 168 208 258 315
#     4  12  23  35  53  80 111 145 183 223 270 322
#     4  10  21  37  54  73 106 145 182 221 264 315
#     4  10  20  34  52  73 103 138 176 224 265 309
#     4   9  17  30  43  66  98 133 170 206 255 313
#     4   9  17  27  45  66  96 134 168 207 256 318
#     4  10  17  28  45  70  99 133 169 208 264 313
#
# _framework density 21.095745999999998
#
# number of rings (size 3 to 8) (size 9 to 14) (size 15 to 20)
#    0.000    2.000    0.000    5.143    0.000    5.714 
#    0.000    0.000    0.000    0.000    0.000    0.000 
#    0.000   91.429    0.000    0.000    0.000    0.000 
#
# Total GULP energy -156267.931069 kJ/mol
# GULP energy per Si atom -5580.997538 kJ/mol
# Density = 2.104773 g / cm^3
# Si number density = 21.095746 Si / 1000 Ang^3
#
#
#
# Elastic Constant Matrix: (Units=GPa)
#
#
# Indices 1 2 3 4 5 6 
#
# 1 27.8119 -1.1402 10.6684 0.0009 5.1723 0.0002
# 2 -1.1402 163.1884 45.5770 -0.0171 10.3605 -0.0061
# 3 10.6684 45.5770 141.7369 -0.0067 5.7355 -0.0030
# 4 0.0009 -0.0171 -0.0067 37.9183 0.0025 2.6694
# 5 5.1723 10.3605 5.7355 0.0025 20.0976 0.0012
# 6 0.0002 -0.0061 -0.0030 2.6694 0.0012 8.6162
#
#
#
# Elastic Compliance Matrix: (Units=1/GPa)
#
#
# Indices 1 2 3 4 5 6 
#
# 1 0.039098 0.001782 -0.003107 0.000000 -0.010094 0.000001
# 2 0.001782 0.006983 -0.002241 0.000003 -0.003419 0.000004
# 3 -0.003107 -0.002241 0.008023 0.000000 -0.000335 0.000001
# 4 0.000000 0.000003 0.000000 0.026960 -0.000004 -0.008353
# 5 -0.010094 -0.003419 -0.000335 -0.000004 0.054213 -0.000009
# 6 0.000001 0.000004 0.000001 -0.008353 -0.000009 0.118648
#
#
# Mechanical properties :
#
#
# Convention : Reuss Voigt Hill
#
# Bulk Modulus (GPa) = 21.28961 49.21642 35.25302
# Shear Modulus (GPa) = 18.06902 31.83523 24.95213
#
# Velocity S-wave (km/s) = 2.92982 3.88891 3.44292
# Velocity P-wave (km/s) = 4.64316 6.59890 5.70545
#
# Compressibility (1/GPa) = 0.04697126
#
# Stress axis : x y z
#
# Youngs Moduli (GPa) = 25.57668 143.19698 124.63406
#
# Poissons Ratio (x) = -0.25516 0.38729
# Poissons Ratio (y) = -0.04558 0.27935
# Poissons Ratio (z) = 0.07948 0.32096
#
# Static dielectric constant tensor:
#      x y z
#    x 1.890000 0.000000 -0.027730 
#    y 0.000000 1.822140 0.000000 
#    z -0.027730 0.000000 1.749170 
# 
# From -- ./inp_files/254020.got.cif
#   From: 2010.05.17/outbox.cif.g08.bks.cpg/sg15_128_cif.got.tgz:254020.got - 2010.06.03 18:47:42.
