data_PCOD9255119
_publ_section_title
;
Structure prediction by ZEFSAII (Michael W. Deem and Ramdas Pophale) SiO2 
 PCOD9255119
Probable space group: C 2/C
;
_chemical_formula_sum "Si O2"
_cell_formula_units_Z 56
_cell_length_a 8.716862
_cell_length_b 16.741380
_cell_length_c 18.299984
_cell_angle_alpha 90.000000
_cell_angle_beta 123.081772
_cell_angle_gamma 90.000000
_cell_volume 2237.640899
_symmetry_space_group_name_H-M "C 2/C"
_symmetry_group_IT_number 15
_symmetry_cell_setting 'monoclinic'
loop_
_space_group_symop_operation_xyz
x,y,z
-x,y,1/2-z
-x,-y,-z
x,-y,1/2+z
1/2+x,1/2+y,z
1/2-x,1/2+y,1/2-z
1/2-x,1/2-y,-z
1/2+x,1/2-y,1/2+z
loop_
_atom_site_type_symbol
_atom_site_label
_atom_site_fract_x
_atom_site_fract_y
_atom_site_fract_z
Si Si1 0.312319 0.539713 0.675627
Si Si2 0.302152 0.029220 0.222621
Si Si3 0.607574 0.923549 0.995398
Si Si4 0.944532 0.705755 0.560735
Si Si5 0.777419 0.855920 0.370027
Si Si6 0.696709 0.277370 0.273060
Si Si7 0.397769 0.583753 0.455660
O O1 0.500000 0.503469 0.750000
O O2 0.179722 0.481587 0.685140
O O3 0.297912 0.554999 0.587498
O O4 0.303000 0.629572 0.702481
O O5 0.500000 0.055779 0.250000
O O6 0.145456 0.080673 0.142267
O O7 0.258353 0.940348 0.179440
O O8 0.507559 0.848067 0.007835
O O9 0.696210 0.910877 0.939998
O O10 0.500000 0.000000 0.000000
O O11 0.750000 0.750000 0.500000
O O12 0.889925 0.651147 0.616648
O O13 0.123666 0.752457 0.636814
O O14 0.785193 0.786258 0.310241
O O15 0.963064 0.855759 0.467457
O O16 0.500000 0.245362 0.250000
O O17 0.500000 0.500000 0.500000
#
# Coordination Sequence:
#
# PCOD9255119 Si02
#       7
#     8   8   8   8   8   8   8
#     4   9  16  27  47  77 110 144 191 246 297 359
#     4  10  17  28  48  79 114 150 193 247 307 370
#     4  11  20  34  56  84 118 161 204 250 314 389
#     4  11  23  37  57  89 123 155 202 267 324 376
#     4  10  18  33  57  80 110 154 205 256 306 373
#     4   9  17  34  59  85 110 148 203 255 306 375
#     4  10  19  31  52  86 120 154 204 263 315 376
#
# _framework density 25.026358999999999
#
# number of rings (size 3 to 8) (size 9 to 14) (size 15 to 20)
#    0.000    2.000    0.000    9.857    0.000    0.000 
#    0.000    2.857    0.000    9.429    0.000    0.000 
#    0.000    0.000    0.000    0.000    0.000    0.000 
#
# Total GULP energy -155881.072545 kJ/mol
# GULP energy per Si atom -5567.181162 kJ/mol
# Density = 2.496940 g / cm^3
# Si number density = 25.026359 Si / 1000 Ang^3
#
#
#
# Elastic Constant Matrix: (Units=GPa)
#
#
# Indices 1 2 3 4 5 6 
#
# 1 129.5122 29.9092 15.3004 0.0000 14.0346 0.0000
# 2 29.9092 80.1699 5.7368 0.0000 6.6455 0.0000
# 3 15.3004 5.7368 114.8510 0.0000 17.2931 0.0000
# 4 0.0000 0.0000 0.0000 13.0222 0.0000 11.4285
# 5 14.0346 6.6455 17.2931 0.0000 53.3078 0.0000
# 6 0.0000 0.0000 0.0000 11.4285 0.0000 17.3741
#
#
#
# Elastic Compliance Matrix: (Units=1/GPa)
#
#
# Indices 1 2 3 4 5 6 
#
# 1 0.008696 -0.003052 -0.000755 0.000000 -0.001664 0.000000
# 2 -0.003052 0.013694 -0.000149 0.000000 -0.000855 0.000000
# 3 -0.000755 -0.000149 0.009233 0.000000 -0.002778 0.000000
# 4 0.000000 0.000000 0.000000 0.181666 0.000000 -0.119498
# 5 -0.001664 -0.000855 -0.002778 0.000000 0.020205 0.000000
# 6 0.000000 0.000000 0.000000 -0.119498 0.000000 0.136162
#
#
# Mechanical properties :
#
#
# Convention : Reuss Voigt Hill
#
# Bulk Modulus (GPa) = 42.17590 47.38066 44.77828
# Shear Modulus (GPa) = 12.97116 34.97991 23.97554
#
# Velocity S-wave (km/s) = 2.27909 3.74267 3.09853
# Velocity P-wave (km/s) = 4.88005 6.13597 5.54369
#
# Compressibility (1/GPa) = 0.02371023
#
# Stress axis : x y z
#
# Youngs Moduli (GPa) = 114.99961 73.02618 108.30406
#
# Poissons Ratio (x) = 0.22289 0.08182
# Poissons Ratio (y) = 0.35100 0.01610
# Poissons Ratio (z) = 0.08688 0.01085
#
# Static dielectric constant tensor:
#      x y z
#    x -0.629890 0.000000 0.748660 
#    y 0.000000 2.034310 0.000000 
#    z 0.748660 0.000000 2.169360 
# 
# From -- ./inp_files/233579.got.cif
#   From: 2010.05.17/outbox.cif.g08.bks.cpg/sg15_117_cif.got.tgz:233579.got - 2010.06.03 18:47:42.
