data_PCOD9255327
_publ_section_title
;
Structure prediction by ZEFSAII (Michael W. Deem and Ramdas Pophale) SiO2 
 PCOD9255327
Probable space group: C 2/C
;
_chemical_formula_sum "Si O2"
_cell_formula_units_Z 48
_cell_length_a 15.780814
_cell_length_b 22.165858
_cell_length_c 5.677010
_cell_angle_alpha 90.000000
_cell_angle_beta 114.405722
_cell_angle_gamma 90.000000
_cell_volume 1808.345770
_symmetry_space_group_name_H-M "C 2/C"
_symmetry_group_IT_number 15
_symmetry_cell_setting 'monoclinic'
loop_
_space_group_symop_operation_xyz
x,y,z
-x,y,1/2-z
-x,-y,-z
x,-y,1/2+z
1/2+x,1/2+y,z
1/2-x,1/2+y,1/2-z
1/2-x,1/2-y,-z
1/2+x,1/2-y,1/2+z
loop_
_atom_site_type_symbol
_atom_site_label
_atom_site_fract_x
_atom_site_fract_y
_atom_site_fract_z
Si Si1 0.147530 0.897732 0.178853
Si Si2 0.553048 0.733821 0.559930
Si Si3 0.735573 0.783712 0.732424
Si Si4 0.372432 0.078275 0.950625
Si Si5 0.379705 0.936733 0.958654
Si Si6 0.666703 0.412857 0.694819
O O1 0.109628 0.829585 0.136802
O O2 0.261374 0.904219 0.317765
O O3 0.117278 0.926874 0.392055
O O4 0.119023 0.922706 0.890620
O O5 0.500000 0.738800 0.750000
O O6 0.624881 0.788489 0.615401
O O7 0.500000 0.730778 0.250000
O O8 0.750000 0.750000 0.500000
O O9 0.800279 0.842452 0.788812
O O10 0.750000 0.750000 0.000000
O O11 0.404831 0.096468 0.729002
O O12 0.406614 0.095104 0.247912
O O13 0.401264 0.007565 0.983505
O O14 0.266728 0.944237 0.821671
#
# Coordination Sequence:
#
# PCOD9255327 Si02
#       6
#     8   8   8   8   8   8
#     4  10  18  31  49  69  97 127 167 200 255 294
#     4  12  24  36  50  74 105 140 176 216 256 305
#     4  12  21  36  55  74 100 129 177 219 259 304
#     4   8  14  24  40  65  91 121 147 193 248 292
#     4   8  14  23  40  67  93 113 150 195 256 289
#     4  10  17  30  50  73  91 124 165 211 257 295
#
# _framework density 26.543593999999999
#
# number of rings (size 3 to 8) (size 9 to 14) (size 15 to 20)
#    0.000    2.000    3.333    2.000    0.000    0.000 
#    0.000    0.000    0.000    0.000    0.000   56.000 
#    0.000    0.000    0.000   72.000    0.000    0.000 
#
# Total GULP energy -133871.112119 kJ/mol
# GULP energy per Si atom -5577.963005 kJ/mol
# Density = 2.648318 g / cm^3
# Si number density = 26.543594 Si / 1000 Ang^3
#
#
#
# Elastic Constant Matrix: (Units=GPa)
#
#
# Indices 1 2 3 4 5 6 
#
# 1 120.3338 20.9452 84.0750 0.0000 -39.5344 0.0000
# 2 20.9452 91.2952 41.2227 0.0000 -11.0044 0.0000
# 3 84.0750 41.2227 295.0020 0.0000 -80.0852 0.0000
# 4 0.0000 0.0000 0.0000 17.5529 0.0000 -13.9906
# 5 -39.5344 -11.0044 -80.0852 0.0000 64.6952 0.0000
# 6 0.0000 0.0000 0.0000 -13.9906 0.0000 -26.2416
#
#
#
# Elastic Compliance Matrix: (Units=1/GPa)
#
#
# Indices 1 2 3 4 5 6 
#
# 1 0.011253 -0.001219 -0.001847 0.000000 0.004383 0.000000
# 2 -0.001219 0.011823 -0.001447 0.000000 -0.000526 0.000000
# 3 -0.001847 -0.001447 0.005641 0.000000 0.005608 0.000000
# 4 0.000000 0.000000 0.000000 0.039981 0.000000 -0.021316
# 5 0.004383 -0.000526 0.005608 0.000000 0.024988 0.000000
# 6 0.000000 0.000000 0.000000 -0.021316 0.000000 -0.026743
#
#
# Mechanical properties :
#
#
# Convention : Reuss Voigt Hill
#
# Bulk Modulus (GPa) = 50.78776 88.79074 69.78925
# Shear Modulus (GPa) = 60.58174 35.22717 47.90445
#
# Velocity S-wave (km/s) = 4.78258 3.64695 4.25284
# Velocity P-wave (km/s) = 7.04788 7.15941 7.10387
#
# Compressibility (1/GPa) = 0.01968978
#
# Stress axis : x y z
#
# Youngs Moduli (GPa) = 88.86729 84.57801 177.28050
#
# Poissons Ratio (x) = 0.10314 0.32740
# Poissons Ratio (y) = 0.10837 0.25659
# Poissons Ratio (z) = 0.16412 0.12241
#
# Static dielectric constant tensor:
#      x y z
#    x 2.108510 0.000000 0.055550 
#    y 0.000000 2.083950 0.000000 
#    z 0.055550 0.000000 2.015410 
# 
# From -- ./inp_files/11355.got.cif
#   From: 2010.05.17/outbox.cif.g08.bks.cpg/sg15_6_cif.got.tgz:11355.got - 2010.06.03 18:47:42.
