data_PCOD9255710
_publ_section_title
;
Structure prediction by ZEFSAII (Michael W. Deem and Ramdas Pophale) SiO2 
 PCOD9255710
Probable space group: C 2/C
;
_chemical_formula_sum "Si O2"
_cell_formula_units_Z 44
_cell_length_a 12.810960
_cell_length_b 35.825826
_cell_length_c 5.246214
_cell_angle_alpha 90.000000
_cell_angle_beta 93.130201
_cell_angle_gamma 90.000000
_cell_volume 2404.226887
_symmetry_space_group_name_H-M "C 2/C"
_symmetry_group_IT_number 15
_symmetry_cell_setting 'monoclinic'
loop_
_space_group_symop_operation_xyz
x,y,z
-x,y,1/2-z
-x,-y,-z
x,-y,1/2+z
1/2+x,1/2+y,z
1/2-x,1/2+y,1/2-z
1/2-x,1/2-y,-z
1/2+x,1/2-y,1/2+z
loop_
_atom_site_type_symbol
_atom_site_label
_atom_site_fract_x
_atom_site_fract_y
_atom_site_fract_z
Si Si1 0.000000 0.658871 0.250000
Si Si2 0.183984 0.392551 0.688828
Si Si3 0.500000 0.274008 0.750000
Si Si4 0.626356 0.022198 0.263876
Si Si5 0.222863 0.857459 0.281740
Si Si6 0.000000 0.176482 0.750000
Si Si7 0.609881 0.797819 0.147877
O O1 0.074557 0.628948 0.115264
O O2 0.087815 0.688421 0.359396
O O3 0.166594 0.436423 0.714253
O O4 0.259422 0.381991 0.466819
O O5 0.226463 0.377009 0.964266
O O6 0.481326 0.298223 0.497460
O O7 0.403325 0.245744 0.798555
O O8 0.500000 0.024083 0.250000
O O9 0.658573 0.005583 0.540718
O O10 0.103009 0.847754 0.309991
O O11 0.287732 0.818775 0.248250
O O12 0.500000 0.813621 0.250000
#
# Coordination Sequence:
#
# PCOD9255710 Si02
#       7
#     4   8   4   8   8   4   8
#     4  10  17  32  54  82 119 138 198 220 269 334
#     4  11  20  36  58  84 111 162 177 231 272 330
#     4  10  22  38  60  76 115 145 182 241 305 346
#     4  10  20  33  52  88 129 154 174 212 278 356
#     4  11  24  37  60  81 114 147 200 238 276 334
#     4  12  25  42  54  84 110 149 192 247 296 330
#     4   9  19  35  53  85 104 148 186 233 277 354
#
# _framework density 18.301100999999999
#
# number of rings (size 3 to 8) (size 9 to 14) (size 15 to 20)
#    0.545    1.091    2.727    2.727    0.000    1.455 
#    0.000    0.000    0.000    0.000    0.000   12.727 
#    0.000    0.000    0.000    0.000    0.000    0.000 
#
# Total GULP energy -122483.700448 kJ/mol
# GULP energy per Si atom -5567.440929 kJ/mol
# Density = 1.825945 g / cm^3
# Si number density = 18.301101 Si / 1000 Ang^3
#
#
#
# Elastic Constant Matrix: (Units=GPa)
#
#
# Indices 1 2 3 4 5 6 
#
# 1 57.8690 14.4151 -4.2400 0.0000 -0.0331 0.0000
# 2 14.4151 88.1554 35.4988 0.0000 -7.4143 0.0000
# 3 -4.2400 35.4988 78.5136 0.0000 -11.1918 0.0000
# 4 0.0000 0.0000 0.0000 2.1111 0.0000 35.1476
# 5 -0.0331 -7.4143 -11.1918 0.0000 11.4757 0.0000
# 6 0.0000 0.0000 0.0000 35.1476 0.0000 -51.8503
#
#
#
# Elastic Compliance Matrix: (Units=1/GPa)
#
#
# Indices 1 2 3 4 5 6 
#
# 1 0.018539 -0.004193 0.002925 0.000000 0.000197 0.000000
# 2 -0.004193 0.014926 -0.006506 0.000000 0.003286 0.000000
# 3 0.002925 -0.006506 0.017699 0.000000 0.013066 0.000000
# 4 0.000000 0.000000 0.000000 0.038556 0.000000 0.026136
# 5 0.000197 0.003286 0.013066 0.000000 0.102007 0.000000
# 6 0.000000 0.000000 0.000000 0.026136 0.000000 -0.001570
#
#
# Mechanical properties :
#
#
# Convention : Reuss Voigt Hill
#
# Bulk Modulus (GPa) = 28.07787 35.09844 31.58816
# Shear Modulus (GPa) = 22.98044 4.27158 13.62601
#
# Velocity S-wave (km/s) = 3.54741 1.52942 2.73160
# Velocity P-wave (km/s) = 5.67048 4.72639 5.21982
#
# Compressibility (1/GPa) = 0.03561524
#
# Stress axis : x y z
#
# Youngs Moduli (GPa) = 53.93964 66.99899 56.50073
#
# Poissons Ratio (x) = 0.28091 -0.16526
# Poissons Ratio (y) = 0.22616 0.36762
# Poissons Ratio (z) = -0.15777 0.43593
#
# Static dielectric constant tensor:
#      x y z
#    x 1.634930 0.000000 -0.017400 
#    y 0.000000 1.614000 0.000000 
#    z -0.017400 0.000000 2.208160 
# 
# From -- ./inp_files/5903.got.cif
#   From: 2010.05.17/outbox.cif.g08.bks.cpg/sg15_3_cif.got.tgz:5903.got - 2010.06.03 18:47:42.
