data_PCOD9255364
_publ_section_title
;
Structure prediction by ZEFSAII (Michael W. Deem and Ramdas Pophale) SiO2 
 PCOD9255364
Probable space group: C 2/C
;
_chemical_formula_sum "Si O2"
_cell_formula_units_Z 48
_cell_length_a 13.044602
_cell_length_b 8.673844
_cell_length_c 28.304387
_cell_angle_alpha 90.000000
_cell_angle_beta 147.248087
_cell_angle_gamma 90.000000
_cell_volume 1732.588818
_symmetry_space_group_name_H-M "C 2/C"
_symmetry_group_IT_number 15
_symmetry_cell_setting 'monoclinic'
loop_
_space_group_symop_operation_xyz
x,y,z
-x,y,1/2-z
-x,-y,-z
x,-y,1/2+z
1/2+x,1/2+y,z
1/2-x,1/2+y,1/2-z
1/2-x,1/2-y,-z
1/2+x,1/2-y,1/2+z
loop_
_atom_site_type_symbol
_atom_site_label
_atom_site_fract_x
_atom_site_fract_y
_atom_site_fract_z
Si Si1 0.096064 0.561568 0.933041
Si Si2 0.820880 0.799222 0.864756
Si Si3 0.326704 0.109681 0.952368
Si Si4 0.562202 0.361077 0.084911
Si Si5 0.786826 0.678669 0.281170
Si Si6 0.408002 0.185805 0.667892
O O1 0.015779 0.718565 0.923299
O O2 0.909223 0.454212 0.853015
O O3 0.236314 0.489596 0.026122
O O4 0.150603 0.589654 0.900355
O O5 0.703706 0.823656 0.771404
O O6 0.888279 0.965552 0.909268
O O7 0.733213 0.680710 0.868948
O O8 0.375999 0.273074 0.997443
O O9 0.500000 0.000000 0.000000
O O10 0.617004 0.333614 0.160695
O O11 0.715724 0.255341 0.115779
O O12 0.567878 0.693863 0.212806
O O13 0.500000 0.103342 0.750000
#
# Coordination Sequence:
#
# PCOD9255364 Si02
#       6
#     8   8   8   8   8   8
#     4   9  18  33  52  73  99 132 167 205 250 304
#     4  10  17  30  52  77  98 130 170 206 247 300
#     4   9  19  34  52  72 101 139 173 202 244 306
#     4  10  19  32  54  78 101 130 169 213 250 289
#     4   9  17  31  52  73  97 131 166 200 248 308
#     4   9  17  30  52  77  99 126 166 212 250 291
#
# _framework density 27.704205999999999
#
# number of rings (size 3 to 8) (size 9 to 14) (size 15 to 20)
#    0.000    2.667    0.000    3.500    0.000    0.000 
#    0.000    8.333    0.000   83.000    0.000    0.000 
#    0.000    0.000    0.000    0.000    0.000    0.000 
#
# Total GULP energy -133990.135535 kJ/mol
# GULP energy per Si atom -5582.922314 kJ/mol
# Density = 2.764115 g / cm^3
# Si number density = 27.704206 Si / 1000 Ang^3
#
#
#
# Elastic Constant Matrix: (Units=GPa)
#
#
# Indices 1 2 3 4 5 6 
#
# 1 97.4354 33.1149 65.7015 0.0000 -39.9561 0.0000
# 2 33.1149 117.6642 60.0764 0.0000 -11.0157 0.0000
# 3 65.7015 60.0764 109.4410 0.0000 -40.3053 0.0000
# 4 0.0000 0.0000 0.0000 42.7125 0.0000 -8.3537
# 5 -39.9561 -11.0157 -40.3053 0.0000 57.8685 0.0000
# 6 0.0000 0.0000 0.0000 -8.3537 0.0000 33.2868
#
#
#
# Elastic Compliance Matrix: (Units=1/GPa)
#
#
# Indices 1 2 3 4 5 6 
#
# 1 0.019155 -0.000262 -0.008747 0.000000 0.007084 0.000000
# 2 -0.000262 0.012226 -0.007752 0.000000 -0.003253 0.000000
# 3 -0.008747 -0.007752 0.021354 0.000000 0.007358 0.000000
# 4 0.000000 0.000000 0.000000 0.024621 0.000000 0.006179
# 5 0.007084 -0.003253 0.007358 0.000000 0.026677 0.000000
# 6 0.000000 0.000000 0.000000 0.006179 0.000000 0.031593
#
#
# Mechanical properties :
#
#
# Convention : Reuss Voigt Hill
#
# Bulk Modulus (GPa) = 52.04792 71.36956 61.70874
# Shear Modulus (GPa) = 28.48167 37.81677 33.14922
#
# Velocity S-wave (km/s) = 3.20982 3.69862 3.46286
# Velocity P-wave (km/s) = 5.70658 6.63754 6.18959
#
# Compressibility (1/GPa) = 0.01921306
#
# Stress axis : x y z
#
# Youngs Moduli (GPa) = 52.20469 81.79347 46.83050
#
# Poissons Ratio (x) = 0.02141 0.40963
# Poissons Ratio (y) = 0.01367 0.36303
# Poissons Ratio (z) = 0.45664 0.63407
#
# Static dielectric constant tensor:
#      x y z
#    x 2.214860 0.000000 0.037650 
#    y 0.000000 2.191210 0.000000 
#    z 0.037650 0.000000 2.221130 
# 
# From -- ./inp_files/312985.got.cif
#   From: 2010.05.17/outbox.cif.g08.bks.cpg/sg15_157_cif.got.tgz:312985.got - 2010.06.03 18:47:42.
