data_PCOD9255832
_publ_section_title
;
Structure prediction by ZEFSAII (Michael W. Deem and Ramdas Pophale) SiO2 
 PCOD9255832
Probable space group: C 2/C
;
_chemical_formula_sum "Si O2"
_cell_formula_units_Z 44
_cell_length_a 13.289607
_cell_length_b 11.642289
_cell_length_c 10.677636
_cell_angle_alpha 90.000000
_cell_angle_beta 98.987295
_cell_angle_gamma 90.000000
_cell_volume 1631.776951
_symmetry_space_group_name_H-M "C 2/C"
_symmetry_group_IT_number 15
_symmetry_cell_setting 'monoclinic'
loop_
_space_group_symop_operation_xyz
x,y,z
-x,y,1/2-z
-x,-y,-z
x,-y,1/2+z
1/2+x,1/2+y,z
1/2-x,1/2+y,1/2-z
1/2-x,1/2-y,-z
1/2+x,1/2-y,1/2+z
loop_
_atom_site_type_symbol
_atom_site_label
_atom_site_fract_x
_atom_site_fract_y
_atom_site_fract_z
Si Si1 0.633420 0.593241 0.341712
Si Si2 0.500000 0.794278 0.750000
Si Si3 0.657985 0.470382 0.109376
Si Si4 0.328903 0.856165 0.550120
Si Si5 0.171512 0.671744 0.737836
Si Si6 0.622109 0.956395 0.606838
O O1 0.600695 0.509842 0.222942
O O2 0.597469 0.564596 0.473833
O O3 0.618037 0.723044 0.294488
O O4 0.757056 0.574577 0.374479
O O5 0.397400 0.770610 0.646227
O O6 0.562004 0.849087 0.644394
O O7 0.732074 0.578438 0.091035
O O8 0.729306 0.364304 0.164534
O O9 0.305525 0.806987 0.406401
O O10 0.395754 0.971231 0.522488
O O11 0.110115 0.553540 0.711524
#
# Coordination Sequence:
#
# PCOD9255832 Si02
#       6
#     8   4   8   8   8   8
#     4  10  18  32  48  66 105 124 165 197 232 295
#     4  12  14  30  46  60 112 126 154 192 238 300
#     4  10  17  33  44  73  95 129 158 189 250 276
#     4   9  17  29  44  69  97 131 161 182 244 281
#     4   9  18  31  46  68  97 133 161 197 230 291
#     4   8  19  27  43  73  91 135 149 191 243 278
#
# _framework density 26.964469000000001
#
# number of rings (size 3 to 8) (size 9 to 14) (size 15 to 20)
#    1.091    1.455    5.455    1.091    0.000    0.727 
#    0.000    0.000    0.000    0.000    0.000    0.000 
#    0.000   27.636    0.000    0.000    0.000    0.000 
#
# Total GULP energy -122553.452240 kJ/mol
# GULP energy per Si atom -5570.611465 kJ/mol
# Density = 2.690310 g / cm^3
# Si number density = 26.964469 Si / 1000 Ang^3
#
#
#
# Elastic Constant Matrix: (Units=GPa)
#
#
# Indices 1 2 3 4 5 6 
#
# 1 95.0588 23.9169 37.0653 0.0000 3.6273 0.0000
# 2 23.9169 54.4526 17.3982 0.0000 2.6664 0.0000
# 3 37.0653 17.3982 217.7871 0.0000 14.8673 0.0000
# 4 0.0000 0.0000 0.0000 27.0895 0.0000 -0.6601
# 5 3.6273 2.6664 14.8673 0.0000 36.8239 0.0000
# 6 0.0000 0.0000 0.0000 -0.6601 0.0000 -0.1891
#
#
#
# Elastic Compliance Matrix: (Units=1/GPa)
#
#
# Indices 1 2 3 4 5 6 
#
# 1 0.012427 -0.004903 -0.001711 0.000000 -0.000178 0.000000
# 2 -0.004903 0.020802 -0.000779 0.000000 -0.000709 0.000000
# 3 -0.001711 -0.000779 0.005069 0.000000 -0.001822 0.000000
# 4 0.000000 0.000000 0.000000 0.034020 0.000000 -0.118769
# 5 -0.000178 -0.000709 -0.001822 0.000000 0.027961 0.000000
# 6 0.000000 0.000000 0.000000 -0.118769 0.000000 -4.873809
#
#
# Mechanical properties :
#
#
# Convention : Reuss Voigt Hill
#
# Bulk Modulus (GPa) = 42.53077 58.22880 50.37979
# Shear Modulus (GPa) = -1.05243 32.00607 15.47682
#
# Velocity S-wave (km/s) = -0.62542 3.44898 2.39837
# Velocity P-wave (km/s) = 3.90968 6.12390 5.13750
#
# Compressibility (1/GPa) = 0.02351239
#
# Stress axis : x y z
#
# Youngs Moduli (GPa) = 80.46723 48.07307 197.25975
#
# Poissons Ratio (x) = 0.23570 0.33755
# Poissons Ratio (y) = 0.39453 0.15365
# Poissons Ratio (z) = 0.13769 0.03745
#
# Static dielectric constant tensor:
#      x y z
#    x 2.218020 0.000000 0.020450 
#    y 0.000000 2.257760 0.000000 
#    z 0.020450 0.000000 2.134410 
# 
# From -- ./inp_files/104600.got.cif
#   From: 2010.05.17/outbox.cif.g08.bks.cpg/sg15_53_cif.got.tgz:104600.got - 2010.06.03 18:47:42.
