data_PCOD9255571
_publ_section_title
;
Structure prediction by ZEFSAII (Michael W. Deem and Ramdas Pophale) SiO2 
 PCOD9255571
Probable space group: C 2/C
;
_chemical_formula_sum "Si O2"
_cell_formula_units_Z 64
_cell_length_a 20.958258
_cell_length_b 10.612799
_cell_length_c 22.047776
_cell_angle_alpha 90.000000
_cell_angle_beta 129.435013
_cell_angle_gamma 90.000000
_cell_volume 3787.577763
_symmetry_space_group_name_H-M "C 2/C"
_symmetry_group_IT_number 15
_symmetry_cell_setting 'monoclinic'
loop_
_space_group_symop_operation_xyz
x,y,z
-x,y,1/2-z
-x,-y,-z
x,-y,1/2+z
1/2+x,1/2+y,z
1/2-x,1/2+y,1/2-z
1/2-x,1/2-y,-z
1/2+x,1/2-y,1/2+z
loop_
_atom_site_type_symbol
_atom_site_label
_atom_site_fract_x
_atom_site_fract_y
_atom_site_fract_z
Si Si1 0.667932 0.141833 0.101321
Si Si2 0.082593 0.188287 0.336412
Si Si3 0.186732 0.440590 0.937123
Si Si4 0.287309 0.871668 0.151079
Si Si5 0.906715 0.740966 0.210513
Si Si6 0.701945 0.462575 0.387148
Si Si7 0.885998 0.536740 0.302714
Si Si8 0.947140 0.381017 0.078080
O O1 0.714212 0.275660 0.122487
O O2 0.646533 0.101856 0.156221
O O3 0.731636 0.038985 0.112398
O O4 0.586905 0.141554 0.009858
O O5 0.136514 0.288399 0.329591
O O6 0.058013 0.254968 0.384472
O O7 0.000000 0.157855 0.250000
O O8 0.139690 0.066319 0.377187
O O9 0.231564 0.529287 0.914179
O O10 0.136515 0.336136 0.870178
O O11 0.118785 0.526564 0.929656
O O12 0.249577 0.399558 0.027415
O O13 0.318987 0.949610 0.227991
O O14 0.849673 0.863324 0.183217
O O15 0.909179 0.645836 0.268636
O O16 0.000000 0.776305 0.250000
O O17 0.964606 0.448433 0.364853
#
# Coordination Sequence:
#
# PCOD9255571 Si02
#       8
#     8   8   8   8   8   8   8   8
#     4  10  22  35  52  79 110 139 174 215 265 316
#     4  10  17  31  56  82 106 130 172 225 266 297
#     4   9  18  34  56  78 105 133 177 220 264 304
#     4   9  19  33  54  80 103 139 176 216 262 306
#     4  11  21  35  55  78 105 140 177 215 266 310
#     4  10  21  34  52  82 109 136 168 218 270 320
#     4  11  21  34  57  76 108 145 178 215 255 317
#     4  10  18  34  57  80 102 134 180 225 258 305
#
# _framework density 16.897341999999998
#
# number of rings (size 3 to 8) (size 9 to 14) (size 15 to 20)
#    0.000    2.000    2.500    1.875    1.750    3.000 
#    0.000    0.000    0.000    0.000    0.000    3.500 
#    0.000    0.000    0.000    0.000    0.000    0.000 
#
# Total GULP energy -178453.458538 kJ/mol
# GULP energy per Si atom -5576.670579 kJ/mol
# Density = 1.685888 g / cm^3
# Si number density = 16.897342 Si / 1000 Ang^3
#
#
#
# Elastic Constant Matrix: (Units=GPa)
#
#
# Indices 1 2 3 4 5 6 
#
# 1 37.0592 -1.1054 26.9129 0.0000 0.9488 0.0000
# 2 -1.1054 27.3170 11.9514 0.0000 7.3214 0.0000
# 3 26.9129 11.9514 90.4333 0.0000 2.6789 0.0000
# 4 0.0000 0.0000 0.0000 19.5247 0.0000 1.9526
# 5 0.9488 7.3214 2.6789 0.0000 21.5626 0.0000
# 6 0.0000 0.0000 0.0000 1.9526 0.0000 22.6726
#
#
#
# Elastic Compliance Matrix: (Units=1/GPa)
#
#
# Indices 1 2 3 4 5 6 
#
# 1 0.035583 0.007140 -0.011457 0.000000 -0.002567 0.000000
# 2 0.007140 0.044026 -0.007519 0.000000 -0.014329 0.000000
# 3 -0.011457 -0.007519 0.015427 0.000000 0.001140 0.000000
# 4 0.000000 0.000000 0.000000 0.051662 0.000000 -0.004449
# 5 -0.002567 -0.014329 0.001140 0.000000 0.051213 0.000000
# 6 0.000000 0.000000 0.000000 -0.004449 0.000000 0.044489
#
#
# Mechanical properties :
#
#
# Convention : Reuss Voigt Hill
#
# Bulk Modulus (GPa) = 14.01243 25.59193 19.80218
# Shear Modulus (GPa) = 17.24970 20.55537 18.90254
#
# Velocity S-wave (km/s) = 3.19855 3.49160 3.34828
# Velocity P-wave (km/s) = 4.68525 5.60655 5.16648
#
# Compressibility (1/GPa) = 0.07136520
#
# Stress axis : x y z
#
# Youngs Moduli (GPa) = 28.10339 22.71383 64.81978
#
# Poissons Ratio (x) = -0.16219 0.74265
# Poissons Ratio (y) = -0.20067 0.48737
# Poissons Ratio (z) = 0.32198 0.17078
#
# Static dielectric constant tensor:
#      x y z
#    x 1.536220 0.000000 0.001770 
#    y 0.000000 1.571520 0.000000 
#    z 0.001770 0.000000 1.566740 
# 
# From -- ./inp_files/252403.got.cif
#   From: 2010.05.17/outbox.cif.g08.bks.cpg/sg15_127_cif.got.tgz:252403.got - 2010.06.03 18:47:42.
