data_PCOD9255227
_publ_section_title
;
Structure prediction by ZEFSAII (Michael W. Deem and Ramdas Pophale) SiO2 
 PCOD9255227
Probable space group: C 2/C
;
_chemical_formula_sum "Si O2"
_cell_formula_units_Z 48
_cell_length_a 21.078218
_cell_length_b 13.488990
_cell_length_c 20.314568
_cell_angle_alpha 90.000000
_cell_angle_beta 160.128825
_cell_angle_gamma 90.000000
_cell_volume 1963.271354
_symmetry_space_group_name_H-M "C 2/C"
_symmetry_group_IT_number 15
_symmetry_cell_setting 'monoclinic'
loop_
_space_group_symop_operation_xyz
x,y,z
-x,y,1/2-z
-x,-y,-z
x,-y,1/2+z
1/2+x,1/2+y,z
1/2-x,1/2+y,1/2-z
1/2-x,1/2-y,-z
1/2+x,1/2-y,1/2+z
loop_
_atom_site_type_symbol
_atom_site_label
_atom_site_fract_x
_atom_site_fract_y
_atom_site_fract_z
Si Si1 0.106937 0.182203 0.181201
Si Si2 0.286052 0.483772 0.164614
Si Si3 0.721946 0.367024 0.472269
Si Si4 0.647270 0.330621 0.943030
Si Si5 0.741029 0.490201 0.607832
Si Si6 0.742711 0.611928 0.728958
O O1 0.248269 0.099325 0.348922
O O2 0.178193 0.282631 0.218154
O O3 0.972129 0.208109 0.111565
O O4 0.978544 0.126390 0.001986
O O5 0.213566 0.437254 0.025696
O O6 0.514041 0.482181 0.388024
O O7 0.221180 0.414297 0.160987
O O8 0.500000 0.380087 0.250000
O O9 0.750000 0.250000 0.500000
O O10 0.799920 0.401283 0.619213
O O11 0.500000 0.381123 0.750000
O O12 0.750000 0.250000 0.000000
O O13 0.782134 0.411798 0.104688
O O14 0.805615 0.520694 0.743242
#
# Coordination Sequence:
#
# PCOD9255227 Si02
#       6
#     8   8   8   8   8   8
#     4  10  20  35  54  85 113 144 189 230 278 340
#     4   9  19  36  58  79 110 153 188 222 277 346
#     4  10  21  37  56  79 106 143 189 232 274 329
#     4  10  17  29  51  77 105 138 172 219 273 328
#     4   9  18  34  54  77 105 143 185 219 270 342
#     4  10  20  35  58  83 112 149 187 230 281 337
#
# _framework density 24.448989000000001
#
# number of rings (size 3 to 8) (size 9 to 14) (size 15 to 20)
#    0.000    2.667    0.000    6.500    0.000    4.000 
#    0.000    5.000    0.000    0.000    0.000    0.000 
#    0.000    0.000    0.000    0.000    0.000    0.000 
#
# Total GULP energy -133973.111945 kJ/mol
# GULP energy per Si atom -5582.212998 kJ/mol
# Density = 2.439334 g / cm^3
# Si number density = 24.448989 Si / 1000 Ang^3
#
#
#
# Elastic Constant Matrix: (Units=GPa)
#
#
# Indices 1 2 3 4 5 6 
#
# 1 110.9634 70.6243 2.1947 -0.0085 -14.3861 -0.0040
# 2 70.6243 161.3320 -1.3714 -0.0617 12.6297 -0.0477
# 3 2.1947 -1.3714 54.4235 -0.0222 7.5493 -0.0264
# 4 -0.0085 -0.0617 -0.0222 30.8502 -0.0142 1.5199
# 5 -14.3861 12.6297 7.5493 -0.0142 13.7762 -0.0221
# 6 -0.0040 -0.0477 -0.0264 1.5199 -0.0221 46.0676
#
#
#
# Elastic Compliance Matrix: (Units=1/GPa)
#
#
# Indices 1 2 3 4 5 6 
#
# 1 0.022379 -0.012891 -0.006611 -0.000007 0.038811 0.000004
# 2 -0.012891 0.014165 0.004919 0.000015 -0.029144 0.000002
# 3 -0.006611 0.004919 0.022022 0.000013 -0.023482 0.000005
# 4 -0.000007 0.000015 0.000013 0.032468 0.000004 -0.001071
# 5 0.038811 -0.029144 -0.023482 0.000004 0.152705 0.000033
# 6 0.000004 0.000002 0.000005 -0.001071 0.000033 0.021743
#
#
# Mechanical properties :
#
#
# Convention : Reuss Voigt Hill
#
# Bulk Modulus (GPa) = 34.01240 52.17934 43.09587
# Shear Modulus (GPa) = 16.42320 35.15687 25.79004
#
# Velocity S-wave (km/s) = 2.59459 3.79617 3.25137
# Velocity P-wave (km/s) = 4.78724 6.37205 5.63563
#
# Compressibility (1/GPa) = 0.02940104
#
# Stress axis : x y z
#
# Youngs Moduli (GPa) = 44.68418 70.59691 45.40862
#
# Poissons Ratio (x) = 0.91008 0.30020
# Poissons Ratio (y) = 0.57603 -0.22339
# Poissons Ratio (z) = 0.29541 -0.34730
#
# Static dielectric constant tensor:
#      x y z
#    x 1.975980 0.000000 0.013400 
#    y 0.000000 1.968140 -0.000010 
#    z 0.013400 -0.000010 1.668680 
# 
# From -- ./inp_files/252605.got.cif
#   From: 2010.05.17/outbox.cif.g08.bks.cpg/sg15_127_cif.got.tgz:252605.got - 2010.06.03 18:47:42.
