data_PCOD9255271
_publ_section_title
;
Structure prediction by ZEFSAII (Michael W. Deem and Ramdas Pophale) SiO2 
 PCOD9255271
Probable space group: C 2/C
;
_chemical_formula_sum "Si O2"
_cell_formula_units_Z 64
_cell_length_a 23.136805
_cell_length_b 22.272882
_cell_length_c 9.000503
_cell_angle_alpha 90.000000
_cell_angle_beta 127.765986
_cell_angle_gamma 90.000000
_cell_volume 3666.559587
_symmetry_space_group_name_H-M "C 2/C"
_symmetry_group_IT_number 15
_symmetry_cell_setting 'monoclinic'
loop_
_space_group_symop_operation_xyz
x,y,z
-x,y,1/2-z
-x,-y,-z
x,-y,1/2+z
1/2+x,1/2+y,z
1/2-x,1/2+y,1/2-z
1/2-x,1/2-y,-z
1/2+x,1/2-y,1/2+z
loop_
_atom_site_type_symbol
_atom_site_label
_atom_site_fract_x
_atom_site_fract_y
_atom_site_fract_z
Si Si1 0.778599 0.936245 0.827272
Si Si2 0.082115 0.135835 0.831854
Si Si3 0.713231 0.839878 0.919616
Si Si4 0.085356 0.278635 0.901644
Si Si5 0.304000 0.240864 0.373713
Si Si6 0.769936 0.067201 0.956629
Si Si7 0.674900 0.176893 0.803665
Si Si8 0.148675 0.855426 0.140696
O O1 0.716893 0.897930 0.818523
O O2 0.774955 0.936708 0.642820
O O3 0.772113 0.002741 0.883365
O O4 0.855098 0.903333 0.989976
O O5 0.095841 0.207162 0.885896
O O6 0.090673 0.123436 0.669464
O O7 0.000000 0.121834 0.750000
O O8 0.638814 0.818706 0.881623
O O9 0.729701 0.787492 0.826823
O O10 0.776366 0.850549 0.141439
O O11 0.000000 0.291242 0.750000
O O12 0.108773 0.297599 0.104377
O O13 0.329741 0.191117 0.529683
O O14 0.243082 0.282572 0.354176
O O15 0.367416 0.287391 0.432663
O O16 0.698093 0.108252 0.813329
O O17 0.834752 0.104190 0.975813
#
# Coordination Sequence:
#
# PCOD9255271 Si02
#       8
#     8   8   8   8   8   8   8   8
#     4  11  23  36  60  84 115 145 198 241 285 328
#     4  10  22  38  57  84 122 158 188 225 283 349
#     4  11  18  33  56  85 108 149 183 240 279 340
#     4  11  22  36  57  86 123 155 185 225 293 354
#     4  10  17  29  56  86 110 137 189 239 291 324
#     4  11  22  37  56  92 106 145 196 249 280 330
#     4  10  20  33  56  85 113 144 186 248 286 333
#     4  10  19  32  59  82 114 143 194 235 282 329
#
# _framework density 17.455055000000002
#
# number of rings (size 3 to 8) (size 9 to 14) (size 15 to 20)
#    0.000    1.500    5.000    3.375    3.500    0.000 
#    0.000    3.750    0.000    0.750    0.000    0.000 
#    0.000    0.000    0.000    0.000    0.000    0.000 
#
# Total GULP energy -178223.661116 kJ/mol
# GULP energy per Si atom -5569.489410 kJ/mol
# Density = 1.741533 g / cm^3
# Si number density = 17.455055 Si / 1000 Ang^3
#
#
#
# Elastic Constant Matrix: (Units=GPa)
#
#
# Indices 1 2 3 4 5 6 
#
# 1 68.0341 36.0873 38.0399 0.0000 -15.4410 0.0000
# 2 36.0873 103.6410 31.3446 0.0000 -4.2302 0.0000
# 3 38.0399 31.3446 76.3203 0.0000 -18.5196 0.0000
# 4 0.0000 0.0000 0.0000 21.6870 0.0000 -11.3194
# 5 -15.4410 -4.2302 -18.5196 0.0000 33.0613 0.0000
# 6 0.0000 0.0000 0.0000 -11.3194 0.0000 26.9226
#
#
#
# Elastic Compliance Matrix: (Units=1/GPa)
#
#
# Indices 1 2 3 4 5 6 
#
# 1 0.023391 -0.005487 -0.008014 0.000000 0.005733 0.000000
# 2 -0.005487 0.012353 -0.002982 0.000000 -0.002653 0.000000
# 3 -0.008014 -0.002982 0.020046 0.000000 0.007104 0.000000
# 4 0.000000 0.000000 0.000000 0.059074 0.000000 0.024837
# 5 0.005733 -0.002653 0.007104 0.000000 0.036565 0.000000
# 6 0.000000 0.000000 0.000000 0.024837 0.000000 0.047586
#
#
# Mechanical properties :
#
#
# Convention : Reuss Voigt Hill
#
# Bulk Modulus (GPa) = 43.81435 50.99323 47.40379
# Shear Modulus (GPa) = 20.86910 25.83577 23.35243
#
# Velocity S-wave (km/s) = 3.46148 3.85142 3.66165
# Velocity P-wave (km/s) = 6.41339 7.00395 6.71517
#
# Compressibility (1/GPa) = 0.02282357
#
# Stress axis : x y z
#
# Youngs Moduli (GPa) = 42.75147 80.95305 49.88605
#
# Poissons Ratio (x) = 0.44418 0.39978
# Poissons Ratio (y) = 0.23457 0.14877
# Poissons Ratio (z) = 0.34261 0.24141
#
# Static dielectric constant tensor:
#      x y z
#    x 1.631730 0.000000 -0.032260 
#    y 0.000000 1.631680 0.000000 
#    z -0.032260 0.000000 1.604580 
# 
# From -- ./inp_files/63418.got.cif
#   From: 2010.05.17/outbox.cif.g08.bks.cpg/sg15_32_cif.got.tgz:63418.got - 2010.06.03 18:47:42.
