data_PCOD9255753
_publ_section_title
;
Structure prediction by ZEFSAII (Michael W. Deem and Ramdas Pophale) SiO2 
 PCOD9255753
Probable space group: C 2/C
;
_chemical_formula_sum "Si O2"
_cell_formula_units_Z 48
_cell_length_a 7.646937
_cell_length_b 25.927837
_cell_length_c 11.202950
_cell_angle_alpha 90.000000
_cell_angle_beta 59.844321
_cell_angle_gamma 90.000000
_cell_volume 1920.584418
_symmetry_space_group_name_H-M "C 2/C"
_symmetry_group_IT_number 15
_symmetry_cell_setting 'monoclinic'
loop_
_space_group_symop_operation_xyz
x,y,z
-x,y,1/2-z
-x,-y,-z
x,-y,1/2+z
1/2+x,1/2+y,z
1/2-x,1/2+y,1/2-z
1/2-x,1/2-y,-z
1/2+x,1/2-y,1/2+z
loop_
_atom_site_type_symbol
_atom_site_label
_atom_site_fract_x
_atom_site_fract_y
_atom_site_fract_z
Si Si1 0.745181 0.971200 0.155987
Si Si2 0.560270 0.875792 0.856179
Si Si3 0.125877 0.683538 0.887857
Si Si4 0.224672 0.522083 0.403912
Si Si5 0.387007 0.704561 0.166158
Si Si6 0.206420 0.851154 0.400884
O O1 0.500000 0.974733 0.250000
O O2 0.790267 0.910859 0.132455
O O3 0.813691 0.997717 0.254017
O O4 0.814039 0.991015 0.002630
O O5 0.500000 0.900735 0.750000
O O6 0.691715 0.917106 0.885854
O O7 0.687734 0.825223 0.776465
O O8 0.373692 0.854488 0.998969
O O9 0.910677 0.667115 0.900059
O O10 0.128602 0.744421 0.908742
O O11 0.291435 0.675787 0.728749
O O12 0.000000 0.500000 0.500000
O O13 0.500000 0.720546 0.250000
O O14 0.523979 0.664546 0.047489
#
# Coordination Sequence:
#
# PCOD9255753 Si02
#       6
#     8   8   8   8   8   8
#     4  10  17  32  56  87 116 150 202 252 302 362
#     4  12  25  41  59  89 129 162 203 250 308 376
#     4  11  20  37  64  89 120 157 208 245 303 364
#     4  10  19  34  59  85 114 160 210 249 300 368
#     4  12  22  37  63  93 120 159 206 259 302 353
#     4  11  19  35  62  94 117 150 207 264 298 355
#
# _framework density 24.992391000000001
#
# number of rings (size 3 to 8) (size 9 to 14) (size 15 to 20)
#    0.000    1.000    6.667    4.000    0.000    0.667 
#    0.000    1.667    0.000    2.000    0.000    0.000 
#    0.000    0.000    0.000    0.000    0.000    0.000 
#
# Total GULP energy -134280.448501 kJ/mol
# GULP energy per Si atom -5595.018688 kJ/mol
# Density = 2.493551 g / cm^3
# Si number density = 24.992391 Si / 1000 Ang^3
#
#
#
# Elastic Constant Matrix: (Units=GPa)
#
#
# Indices 1 2 3 4 5 6 
#
# 1 62.6931 12.2533 32.6598 0.0000 30.8914 0.0000
# 2 12.2533 124.8565 45.8206 0.0000 19.7791 0.0000
# 3 32.6598 45.8206 189.7803 0.0000 25.7853 0.0000
# 4 0.0000 0.0000 0.0000 89.3462 0.0000 -40.1154
# 5 30.8914 19.7791 25.7853 0.0000 38.8056 0.0000
# 6 0.0000 0.0000 0.0000 -40.1154 0.0000 42.3705
#
#
#
# Elastic Compliance Matrix: (Units=1/GPa)
#
#
# Indices 1 2 3 4 5 6 
#
# 1 0.027070 0.001443 -0.002176 0.000000 -0.020839 0.000000
# 2 0.001443 0.009286 -0.001859 0.000000 -0.004646 0.000000
# 3 -0.002176 -0.001859 0.006297 0.000000 -0.001505 0.000000
# 4 0.000000 0.000000 0.000000 0.019468 0.000000 0.018432
# 5 -0.020839 -0.004646 -0.001505 0.000000 0.045727 0.000000
# 6 0.000000 0.000000 0.000000 0.018432 0.000000 0.041052
#
#
# Mechanical properties :
#
#
# Convention : Reuss Voigt Hill
#
# Bulk Modulus (GPa) = 26.68794 62.08858 44.38826
# Shear Modulus (GPa) = 30.01673 53.21089 41.61381
#
# Velocity S-wave (km/s) = 3.46935 4.61921 4.08494
# Velocity P-wave (km/s) = 5.17206 7.30386 6.32837
#
# Compressibility (1/GPa) = 0.03747010
#
# Stress axis : x y z
#
# Youngs Moduli (GPa) = 36.94063 107.69050 158.80739
#
# Poissons Ratio (x) = -0.15540 0.34550
# Poissons Ratio (y) = -0.05331 0.29522
# Poissons Ratio (z) = 0.08037 0.20020
#
# Static dielectric constant tensor:
#      x y z
#    x 2.044160 0.000000 0.054320 
#    y 0.000000 1.909120 0.000000 
#    z 0.054320 0.000000 1.983060 
# 
# From -- ./inp_files/80533.got.cif
#   From: 2010.05.17/outbox.cif.g08.bks.cpg/sg15_41_cif.got.tgz:80533.got - 2010.06.03 18:47:42.
