data_PCOD9255282
_publ_section_title
;
Structure prediction by ZEFSAII (Michael W. Deem and Ramdas Pophale) SiO2 
 PCOD9255282
Probable space group: C 2/C
;
_chemical_formula_sum "Si O2"
_cell_formula_units_Z 40
_cell_length_a 18.982195
_cell_length_b 19.687501
_cell_length_c 14.219014
_cell_angle_alpha 90.000000
_cell_angle_beta 17.638428
_cell_angle_gamma 90.000000
_cell_volume 1610.134702
_symmetry_space_group_name_H-M "C 2/C"
_symmetry_group_IT_number 15
_symmetry_cell_setting 'monoclinic'
loop_
_space_group_symop_operation_xyz
x,y,z
-x,y,1/2-z
-x,-y,-z
x,-y,1/2+z
1/2+x,1/2+y,z
1/2-x,1/2+y,1/2-z
1/2-x,1/2-y,-z
1/2+x,1/2-y,1/2+z
loop_
_atom_site_type_symbol
_atom_site_label
_atom_site_fract_x
_atom_site_fract_y
_atom_site_fract_z
Si Si1 0.058754 0.531028 0.778413
Si Si2 0.002328 0.307865 0.937829
Si Si3 0.807392 0.061878 0.095782
Si Si4 0.561097 0.338831 0.377399
Si Si5 0.037249 0.319211 0.105298
O O1 0.000000 0.504051 0.750000
O O2 0.263198 0.492920 0.571898
O O3 0.838352 0.531061 0.130334
O O4 0.108839 0.611079 0.701865
O O5 0.776333 0.336377 0.173794
O O6 0.182139 0.369579 0.714938
O O7 0.067282 0.233797 0.814646
O O8 0.969563 0.289818 0.090413
O O9 0.044649 0.094223 0.833572
O O10 0.308767 0.339182 0.748945
O O11 0.000000 0.280159 0.250000
#
# Coordination Sequence:
#
# PCOD9255282 Si02
#       5
#     8   8   8   8   8
#     4   8  15  33  52  69  97 128 159 197 237 280
#     4  10  17  30  45  68  95 124 160 194 235 287
#     4   9  18  30  52  74  94 128 160 193 242 284
#     4  10  17  30  45  68  95 124 160 194 235 287
#     4   9  19  31  45  68  99 127 156 193 238 292
#
# _framework density 24.842642000000001
#
# number of rings (size 3 to 8) (size 9 to 14) (size 15 to 20)
#    0.000    3.200    4.000    0.000    0.000    1.600 
#    0.000   16.000    0.000   12.000    0.000    0.000 
#    0.000    0.000    0.000    0.000    0.000    0.000 
#
# Total GULP energy -111510.571084 kJ/mol
# GULP energy per Si atom -5575.528554 kJ/mol
# Density = 2.478610 g / cm^3
# Si number density = 24.842642 Si / 1000 Ang^3
#
#
#
# Elastic Constant Matrix: (Units=GPa)
#
#
# Indices 1 2 3 4 5 6 
#
# 1 147.1825 30.1647 45.4774 -0.0994 -17.3494 -0.0032
# 2 30.1647 74.2664 0.0317 -0.1684 1.0030 -0.0240
# 3 45.4774 0.0317 50.3250 -0.1459 -3.4918 -0.0518
# 4 -0.0994 -0.1684 -0.1459 -5.4757 0.0315 -13.4749
# 5 -17.3494 1.0030 -3.4918 0.0315 43.9252 0.0146
# 6 -0.0032 -0.0240 -0.0518 -13.4749 0.0146 36.0007
#
#
#
# Elastic Compliance Matrix: (Units=1/GPa)
#
#
# Indices 1 2 3 4 5 6 
#
# 1 0.011239 -0.004611 -0.009892 0.000139 0.003758 0.000034
# 2 -0.004611 0.015361 0.004028 -0.000285 -0.001852 -0.000090
# 3 -0.009892 0.004028 0.028687 -0.000430 -0.001718 -0.000117
# 4 0.000139 -0.000285 -0.000430 -0.095053 0.000107 -0.035579
# 5 0.003758 -0.001852 -0.001718 0.000107 0.024156 0.000027
# 6 0.000034 -0.000090 -0.000117 -0.035579 0.000027 0.014460
#
#
# Mechanical properties :
#
#
# Convention : Reuss Voigt Hill
#
# Bulk Modulus (GPa) = 29.12430 47.01349 38.06890
# Shear Modulus (GPa) = 160.02111 27.96338 93.99225
#
# Velocity S-wave (km/s) = 8.03453 3.35867 6.15769
# Velocity P-wave (km/s) = 9.89043 5.83150 8.11871
#
# Compressibility (1/GPa) = 0.03433559
#
# Stress axis : x y z
#
# Youngs Moduli (GPa) = 88.97616 65.10184 34.85888
#
# Poissons Ratio (x) = 0.30019 0.34483
# Poissons Ratio (y) = 0.41028 -0.14041
# Poissons Ratio (z) = 0.88018 -0.26222
#
# Static dielectric constant tensor:
#      x y z
#    x 2.035200 -0.000030 0.053270 
#    y -0.000030 1.997060 0.000050 
#    z 0.053270 0.000050 1.984960 
# 
# From -- ./inp_files/164062.got.cif
#   From: 2010.05.17/outbox.cif.g08.bks.cpg/sg15_83_cif.got.tgz:164062.got - 2010.06.03 18:47:42.
