data_PCOD9255237
_publ_section_title
;
Structure prediction by ZEFSAII (Michael W. Deem and Ramdas Pophale) SiO2 
 PCOD9255237
Probable space group: C 2/C
;
_chemical_formula_sum "Si O2"
_cell_formula_units_Z 48
_cell_length_a 17.380425
_cell_length_b 8.818713
_cell_length_c 19.973720
_cell_angle_alpha 90.000000
_cell_angle_beta 51.882962
_cell_angle_gamma 90.000000
_cell_volume 2408.585890
_symmetry_space_group_name_H-M "C 2/C"
_symmetry_group_IT_number 15
_symmetry_cell_setting 'monoclinic'
loop_
_space_group_symop_operation_xyz
x,y,z
-x,y,1/2-z
-x,-y,-z
x,-y,1/2+z
1/2+x,1/2+y,z
1/2-x,1/2+y,1/2-z
1/2-x,1/2-y,-z
1/2+x,1/2-y,1/2+z
loop_
_atom_site_type_symbol
_atom_site_label
_atom_site_fract_x
_atom_site_fract_y
_atom_site_fract_z
Si Si1 0.022034 0.623936 0.580986
Si Si2 0.214634 0.801689 0.945648
Si Si3 0.651433 0.010697 0.894601
Si Si4 0.628547 0.594523 0.036113
Si Si5 0.896044 0.504818 0.826611
Si Si6 0.705785 0.707135 0.131285
O O1 0.077996 0.579994 0.483012
O O2 0.031207 0.804948 0.583241
O O3 0.087287 0.550818 0.604671
O O4 0.913538 0.556884 0.633958
O O5 0.181481 0.663246 0.917711
O O6 0.307300 0.890675 0.865158
O O7 0.250000 0.750000 0.000000
O O8 0.130728 0.927092 0.004915
O O9 0.744056 0.898716 0.840354
O O10 0.662457 0.601246 0.095431
O O11 0.711791 0.688862 0.950287
O O12 0.873105 0.667483 0.804512
O O13 0.000000 0.439970 0.750000
#
# Coordination Sequence:
#
# PCOD9255237 Si02
#       6
#     8   8   8   8   8   8
#     4   9  18  31  49  75 101 126 162 205 248 296
#     4  11  17  29  53  78  99 129 166 209 256 292
#     4  10  17  29  52  78  99 123 160 212 252 285
#     4   8  14  26  46  70  98 122 158 194 236 294
#     4  10  20  35  51  68  97 138 172 203 249 310
#     4   8  14  28  47  67  90 129 162 189 234 302
#
# _framework density 19.928706999999999
#
# number of rings (size 3 to 8) (size 9 to 14) (size 15 to 20)
#    0.000    2.667    3.333    2.000    0.000    0.667 
#    0.000    2.500    0.000    0.000    0.000    0.000 
#    0.000    0.000    0.000    0.000    0.000    0.000 
#
# Total GULP energy -133646.247349 kJ/mol
# GULP energy per Si atom -5568.593640 kJ/mol
# Density = 1.988335 g / cm^3
# Si number density = 19.928707 Si / 1000 Ang^3
#
#
#
# Elastic Constant Matrix: (Units=GPa)
#
#
# Indices 1 2 3 4 5 6 
#
# 1 86.9121 35.8897 -6.6426 0.0000 -11.4003 0.0000
# 2 35.8897 76.3070 -8.2546 0.0000 -9.4006 0.0001
# 3 -6.6426 -8.2546 17.2709 0.0000 -3.6728 0.0000
# 4 0.0000 0.0000 0.0000 11.5599 0.0000 -4.7910
# 5 -11.4003 -9.4006 -3.6728 0.0000 15.5050 0.0000
# 6 0.0000 0.0001 0.0000 -4.7910 0.0000 23.6997
#
#
#
# Elastic Compliance Matrix: (Units=1/GPa)
#
#
# Indices 1 2 3 4 5 6 
#
# 1 0.015402 -0.005545 0.005231 0.000000 0.009202 0.000000
# 2 -0.005545 0.017643 0.008117 0.000000 0.008543 0.000000
# 3 0.005231 0.008117 0.069139 0.000000 0.025145 0.000000
# 4 0.000000 0.000000 0.000000 0.094416 0.000000 0.019087
# 5 0.009202 0.008543 0.025145 0.000000 0.082397 0.000000
# 6 0.000000 0.000000 0.000000 0.019087 0.000000 0.046053
#
#
# Mechanical properties :
#
#
# Convention : Reuss Voigt Hill
#
# Bulk Modulus (GPa) = 8.48964 24.71945 16.60454
# Shear Modulus (GPa) = 14.33857 20.78610 17.56233
#
# Velocity S-wave (km/s) = 2.68525 3.23309 2.97182
# Velocity P-wave (km/s) = 3.72603 5.13498 4.48616
#
# Compressibility (1/GPa) = 0.11779069
#
# Stress axis : x y z
#
# Youngs Moduli (GPa) = 64.92514 56.67877 14.46353
#
# Poissons Ratio (x) = 0.31427 -0.07566
# Poissons Ratio (y) = 0.35999 -0.11740
# Poissons Ratio (z) = -0.33961 -0.46005
#
# Static dielectric constant tensor:
#      x y z
#    x 1.745280 0.000000 -0.040860 
#    y 0.000000 1.734740 0.000000 
#    z -0.040860 0.000000 1.747220 
# 
# From -- ./inp_files/208569.got.cif
#   From: 2010.05.17/outbox.cif.g08.bks.cpg/sg15_105_cif.got.tgz:208569.got - 2010.06.03 18:47:42.
