data_PCOD9255063
_publ_section_title
;
Structure prediction by ZEFSAII (Michael W. Deem and Ramdas Pophale) SiO2 
 PCOD9255063
Probable space group: C 2/C
;
_chemical_formula_sum "Si O2"
_cell_formula_units_Z 56
_cell_length_a 21.287500
_cell_length_b 17.870301
_cell_length_c 19.551790
_cell_angle_alpha 90.000000
_cell_angle_beta 157.202562
_cell_angle_gamma 90.000000
_cell_volume 2881.947250
_symmetry_space_group_name_H-M "C 2/C"
_symmetry_group_IT_number 15
_symmetry_cell_setting 'monoclinic'
loop_
_space_group_symop_operation_xyz
x,y,z
-x,y,1/2-z
-x,-y,-z
x,-y,1/2+z
1/2+x,1/2+y,z
1/2-x,1/2+y,1/2-z
1/2-x,1/2-y,-z
1/2+x,1/2-y,1/2+z
loop_
_atom_site_type_symbol
_atom_site_label
_atom_site_fract_x
_atom_site_fract_y
_atom_site_fract_z
Si Si1 0.531535 0.159265 0.037805
Si Si2 0.364229 0.561463 0.238015
Si Si3 0.459365 0.115037 0.609066
Si Si4 0.381978 0.277706 0.579829
Si Si5 0.714523 0.422965 0.244699
Si Si6 0.403289 0.671848 0.402184
Si Si7 0.209048 0.077861 0.578331
O O1 0.541317 0.118823 0.974038
O O2 0.388555 0.115631 0.934556
O O3 0.458803 0.242304 0.954367
O O4 0.720978 0.163921 0.250730
O O5 0.314003 0.494540 0.237569
O O6 0.388926 0.634407 0.312206
O O7 0.539875 0.544359 0.383037
O O8 0.210367 0.580739 0.037480
O O9 0.462274 0.201797 0.633448
O O10 0.619486 0.067909 0.786711
O O11 0.500000 0.321418 0.750000
O O12 0.250000 0.250000 0.500000
O O13 0.314075 0.331824 0.453805
O O14 0.718699 0.443524 0.167931
O O15 0.553342 0.371241 0.088691
#
# Coordination Sequence:
#
# PCOD9255063 Si02
#       7
#     8   8   8   8   8   8   8
#     4  10  19  28  48  66  91 125 169 211 254 300
#     4  10  21  32  49  70  95 124 171 218 264 320
#     4  10  21  32  47  68  94 126 170 219 265 299
#     4  12  22  34  50  72 101 137 188 230 260 291
#     4  10  20  33  48  70  93 126 172 215 266 316
#     4  10  17  28  43  63  91 120 157 205 247 293
#     4  10  20  33  49  64  95 128 167 220 265 298
#
# _framework density 19.431307
#
# number of rings (size 3 to 8) (size 9 to 14) (size 15 to 20)
#    0.000    1.714    2.857    4.286    6.000    6.286 
#    0.000    0.000    0.000    0.000    0.000    0.000 
#    0.000    0.000    0.000    0.000    0.000   48.571 
#
# Total GULP energy -155971.877130 kJ/mol
# GULP energy per Si atom -5570.424183 kJ/mol
# Density = 1.938708 g / cm^3
# Si number density = 19.431307 Si / 1000 Ang^3
#
#
#
# Elastic Constant Matrix: (Units=GPa)
#
#
# Indices 1 2 3 4 5 6 
#
# 1 25.4437 13.4115 23.4232 -0.0014 9.2046 -0.0013
# 2 13.4115 32.5701 19.5443 0.0014 9.5282 0.0005
# 3 23.4232 19.5443 153.1285 0.0016 45.6006 0.0011
# 4 -0.0014 0.0014 0.0016 21.1578 0.0000 9.3204
# 5 9.2046 9.5282 45.6006 0.0000 31.9236 -0.0004
# 6 -0.0013 0.0005 0.0011 9.3204 -0.0004 19.8746
#
#
#
# Elastic Compliance Matrix: (Units=1/GPa)
#
#
# Indices 1 2 3 4 5 6 
#
# 1 0.054947 -0.018683 -0.005156 0.000004 -0.002901 0.000002
# 2 -0.018683 0.040452 -0.000546 -0.000004 -0.005906 -0.000001
# 3 -0.005156 -0.000546 0.012004 -0.000001 -0.015497 -0.000001
# 4 0.000004 -0.000004 -0.000001 0.059570 0.000001 -0.027936
# 5 -0.002901 -0.005906 -0.015497 0.000001 0.056060 0.000002
# 6 0.000002 -0.000001 -0.000001 -0.027936 0.000002 0.063417
#
#
# Mechanical properties :
#
#
# Convention : Reuss Voigt Hill
#
# Bulk Modulus (GPa) = 17.05574 35.98892 26.52233
# Shear Modulus (GPa) = 14.09388 24.90876 19.50132
#
# Velocity S-wave (km/s) = 2.69609 3.58423 3.17141
# Velocity P-wave (km/s) = 4.29982 5.97413 5.20474
#
# Compressibility (1/GPa) = 0.05863129
#
# Stress axis : x y z
#
# Youngs Moduli (GPa) = 18.19943 24.72076 83.30727
#
# Poissons Ratio (x) = 0.46185 0.42957
# Poissons Ratio (y) = 0.34002 0.04551
# Poissons Ratio (z) = 0.09384 0.01350
#
# Static dielectric constant tensor:
#      x y z
#    x 1.663650 0.000000 0.052060 
#    y 0.000000 1.687890 -0.000010 
#    z 0.052060 -0.000010 1.785270 
# 
# From -- ./inp_files/56499.got.cif
#   From: 2010.05.17/outbox.cif.g08.bks.cpg/sg15_29_cif.got.tgz:56499.got - 2010.06.03 18:47:42.
