data_PCOD9255370
_publ_section_title
;
Structure prediction by ZEFSAII (Michael W. Deem and Ramdas Pophale) SiO2 
 PCOD9255370
Probable space group: C 2/C
;
_chemical_formula_sum "Si O2"
_cell_formula_units_Z 64
_cell_length_a 14.585544
_cell_length_b 18.254521
_cell_length_c 13.607397
_cell_angle_alpha 90.000000
_cell_angle_beta 63.432531
_cell_angle_gamma 90.000000
_cell_volume 3240.439806
_symmetry_space_group_name_H-M "C 2/C"
_symmetry_group_IT_number 15
_symmetry_cell_setting 'monoclinic'
loop_
_space_group_symop_operation_xyz
x,y,z
-x,y,1/2-z
-x,-y,-z
x,-y,1/2+z
1/2+x,1/2+y,z
1/2-x,1/2+y,1/2-z
1/2-x,1/2-y,-z
1/2+x,1/2-y,1/2+z
loop_
_atom_site_type_symbol
_atom_site_label
_atom_site_fract_x
_atom_site_fract_y
_atom_site_fract_z
Si Si1 0.508656 0.500472 0.128551
Si Si2 0.885695 0.221161 0.272133
Si Si3 0.697268 0.405145 0.565328
Si Si4 0.715571 0.872237 0.174855
Si Si5 0.397038 0.345612 0.415181
Si Si6 0.256906 0.334802 0.658098
Si Si7 0.613132 0.293907 0.292820
Si Si8 0.771757 0.984278 0.744105
O O1 0.500000 0.497782 0.250000
O O2 0.589209 0.565534 0.073032
O O3 0.559018 0.424128 0.072892
O O4 0.391044 0.507205 0.153076
O O5 0.815865 0.175720 0.382426
O O6 0.867175 0.307876 0.278405
O O7 0.852069 0.188279 0.183382
O O8 0.000000 0.203957 0.250000
O O9 0.776165 0.403025 0.438755
O O10 0.726108 0.457914 0.643224
O O11 0.820211 0.828635 0.152606
O O12 0.712772 0.940811 0.249907
O O13 0.299295 0.327521 0.527776
O O14 0.493894 0.290719 0.377406
O O15 0.375870 0.346280 0.308581
O O16 0.165425 0.280803 0.731940
O O17 0.229244 0.417340 0.699948
#
# Coordination Sequence:
#
# PCOD9255370 Si02
#       8
#     8   8   8   8   8   8   8   8
#     4  10  17  30  52  82 112 135 165 225 284 337
#     4  10  22  38  53  81 114 146 195 237 272 336
#     4  10  20  33  55  85 116 143 177 234 291 336
#     4  11  21  35  58  81 110 155 184 232 288 340
#     4  11  19  35  57  81 117 150 179 230 288 339
#     4  10  22  35  55  83 111 151 184 235 283 334
#     4  10  21  35  52  84 115 143 192 225 276 351
#     4  10  20  34  50  84 114 135 184 231 277 346
#
# _framework density 19.750404
#
# number of rings (size 3 to 8) (size 9 to 14) (size 15 to 20)
#    0.000    1.750    2.500    4.125    3.500    1.000 
#    0.000    0.000    2.750    0.750    0.000    0.000 
#    0.000    0.000    0.000    0.000    0.000    0.000 
#
# Total GULP energy -178563.390229 kJ/mol
# GULP energy per Si atom -5580.105945 kJ/mol
# Density = 1.970545 g / cm^3
# Si number density = 19.750404 Si / 1000 Ang^3
#
#
#
# Elastic Constant Matrix: (Units=GPa)
#
#
# Indices 1 2 3 4 5 6 
#
# 1 23.4432 2.7221 -2.2115 0.0000 7.4338 0.0000
# 2 2.7221 110.1850 11.7070 0.0000 -5.9187 0.0000
# 3 -2.2115 11.7070 46.9251 0.0000 13.2541 0.0000
# 4 0.0000 0.0000 0.0000 19.8484 0.0000 -2.8123
# 5 7.4338 -5.9187 13.2541 0.0000 18.2528 0.0000
# 6 0.0000 0.0000 0.0000 -2.8123 0.0000 19.3817
#
#
#
# Elastic Compliance Matrix: (Units=1/GPa)
#
#
# Indices 1 2 3 4 5 6 
#
# 1 0.055042 -0.004558 0.013185 0.000000 -0.033469 0.000000
# 2 -0.004558 0.010240 -0.005324 0.000000 0.009042 0.000000
# 3 0.013185 -0.005324 0.031783 0.000000 -0.030175 0.000000
# 4 0.000000 0.000000 0.000000 0.051440 0.000000 0.007464
# 5 -0.033469 0.009042 -0.030175 0.000000 0.093260 0.000000
# 6 0.000000 0.000000 0.000000 0.007464 0.000000 0.052678
#
#
# Mechanical properties :
#
#
# Convention : Reuss Voigt Hill
#
# Bulk Modulus (GPa) = 9.64595 22.77651 16.21123
# Shear Modulus (GPa) = 15.50897 22.71896 19.11397
#
# Velocity S-wave (km/s) = 2.80527 3.39529 3.11428
# Velocity P-wave (km/s) = 3.92266 5.18921 4.59973
#
# Compressibility (1/GPa) = 0.10367043
#
# Stress axis : x y z
#
# Youngs Moduli (GPa) = 18.16786 97.66006 31.46326
#
# Poissons Ratio (x) = 0.44518 -0.41483
# Poissons Ratio (y) = 0.08282 0.16750
# Poissons Ratio (z) = -0.23954 0.51990
#
# Static dielectric constant tensor:
#      x y z
#    x 1.713470 0.000000 0.022340 
#    y 0.000000 1.723640 0.000000 
#    z 0.022340 0.000000 1.709020 
# 
# From -- ./inp_files/155178.got.cif
#   From: 2010.05.17/outbox.cif.g08.bks.cpg/sg15_78_cif.got.tgz:155178.got - 2010.06.03 18:47:42.
