data_PCOD9255188
_publ_section_title
;
Structure prediction by ZEFSAII (Michael W. Deem and Ramdas Pophale) SiO2 
 PCOD9255188
Probable space group: C 2/C
;
_chemical_formula_sum "Si O2"
_cell_formula_units_Z 56
_cell_length_a 11.174012
_cell_length_b 29.744201
_cell_length_c 10.084097
_cell_angle_alpha 90.000000
_cell_angle_beta 128.347971
_cell_angle_gamma 90.000000
_cell_volume 2628.493825
_symmetry_space_group_name_H-M "C 2/C"
_symmetry_group_IT_number 15
_symmetry_cell_setting 'monoclinic'
loop_
_space_group_symop_operation_xyz
x,y,z
-x,y,1/2-z
-x,-y,-z
x,-y,1/2+z
1/2+x,1/2+y,z
1/2-x,1/2+y,1/2-z
1/2-x,1/2-y,-z
1/2+x,1/2-y,1/2+z
loop_
_atom_site_type_symbol
_atom_site_label
_atom_site_fract_x
_atom_site_fract_y
_atom_site_fract_z
Si Si1 0.635858 0.178291 0.432891
Si Si2 0.328137 0.088953 0.888727
Si Si3 0.313795 0.880272 0.109281
Si Si4 0.354924 0.732268 0.411528
Si Si5 0.828992 0.447822 0.913898
Si Si6 0.317770 0.971241 0.611323
Si Si7 0.817107 0.217861 0.936090
O O1 0.500000 0.159541 0.250000
O O2 0.655706 0.141247 0.559647
O O3 0.589833 0.227141 0.455983
O O4 0.780617 0.191523 0.442464
O O5 0.255158 0.089893 0.693309
O O6 0.489246 0.062397 0.979611
O O7 0.252959 0.066054 0.965267
O O8 0.500000 0.880320 0.250000
O O9 0.254731 0.830550 0.089914
O O10 0.270200 0.901286 0.937473
O O11 0.235455 0.758585 0.236833
O O12 0.501113 0.715745 0.433210
O O13 0.765870 0.465184 0.728851
O O14 0.803546 0.483348 0.015245
O O15 0.500000 0.964201 0.750000
O O16 0.750000 0.250000 0.000000
#
# Coordination Sequence:
#
# PCOD9255188 Si02
#       7
#     8   8   8   8   8   8   8
#     4  11  21  37  60  83 118 158 202 255 310 363
#     4  10  19  31  52  80 114 155 198 248 304 367
#     4  10  20  35  53  79 115 160 200 252 310 364
#     4  11  24  40  59  86 118 159 209 258 306 367
#     4  10  19  30  51  79 121 159 195 248 308 371
#     4  10  17  29  47  80 116 156 195 240 306 368
#     4  12  24  40  60  85 119 162 213 259 313 368
#
# _framework density 21.304977000000001
#
# number of rings (size 3 to 8) (size 9 to 14) (size 15 to 20)
#    0.000    1.429    2.857    6.429    2.000    1.143 
#    0.000    0.000    0.000    0.000    0.000    1.000 
#    0.000   13.714    0.000    5.714    0.000    0.857 
#
# Total GULP energy -156082.383216 kJ/mol
# GULP energy per Si atom -5574.370829 kJ/mol
# Density = 2.125649 g / cm^3
# Si number density = 21.304977 Si / 1000 Ang^3
#
#
#
# Elastic Constant Matrix: (Units=GPa)
#
#
# Indices 1 2 3 4 5 6 
#
# 1 70.5569 42.2762 34.0190 0.0000 -21.2446 0.0000
# 2 42.2762 92.9906 46.4920 0.0000 -21.5559 0.0000
# 3 34.0190 46.4920 81.6931 0.0000 -42.2174 0.0000
# 4 0.0000 0.0000 0.0000 34.8503 0.0000 -15.6346
# 5 -21.2446 -21.5559 -42.2174 0.0000 31.8083 0.0000
# 6 0.0000 0.0000 0.0000 -15.6346 0.0000 23.0519
#
#
#
# Elastic Compliance Matrix: (Units=1/GPa)
#
#
# Indices 1 2 3 4 5 6 
#
# 1 0.021534 -0.007782 0.000537 0.000000 0.009821 0.000000
# 2 -0.007782 0.017982 -0.010765 0.000000 -0.007300 0.000000
# 3 0.000537 -0.010765 0.046351 0.000000 0.054582 0.000000
# 4 0.000000 0.000000 0.000000 0.041243 0.000000 0.027973
# 5 0.009821 -0.007300 0.054582 0.000000 0.105495 0.000000
# 6 0.000000 0.000000 0.000000 0.027973 0.000000 0.062352
#
#
# Mechanical properties :
#
#
# Convention : Reuss Voigt Hill
#
# Bulk Modulus (GPa) = 20.06165 54.53500 37.29833
# Shear Modulus (GPa) = 14.38462 26.10566 20.24514
#
# Velocity S-wave (km/s) = 2.60123 3.50427 3.08596
# Velocity P-wave (km/s) = 4.29637 6.48275 5.49931
#
# Compressibility (1/GPa) = 0.04984634
#
# Stress axis : x y z
#
# Youngs Moduli (GPa) = 46.43830 55.61197 21.57443
#
# Poissons Ratio (x) = 0.43275 -0.01158
# Poissons Ratio (y) = 0.36137 0.23226
# Poissons Ratio (z) = -0.02493 0.59869
#
# Static dielectric constant tensor:
#      x y z
#    x 1.785840 0.000000 -0.086090 
#    y 0.000000 1.786070 0.000000 
#    z -0.086090 0.000000 1.967330 
# 
# From -- ./inp_files/35790.got.cif
#   From: 2010.05.17/outbox.cif.g08.bks.cpg/sg15_18_cif.got.tgz:35790.got - 2010.06.03 18:47:42.
