data_PCOD9255017
_publ_section_title
;
Structure prediction by ZEFSAII (Michael W. Deem and Ramdas Pophale) SiO2 
 PCOD9255017
Probable space group: C 2/C
;
_chemical_formula_sum "Si O2"
_cell_formula_units_Z 40
_cell_length_a 10.083443
_cell_length_b 25.093420
_cell_length_c 6.839916
_cell_angle_alpha 90.000000
_cell_angle_beta 58.729545
_cell_angle_gamma 90.000000
_cell_volume 1479.267435
_symmetry_space_group_name_H-M "C 2/C"
_symmetry_group_IT_number 15
_symmetry_cell_setting 'monoclinic'
loop_
_space_group_symop_operation_xyz
x,y,z
-x,y,1/2-z
-x,-y,-z
x,-y,1/2+z
1/2+x,1/2+y,z
1/2-x,1/2+y,1/2-z
1/2-x,1/2-y,-z
1/2+x,1/2-y,1/2+z
loop_
_atom_site_type_symbol
_atom_site_label
_atom_site_fract_x
_atom_site_fract_y
_atom_site_fract_z
Si Si1 0.457892 0.172337 0.049670
Si Si2 0.458929 0.632311 0.548082
Si Si3 0.268729 0.078033 0.209517
Si Si4 0.739386 0.733091 0.739839
Si Si5 0.679916 0.540152 0.679462
O O1 0.500000 0.171120 0.250000
O O2 0.409505 0.113274 0.027891
O O3 0.309739 0.210850 0.133905
O O4 0.604172 0.200964 0.843348
O O5 0.500000 0.631341 0.750000
O O6 0.611269 0.613888 0.315849
O O7 0.392729 0.691406 0.588212
O O8 0.338690 0.582459 0.630155
O O9 0.251479 0.017210 0.159939
O O10 0.275401 0.070230 0.440065
O O11 0.750000 0.750000 0.500000
O O12 0.500000 0.527987 0.750000
#
# Coordination Sequence:
#
# PCOD9255017 Si02
#       5
#     8   8   8   8   8
#     4  10  18  29  45  73 104 135 164 210 262 310
#     4   9  15  27  45  69  97 128 161 205 247 295
#     4  10  19  32  51  75 105 137 173 207 247 299
#     4  10  17  27  45  71 104 132 160 205 268 309
#     4   9  17  31  51  76 100 134 174 211 245 297
#
# _framework density 27.040410999999999
#
# number of rings (size 3 to 8) (size 9 to 14) (size 15 to 20)
#    0.000    2.800    0.000   10.200    0.000    0.000 
#    0.000    4.000    0.000    0.000    0.000   12.600 
#    0.000    0.000    0.000    3.400    0.000    0.000 
#
# Total GULP energy -111815.249315 kJ/mol
# GULP energy per Si atom -5590.762466 kJ/mol
# Density = 2.697887 g / cm^3
# Si number density = 27.040411 Si / 1000 Ang^3
#
#
#
# Elastic Constant Matrix: (Units=GPa)
#
#
# Indices 1 2 3 4 5 6 
#
# 1 62.6291 37.7269 29.5708 0.0000 1.1295 0.0000
# 2 37.7269 237.0436 57.1413 0.0000 -17.5028 0.0000
# 3 29.5708 57.1413 113.2949 0.0000 5.3854 0.0000
# 4 0.0000 0.0000 0.0000 31.8313 0.0000 -25.2367
# 5 1.1295 -17.5028 5.3854 0.0000 32.3523 0.0000
# 6 0.0000 0.0000 0.0000 -25.2367 0.0000 44.4934
#
#
#
# Elastic Compliance Matrix: (Units=1/GPa)
#
#
# Indices 1 2 3 4 5 6 
#
# 1 0.019125 -0.002215 -0.003816 0.000000 -0.001231 0.000000
# 2 -0.002215 0.005372 -0.002291 0.000000 0.003365 0.000000
# 3 -0.003816 -0.002291 0.011119 0.000000 -0.002957 0.000000
# 4 0.000000 0.000000 0.000000 0.057087 0.000000 0.032380
# 5 -0.001231 0.003365 -0.002957 0.000000 0.033265 0.000000
# 6 0.000000 0.000000 0.000000 0.032380 0.000000 0.040841
#
#
# Mechanical properties :
#
#
# Convention : Reuss Voigt Hill
#
# Bulk Modulus (GPa) = 52.71125 73.53840 63.12482
# Shear Modulus (GPa) = 26.34650 40.97064 33.65857
#
# Velocity S-wave (km/s) = 3.12483 3.89673 3.53193
# Velocity P-wave (km/s) = 5.70572 6.89208 6.32677
#
# Compressibility (1/GPa) = 0.01897128
#
# Stress axis : x y z
#
# Youngs Moduli (GPa) = 52.28686 186.15317 89.93794
#
# Poissons Ratio (x) = 0.41230 0.34323
# Poissons Ratio (y) = 0.11581 0.20607
# Poissons Ratio (z) = 0.19954 0.42652
#
# Static dielectric constant tensor:
#      x y z
#    x 2.345060 0.000000 0.078040 
#    y 0.000000 2.069140 0.000000 
#    z 0.078040 0.000000 2.087650 
# 
# From -- ./inp_files/41854.got.cif
#   From: 2010.05.17/outbox.cif.g08.bks.cpg/sg15_21_cif.got.tgz:41854.got - 2010.06.03 18:47:42.
