data_PCOD9255132
_publ_section_title
;
Structure prediction by ZEFSAII (Michael W. Deem and Ramdas Pophale) SiO2 
 PCOD9255132
Probable space group: C 2/C
;
_chemical_formula_sum "Si O2"
_cell_formula_units_Z 64
_cell_length_a 25.696394
_cell_length_b 7.196114
_cell_length_c 21.191834
_cell_angle_alpha 90.000000
_cell_angle_beta 135.536343
_cell_angle_gamma 90.000000
_cell_volume 2744.859110
_symmetry_space_group_name_H-M "C 2/C"
_symmetry_group_IT_number 15
_symmetry_cell_setting 'monoclinic'
loop_
_space_group_symop_operation_xyz
x,y,z
-x,y,1/2-z
-x,-y,-z
x,-y,1/2+z
1/2+x,1/2+y,z
1/2-x,1/2+y,1/2-z
1/2-x,1/2-y,-z
1/2+x,1/2-y,1/2+z
loop_
_atom_site_type_symbol
_atom_site_label
_atom_site_fract_x
_atom_site_fract_y
_atom_site_fract_z
Si Si1 0.221431 0.495396 0.440258
Si Si2 0.049513 0.982709 0.481563
Si Si3 0.437431 0.958474 0.497737
Si Si4 0.713868 0.557806 0.633971
Si Si5 0.017164 0.075147 0.701665
Si Si6 0.690833 0.588740 0.868942
Si Si7 0.056292 0.484489 0.853218
Si Si8 0.778728 0.378208 0.325117
O O1 0.242772 0.395035 0.393126
O O2 0.283825 0.466737 0.548633
O O3 0.221331 0.710021 0.416643
O O4 0.139947 0.476176 0.401165
O O5 0.063322 0.762426 0.490503
O O6 0.126100 0.093913 0.551183
O O7 0.004237 0.029194 0.379852
O O8 0.000000 0.000000 0.500000
O O9 0.449895 0.043734 0.578478
O O10 0.356502 0.986319 0.397230
O O11 0.500000 0.000000 0.500000
O O12 0.748397 0.632746 0.728227
O O13 0.715610 0.335274 0.648009
O O14 0.104255 0.114809 0.779942
O O15 0.000000 0.964260 0.750000
O O16 0.966288 0.262592 0.662629
O O17 0.727087 0.531162 0.834137
O O18 0.000000 0.552645 0.750000
#
# Coordination Sequence:
#
# PCOD9255132 Si02
#       8
#     8   8   8   8   8   8   8   8
#     4  10  18  30  51  78 110 135 181 230 274 316
#     4  10  21  37  54  81 114 143 182 226 274 329
#     4  10  22  36  55  83 111 144 183 225 273 329
#     4  10  22  35  56  83 110 148 181 227 275 326
#     4  10  17  28  50  78 104 135 178 220 274 317
#     4  10  17  29  50  75 107 139 171 230 273 314
#     4  10  18  31  49  82 108 135 180 228 274 319
#     4  10  21  36  53  81 112 144 184 221 274 324
#
# _framework density 23.316314999999999
#
# number of rings (size 3 to 8) (size 9 to 14) (size 15 to 20)
#    0.000    2.000    3.750    1.500    5.250    2.000 
#    0.000    0.000    0.000    1.500    3.250    0.000 
#    0.000    0.000    0.000    0.000    0.000    0.000 
#
# Total GULP energy -178574.846748 kJ/mol
# GULP energy per Si atom -5580.463961 kJ/mol
# Density = 2.326325 g / cm^3
# Si number density = 23.316315 Si / 1000 Ang^3
#
#
#
# Elastic Constant Matrix: (Units=GPa)
#
#
# Indices 1 2 3 4 5 6 
#
# 1 215.8634 6.2982 114.8853 0.0000 -24.0820 0.0000
# 2 6.2982 64.2279 15.7701 0.0001 -2.2114 0.0004
# 3 114.8853 15.7701 205.1352 0.0000 -34.1507 0.0000
# 4 0.0000 0.0001 0.0000 23.9415 0.0000 -5.0865
# 5 -24.0820 -2.2114 -34.1507 0.0000 48.8331 0.0000
# 6 0.0000 0.0004 0.0000 -5.0865 0.0000 22.2554
#
#
#
# Elastic Compliance Matrix: (Units=1/GPa)
#
#
# Indices 1 2 3 4 5 6 
#
# 1 0.006629 0.000262 -0.003606 0.000000 0.000759 0.000000
# 2 0.000262 0.015880 -0.001388 0.000000 -0.000122 0.000000
# 3 -0.003606 -0.001388 0.007577 0.000000 0.003457 0.000000
# 4 0.000000 0.000000 0.000000 0.043900 0.000000 0.010034
# 5 0.000759 -0.000122 0.003457 0.000000 0.023265 0.000000
# 6 0.000000 0.000000 0.000000 0.010034 0.000000 0.047226
#
#
# Mechanical properties :
#
#
# Convention : Reuss Voigt Hill
#
# Bulk Modulus (GPa) = 48.49348 84.34817 66.42083
# Shear Modulus (GPa) = 31.09153 42.22417 36.65785
#
# Velocity S-wave (km/s) = 3.65563 4.26012 3.96940
# Velocity P-wave (km/s) = 6.21783 7.77511 7.03966
#
# Compressibility (1/GPa) = 0.02062133
#
# Stress axis : x y z
#
# Youngs Moduli (GPa) = 150.85492 62.97058 131.98220
#
# Poissons Ratio (x) = -0.01647 0.47596
# Poissons Ratio (y) = -0.03946 0.18315
# Poissons Ratio (z) = 0.54402 0.08738
#
# Static dielectric constant tensor:
#      x y z
#    x 1.925660 0.000000 0.027710 
#    y 0.000000 2.018100 0.000000 
#    z 0.027710 0.000000 1.916980 
# 
# From -- ./inp_files/215070.got.cif
#   From: 2010.05.17/outbox.cif.g08.bks.cpg/sg15_108_cif.got.tgz:215070.got - 2010.06.03 18:47:42.
