data_PCOD9255440
_publ_section_title
;
Structure prediction by ZEFSAII (Michael W. Deem and Ramdas Pophale) SiO2 
 PCOD9255440
Probable space group: C 2/C
;
_chemical_formula_sum "Si O2"
_cell_formula_units_Z 60
_cell_length_a 9.636421
_cell_length_b 19.434521
_cell_length_c 20.016029
_cell_angle_alpha 90.000000
_cell_angle_beta 59.019989
_cell_angle_gamma 90.000000
_cell_volume 3213.839070
_symmetry_space_group_name_H-M "C 2/C"
_symmetry_group_IT_number 15
_symmetry_cell_setting 'monoclinic'
loop_
_space_group_symop_operation_xyz
x,y,z
-x,y,1/2-z
-x,-y,-z
x,-y,1/2+z
1/2+x,1/2+y,z
1/2-x,1/2+y,1/2-z
1/2-x,1/2-y,-z
1/2+x,1/2-y,1/2+z
loop_
_atom_site_type_symbol
_atom_site_label
_atom_site_fract_x
_atom_site_fract_y
_atom_site_fract_z
Si Si1 0.859373 0.781287 0.338483
Si Si2 0.428732 0.234395 0.094682
Si Si3 0.000000 0.042751 0.250000
Si Si4 0.614699 0.904263 0.072287
Si Si5 0.186824 0.644686 0.691558
Si Si6 0.307410 0.627618 0.401442
Si Si7 0.755069 0.423097 0.180627
Si Si8 0.497653 0.251082 0.576766
O O1 0.819215 0.863935 0.350071
O O2 0.690492 0.747722 0.357554
O O3 0.000000 0.772184 0.250000
O O4 0.926227 0.745671 0.388939
O O5 0.293903 0.289377 0.149832
O O6 0.336624 0.161100 0.108158
O O7 0.490578 0.254391 0.005945
O O8 0.054371 0.090309 0.175113
O O9 0.150832 0.990847 0.215630
O O10 0.692747 0.907441 0.126715
O O11 0.439489 0.939841 0.114270
O O12 0.568429 0.823202 0.078517
O O13 0.726936 0.917894 0.980583
O O14 0.242162 0.611837 0.747150
O O15 0.000000 0.664044 0.750000
O O16 0.393948 0.691383 0.416613
#
# Coordination Sequence:
#
# PCOD9255440 Si02
#       8
#     8   8   4   8   8   8   8   8
#     4  11  21  32  60  83 112 149 188 235 280 323
#     4  11  19  34  56  90 119 141 180 229 292 345
#     4  12  26  38  52  78 120 156 194 230 280 334
#     4   9  18  37  64  88 106 144 193 242 279 333
#     4  10  17  30  64  87 106 136 190 248 274 317
#     4  11  23  36  60  85 121 151 177 230 296 348
#     4  10  21  39  56  81 111 150 204 238 263 322
#     4  10  20  36  56  91 122 139 179 233 292 354
#
# _framework density 18.669262
#
# number of rings (size 3 to 8) (size 9 to 14) (size 15 to 20)
#    0.000    1.600    4.667    1.200    2.800    0.533 
#    0.000    0.667    8.800    0.000    0.000    0.000 
#    0.000    0.000    0.000    0.000    0.000    0.000 
#
# Total GULP energy -167303.950774 kJ/mol
# GULP energy per Si atom -5576.798359 kJ/mol
# Density = 1.862677 g / cm^3
# Si number density = 18.669262 Si / 1000 Ang^3
#
#
#
# Elastic Constant Matrix: (Units=GPa)
#
#
# Indices 1 2 3 4 5 6 
#
# 1 66.0025 13.6734 11.4836 0.0000 1.2302 0.0000
# 2 13.6734 27.2428 11.8687 0.0000 -3.6290 0.0000
# 3 11.4836 11.8687 87.4057 0.0000 -13.5459 0.0000
# 4 0.0000 0.0000 0.0000 15.4542 0.0000 -13.2474
# 5 1.2302 -3.6290 -13.5459 0.0000 37.8749 0.0000
# 6 0.0000 0.0000 0.0000 -13.2474 0.0000 7.0058
#
#
#
# Elastic Compliance Matrix: (Units=1/GPa)
#
#
# Indices 1 2 3 4 5 6 
#
# 1 0.017138 -0.008229 -0.001421 0.000000 -0.001853 0.000000
# 2 -0.008229 0.043103 -0.004330 0.000000 0.002848 0.000000
# 3 -0.001421 -0.004330 0.012872 0.000000 0.004235 0.000000
# 4 0.000000 0.000000 0.000000 -0.104216 0.000000 -0.197063
# 5 -0.001853 0.002848 0.004235 0.000000 0.028250 0.000000
# 6 0.000000 0.000000 0.000000 -0.197063 0.000000 -0.229891
#
#
# Mechanical properties :
#
#
# Convention : Reuss Voigt Hill
#
# Bulk Modulus (GPa) = 22.14788 28.30027 25.22408
# Shear Modulus (GPa) = -26.35304 21.64201 -2.35552
#
# Velocity S-wave (km/s) = -3.76117 3.40844 -1.12448
# Velocity P-wave (km/s) = 2.64061 5.53910 3.44302
#
# Compressibility (1/GPa) = 0.04515105
#
# Stress axis : x y z
#
# Youngs Moduli (GPa) = 58.35127 23.20010 77.68820
#
# Poissons Ratio (x) = 0.19092 0.11043
# Poissons Ratio (y) = 0.48018 0.33641
# Poissons Ratio (z) = 0.08294 0.10046
#
# Static dielectric constant tensor:
#      x y z
#    x 1.682610 0.000000 0.011380 
#    y 0.000000 1.649970 0.000000 
#    z 0.011380 0.000000 1.710710 
# 
# From -- ./inp_files/192093.got.cif
#   From: 2010.05.17/outbox.cif.g08.bks.cpg/sg15_97_cif.got.tgz:192093.got - 2010.06.03 18:47:42.
