data_PCOD9255680
_publ_section_title
;
Structure prediction by ZEFSAII (Michael W. Deem and Ramdas Pophale) SiO2 
 PCOD9255680
Probable space group: C 2/C
;
_chemical_formula_sum "Si O2"
_cell_formula_units_Z 48
_cell_length_a 24.068390
_cell_length_b 18.455641
_cell_length_c 17.016587
_cell_angle_alpha 90.000000
_cell_angle_beta 16.043120
_cell_angle_gamma 90.000000
_cell_volume 2088.935025
_symmetry_space_group_name_H-M "C 2/C"
_symmetry_group_IT_number 15
_symmetry_cell_setting 'monoclinic'
loop_
_space_group_symop_operation_xyz
x,y,z
-x,y,1/2-z
-x,-y,-z
x,-y,1/2+z
1/2+x,1/2+y,z
1/2-x,1/2+y,1/2-z
1/2-x,1/2-y,-z
1/2+x,1/2-y,1/2+z
loop_
_atom_site_type_symbol
_atom_site_label
_atom_site_fract_x
_atom_site_fract_y
_atom_site_fract_z
Si Si1 0.428473 0.125382 0.962561
Si Si2 0.366147 0.430897 0.352555
Si Si3 0.327914 0.581949 0.323786
Si Si4 0.528852 0.281061 0.328786
Si Si5 0.366391 0.159421 0.218565
Si Si6 0.472787 0.284253 0.699282
O O1 0.635744 0.102825 0.639950
O O2 0.398603 0.211583 0.988232
O O3 0.257189 0.082897 0.148459
O O4 0.431235 0.118178 0.051983
O O5 0.500000 0.437358 0.250000
O O6 0.382652 0.503894 0.282091
O O7 0.425875 0.364553 0.214369
O O8 0.166644 0.398603 0.666490
O O9 0.482646 0.647922 0.127452
O O10 0.483631 0.221700 0.456230
O O11 0.339309 0.295897 0.527899
O O12 0.750000 0.250000 0.000000
O O13 0.500000 0.313379 0.750000
O O14 0.250000 0.250000 0.000000
#
# Coordination Sequence:
#
# PCOD9255680 Si02
#       6
#     8   8   8   8   8   8
#     4  10  21  35  54  86 118 147 191 247 280 335
#     4   9  19  39  59  81 113 155 194 234 295 352
#     4  10  20  36  57  79 119 162 184 231 295 350
#     4   9  19  39  61  86 113 150 193 237 291 345
#     4  10  21  36  63  89 117 145 197 249 281 342
#     4  10  17  32  53  75 104 151 194 221 274 340
#
# _framework density 22.978216
#
# number of rings (size 3 to 8) (size 9 to 14) (size 15 to 20)
#    0.000    2.333    3.333    2.000    2.333    0.667 
#   12.000    3.333    3.667    0.000    0.000    0.000 
#    0.000    0.000    0.000    0.000    0.000    0.000 
#
# Total GULP energy -133605.332340 kJ/mol
# GULP energy per Si atom -5566.888847 kJ/mol
# Density = 2.292592 g / cm^3
# Si number density = 22.978216 Si / 1000 Ang^3
#
#
#
# Elastic Constant Matrix: (Units=GPa)
#
#
# Indices 1 2 3 4 5 6 
#
# 1 71.3872 22.3712 -12.7465 0.0056 5.4798 -0.0097
# 2 22.3712 158.3462 -14.8612 -0.0059 -14.1383 -0.0025
# 3 -12.7465 -14.8612 42.1067 -0.0103 1.2645 0.0234
# 4 0.0056 -0.0059 -0.0103 13.3305 0.0085 -7.0739
# 5 5.4798 -14.1383 1.2645 0.0085 31.2430 0.0000
# 6 -0.0097 -0.0025 0.0234 -7.0739 0.0000 31.5594
#
#
#
# Elastic Compliance Matrix: (Units=1/GPa)
#
#
# Indices 1 2 3 4 5 6 
#
# 1 0.015727 -0.002186 0.004107 -0.000001 -0.003914 0.000001
# 2 -0.002186 0.007102 0.001739 0.000003 0.003527 -0.000001
# 3 0.004107 0.001739 0.025635 0.000011 -0.000971 -0.000015
# 4 -0.000001 0.000003 0.000011 0.085144 -0.000022 0.019085
# 5 -0.003914 0.003527 -0.000971 -0.000022 0.034329 -0.000005
# 6 0.000001 -0.000001 -0.000015 0.019085 -0.000005 0.035964
#
#
# Mechanical properties :
#
#
# Convention : Reuss Voigt Hill
#
# Bulk Modulus (GPa) = 17.92616 29.04080 23.48348
# Shear Modulus (GPa) = 23.23681 33.69834 28.46758
#
# Velocity S-wave (km/s) = 3.18347 3.83369 3.52361
# Velocity P-wave (km/s) = 4.61855 5.67997 5.17654
#
# Compressibility (1/GPa) = 0.05578440
#
# Stress axis : x y z
#
# Youngs Moduli (GPa) = 63.58554 140.80089 39.00860
#
# Poissons Ratio (x) = 0.30778 -0.16020
# Poissons Ratio (y) = 0.13899 -0.06784
# Poissons Ratio (z) = -0.26114 -0.24486
#
# Static dielectric constant tensor:
#      x y z
#    x 1.937460 -0.000020 0.045580 
#    y -0.000020 1.849670 0.000020 
#    z 0.045580 0.000020 2.030720 
# 
# From -- ./inp_files/219953.got.cif
#   From: 2010.05.17/outbox.cif.g08.bks.cpg/sg15_110_cif.got.tgz:219953.got - 2010.06.03 18:47:42.
