data_PCOD9255996
_publ_section_title
;
Structure prediction by ZEFSAII (Michael W. Deem and Ramdas Pophale) SiO2 
 PCOD9255996
Probable space group: C 2/C
;
_chemical_formula_sum "Si O2"
_cell_formula_units_Z 44
_cell_length_a 19.573785
_cell_length_b 22.225149
_cell_length_c 5.895391
_cell_angle_alpha 90.000000
_cell_angle_beta 75.688774
_cell_angle_gamma 90.000000
_cell_volume 2485.084944
_symmetry_space_group_name_H-M "C 2/C"
_symmetry_group_IT_number 15
_symmetry_cell_setting 'monoclinic'
loop_
_space_group_symop_operation_xyz
x,y,z
-x,y,1/2-z
-x,-y,-z
x,-y,1/2+z
1/2+x,1/2+y,z
1/2-x,1/2+y,1/2-z
1/2-x,1/2-y,-z
1/2+x,1/2-y,1/2+z
loop_
_atom_site_type_symbol
_atom_site_label
_atom_site_fract_x
_atom_site_fract_y
_atom_site_fract_z
Si Si1 0.727891 0.660173 0.592026
Si Si2 0.689791 0.745665 0.237543
Si Si3 0.214473 0.019318 0.686452
Si Si4 0.073656 0.057840 0.315377
Si Si5 0.500000 0.368670 0.250000
Si Si6 0.401113 0.678583 0.476247
O O1 0.710529 0.686120 0.360780
O O2 0.797785 0.695228 0.620399
O O3 0.724960 0.589251 0.620990
O O4 0.662666 0.682658 0.796146
O O5 0.750000 0.750000 0.000000
O O6 0.614285 0.731609 0.188301
O O7 0.242550 0.989758 0.424431
O O8 0.134648 0.991880 0.777815
O O9 0.000000 0.039253 0.250000
O O10 0.054427 0.087649 0.574067
O O11 0.101787 0.114053 0.145467
O O12 0.530473 0.327279 0.424654
#
# Coordination Sequence:
#
# PCOD9255996 Si02
#       6
#     8   8   8   8   4   8
#     4  10  20  35  50  71  93 129 180 223 268 315
#     4   9  19  33  54  68  89 123 175 228 270 315
#     4  12  24  36  51  72 104 139 177 222 265 315
#     4  10  22  35  47  70 103 146 184 218 262 307
#     4  10  20  32  50  70 104 140 184 224 262 314
#     4  10  17  34  48  69  95 130 177 219 269 312
#
# _framework density 17.705632000000001
#
# number of rings (size 3 to 8) (size 9 to 14) (size 15 to 20)
#    0.000    1.818    1.818    3.273    5.091    0.727 
#    1.636    0.000    0.000    0.000    0.000    0.000 
#    0.000    0.000    0.000    1.636    0.364    7.636 
#
# Total GULP energy -122509.305094 kJ/mol
# GULP energy per Si atom -5568.604777 kJ/mol
# Density = 1.766533 g / cm^3
# Si number density = 17.705632 Si / 1000 Ang^3
#
#
#
# Elastic Constant Matrix: (Units=GPa)
#
#
# Indices 1 2 3 4 5 6 
#
# 1 57.2024 46.7388 13.5552 0.0000 18.9650 0.0000
# 2 46.7388 88.2986 25.7196 0.0000 11.5490 0.0000
# 3 13.5552 25.7196 101.8604 0.0000 14.0772 0.0000
# 4 0.0000 0.0000 0.0000 29.6655 0.0000 -2.9552
# 5 18.9650 11.5490 14.0772 0.0000 20.6792 0.0000
# 6 0.0000 0.0000 0.0000 -2.9552 0.0000 27.2740
#
#
#
# Elastic Compliance Matrix: (Units=1/GPa)
#
#
# Indices 1 2 3 4 5 6 
#
# 1 0.043006 -0.019762 0.003524 0.000000 -0.030804 0.000000
# 2 -0.019762 0.021837 -0.004088 0.000000 0.008711 0.000000
# 3 0.003524 -0.004088 0.011603 0.000000 -0.008848 0.000000
# 4 0.000000 0.000000 0.000000 0.034077 0.000000 0.003692
# 5 -0.030804 0.008711 -0.008848 0.000000 0.077766 0.000000
# 6 0.000000 0.000000 0.000000 0.003692 0.000000 0.037065
#
#
# Mechanical properties :
#
#
# Convention : Reuss Voigt Hill
#
# Bulk Modulus (GPa) = 27.93689 46.59875 37.26782
# Shear Modulus (GPa) = 17.98959 26.28026 22.13492
#
# Velocity S-wave (km/s) = 3.19099 3.85683 3.53960
# Velocity P-wave (km/s) = 5.42120 6.79774 6.14811
#
# Compressibility (1/GPa) = 0.03579496
#
# Stress axis : x y z
#
# Youngs Moduli (GPa) = 23.25234 45.79364 86.18202
#
# Poissons Ratio (x) = 0.90497 -0.30369
# Poissons Ratio (y) = 0.45951 0.35230
# Poissons Ratio (z) = -0.08194 0.18720
#
# Static dielectric constant tensor:
#      x y z
#    x 1.682740 0.000000 0.068730 
#    y 0.000000 1.629440 0.000000 
#    z 0.068730 0.000000 1.708410 
# 
# From -- ./inp_files/10386.got.cif
#   From: 2010.05.17/outbox.cif.g08.bks.cpg/sg15_6_cif.got.tgz:10386.got - 2010.06.03 18:47:42.
