data_PCOD9255114
_publ_section_title
;
Structure prediction by ZEFSAII (Michael W. Deem and Ramdas Pophale) SiO2 
 PCOD9255114
Probable space group: C 2/C
;
_chemical_formula_sum "Si O2"
_cell_formula_units_Z 40
_cell_length_a 7.615415
_cell_length_b 21.927280
_cell_length_c 10.900325
_cell_angle_alpha 90.000000
_cell_angle_beta 61.234213
_cell_angle_gamma 90.000000
_cell_volume 1595.571880
_symmetry_space_group_name_H-M "C 2/C"
_symmetry_group_IT_number 15
_symmetry_cell_setting 'monoclinic'
loop_
_space_group_symop_operation_xyz
x,y,z
-x,y,1/2-z
-x,-y,-z
x,-y,1/2+z
1/2+x,1/2+y,z
1/2-x,1/2+y,1/2-z
1/2-x,1/2-y,-z
1/2+x,1/2-y,1/2+z
loop_
_atom_site_type_symbol
_atom_site_label
_atom_site_fract_x
_atom_site_fract_y
_atom_site_fract_z
Si Si1 0.204654 0.819561 0.286670
Si Si2 0.911688 0.904206 0.482646
Si Si3 0.796277 0.184901 0.240149
Si Si4 0.080949 0.360506 0.035489
Si Si5 0.188902 0.519740 0.594035
O O1 0.238560 0.752868 0.219036
O O2 0.358541 0.860854 0.160485
O O3 0.292033 0.824665 0.399877
O O4 0.985364 0.847503 0.376256
O O5 0.843529 0.868596 0.628866
O O6 0.111447 0.948219 0.413857
O O7 0.741233 0.954237 0.521950
O O8 0.618121 0.168842 0.393106
O O9 0.000000 0.190858 0.250000
O O10 0.150623 0.429884 0.003950
O O11 0.000000 0.517463 0.750000
#
# Coordination Sequence:
#
# PCOD9255114 Si02
#       5
#     8   8   8   8   8
#     4  10  17  29  48  73 105 129 155 189 256 307
#     4  10  21  31  52  76  96 137 167 194 247 300
#     4  12  18  27  48  81 107 122 156 208 254 294
#     4  10  17  28  48  71 102 134 149 199 254 287
#     4  10  18  35  52  66 102 135 173 196 233 299
#
# _framework density 25.069382000000001
#
# number of rings (size 3 to 8) (size 9 to 14) (size 15 to 20)
#    0.000    1.600   10.000    1.800    0.000    0.000 
#    0.000    1.000    4.400    1.200    0.000    0.000 
#    0.000    0.000    0.000    0.000    0.000    0.000 
#
# Total GULP energy -111666.403089 kJ/mol
# GULP energy per Si atom -5583.320154 kJ/mol
# Density = 2.501232 g / cm^3
# Si number density = 25.069382 Si / 1000 Ang^3
#
#
#
# Elastic Constant Matrix: (Units=GPa)
#
#
# Indices 1 2 3 4 5 6 
#
# 1 49.8070 5.6520 -4.7255 0.0000 -12.9712 0.0000
# 2 5.6520 157.4945 22.2454 0.0000 0.2911 0.0000
# 3 -4.7255 22.2454 128.2291 0.0000 10.6878 0.0000
# 4 0.0000 0.0000 0.0000 27.7770 0.0000 1.8907
# 5 -12.9712 0.2911 10.6878 0.0000 21.8592 0.0000
# 6 0.0000 0.0000 0.0000 1.8907 0.0000 2.9759
#
#
#
# Elastic Compliance Matrix: (Units=1/GPa)
#
#
# Indices 1 2 3 4 5 6 
#
# 1 0.023873 -0.000861 -0.000159 0.000000 0.014255 0.000000
# 2 -0.000861 0.006545 -0.001165 0.000000 -0.000028 0.000000
# 3 -0.000159 -0.001165 0.008341 0.000000 -0.004157 0.000000
# 4 0.000000 0.000000 0.000000 0.037628 0.000000 -0.023907
# 5 0.014255 -0.000028 -0.004157 0.000000 0.056239 0.000000
# 6 0.000000 0.000000 0.000000 -0.023907 0.000000 0.351222
#
#
# Mechanical properties :
#
#
# Convention : Reuss Voigt Hill
#
# Bulk Modulus (GPa) = 29.07846 42.43051 35.75448
# Shear Modulus (GPa) = 10.00638 31.34632 20.67635
#
# Velocity S-wave (km/s) = 2.00004 3.53991 2.87499
# Velocity P-wave (km/s) = 4.11800 5.80258 5.03129
#
# Compressibility (1/GPa) = 0.03438972
#
# Stress axis : x y z
#
# Youngs Moduli (GPa) = 41.88913 152.79113 119.88608
#
# Poissons Ratio (x) = 0.13149 0.01908
# Poissons Ratio (y) = 0.03605 0.13964
# Poissons Ratio (z) = 0.00667 0.17797
#
# Static dielectric constant tensor:
#      x y z
#    x 2.236090 0.000000 -0.029480 
#    y 0.000000 1.938020 0.000000 
#    z -0.029480 0.000000 1.906700 
# 
# From -- ./inp_files/57399.got.cif
#   From: 2010.05.17/outbox.cif.g08.bks.cpg/sg15_29_cif.got.tgz:57399.got - 2010.06.03 18:47:42.
