data_PCOD9255167
_publ_section_title
;
Structure prediction by ZEFSAII (Michael W. Deem and Ramdas Pophale) SiO2 
 PCOD9255167
Probable space group: C 2/C
;
_chemical_formula_sum "Si O2"
_cell_formula_units_Z 56
_cell_length_a 15.391211
_cell_length_b 27.213473
_cell_length_c 11.693244
_cell_angle_alpha 90.000000
_cell_angle_beta 154.026296
_cell_angle_gamma 90.000000
_cell_volume 2144.987821
_symmetry_space_group_name_H-M "C 2/C"
_symmetry_group_IT_number 15
_symmetry_cell_setting 'monoclinic'
loop_
_space_group_symop_operation_xyz
x,y,z
-x,y,1/2-z
-x,-y,-z
x,-y,1/2+z
1/2+x,1/2+y,z
1/2-x,1/2+y,1/2-z
1/2-x,1/2-y,-z
1/2+x,1/2-y,1/2+z
loop_
_atom_site_type_symbol
_atom_site_label
_atom_site_fract_x
_atom_site_fract_y
_atom_site_fract_z
Si Si1 0.233748 0.909135 0.497887
Si Si2 0.938828 0.684142 0.512363
Si Si3 0.774729 0.022075 0.723327
Si Si4 0.231281 0.805542 0.521135
Si Si5 0.132453 0.580541 0.087926
Si Si6 0.936962 0.210354 0.305302
Si Si7 0.541760 0.607553 0.435841
O O1 0.263120 0.950291 0.439320
O O2 0.292517 0.854469 0.524552
O O3 0.340197 0.918744 0.743327
O O4 0.000000 0.910855 0.250000
O O5 0.006738 0.627691 0.606538
O O6 0.786180 0.692859 0.436063
O O7 0.060711 0.734447 0.644248
O O8 0.815353 0.686765 0.247645
O O9 0.619817 0.977169 0.545699
O O10 0.794599 0.066666 0.838201
O O11 0.000000 0.000000 0.000000
O O12 0.250000 0.750000 0.500000
O O13 0.000000 0.811273 0.250000
O O14 0.340977 0.594449 0.269841
O O15 0.000000 0.213985 0.250000
O O16 0.073791 0.164897 0.510921
O O17 0.500000 0.606187 0.250000
#
# Coordination Sequence:
#
# PCOD9255167 Si02
#       7
#     8   8   8   8   8   8   8
#     4  10  17  29  44  69 100 133 169 207 264 310
#     4  10  20  35  54  76 109 141 176 216 264 315
#     4  10  18  24  45  65 101 132 166 207 262 311
#     4  10  21  33  53  77 109 142 176 218 262 317
#     4   9  19  29  43  69  99 136 164 211 257 314
#     4  10  20  35  54  77 109 139 176 218 261 314
#     4   9  18  27  43  71  99 132 167 207 261 314
#
# _framework density 26.107374
#
# number of rings (size 3 to 8) (size 9 to 14) (size 15 to 20)
#    0.000    2.286    2.857    1.286    8.000    0.000 
#    0.000    0.000    0.000    0.000    0.000    2.000 
#    0.000    0.000    0.000    0.000    0.000    0.000 
#
# Total GULP energy -156313.656540 kJ/mol
# GULP energy per Si atom -5582.630591 kJ/mol
# Density = 2.604795 g / cm^3
# Si number density = 26.107374 Si / 1000 Ang^3
#
#
#
# Elastic Constant Matrix: (Units=GPa)
#
#
# Indices 1 2 3 4 5 6 
#
# 1 79.5217 67.6560 26.8090 0.0000 -10.3724 0.0000
# 2 67.6560 319.7444 44.9085 0.0000 -6.7177 0.0000
# 3 26.8090 44.9085 65.3397 0.0000 -16.9637 0.0000
# 4 0.0000 0.0000 0.0000 45.6407 0.0000 0.6823
# 5 -10.3724 -6.7177 -16.9637 0.0000 42.6617 0.0000
# 6 0.0000 0.0000 0.0000 0.6823 0.0000 44.9339
#
#
#
# Elastic Compliance Matrix: (Units=1/GPa)
#
#
# Indices 1 2 3 4 5 6 
#
# 1 0.016762 -0.002889 -0.004407 0.000000 0.001868 0.000000
# 2 -0.002889 0.003967 -0.001741 0.000000 -0.000770 0.000000
# 3 -0.004407 -0.001741 0.020028 0.000000 0.006618 0.000000
# 4 0.000000 0.000000 0.000000 0.021915 0.000000 -0.000333
# 5 0.001868 -0.000770 0.006618 0.000000 0.026405 0.000000
# 6 0.000000 0.000000 0.000000 -0.000333 0.000000 0.022260
#
#
# Mechanical properties :
#
#
# Convention : Reuss Voigt Hill
#
# Bulk Modulus (GPa) = 44.08591 82.59475 63.34033
# Shear Modulus (GPa) = 36.50369 48.32941 42.41655
#
# Velocity S-wave (km/s) = 3.74333 4.30720 4.03512
# Velocity P-wave (km/s) = 5.96711 7.51274 6.78408
#
# Compressibility (1/GPa) = 0.02268298
#
# Stress axis : x y z
#
# Youngs Moduli (GPa) = 59.65811 252.07375 49.93012
#
# Poissons Ratio (x) = 0.72812 0.22005
# Poissons Ratio (y) = 0.17232 0.08695
# Poissons Ratio (z) = 0.26293 0.43895
#
# Static dielectric constant tensor:
#      x y z
#    x 2.052170 0.000000 0.064730 
#    y 0.000000 2.131710 0.000000 
#    z 0.064730 0.000000 2.059690 
# 
# From -- ./inp_files/101090.got.cif
#   From: 2010.05.17/outbox.cif.g08.bks.cpg/sg15_51_cif.got.tgz:101090.got - 2010.06.03 18:47:42.
