data_PCOD9255505
_publ_section_title
;
Structure prediction by ZEFSAII (Michael W. Deem and Ramdas Pophale) SiO2 
 PCOD9255505
Probable space group: C 2/C
;
_chemical_formula_sum "Si O2"
_cell_formula_units_Z 64
_cell_length_a 24.290240
_cell_length_b 11.252103
_cell_length_c 19.002432
_cell_angle_alpha 90.000000
_cell_angle_beta 36.376670
_cell_angle_gamma 90.000000
_cell_volume 3080.321849
_symmetry_space_group_name_H-M "C 2/C"
_symmetry_group_IT_number 15
_symmetry_cell_setting 'monoclinic'
loop_
_space_group_symop_operation_xyz
x,y,z
-x,y,1/2-z
-x,-y,-z
x,-y,1/2+z
1/2+x,1/2+y,z
1/2-x,1/2+y,1/2-z
1/2-x,1/2-y,-z
1/2+x,1/2-y,1/2+z
loop_
_atom_site_type_symbol
_atom_site_label
_atom_site_fract_x
_atom_site_fract_y
_atom_site_fract_z
Si Si1 0.478926 0.635826 0.540632
Si Si2 0.412745 0.659976 0.391626
Si Si3 0.486008 0.426998 0.183747
Si Si4 0.114060 0.415357 0.014580
Si Si5 0.678907 0.805420 0.805902
Si Si6 0.801994 0.078622 0.380942
Si Si7 0.145823 0.742636 0.797622
Si Si8 0.563876 0.006042 0.363159
O O1 0.500000 0.500000 0.500000
O O2 0.499971 0.654048 0.601755
O O3 0.375643 0.681105 0.632078
O O4 0.544772 0.715397 0.425136
O O5 0.500000 0.680028 0.250000
O O6 0.444333 0.539829 0.397841
O O7 0.401781 0.779613 0.445115
O O8 0.323806 0.630927 0.435358
O O9 0.500000 0.384543 0.250000
O O10 0.381393 0.479674 0.287019
O O11 0.016853 0.484909 0.111760
O O12 0.156267 0.396007 0.893331
O O13 0.197526 0.465038 0.976288
O O14 0.785667 0.773487 0.708115
O O15 0.627920 0.876652 0.795622
O O16 0.822078 0.181790 0.302866
O O17 0.134126 0.605137 0.791711
O O18 0.500000 0.000000 0.500000
#
# Coordination Sequence:
#
# PCOD9255505 Si02
#       8
#     8   8   8   8   8   8   8   8
#     4  12  21  35  62  85 110 143 196 236 274 331
#     4   9  17  30  51  76 112 146 184 230 284 339
#     4   9  19  34  53  78 111 144 184 233 280 324
#     4  10  17  31  52  75 111 147 183 222 283 344
#     4  10  24  35  54  86 114 146 184 236 281 337
#     4   9  18  31  50  84 111 141 185 231 287 340
#     4  11  21  36  56  85 113 141 184 237 284 328
#     4  10  19  36  52  74 114 149 176 223 294 332
#
# _framework density 20.777049000000002
#
# number of rings (size 3 to 8) (size 9 to 14) (size 15 to 20)
#    0.000    2.250    3.750    2.625    1.750    1.000 
#    0.000    0.000    2.750    3.000    0.000    0.000 
#    0.000    0.000    0.000    0.000    0.000    0.000 
#
# Total GULP energy -178338.099842 kJ/mol
# GULP energy per Si atom -5573.065620 kJ/mol
# Density = 2.072976 g / cm^3
# Si number density = 20.777049 Si / 1000 Ang^3
#
#
#
# Elastic Constant Matrix: (Units=GPa)
#
#
# Indices 1 2 3 4 5 6 
#
# 1 125.3361 15.8787 17.7982 0.0000 -31.3154 0.0000
# 2 15.8787 39.5180 -0.3090 0.0000 -6.4745 0.0000
# 3 17.7982 -0.3090 14.9324 0.0000 -8.4769 0.0000
# 4 0.0000 0.0000 0.0000 2.8482 0.0000 2.8539
# 5 -31.3154 -6.4745 -8.4769 0.0000 27.8194 0.0000
# 6 0.0000 0.0000 0.0000 2.8539 0.0000 24.1211
#
#
#
# Elastic Compliance Matrix: (Units=1/GPa)
#
#
# Indices 1 2 3 4 5 6 
#
# 1 0.012218 -0.003288 -0.008776 0.000000 0.010314 0.000000
# 2 -0.003288 0.027488 0.007277 0.000000 0.004913 0.000000
# 3 -0.008776 0.007277 0.088187 0.000000 0.018686 0.000000
# 4 0.000000 0.000000 0.000000 0.398326 0.000000 -0.047128
# 5 0.010314 0.004913 0.018686 0.000000 0.054394 0.000000
# 6 0.000000 0.000000 0.000000 -0.047128 0.000000 0.047034
#
#
# Mechanical properties :
#
#
# Convention : Reuss Voigt Hill
#
# Bulk Modulus (GPa) = 8.45167 27.39136 17.92151
# Shear Modulus (GPa) = 7.38922 20.71897 14.05410
#
# Velocity S-wave (km/s) = 1.88790 3.16128 2.60364
# Velocity P-wave (km/s) = 2.97133 5.15141 4.20511
#
# Compressibility (1/GPa) = 0.11831987
#
# Stress axis : x y z
#
# Youngs Moduli (GPa) = 81.84352 36.37945 11.33950
#
# Poissons Ratio (x) = 0.11962 0.09952
# Poissons Ratio (y) = 0.26912 -0.08252
# Poissons Ratio (z) = 0.71826 -0.26474
#
# Static dielectric constant tensor:
#      x y z
#    x 1.848470 0.000000 0.003210 
#    y 0.000000 1.802670 0.000000 
#    z 0.003210 0.000000 1.754310 
# 
# From -- ./inp_files/255353.got.cif
#   From: 2010.05.17/outbox.cif.g08.bks.cpg/sg15_128_cif.got.tgz:255353.got - 2010.06.03 18:47:42.
