data_PCOD9255404
_publ_section_title
;
Structure prediction by ZEFSAII (Michael W. Deem and Ramdas Pophale) SiO2 
 PCOD9255404
Probable space group: C 2/C
;
_chemical_formula_sum "Si O2"
_cell_formula_units_Z 64
_cell_length_a 20.901902
_cell_length_b 7.025839
_cell_length_c 24.199287
_cell_angle_alpha 90.000000
_cell_angle_beta 131.115889
_cell_angle_gamma 90.000000
_cell_volume 2677.326093
_symmetry_space_group_name_H-M "C 2/C"
_symmetry_group_IT_number 15
_symmetry_cell_setting 'monoclinic'
loop_
_space_group_symop_operation_xyz
x,y,z
-x,y,1/2-z
-x,-y,-z
x,-y,1/2+z
1/2+x,1/2+y,z
1/2-x,1/2+y,1/2-z
1/2-x,1/2-y,-z
1/2+x,1/2-y,1/2+z
loop_
_atom_site_type_symbol
_atom_site_label
_atom_site_fract_x
_atom_site_fract_y
_atom_site_fract_z
Si Si1 0.836392 0.588860 0.736891
Si Si2 0.055867 0.164779 0.646737
Si Si3 0.821304 0.849356 0.189187
Si Si4 0.928682 0.306419 0.663130
Si Si5 0.347568 0.781052 0.365021
Si Si6 0.469094 0.317548 0.553490
Si Si7 0.973289 0.287613 0.177863
Si Si8 0.333407 0.326534 0.384625
O O1 0.830239 0.368261 0.717173
O O2 0.814301 0.656539 0.786032
O O3 0.934415 0.631820 0.785345
O O4 0.766462 0.705091 0.662579
O O5 0.114256 0.059231 0.727748
O O6 0.122179 0.269997 0.643726
O O7 0.978528 0.263699 0.635010
O O8 0.006642 0.030202 0.575408
O O9 0.855767 0.830879 0.145934
O O10 0.720403 0.886430 0.134273
O O11 0.000000 0.280577 0.750000
O O12 0.911397 0.533086 0.654334
O O13 0.449624 0.807624 0.420428
O O14 0.336380 0.554243 0.370671
O O15 0.444881 0.302087 0.604544
O O16 0.390194 0.288600 0.469602
O O17 0.000000 0.181654 0.250000
#
# Coordination Sequence:
#
# PCOD9255404 Si02
#       8
#     8   8   8   8   8   8   8   8
#     4  10  17  31  56  81 103 141 189 231 265 319
#     4  10  17  32  53  78 108 143 184 215 276 333
#     4  10  17  30  54  86 103 139 188 237 271 313
#     4   9  17  31  55  79 106 139 181 231 272 316
#     4   9  18  31  55  79 106 141 188 226 267 325
#     4  10  22  35  56  81 115 146 177 229 290 333
#     4  10  18  35  56  85 107 140 190 230 268 332
#     4  10  20  35  54  80 114 147 177 228 292 326
#
# _framework density 23.904447999999999
#
# number of rings (size 3 to 8) (size 9 to 14) (size 15 to 20)
#    0.000    2.250    5.000    1.500    0.000    1.500 
#    0.000    1.250    2.750    6.750    0.000    0.000 
#    0.000    0.000    0.000    0.000    0.000    0.000 
#
# Total GULP energy -178147.861916 kJ/mol
# GULP energy per Si atom -5567.120685 kJ/mol
# Density = 2.385004 g / cm^3
# Si number density = 23.904448 Si / 1000 Ang^3
#
#
#
# Elastic Constant Matrix: (Units=GPa)
#
#
# Indices 1 2 3 4 5 6 
#
# 1 104.5638 -9.1371 35.3420 0.0000 -9.6614 0.0000
# 2 -9.1371 47.5085 5.1274 0.0001 -0.1971 0.0000
# 3 35.3420 5.1274 102.9818 0.0000 5.4127 0.0000
# 4 0.0000 0.0001 0.0000 9.9380 0.0000 -3.4136
# 5 -9.6614 -0.1971 5.4127 0.0000 33.7592 0.0000
# 6 0.0000 0.0000 0.0000 -3.4136 0.0000 23.6888
#
#
#
# Elastic Compliance Matrix: (Units=1/GPa)
#
#
# Indices 1 2 3 4 5 6 
#
# 1 0.011644 0.002725 -0.004344 0.000000 0.004045 0.000000
# 2 0.002725 0.021803 -0.002086 0.000000 0.001242 0.000000
# 3 -0.004344 -0.002086 0.011468 0.000000 -0.003094 0.000000
# 4 0.000000 0.000000 0.000000 0.105863 0.000000 0.015255
# 5 0.004045 0.001242 -0.003094 0.000000 0.031282 0.000000
# 6 0.000000 0.000000 0.000000 0.015255 0.000000 0.044412
#
#
# Mechanical properties :
#
#
# Convention : Reuss Voigt Hill
#
# Bulk Modulus (GPa) = 26.66361 35.30207 30.98284
# Shear Modulus (GPa) = 20.29347 28.39200 24.34273
#
# Velocity S-wave (km/s) = 2.91682 3.45008 3.19460
# Velocity P-wave (km/s) = 4.74576 5.53812 5.15718
#
# Compressibility (1/GPa) = 0.03750430
#
# Stress axis : x y z
#
# Youngs Moduli (GPa) = 85.88331 45.86475 87.20049
#
# Poissons Ratio (x) = -0.12498 0.37882
# Poissons Ratio (y) = -0.23403 0.18190
# Poissons Ratio (z) = 0.37310 0.09567
#
# Static dielectric constant tensor:
#      x y z
#    x 2.081000 0.000000 -0.009770 
#    y 0.000000 2.149660 0.000000 
#    z -0.009770 0.000000 1.870820 
# 
# From -- ./inp_files/281513.got.cif
#   From: 2010.05.17/outbox.cif.g08.bks.cpg/sg15_141_cif.got.tgz:281513.got - 2010.06.03 18:47:42.
