data_PCOD9255846
_publ_section_title
;
Structure prediction by ZEFSAII (Michael W. Deem and Ramdas Pophale) SiO2 
 PCOD9255846
Probable space group: C 2/C
;
_chemical_formula_sum "Si O2"
_cell_formula_units_Z 64
_cell_length_a 12.742557
_cell_length_b 19.334084
_cell_length_c 22.875356
_cell_angle_alpha 90.000000
_cell_angle_beta 43.486366
_cell_angle_gamma 90.000000
_cell_volume 3878.388617
_symmetry_space_group_name_H-M "C 2/C"
_symmetry_group_IT_number 15
_symmetry_cell_setting 'monoclinic'
loop_
_space_group_symop_operation_xyz
x,y,z
-x,y,1/2-z
-x,-y,-z
x,-y,1/2+z
1/2+x,1/2+y,z
1/2-x,1/2+y,1/2-z
1/2-x,1/2-y,-z
1/2+x,1/2-y,1/2+z
loop_
_atom_site_type_symbol
_atom_site_label
_atom_site_fract_x
_atom_site_fract_y
_atom_site_fract_z
Si Si1 0.901363 0.245360 0.521773
Si Si2 0.500911 0.984014 0.092021
Si Si3 0.080983 0.605202 0.451678
Si Si4 0.141554 0.987826 0.521990
Si Si5 0.571183 0.602367 0.935719
Si Si6 0.955462 0.251167 0.361191
Si Si7 0.387281 0.108806 0.742381
Si Si8 0.937399 0.903042 0.836492
O O1 0.954352 0.313874 0.534193
O O2 0.968499 0.177803 0.524471
O O3 0.944089 0.251886 0.436122
O O4 0.716034 0.237123 0.594881
O O5 0.417091 0.945498 0.178516
O O6 0.439511 0.058960 0.097542
O O7 0.488763 0.934084 0.040165
O O8 0.680241 0.990935 0.034385
O O9 0.256568 0.604562 0.400596
O O10 0.123139 0.940939 0.471827
O O11 0.049598 0.951321 0.612181
O O12 0.066655 0.061275 0.538163
O O13 0.715044 0.607361 0.834451
O O14 0.002649 0.174089 0.321920
O O15 0.060993 0.314069 0.298086
O O16 0.500000 0.089920 0.750000
O O17 0.000000 0.930981 0.750000
#
# Coordination Sequence:
#
# PCOD9255846 Si02
#       8
#     8   8   8   8   8   8   8   8
#     4  10  17  33  51  77 103 138 168 213 268 318
#     4  10  19  37  53  76 105 140 183 215 259 314
#     4   9  20  33  55  74 103 139 174 216 264 317
#     4  10  21  38  52  74 107 150 177 216 262 318
#     4  11  22  34  54  77 111 142 181 216 268 316
#     4  10  18  30  51  77 110 129 161 218 274 316
#     4  12  20  31  53  85 107 138 174 222 266 319
#     4  10  20  32  50  80 111 134 167 216 271 317
#
# _framework density 16.501698999999999
#
# number of rings (size 3 to 8) (size 9 to 14) (size 15 to 20)
#    0.000    1.750    5.000    0.375    3.500    0.000 
#    0.000    0.625    0.000    0.000    0.000    0.875 
#    0.000    0.000    0.000    0.000    0.000    0.000 
#
# Total GULP energy -178461.614630 kJ/mol
# GULP energy per Si atom -5576.925457 kJ/mol
# Density = 1.646414 g / cm^3
# Si number density = 16.501699 Si / 1000 Ang^3
#
#
#
# Elastic Constant Matrix: (Units=GPa)
#
#
# Indices 1 2 3 4 5 6 
#
# 1 35.7841 43.0668 10.3969 -0.0002 11.3646 0.0002
# 2 43.0668 137.9767 39.1789 -0.0001 14.1941 0.0001
# 3 10.3969 39.1789 82.7054 0.0003 17.5099 -0.0002
# 4 -0.0002 -0.0001 0.0003 21.5824 -0.0001 6.9989
# 5 11.3646 14.1941 17.5099 -0.0001 19.3384 0.0001
# 6 0.0002 0.0001 -0.0002 6.9989 0.0001 29.3459
#
#
#
# Elastic Compliance Matrix: (Units=1/GPa)
#
#
# Indices 1 2 3 4 5 6 
#
# 1 0.053077 -0.015708 0.006101 0.000000 -0.025186 0.000000
# 2 -0.015708 0.013182 -0.005166 0.000000 0.004234 0.000000
# 3 0.006101 -0.005166 0.016983 0.000000 -0.015171 0.000000
# 4 0.000000 0.000000 0.000000 0.050218 0.000001 -0.011977
# 5 -0.025186 0.004234 -0.015171 0.000001 0.077141 0.000000
# 6 0.000000 0.000000 0.000000 -0.011977 0.000000 0.036933
#
#
# Mechanical properties :
#
#
# Convention : Reuss Voigt Hill
#
# Bulk Modulus (GPa) = 18.62340 49.08351 33.85346
# Shear Modulus (GPa) = 16.95033 24.97492 20.96262
#
# Velocity S-wave (km/s) = 3.20845 3.89456 3.56804
# Velocity P-wave (km/s) = 5.00358 7.07337 6.12652
#
# Compressibility (1/GPa) = 0.05369588
#
# Stress axis : x y z
#
# Youngs Moduli (GPa) = 18.84055 75.86017 58.88112
#
# Poissons Ratio (x) = 1.19165 -0.35926
# Poissons Ratio (y) = 0.29596 0.30419
# Poissons Ratio (z) = -0.11495 0.39191
#
# Static dielectric constant tensor:
#      x y z
#    x 1.531830 0.000000 0.012110 
#    y 0.000000 1.569860 0.000000 
#    z 0.012110 0.000000 1.575820 
# 
# From -- ./inp_files/239774.got.cif
#   From: 2010.05.17/outbox.cif.g08.bks.cpg/sg15_120_cif.got.tgz:239774.got - 2010.06.03 18:47:42.
