data_PCOD9255982
_publ_section_title
;
Structure prediction by ZEFSAII (Michael W. Deem and Ramdas Pophale) SiO2 
 PCOD9255982
Probable space group: C 2/C
;
_chemical_formula_sum "Si O2"
_cell_formula_units_Z 64
_cell_length_a 32.520631
_cell_length_b 19.581048
_cell_length_c 16.697849
_cell_angle_alpha 90.000000
_cell_angle_beta 15.102526
_cell_angle_gamma 90.000000
_cell_volume 2770.394549
_symmetry_space_group_name_H-M "C 2/C"
_symmetry_group_IT_number 15
_symmetry_cell_setting 'monoclinic'
loop_
_space_group_symop_operation_xyz
x,y,z
-x,y,1/2-z
-x,-y,-z
x,-y,1/2+z
1/2+x,1/2+y,z
1/2-x,1/2+y,1/2-z
1/2-x,1/2-y,-z
1/2+x,1/2-y,1/2+z
loop_
_atom_site_type_symbol
_atom_site_label
_atom_site_fract_x
_atom_site_fract_y
_atom_site_fract_z
Si Si1 0.859599 0.549277 0.559209
Si Si2 0.060396 0.386941 0.352105
Si Si3 0.764454 0.492779 0.900846
Si Si4 0.408015 0.687858 0.845117
Si Si5 0.932966 0.336841 0.740477
Si Si6 0.947617 0.703176 0.938436
Si Si7 0.589854 0.614017 0.821932
Si Si8 0.077645 0.867271 0.516653
O O1 0.760002 0.510416 0.814735
O O2 0.742298 0.591851 0.722498
O O3 0.968670 0.603680 0.401396
O O4 0.000000 0.507453 0.250000
O O5 0.191271 0.439980 0.132747
O O6 0.909584 0.438327 0.633079
O O7 0.030913 0.329750 0.474828
O O8 0.074865 0.341464 0.247192
O O9 0.623783 0.455660 0.210939
O O10 0.500000 0.661003 0.750000
O O11 0.430593 0.769181 0.796522
O O12 0.460484 0.660817 0.658865
O O13 0.222710 0.675794 0.211234
O O14 0.757614 0.354682 0.038876
O O15 0.930747 0.785132 0.979484
O O16 0.000000 0.692691 0.750000
O O17 0.507735 0.606752 0.063214
O O18 0.000000 0.878280 0.750000
#
# Coordination Sequence:
#
# PCOD9255982 Si02
#       8
#     8   8   8   8   8   8   8   8
#     4  11  20  36  63  97 121 159 222 278 313 374
#     4   9  18  34  57  94 123 153 204 276 330 364
#     4   9  20  35  59  94 124 155 216 271 314 378
#     4  12  22  36  60  94 130 171 217 262 317 395
#     4  10  17  33  63  91 117 155 219 271 318 372
#     4  11  21  36  58  92 131 162 206 271 329 374
#     4  11  20  40  63  90 127 175 215 263 326 381
#     4  11  24  40  62  93 131 174 216 261 331 397
#
# _framework density 23.101403000000001
#
# number of rings (size 3 to 8) (size 9 to 14) (size 15 to 20)
#    0.000    1.500    5.000    3.000    0.000    0.500 
#    0.000    3.750    0.000    9.000    0.000    0.000 
#    0.000    0.000    0.000    0.000    0.000    0.000 
#
# Total GULP energy -178258.370583 kJ/mol
# GULP energy per Si atom -5570.574081 kJ/mol
# Density = 2.304882 g / cm^3
# Si number density = 23.101403 Si / 1000 Ang^3
#
#
#
# Elastic Constant Matrix: (Units=GPa)
#
#
# Indices 1 2 3 4 5 6 
#
# 1 157.2907 51.8535 31.1291 -0.0019 32.2058 -0.0004
# 2 51.8535 67.5678 38.8269 -0.0016 11.8584 -0.0009
# 3 31.1291 38.8269 45.3979 -0.0210 18.3553 -0.0091
# 4 -0.0019 -0.0016 -0.0210 138.7718 0.0029 66.3437
# 5 32.2058 11.8584 18.3553 0.0029 42.1284 0.0012
# 6 -0.0004 -0.0009 -0.0091 66.3437 0.0012 62.2401
#
#
#
# Elastic Compliance Matrix: (Units=1/GPa)
#
#
# Indices 1 2 3 4 5 6 
#
# 1 0.009734 -0.007860 0.002624 0.000001 -0.006372 0.000000
# 2 -0.007860 0.035813 -0.028639 -0.000005 0.008406 0.000001
# 3 0.002624 -0.028639 0.051313 0.000009 -0.016302 -0.000002
# 4 0.000001 -0.000005 0.000009 0.014694 -0.000004 -0.015663
# 5 -0.006372 0.008406 -0.016302 -0.000004 0.033345 0.000001
# 6 0.000000 0.000001 -0.000002 -0.015663 0.000001 0.032763
#
#
# Mechanical properties :
#
#
# Convention : Reuss Voigt Hill
#
# Bulk Modulus (GPa) = 34.35118 57.09725 45.72422
# Shear Modulus (GPa) = 19.59896 58.52453 39.06175
#
# Velocity S-wave (km/s) = 2.91587 5.03873 4.11649
# Velocity P-wave (km/s) = 5.12235 7.65645 6.51382
#
# Compressibility (1/GPa) = 0.02911108
#
# Stress axis : x y z
#
# Youngs Moduli (GPa) = 102.73047 27.92249 19.48824
#
# Poissons Ratio (x) = 0.21946 -0.05113
# Poissons Ratio (y) = 0.80743 0.55812
# Poissons Ratio (z) = -0.26955 0.79967
#
# Static dielectric constant tensor:
#      x y z
#    x 1.917140 0.000000 0.055320 
#    y 0.000000 1.865160 0.000000 
#    z 0.055320 0.000000 2.005910 
# 
# From -- ./inp_files/183101.got.cif
#   From: 2010.05.17/outbox.cif.g08.bks.cpg/sg15_92_cif.got.tgz:183101.got - 2010.06.03 18:47:42.
