data_PCOD9255242
_publ_section_title
;
Structure prediction by ZEFSAII (Michael W. Deem and Ramdas Pophale) SiO2 
 PCOD9255242
Probable space group: C 2/C
;
_chemical_formula_sum "Si O2"
_cell_formula_units_Z 64
_cell_length_a 11.226830
_cell_length_b 18.749260
_cell_length_c 20.748982
_cell_angle_alpha 90.000000
_cell_angle_beta 130.779073
_cell_angle_gamma 90.000000
_cell_volume 3307.257308
_symmetry_space_group_name_H-M "C 2/C"
_symmetry_group_IT_number 15
_symmetry_cell_setting 'monoclinic'
loop_
_space_group_symop_operation_xyz
x,y,z
-x,y,1/2-z
-x,-y,-z
x,-y,1/2+z
1/2+x,1/2+y,z
1/2-x,1/2+y,1/2-z
1/2-x,1/2-y,-z
1/2+x,1/2-y,1/2+z
loop_
_atom_site_type_symbol
_atom_site_label
_atom_site_fract_x
_atom_site_fract_y
_atom_site_fract_z
Si Si1 0.339041 0.553670 0.654904
Si Si2 0.031158 0.500593 0.351406
Si Si3 0.082692 0.282831 0.463200
Si Si4 0.991501 0.131922 0.036516
Si Si5 0.710011 0.931966 0.526330
Si Si6 0.656016 0.136736 0.701450
Si Si7 0.053708 0.093453 0.624614
Si Si8 0.749281 0.452144 0.687639
O O1 0.500000 0.540673 0.750000
O O2 0.269271 0.478746 0.606506
O O3 0.228042 0.599445 0.662448
O O4 0.398201 0.597428 0.613105
O O5 0.106522 0.486714 0.447087
O O6 0.159806 0.523315 0.344933
O O7 0.957636 0.423182 0.308313
O O8 0.882542 0.552838 0.289407
O O9 0.250000 0.250000 0.500000
O O10 0.016994 0.216267 0.478924
O O11 0.115375 0.359242 0.507677
O O12 0.959207 0.300335 0.361960
O O13 0.849172 0.097384 0.028339
O O14 0.146845 0.115047 0.132216
O O15 0.985406 0.097309 0.964102
O O16 0.806623 0.146223 0.801430
O O17 0.129570 0.015336 0.663124
#
# Coordination Sequence:
#
# PCOD9255242 Si02
#       8
#     8   8   8   8   8   8   8   8
#     4  10  20  34  58  85 111 147 188 235 282 332
#     4   9  18  29  51  82 110 137 176 235 287 315
#     4   9  21  37  53  78 111 154 186 217 277 341
#     4  11  19  33  59  84 113 145 186 234 275 330
#     4  10  18  35  56  83 112 147 182 231 284 329
#     4   9  20  37  55  77 115 150 185 229 277 339
#     4  10  18  32  59  87 106 141 190 234 287 321
#     4  10  17  29  52  87 115 129 178 242 282 324
#
# _framework density 19.351382999999998
#
# number of rings (size 3 to 8) (size 9 to 14) (size 15 to 20)
#    0.000    2.250    2.500    1.125    0.000    2.000 
#    0.000    3.125   11.000    0.000    0.000    0.000 
#    0.000    0.000    0.000    0.000    0.000    0.000 
#
# Total GULP energy -178214.394442 kJ/mol
# GULP energy per Si atom -5569.199826 kJ/mol
# Density = 1.930734 g / cm^3
# Si number density = 19.351383 Si / 1000 Ang^3
#
#
#
# Elastic Constant Matrix: (Units=GPa)
#
#
# Indices 1 2 3 4 5 6 
#
# 1 59.4729 16.8437 23.6034 0.0000 3.6152 0.0000
# 2 16.8437 47.3300 36.0555 0.0000 9.2538 0.0000
# 3 23.6034 36.0555 70.5908 0.0000 12.7778 0.0000
# 4 0.0000 0.0000 0.0000 35.5154 0.0000 11.1383
# 5 3.6152 9.2538 12.7778 0.0000 23.3418 0.0000
# 6 0.0000 0.0000 0.0000 11.1383 0.0000 9.3232
#
#
#
# Elastic Compliance Matrix: (Units=1/GPa)
#
#
# Indices 1 2 3 4 5 6 
#
# 1 0.019713 -0.003364 -0.005064 0.000000 0.001052 0.000000
# 2 -0.003364 0.035588 -0.016198 0.000000 -0.004721 0.000000
# 3 -0.005064 -0.016198 0.025339 0.000000 -0.006665 0.000000
# 4 0.000000 0.000000 0.000000 0.045028 0.000000 -0.053794
# 5 0.001052 -0.004721 -0.006665 0.000000 0.048199 0.000000
# 6 0.000000 0.000000 0.000000 -0.053794 0.000000 0.171527
#
#
# Mechanical properties :
#
#
# Convention : Reuss Voigt Hill
#
# Bulk Modulus (GPa) = 31.85819 36.71100 34.28459
# Shear Modulus (GPa) = 12.34245 20.36216 16.35230
#
# Velocity S-wave (km/s) = 2.52822 3.24733 2.91008
# Velocity P-wave (km/s) = 5.00213 5.75084 5.38950
#
# Compressibility (1/GPa) = 0.03138910
#
# Stress axis : x y z
#
# Youngs Moduli (GPa) = 50.72862 28.09971 39.46460
#
# Poissons Ratio (x) = 0.09451 0.19984
# Poissons Ratio (y) = 0.17063 0.63924
# Poissons Ratio (z) = 0.25688 0.45515
#
# Static dielectric constant tensor:
#      x y z
#    x 1.744110 0.000000 0.019070 
#    y 0.000000 1.682500 0.000000 
#    z 0.019070 0.000000 1.741500 
# 
# From -- ./inp_files/240266.got.cif
#   From: 2010.05.17/outbox.cif.g08.bks.cpg/sg15_121_cif.got.tgz:240266.got - 2010.06.03 18:47:42.
