data_PCOD9255999
_publ_section_title
;
Structure prediction by ZEFSAII (Michael W. Deem and Ramdas Pophale) SiO2 
 PCOD9255999
Probable space group: C 2/C
;
_chemical_formula_sum "Si O2"
_cell_formula_units_Z 48
_cell_length_a 24.214076
_cell_length_b 11.926175
_cell_length_c 8.445037
_cell_angle_alpha 90.000000
_cell_angle_beta 52.246146
_cell_angle_gamma 90.000000
_cell_volume 1928.208652
_symmetry_space_group_name_H-M "C 2/C"
_symmetry_group_IT_number 15
_symmetry_cell_setting 'monoclinic'
loop_
_space_group_symop_operation_xyz
x,y,z
-x,y,1/2-z
-x,-y,-z
x,-y,1/2+z
1/2+x,1/2+y,z
1/2-x,1/2+y,1/2-z
1/2-x,1/2-y,-z
1/2+x,1/2-y,1/2+z
loop_
_atom_site_type_symbol
_atom_site_label
_atom_site_fract_x
_atom_site_fract_y
_atom_site_fract_z
Si Si1 0.181150 0.712340 0.021384
Si Si2 0.544859 0.851774 0.932127
Si Si3 0.905576 0.359153 0.297914
Si Si4 0.883488 0.097709 0.394443
Si Si5 0.416778 0.615097 0.701776
Si Si6 0.233401 0.372073 0.097626
O O1 0.117696 0.638567 0.208977
O O2 0.138702 0.829488 0.077613
O O3 0.250000 0.750000 0.000000
O O4 0.206738 0.651428 0.820644
O O5 0.531015 0.718506 0.918386
O O6 0.465290 0.897506 0.068888
O O7 0.568763 0.876952 0.069020
O O8 0.896794 0.223663 0.311272
O O9 0.831249 0.412572 0.391727
O O10 0.884669 0.101212 0.582473
O O11 0.806009 0.063305 0.472206
O O12 0.936358 0.005196 0.234937
O O13 0.250000 0.250000 0.000000
#
# Coordination Sequence:
#
# PCOD9255999 Si02
#       6
#     8   8   8   8   8   8
#     4  10  17  34  49  68  98 128 168 206 251 289
#     4   8  18  33  50  71 101 134 163 203 255 291
#     4   9  17  33  50  72 104 128 171 204 241 297
#     4  10  19  32  46  73 105 134 165 201 248 294
#     4   9  20  31  47  71 100 134 164 198 249 298
#     4  10  19  30  50  72  98 131 171 212 238 290
#
# _framework density 24.893571000000001
#
# number of rings (size 3 to 8) (size 9 to 14) (size 15 to 20)
#    1.000    1.667    1.667    1.000    4.667    1.333 
#    0.000    0.000    0.000    0.000    0.000    1.167 
#    0.000    0.000    0.000    0.000    0.000    0.000 
#
# Total GULP energy -133684.030456 kJ/mol
# GULP energy per Si atom -5570.167936 kJ/mol
# Density = 2.483691 g / cm^3
# Si number density = 24.893571 Si / 1000 Ang^3
#
#
#
# Elastic Constant Matrix: (Units=GPa)
#
#
# Indices 1 2 3 4 5 6 
#
# 1 69.5585 -12.5302 29.2332 0.0000 -26.4716 0.0000
# 2 -12.5302 74.0330 13.3274 0.0000 7.1250 0.0000
# 3 29.2332 13.3274 131.1590 0.0000 -24.2047 0.0000
# 4 0.0000 0.0000 0.0000 -1.2011 0.0000 7.6744
# 5 -26.4716 7.1250 -24.2047 0.0000 24.9054 0.0000
# 6 0.0000 0.0000 0.0000 7.6744 0.0000 -1.0713
#
#
#
# Elastic Compliance Matrix: (Units=1/GPa)
#
#
# Indices 1 2 3 4 5 6 
#
# 1 0.024483 0.002017 -0.001177 0.000000 0.024301 0.000000
# 2 0.002017 0.014832 -0.002856 0.000000 -0.004876 0.000000
# 3 -0.001177 -0.002856 0.009866 0.000000 0.009155 0.000000
# 4 0.000000 0.000000 0.000000 0.018595 0.000000 0.133214
# 5 0.024301 -0.004876 0.009155 0.000000 0.076274 0.000000
# 6 0.000000 0.000000 0.000000 0.133214 0.000000 0.020849
#
#
# Mechanical properties :
#
#
# Convention : Reuss Voigt Hill
#
# Bulk Modulus (GPa) = 22.14935 37.20125 29.67530
# Shear Modulus (GPa) = 27.17667 20.84130 24.00898
#
# Velocity S-wave (km/s) = 3.30769 2.89661 3.10895
# Velocity P-wave (km/s) = 4.84817 5.11504 4.98339
#
# Compressibility (1/GPa) = 0.04514805
#
# Stress axis : x y z
#
# Youngs Moduli (GPa) = 40.84530 67.42048 101.35388
#
# Poissons Ratio (x) = -0.13597 0.11930
# Poissons Ratio (y) = -0.08238 0.28951
# Poissons Ratio (z) = 0.04808 0.19258
#
# Static dielectric constant tensor:
#      x y z
#    x 1.976590 0.000000 -0.066020 
#    y 0.000000 2.013740 0.000000 
#    z -0.066020 0.000000 1.979780 
# 
# From -- ./inp_files/55829.got.cif
#   From: 2010.05.17/outbox.cif.g08.bks.cpg/sg15_28_cif.got.tgz:55829.got - 2010.06.03 18:47:42.
