data_PCOD9255668
_publ_section_title
;
Structure prediction by ZEFSAII (Michael W. Deem and Ramdas Pophale) SiO2 
 PCOD9255668
Probable space group: C 2/C
;
_chemical_formula_sum "Si O2"
_cell_formula_units_Z 52
_cell_length_a 9.800676
_cell_length_b 15.656826
_cell_length_c 22.887613
_cell_angle_alpha 90.000000
_cell_angle_beta 38.280659
_cell_angle_gamma 90.000000
_cell_volume 2175.762278
_symmetry_space_group_name_H-M "C 2/C"
_symmetry_group_IT_number 15
_symmetry_cell_setting 'monoclinic'
loop_
_space_group_symop_operation_xyz
x,y,z
-x,y,1/2-z
-x,-y,-z
x,-y,1/2+z
1/2+x,1/2+y,z
1/2-x,1/2+y,1/2-z
1/2-x,1/2-y,-z
1/2+x,1/2-y,1/2+z
loop_
_atom_site_type_symbol
_atom_site_label
_atom_site_fract_x
_atom_site_fract_y
_atom_site_fract_z
Si Si1 0.500000 0.020372 0.750000
Si Si2 0.325126 0.570026 0.079194
Si Si3 0.056694 0.775064 0.478323
Si Si4 0.193553 0.898649 0.267790
Si Si5 0.283461 0.727319 0.290449
Si Si6 0.918537 0.363052 0.440441
Si Si7 0.007131 0.928668 0.646814
O O1 0.701237 0.076065 0.704820
O O2 0.418446 0.966075 0.833115
O O3 0.379074 0.585895 0.128810
O O4 0.500000 0.500000 0.000000
O O5 0.373202 0.654296 0.026982
O O6 0.118274 0.721771 0.400595
O O7 0.984224 0.714987 0.555355
O O8 0.266077 0.825300 0.438457
O O9 0.175678 0.795793 0.281514
O O10 0.377955 0.911199 0.156247
O O11 0.014119 0.973994 0.322824
O O12 0.500000 0.764815 0.250000
O O13 0.386451 0.641130 0.228324
O O14 0.754970 0.409015 0.541218
#
# Coordination Sequence:
#
# PCOD9255668 Si02
#       7
#     4   8   8   8   8   8   8
#     4  10  18  30  50  78 114 140 176 238 286 314
#     4  10  19  31  50  82 114 141 183 230 282 324
#     4  10  18  30  54  79 104 139 186 229 270 323
#     4  11  19  32  54  81 110 145 180 227 283 327
#     4  12  19  34  57  83 113 143 184 232 274 325
#     4  10  17  32  52  77 107 139 183 232 268 320
#     4  10  22  32  52  88 113 141 183 236 278 325
#
# _framework density 23.89967
#
# number of rings (size 3 to 8) (size 9 to 14) (size 15 to 20)
#    0.000    1.538    3.846    5.538    0.000    0.000 
#    0.000    0.769    0.000   10.154    8.000    0.000 
#    0.000    0.000    0.000    0.000    0.000    0.000 
#
# Total GULP energy -144860.734356 kJ/mol
# GULP energy per Si atom -5571.566706 kJ/mol
# Density = 2.384527 g / cm^3
# Si number density = 23.899670 Si / 1000 Ang^3
#
#
#
# Elastic Constant Matrix: (Units=GPa)
#
#
# Indices 1 2 3 4 5 6 
#
# 1 15.4968 15.9841 13.0372 0.0002 12.9945 -0.0004
# 2 15.9841 88.4437 50.9705 -0.0013 10.4079 0.0002
# 3 13.0372 50.9705 146.8943 -0.0008 25.9826 -0.0011
# 4 0.0002 -0.0013 -0.0008 46.7882 0.0004 5.0782
# 5 12.9945 10.4079 25.9826 0.0004 15.8688 0.0005
# 6 -0.0004 0.0002 -0.0011 5.0782 0.0005 15.3691
#
#
#
# Elastic Compliance Matrix: (Units=1/GPa)
#
#
# Indices 1 2 3 4 5 6 
#
# 1 0.363805 -0.052264 0.045718 -0.000002 -0.338486 0.000024
# 2 -0.052264 0.021675 -0.011174 0.000001 0.046877 -0.000004
# 3 0.045718 -0.011174 0.016826 0.000000 -0.057657 0.000004
# 4 -0.000002 0.000001 0.000000 0.022168 0.000001 -0.007325
# 5 -0.338486 0.046877 -0.057657 0.000001 0.403852 -0.000026
# 6 0.000024 -0.000004 0.000004 -0.007325 -0.000026 0.067486
#
#
# Mechanical properties :
#
#
# Convention : Reuss Voigt Hill
#
# Bulk Modulus (GPa) = 2.72580 45.64649 24.18614
# Shear Modulus (GPa) = 4.74590 26.99477 15.87034
#
# Velocity S-wave (km/s) = 1.41070 3.36446 2.57969
# Velocity P-wave (km/s) = 1.94844 5.85093 4.36061
#
# Compressibility (1/GPa) = 0.36686521
#
# Stress axis : x y z
#
# Youngs Moduli (GPa) = 2.74873 46.13532 59.43273
#
# Poissons Ratio (x) = 2.41121 -2.71712
# Poissons Ratio (y) = 0.14366 0.66411
# Poissons Ratio (z) = -0.12567 0.51552
#
# Static dielectric constant tensor:
#      x y z
#    x 2.027900 0.000000 -0.104520 
#    y 0.000000 2.042790 0.000000 
#    z -0.104520 0.000000 1.998370 
# 
# From -- ./inp_files/153873.got.cif
#   From: 2010.05.17/outbox.cif.g08.bks.cpg/sg15_77_cif.got.tgz:153873.got - 2010.06.03 18:47:42.
