data_PCOD9255313
_publ_section_title
;
Structure prediction by ZEFSAII (Michael W. Deem and Ramdas Pophale) SiO2 
 PCOD9255313
Probable space group: C 2/C
;
_chemical_formula_sum "Si O2"
_cell_formula_units_Z 64
_cell_length_a 22.533708
_cell_length_b 22.457096
_cell_length_c 18.040049
_cell_angle_alpha 90.000000
_cell_angle_beta 155.856166
_cell_angle_gamma 90.000000
_cell_volume 3734.029589
_symmetry_space_group_name_H-M "C 2/C"
_symmetry_group_IT_number 15
_symmetry_cell_setting 'monoclinic'
loop_
_space_group_symop_operation_xyz
x,y,z
-x,y,1/2-z
-x,-y,-z
x,-y,1/2+z
1/2+x,1/2+y,z
1/2-x,1/2+y,1/2-z
1/2-x,1/2-y,-z
1/2+x,1/2-y,1/2+z
loop_
_atom_site_type_symbol
_atom_site_label
_atom_site_fract_x
_atom_site_fract_y
_atom_site_fract_z
Si Si1 0.008630 0.813706 0.170953
Si Si2 0.783251 0.017644 0.144031
Si Si3 0.391247 0.561486 0.954077
Si Si4 0.744570 0.108616 0.360459
Si Si5 0.504055 0.175679 0.166363
Si Si6 0.167219 0.985560 0.962000
Si Si7 0.216336 0.881947 0.310417
Si Si8 0.639870 0.968901 0.623217
O O1 0.976102 0.744932 0.118205
O O2 0.000000 0.821076 0.250000
O O3 0.155551 0.832350 0.297264
O O4 0.895447 0.861643 0.011252
O O5 0.651833 0.035811 0.048522
O O6 0.938650 0.044786 0.347636
O O7 0.759469 0.032973 0.031092
O O8 0.799377 0.946018 0.168194
O O9 0.360570 0.611841 0.857564
O O10 0.285596 0.508057 0.805549
O O11 0.339606 0.564137 0.981024
O O12 0.658682 0.155274 0.312354
O O13 0.766415 0.046692 0.429810
O O14 0.659796 0.092162 0.189406
O O15 0.500000 0.167198 0.250000
O O16 0.384674 0.133503 0.992818
O O17 0.000000 0.999352 0.750000
O O18 0.500000 0.000000 0.500000
#
# Coordination Sequence:
#
# PCOD9255313 Si02
#       8
#     8   8   8   8   8   8   8   8
#     4  11  21  33  47  65  89 121 164 201 222 257
#     4  10  17  30  49  70  93 122 154 185 227 280
#     4   9  18  31  47  69  91 118 155 191 227 276
#     4  11  19  31  47  64  91 127 156 185 233 272
#     4  11  23  33  44  65  92 123 162 199 226 259
#     4   9  17  29  49  72  94 118 153 193 228 280
#     4  11  19  32  49  65  93 127 153 187 234 271
#     4  10  19  29  43  67  96 122 153 189 226 281
#
# _framework density 17.139661
#
# number of rings (size 3 to 8) (size 9 to 14) (size 15 to 20)
#    0.000    1.750    0.000    9.375    0.000    2.000 
#    0.000    1.875    0.000    0.000    0.000    0.000 
#    0.000   27.000    0.000    0.000    0.000    0.000 
#
# Total GULP energy -178332.999213 kJ/mol
# GULP energy per Si atom -5572.906225 kJ/mol
# Density = 1.710065 g / cm^3
# Si number density = 17.139661 Si / 1000 Ang^3
#
#
#
# Elastic Constant Matrix: (Units=GPa)
#
#
# Indices 1 2 3 4 5 6 
#
# 1 129.6991 13.1229 11.4201 0.0000 -7.8189 0.0000
# 2 13.1229 36.6090 8.5092 0.0000 -10.4874 0.0000
# 3 11.4201 8.5092 31.7919 0.0000 -2.7183 0.0000
# 4 0.0000 0.0000 0.0000 11.7489 0.0000 2.3969
# 5 -7.8189 -10.4874 -2.7183 0.0000 24.8998 0.0000
# 6 0.0000 0.0000 0.0000 2.3969 0.0000 18.8419
#
#
#
# Elastic Compliance Matrix: (Units=1/GPa)
#
#
# Indices 1 2 3 4 5 6 
#
# 1 0.008202 -0.001981 -0.002289 0.000000 0.001491 0.000000
# 2 -0.001981 0.033298 -0.007121 0.000000 0.012625 0.000000
# 3 -0.002289 -0.007121 0.034184 0.000000 0.000014 0.000000
# 4 0.000000 0.000000 0.000000 0.087382 0.000000 -0.011116
# 5 0.001491 0.012625 0.000014 0.000000 0.045948 0.000000
# 6 0.000000 0.000000 0.000000 -0.011116 0.000000 0.054487
#
#
# Mechanical properties :
#
#
# Convention : Reuss Voigt Hill
#
# Bulk Modulus (GPa) = 18.90283 29.35608 24.12945
# Shear Modulus (GPa) = 16.45187 22.10129 19.27658
#
# Velocity S-wave (km/s) = 3.10154 3.59483 3.35726
# Velocity P-wave (km/s) = 4.88659 5.86474 5.39787
#
# Compressibility (1/GPa) = 0.05290213
#
# Stress axis : x y z
#
# Youngs Moduli (GPa) = 121.92147 30.03213 29.25358
#
# Poissons Ratio (x) = 0.05949 0.06695
# Poissons Ratio (y) = 0.24152 0.20832
# Poissons Ratio (z) = 0.27902 0.21387
#
# Static dielectric constant tensor:
#      x y z
#    x 1.657030 0.000000 -0.016290 
#    y 0.000000 1.546460 0.000000 
#    z -0.016290 0.000000 1.615080 
# 
# From -- ./inp_files/216510.got.cif
#   From: 2010.05.17/outbox.cif.g08.bks.cpg/sg15_109_cif.got.tgz:216510.got - 2010.06.03 18:47:42.
