data_PCOD9255949
_publ_section_title
;
Structure prediction by ZEFSAII (Michael W. Deem and Ramdas Pophale) SiO2 
 PCOD9255949
Probable space group: C 2/C
;
_chemical_formula_sum "Si O2"
_cell_formula_units_Z 64
_cell_length_a 15.530058
_cell_length_b 11.491734
_cell_length_c 17.717337
_cell_angle_alpha 90.000000
_cell_angle_beta 120.706680
_cell_angle_gamma 90.000000
_cell_volume 2718.634747
_symmetry_space_group_name_H-M "C 2/C"
_symmetry_group_IT_number 15
_symmetry_cell_setting 'monoclinic'
loop_
_space_group_symop_operation_xyz
x,y,z
-x,y,1/2-z
-x,-y,-z
x,-y,1/2+z
1/2+x,1/2+y,z
1/2-x,1/2+y,1/2-z
1/2-x,1/2-y,-z
1/2+x,1/2-y,1/2+z
loop_
_atom_site_type_symbol
_atom_site_label
_atom_site_fract_x
_atom_site_fract_y
_atom_site_fract_z
Si Si1 0.228882 0.819472 0.705456
Si Si2 0.112351 0.396503 0.833030
Si Si3 0.568673 0.992411 0.457747
Si Si4 0.739914 0.610197 0.596375
Si Si5 0.251406 0.129842 0.378355
Si Si6 0.589816 0.441476 0.895339
Si Si7 0.532435 0.789343 0.177170
Si Si8 0.074589 0.025050 0.602828
O O1 0.311807 0.807266 0.676470
O O2 0.281117 0.867554 0.804582
O O3 0.149232 0.724601 0.703681
O O4 0.151430 0.918110 0.643151
O O5 0.099746 0.398119 0.918987
O O6 0.170693 0.521128 0.845129
O O7 0.000000 0.390915 0.750000
O O8 0.666007 0.929017 0.533610
O O9 0.509577 0.906075 0.376551
O O10 0.500000 0.000000 0.500000
O O11 0.773116 0.742002 0.599580
O O12 0.676085 0.557480 0.497981
O O13 0.652883 0.625754 0.620815
O O14 0.146737 0.062058 0.341831
O O15 0.527901 0.322514 0.881628
O O16 0.504421 0.538013 0.865578
O O17 0.500000 0.787005 0.250000
O O18 0.000000 0.000000 0.500000
#
# Coordination Sequence:
#
# PCOD9255949 Si02
#       8
#     8   8   8   8   8   8   8   8
#     4  10  23  38  62  97 127 164 207 267 322 379
#     4  11  23  41  62  89 131 171 210 259 334 387
#     4  12  26  41  60  90 127 172 216 268 320 382
#     4  10  19  35  58  90 121 163 204 257 316 375
#     4  12  21  35  57  92 128 154 209 265 309 367
#     4  10  17  33  58  91 123 153 195 263 316 367
#     4  11  21  38  66  97 123 158 218 272 314 374
#     4   8  18  34  56  87 126 158 195 244 322 377
#
# _framework density 23.541228
#
# number of rings (size 3 to 8) (size 9 to 14) (size 15 to 20)
#    0.000    1.500    3.750    2.250    1.750    0.000 
#    0.000    0.625    0.000    1.500    6.500    0.000 
#    0.000    0.000    0.000    0.000    0.000    0.000 
#
# Total GULP energy -178384.698585 kJ/mol
# GULP energy per Si atom -5574.521831 kJ/mol
# Density = 2.348765 g / cm^3
# Si number density = 23.541228 Si / 1000 Ang^3
#
#
#
# Elastic Constant Matrix: (Units=GPa)
#
#
# Indices 1 2 3 4 5 6 
#
# 1 216.8652 25.5545 33.1508 0.0000 -3.2361 0.0000
# 2 25.5545 5.4597 8.5511 0.0000 0.8754 0.0000
# 3 33.1508 8.5511 81.9838 0.0000 8.9506 0.0000
# 4 0.0000 0.0000 0.0000 16.1866 0.0000 0.3587
# 5 -3.2361 0.8754 8.9506 0.0000 43.6683 0.0000
# 6 0.0000 0.0000 0.0000 0.3587 0.0000 26.5778
#
#
#
# Elastic Compliance Matrix: (Units=1/GPa)
#
#
# Indices 1 2 3 4 5 6 
#
# 1 0.010465 -0.050604 0.000870 0.000000 0.001612 0.000000
# 2 -0.050604 0.463620 -0.027076 0.000000 -0.007494 0.000000
# 3 0.000870 -0.027076 0.014938 0.000000 -0.002454 0.000000
# 4 0.000000 0.000000 0.000000 0.061798 0.000000 -0.000834
# 5 0.001612 -0.007494 -0.002454 0.000000 0.023673 0.000000
# 6 0.000000 0.000000 0.000000 -0.000834 0.000000 0.037637
#
#
# Mechanical properties :
#
#
# Convention : Reuss Voigt Hill
#
# Bulk Modulus (GPa) = 2.98148 48.75793 25.86971
# Shear Modulus (GPa) = 5.69768 33.09003 19.39385
#
# Velocity S-wave (km/s) = 1.55742 3.75323 2.87335
# Velocity P-wave (km/s) = 2.12210 6.28800 4.69267
#
# Compressibility (1/GPa) = 0.33540397
#
# Stress axis : x y z
#
# Youngs Moduli (GPa) = 95.55577 2.15694 66.94520
#
# Poissons Ratio (x) = 0.10915 -0.05828
# Poissons Ratio (y) = 4.83550 1.81262
# Poissons Ratio (z) = -0.08318 0.05840
#
# Static dielectric constant tensor:
#      x y z
#    x 2.104200 0.000000 -0.104080 
#    y 0.000000 1.882300 0.000000 
#    z -0.104080 0.000000 1.950310 
# 
# From -- ./inp_files/205447.got.cif
#   From: 2010.05.17/outbox.cif.g08.bks.cpg/sg15_103_cif.got.tgz:205447.got - 2010.06.03 18:47:42.
