data_PCOD9255316
_publ_section_title
;
Structure prediction by ZEFSAII (Michael W. Deem and Ramdas Pophale) SiO2 
 PCOD9255316
Probable space group: C 2/C
;
_chemical_formula_sum "Si O2"
_cell_formula_units_Z 52
_cell_length_a 16.956773
_cell_length_b 18.190500
_cell_length_c 13.971122
_cell_angle_alpha 90.000000
_cell_angle_beta 29.710250
_cell_angle_gamma 90.000000
_cell_volume 2135.810623
_symmetry_space_group_name_H-M "C 2/C"
_symmetry_group_IT_number 15
_symmetry_cell_setting 'monoclinic'
loop_
_space_group_symop_operation_xyz
x,y,z
-x,y,1/2-z
-x,-y,-z
x,-y,1/2+z
1/2+x,1/2+y,z
1/2-x,1/2+y,1/2-z
1/2-x,1/2-y,-z
1/2+x,1/2-y,1/2+z
loop_
_atom_site_type_symbol
_atom_site_label
_atom_site_fract_x
_atom_site_fract_y
_atom_site_fract_z
Si Si1 0.774868 0.684909 0.331265
Si Si2 0.933403 0.078434 0.197077
Si Si3 0.706054 0.844249 0.380808
Si Si4 0.000000 0.650272 0.250000
Si Si5 0.510578 0.583385 0.592456
Si Si6 0.624327 0.825494 0.994062
Si Si7 0.254534 0.840176 0.378544
O O1 0.671386 0.757342 0.419321
O O2 0.876539 0.696550 0.318703
O O3 0.674182 0.612482 0.461181
O O4 0.865698 0.671925 0.133930
O O5 0.763620 0.120609 0.388544
O O6 0.957056 0.081376 0.056077
O O7 0.096621 0.112272 0.070232
O O8 0.940387 0.991599 0.206931
O O9 0.589133 0.890567 0.570596
O O10 0.879024 0.854600 0.242228
O O11 0.715370 0.866792 0.262116
O O12 0.686448 0.743225 0.952975
O O13 0.439293 0.838257 0.219276
#
# Coordination Sequence:
#
# PCOD9255316 Si02
#       7
#     8   8   8   4   8   8   8
#     4  10  20  31  46  64  93 128 169 211 241 273
#     4   9  18  32  50  69  93 128 162 197 248 298
#     4  10  20  31  46  64  93 128 169 211 241 273
#     4  12  20  30  42  68  86 122 180 210 236 272
#     4   9  19  35  45  64  93 124 164 208 247 287
#     4  10  17  30  49  73 100 128 161 198 239 295
#     4  10  17  30  49  73 100 128 161 198 239 295
#
# _framework density 24.346727999999999
#
# number of rings (size 3 to 8) (size 9 to 14) (size 15 to 20)
#    0.000    2.154    3.077    1.385    4.308    0.615 
#    2.769    3.077    0.000    0.000    0.000    0.000 
#    0.000    0.000    0.000   13.846    0.000   33.846 
#
# Total GULP energy -144901.632865 kJ/mol
# GULP energy per Si atom -5573.139726 kJ/mol
# Density = 2.429131 g / cm^3
# Si number density = 24.346728 Si / 1000 Ang^3
#
#
#
# Elastic Constant Matrix: (Units=GPa)
#
#
# Indices 1 2 3 4 5 6 
#
# 1 124.2813 -0.6296 41.3805 0.0000 -19.6678 0.0003
# 2 -0.6296 98.1864 55.4950 0.0016 -23.4074 -0.0013
# 3 41.3805 55.4950 182.5025 0.0009 -23.8665 -0.0015
# 4 0.0000 0.0016 0.0009 18.2536 -0.0006 -13.9263
# 5 -19.6678 -23.4074 -23.8665 -0.0006 41.0019 0.0006
# 6 0.0003 -0.0013 -0.0015 -13.9263 0.0006 1.5208
#
#
#
# Elastic Compliance Matrix: (Units=1/GPa)
#
#
# Indices 1 2 3 4 5 6 
#
# 1 0.009566 0.002479 -0.002314 0.000000 0.004657 0.000001
# 2 0.002479 0.014079 -0.003936 0.000000 0.006935 0.000000
# 3 -0.002314 -0.003936 0.007319 -0.000001 0.000903 -0.000001
# 4 0.000000 0.000000 -0.000001 -0.009151 0.000001 -0.083802
# 5 0.004657 0.006935 0.000903 0.000001 0.031108 0.000000
# 6 0.000001 0.000000 -0.000001 -0.083802 0.000000 -0.109842
#
#
# Mechanical properties :
#
#
# Convention : Reuss Voigt Hill
#
# Bulk Modulus (GPa) = 42.69362 66.38467 54.53914
# Shear Modulus (GPa) = -120.27468 32.73688 -43.76890
#
# Velocity S-wave (km/s) = -7.03619 3.67087 -4.24457
# Velocity P-wave (km/s) = 6.95966 6.72998 1.25386
#
# Compressibility (1/GPa) = 0.02342271
#
# Stress axis : x y z
#
# Youngs Moduli (GPa) = 104.53351 71.02888 136.62905
#
# Poissons Ratio (x) = -0.17611 0.31615
# Poissons Ratio (y) = -0.25919 0.53781
# Poissons Ratio (z) = 0.24189 0.27959
#
# Static dielectric constant tensor:
#      x y z
#    x 2.013270 0.000000 0.027530 
#    y 0.000000 1.843020 0.000000 
#    z 0.027530 0.000000 2.062200 
# 
# From -- ./inp_files/255840.got.cif
#   From: 2010.05.17/outbox.cif.g08.bks.cpg/sg15_128_cif.got.tgz:255840.got - 2010.06.03 18:47:42.
