data_PCOD9255664
_publ_section_title
;
Structure prediction by ZEFSAII (Michael W. Deem and Ramdas Pophale) SiO2 
 PCOD9255664
Probable space group: C 2/C
;
_chemical_formula_sum "Si O2"
_cell_formula_units_Z 52
_cell_length_a 10.004750
_cell_length_b 16.538271
_cell_length_c 18.588179
_cell_angle_alpha 90.000000
_cell_angle_beta 53.393272
_cell_angle_gamma 90.000000
_cell_volume 2468.949061
_symmetry_space_group_name_H-M "C 2/C"
_symmetry_group_IT_number 15
_symmetry_cell_setting 'monoclinic'
loop_
_space_group_symop_operation_xyz
x,y,z
-x,y,1/2-z
-x,-y,-z
x,-y,1/2+z
1/2+x,1/2+y,z
1/2-x,1/2+y,1/2-z
1/2-x,1/2-y,-z
1/2+x,1/2-y,1/2+z
loop_
_atom_site_type_symbol
_atom_site_label
_atom_site_fract_x
_atom_site_fract_y
_atom_site_fract_z
Si Si1 0.000000 0.978227 0.750000
Si Si2 0.095700 0.879895 0.324001
Si Si3 0.191047 0.075795 0.955386
Si Si4 0.673505 0.917836 0.806706
Si Si5 0.430092 0.216696 0.353734
Si Si6 0.834221 0.099592 0.097491
Si Si7 0.044728 0.593768 0.821205
O O1 0.974711 0.040546 0.692094
O O2 0.834891 0.924321 0.805040
O O3 0.139184 0.897909 0.391691
O O4 0.277859 0.860129 0.229240
O O5 0.964086 0.808328 0.363249
O O6 0.369577 0.115324 0.914686
O O7 0.199729 0.978016 0.943250
O O8 0.029968 0.101257 0.051660
O O9 0.583457 0.004051 0.837201
O O10 0.549083 0.844288 0.859787
O O11 0.738996 0.912759 0.703231
O O12 0.500000 0.212463 0.250000
O O13 0.246049 0.179418 0.411626
O O14 0.000000 0.590267 0.750000
#
# Coordination Sequence:
#
# PCOD9255664 Si02
#       7
#     4   8   8   8   8   8   8
#     4  10  18  32  48  76 100 130 164 214 254 300
#     4  10  19  31  53  77 101 131 168 213 260 296
#     4  10  18  31  53  78 102 138 171 208 253 311
#     4  10  17  32  52  73 102 130 171 216 248 294
#     4  10  19  32  52  79  99 131 173 218 252 291
#     4  10  18  30  54  77 103 133 176 209 252 302
#     4   9  14  30  50  72  96 127 171 209 239 296
#
# _framework density 21.061592999999998
#
# number of rings (size 3 to 8) (size 9 to 14) (size 15 to 20)
#    0.000    2.154    6.923    0.462    0.000    0.615 
#    4.154    0.000    0.000   12.000    0.000    0.000 
#    0.000    0.000    0.000    0.000    0.000    0.000 
#
# Total GULP energy -144892.799573 kJ/mol
# GULP energy per Si atom -5572.799984 kJ/mol
# Density = 2.101366 g / cm^3
# Si number density = 21.061593 Si / 1000 Ang^3
#
#
#
# Elastic Constant Matrix: (Units=GPa)
#
#
# Indices 1 2 3 4 5 6 
#
# 1 66.4424 9.2598 -0.4806 0.0000 -16.3578 0.0000
# 2 9.2598 55.0962 -1.5675 0.0000 -6.5510 0.0000
# 3 -0.4806 -1.5675 47.2496 0.0000 -22.1007 0.0000
# 4 0.0000 0.0000 0.0000 10.3803 0.0000 -13.4601
# 5 -16.3578 -6.5510 -22.1007 0.0000 23.2342 0.0000
# 6 0.0000 0.0000 0.0000 -13.4601 0.0000 29.7512
#
#
#
# Elastic Compliance Matrix: (Units=1/GPa)
#
#
# Indices 1 2 3 4 5 6 
#
# 1 0.022165 0.000053 0.013572 0.000000 0.028530 0.000000
# 2 0.000053 0.019635 0.005871 0.000000 0.011158 0.000000
# 3 0.013572 0.005871 0.048175 0.000000 0.057035 0.000000
# 4 0.000000 0.000000 0.000000 0.233065 0.000000 0.105444
# 5 0.028530 0.011158 0.057035 0.000000 0.120525 0.000000
# 6 0.000000 0.000000 0.000000 0.105444 0.000000 0.081317
#
#
# Mechanical properties :
#
#
# Convention : Reuss Voigt Hill
#
# Bulk Modulus (GPa) = 7.75387 20.35683 14.05535
# Shear Modulus (GPa) = 9.45395 23.44489 16.44942
#
# Velocity S-wave (km/s) = 2.12096 3.34002 2.79770
# Velocity P-wave (km/s) = 3.11247 4.95588 4.13813
#
# Compressibility (1/GPa) = 0.12896790
#
# Stress axis : x y z
#
# Youngs Moduli (GPa) = 45.11537 50.92970 20.75767
#
# Poissons Ratio (x) = -0.00271 -0.28172
# Poissons Ratio (y) = -0.00240 -0.12187
# Poissons Ratio (z) = -0.61231 -0.29902
#
# Static dielectric constant tensor:
#      x y z
#    x 1.789450 0.000000 -0.039380 
#    y 0.000000 1.784440 0.000000 
#    z -0.039380 0.000000 1.863630 
# 
# From -- ./inp_files/233021.got.cif
#   From: 2010.05.17/outbox.cif.g08.bks.cpg/sg15_117_cif.got.tgz:233021.got - 2010.06.03 18:47:42.
