data_PCOD9255644
_publ_section_title
;
Structure prediction by ZEFSAII (Michael W. Deem and Ramdas Pophale) SiO2 
 PCOD9255644
Probable space group: C 2/C
;
_chemical_formula_sum "Si O2"
_cell_formula_units_Z 64
_cell_length_a 22.778088
_cell_length_b 8.854669
_cell_length_c 18.057249
_cell_angle_alpha 90.000000
_cell_angle_beta 128.057710
_cell_angle_gamma 90.000000
_cell_volume 2867.683468
_symmetry_space_group_name_H-M "C 2/C"
_symmetry_group_IT_number 15
_symmetry_cell_setting 'monoclinic'
loop_
_space_group_symop_operation_xyz
x,y,z
-x,y,1/2-z
-x,-y,-z
x,-y,1/2+z
1/2+x,1/2+y,z
1/2-x,1/2+y,1/2-z
1/2-x,1/2-y,-z
1/2+x,1/2-y,1/2+z
loop_
_atom_site_type_symbol
_atom_site_label
_atom_site_fract_x
_atom_site_fract_y
_atom_site_fract_z
Si Si1 0.410276 0.172202 0.188340
Si Si2 0.514793 0.441205 0.429018
Si Si3 0.811112 0.462021 0.016014
Si Si4 0.161654 0.050171 0.963672
Si Si5 0.413572 0.830455 0.985282
Si Si6 0.372641 0.690259 0.801919
Si Si7 0.712000 0.776967 0.123056
Si Si8 0.434606 0.829362 0.442092
O O1 0.500000 0.178275 0.250000
O O2 0.368627 0.319048 0.117513
O O3 0.606382 0.174797 0.237435
O O4 0.368970 0.029299 0.120647
O O5 0.500000 0.500000 0.500000
O O6 0.584241 0.509755 0.439058
O O7 0.434165 0.435671 0.328378
O O8 0.538654 0.265212 0.463898
O O9 0.725821 0.446775 0.977071
O O10 0.855722 0.334038 0.006684
O O11 0.805315 0.594199 0.950164
O O12 0.206650 0.129334 0.067071
O O13 0.384058 0.726836 0.896339
O O14 0.422703 0.996697 0.953946
O O15 0.501323 0.799782 0.068158
O O16 0.286907 0.669635 0.719236
O O17 0.647188 0.763644 0.133786
#
# Coordination Sequence:
#
# PCOD9255644 Si02
#       8
#     8   8   8   8   8   8   8   8
#     4  11  19  29  54  81 108 139 182 238 274 323
#     4  10  21  35  53  76 109 148 181 224 279 327
#     4  10  18  32  50  79 113 144 167 222 297 322
#     4  10  17  32  50  74 112 139 170 230 293 310
#     4   9  19  31  54  79 113 150 171 218 285 342
#     4  11  19  33  53  86 110 138 191 228 268 338
#     4   9  16  30  50  77 108 137 170 230 274 317
#     4   8  17  34  49  70 108 147 171 212 279 323
#
# _framework density 22.317664000000001
#
# number of rings (size 3 to 8) (size 9 to 14) (size 15 to 20)
#    0.000    2.250    3.750    1.500    5.250    0.000 
#    9.000    0.000    0.000    3.000    0.000    8.750 
#    0.000    0.000    0.000    0.000    0.000    0.000 
#
# Total GULP energy -178158.918567 kJ/mol
# GULP energy per Si atom -5567.466205 kJ/mol
# Density = 2.226687 g / cm^3
# Si number density = 22.317664 Si / 1000 Ang^3
#
#
#
# Elastic Constant Matrix: (Units=GPa)
#
#
# Indices 1 2 3 4 5 6 
#
# 1 195.6394 13.3896 52.7832 0.0000 34.5506 0.0000
# 2 13.3896 28.7665 6.1923 0.0000 -2.2210 0.0000
# 3 52.7832 6.1923 112.0705 0.0000 30.3244 0.0000
# 4 0.0000 0.0000 0.0000 10.2952 0.0000 -0.2966
# 5 34.5506 -2.2210 30.3244 0.0000 42.1048 0.0000
# 6 0.0000 0.0000 0.0000 -0.2966 0.0000 30.4307
#
#
#
# Elastic Compliance Matrix: (Units=1/GPa)
#
#
# Indices 1 2 3 4 5 6 
#
# 1 0.006544 -0.002995 -0.001765 0.000000 -0.004257 0.000000
# 2 -0.002995 0.037115 -0.002279 0.000000 0.006057 0.000000
# 3 -0.001765 -0.002279 0.011825 0.000000 -0.007189 0.000000
# 4 0.000000 0.000000 0.000000 0.097160 0.000000 0.000947
# 5 -0.004257 0.006057 -0.007189 0.000000 0.032740 0.000000
# 6 0.000000 0.000000 0.000000 0.000947 0.000000 0.032871
#
#
# Mechanical properties :
#
#
# Convention : Reuss Voigt Hill
#
# Bulk Modulus (GPa) = 24.15060 53.46739 38.80899
# Shear Modulus (GPa) = 20.31396 34.17355 27.24376
#
# Velocity S-wave (km/s) = 3.02026 3.91734 3.49768
# Velocity P-wave (km/s) = 4.79660 6.66860 5.80851
#
# Compressibility (1/GPa) = 0.04140684
#
# Stress axis : x y z
#
# Youngs Moduli (GPa) = 152.80217 26.94336 84.56479
#
# Poissons Ratio (x) = 0.08069 0.14925
# Poissons Ratio (y) = 0.45763 0.19273
# Poissons Ratio (z) = 0.26968 0.06140
#
# Static dielectric constant tensor:
#      x y z
#    x 1.947450 0.000000 0.054520 
#    y 0.000000 1.927540 0.000000 
#    z 0.054520 0.000000 1.845310 
# 
# From -- ./inp_files/252404.got.cif
#   From: 2010.05.17/outbox.cif.g08.bks.cpg/sg15_127_cif.got.tgz:252404.got - 2010.06.03 18:47:42.
