data_PCOD9255310
_publ_section_title
;
Structure prediction by ZEFSAII (Michael W. Deem and Ramdas Pophale) SiO2 
 PCOD9255310
Probable space group: C 2/C
;
_chemical_formula_sum "Si O2"
_cell_formula_units_Z 48
_cell_length_a 27.846823
_cell_length_b 16.580001
_cell_length_c 5.294371
_cell_angle_alpha 90.000000
_cell_angle_beta 108.140325
_cell_angle_gamma 90.000000
_cell_volume 2322.917914
_symmetry_space_group_name_H-M "C 2/C"
_symmetry_group_IT_number 15
_symmetry_cell_setting 'monoclinic'
loop_
_space_group_symop_operation_xyz
x,y,z
-x,y,1/2-z
-x,-y,-z
x,-y,1/2+z
1/2+x,1/2+y,z
1/2-x,1/2+y,1/2-z
1/2-x,1/2-y,-z
1/2+x,1/2-y,1/2+z
loop_
_atom_site_type_symbol
_atom_site_label
_atom_site_fract_x
_atom_site_fract_y
_atom_site_fract_z
Si Si1 0.942692 0.281017 0.410688
Si Si2 0.318383 0.952115 0.025793
Si Si3 0.218332 0.272947 0.697871
Si Si4 0.940714 0.455119 0.294768
Si Si5 0.609661 0.272932 0.174745
Si Si6 0.981685 0.873795 0.466283
O O1 0.961425 0.371600 0.440217
O O2 0.902894 0.267039 0.574258
O O3 0.985315 0.211393 0.488359
O O4 0.917155 0.273874 0.096442
O O5 0.298399 0.865952 0.887976
O O6 0.302782 0.016410 0.780415
O O7 0.379184 0.947032 0.167198
O O8 0.250000 0.250000 0.500000
O O9 0.166711 0.224652 0.676253
O O10 0.250000 0.250000 0.000000
O O11 0.953303 0.520754 0.529745
O O12 0.577510 0.355318 0.133236
O O13 0.000000 0.917206 0.250000
O O14 0.000000 0.912006 0.750000
#
# Coordination Sequence:
#
# PCOD9255310 Si02
#       6
#     8   8   8   8   8   8
#     4  10  17  30  49  65  90 121 169 202 249 303
#     4  10  21  36  54  72 100 139 178 216 266 320
#     4  12  24  36  54  80 104 131 177 228 271 309
#     4  10  19  28  46  68  91 127 170 217 253 287
#     4  10  19  32  49  66  96 126 161 212 259 304
#     4   8  16  28  46  65  83 124 164 197 244 317
#
# _framework density 20.663665000000002
#
# number of rings (size 3 to 8) (size 9 to 14) (size 15 to 20)
#    0.000    2.000    1.667    3.000    4.667    0.000 
#    0.000    0.000    0.000   29.000    0.000    0.000 
#    0.000    0.000    0.000    0.000    0.000  525.000 
#
# Total GULP energy -133698.481086 kJ/mol
# GULP energy per Si atom -5570.770045 kJ/mol
# Density = 2.061663 g / cm^3
# Si number density = 20.663665 Si / 1000 Ang^3
#
#
#
# Elastic Constant Matrix: (Units=GPa)
#
#
# Indices 1 2 3 4 5 6 
#
# 1 138.6534 29.1555 43.5087 0.0000 -21.7636 0.0000
# 2 29.1555 86.4185 38.0396 0.0000 -0.0773 0.0000
# 3 43.5087 38.0396 147.8584 0.0000 -35.9456 0.0000
# 4 0.0000 0.0000 0.0000 14.4158 0.0000 -0.5403
# 5 -21.7636 -0.0773 -35.9456 0.0000 41.4201 0.0000
# 6 0.0000 0.0000 0.0000 -0.5403 0.0000 3.9850
#
#
#
# Elastic Compliance Matrix: (Units=1/GPa)
#
#
# Indices 1 2 3 4 5 6 
#
# 1 0.008620 -0.002456 -0.001020 0.000000 0.003640 0.000000
# 2 -0.002456 0.014203 -0.004104 0.000000 -0.004826 0.000000
# 3 -0.001020 -0.004104 0.010123 0.000000 0.008241 0.000000
# 4 0.000000 0.000000 0.000000 0.069723 0.000000 0.009453
# 5 0.003640 -0.004826 0.008241 0.000000 0.033198 0.000000
# 6 0.000000 0.000000 0.000000 0.009453 0.000000 0.252222
#
#
# Mechanical properties :
#
#
# Convention : Reuss Voigt Hill
#
# Bulk Modulus (GPa) = 56.22766 66.03754 61.13260
# Shear Modulus (GPa) = 12.21966 29.44595 20.83281
#
# Velocity S-wave (km/s) = 2.43443 3.77903 3.17864
# Velocity P-wave (km/s) = 5.93059 7.14626 6.56662
#
# Compressibility (1/GPa) = 0.01778484
#
# Stress axis : x y z
#
# Youngs Moduli (GPa) = 116.00969 70.40985 98.78684
#
# Poissons Ratio (x) = 0.17293 0.10075
# Poissons Ratio (y) = 0.28492 0.40546
# Poissons Ratio (z) = 0.11831 0.28899
#
# Static dielectric constant tensor:
#      x y z
#    x 1.769930 0.000000 0.022080 
#    y 0.000000 1.765440 0.000000 
#    z 0.022080 0.000000 1.780650 
# 
# From -- ./inp_files/18316.got.cif
#   From: 2010.05.17/outbox.cif.g08.bks.cpg/sg15_10_cif.got.tgz:18316.got - 2010.06.03 18:47:42.
