data_PCOD9255925
_publ_section_title
;
Structure prediction by ZEFSAII (Michael W. Deem and Ramdas Pophale) SiO2 
 PCOD9255925
Probable space group: C 2/C
;
_chemical_formula_sum "Si O2"
_cell_formula_units_Z 56
_cell_length_a 8.590253
_cell_length_b 14.412839
_cell_length_c 25.967111
_cell_angle_alpha 90.000000
_cell_angle_beta 55.871720
_cell_angle_gamma 90.000000
_cell_volume 2661.312645
_symmetry_space_group_name_H-M "C 2/C"
_symmetry_group_IT_number 15
_symmetry_cell_setting 'monoclinic'
loop_
_space_group_symop_operation_xyz
x,y,z
-x,y,1/2-z
-x,-y,-z
x,-y,1/2+z
1/2+x,1/2+y,z
1/2-x,1/2+y,1/2-z
1/2-x,1/2-y,-z
1/2+x,1/2-y,1/2+z
loop_
_atom_site_type_symbol
_atom_site_label
_atom_site_fract_x
_atom_site_fract_y
_atom_site_fract_z
Si Si1 0.618702 0.474043 0.184082
Si Si2 0.473269 0.552753 0.606498
Si Si3 0.819624 0.251261 0.928501
Si Si4 0.610826 0.843807 0.177917
Si Si5 0.314682 0.847751 0.638181
Si Si6 0.444017 0.831929 0.100037
Si Si7 0.318728 0.067786 0.023600
O O1 0.500000 0.424565 0.250000
O O2 0.479409 0.490375 0.162495
O O3 0.709939 0.569250 0.186338
O O4 0.793069 0.415257 0.131268
O O5 0.566912 0.654395 0.594725
O O6 0.259336 0.576796 0.632150
O O7 0.627540 0.490025 0.548319
O O8 0.656525 0.246108 0.916144
O O9 0.964062 0.334895 0.892882
O O10 0.750000 0.250000 0.000000
O O11 0.500000 0.872629 0.250000
O O12 0.720518 0.749000 0.170259
O O13 0.489586 0.814845 0.150773
O O14 0.296019 0.873000 0.580573
O O15 0.622436 0.867182 0.034509
O O16 0.500000 0.000000 0.000000
#
# Coordination Sequence:
#
# PCOD9255925 Si02
#       7
#     8   8   8   8   8   8   8
#     4  10  19  36  61  84 108 161 213 238 289 366
#     4   9  20  34  57  82 116 158 192 243 299 356
#     4  10  17  33  57  86 115 149 189 238 302 368
#     4  11  24  41  54  83 126 163 201 248 300 355
#     4  10  20  35  60  84 119 156 191 253 311 350
#     4  11  22  35  63  87 117 159 198 250 304 368
#     4  11  17  37  62  93 118 144 206 252 307 368
#
# _framework density 21.042247
#
# number of rings (size 3 to 8) (size 9 to 14) (size 15 to 20)
#    0.000    1.714    5.714    1.286    0.000    1.143 
#    0.000    2.857    0.000    1.714    0.000    0.000 
#    0.000    0.000    0.000    0.000    0.000    0.000 
#
# Total GULP energy -156001.315604 kJ/mol
# GULP energy per Si atom -5571.475557 kJ/mol
# Density = 2.099435 g / cm^3
# Si number density = 21.042247 Si / 1000 Ang^3
#
#
#
# Elastic Constant Matrix: (Units=GPa)
#
#
# Indices 1 2 3 4 5 6 
#
# 1 93.3490 10.0082 29.1758 0.0001 1.9162 -0.0001
# 2 10.0082 39.7155 7.0550 0.0001 -16.2650 0.0000
# 3 29.1758 7.0550 99.8479 0.0002 -2.3120 -0.0001
# 4 0.0001 0.0001 0.0002 9.9803 -0.0001 -2.6888
# 5 1.9162 -16.2650 -2.3120 -0.0001 24.9580 0.0001
# 6 -0.0001 0.0000 -0.0001 -2.6888 0.0001 27.0966
#
#
#
# Elastic Compliance Matrix: (Units=1/GPa)
#
#
# Indices 1 2 3 4 5 6 
#
# 1 0.012294 -0.004107 -0.003393 0.000000 -0.003935 0.000000
# 2 -0.004107 0.036086 -0.000800 0.000000 0.023758 0.000000
# 3 -0.003393 -0.000800 0.011081 0.000000 0.000766 0.000000
# 4 0.000000 0.000000 0.000000 0.102950 0.000000 0.010216
# 5 -0.003935 0.023758 0.000766 0.000000 0.055923 0.000000
# 6 0.000000 0.000000 0.000000 0.010216 0.000000 0.037919
#
#
# Mechanical properties :
#
#
# Convention : Reuss Voigt Hill
#
# Bulk Modulus (GPa) = 23.33077 36.15447 29.74262
# Shear Modulus (GPa) = 17.41314 24.85188 21.13251
#
# Velocity S-wave (km/s) = 2.87981 3.44036 3.17249
# Velocity P-wave (km/s) = 4.70844 5.74462 5.25214
#
# Compressibility (1/GPa) = 0.04286185
#
# Stress axis : x y z
#
# Youngs Moduli (GPa) = 81.33980 27.71164 90.24455
#
# Poissons Ratio (x) = 0.11380 0.30623
# Poissons Ratio (y) = 0.33403 0.07216
# Poissons Ratio (z) = 0.27601 0.02216
#
# Static dielectric constant tensor:
#      x y z
#    x 1.888870 0.000000 0.035660 
#    y 0.000000 1.781140 0.000000 
#    z 0.035660 0.000000 1.879260 
# 
# From -- ./inp_files/307939.got.cif
#   From: 2010.05.17/outbox.cif.g08.bks.cpg/sg15_154_cif.got.tgz:307939.got - 2010.06.03 18:47:42.
