data_PCOD9255576
_publ_section_title
;
Structure prediction by ZEFSAII (Michael W. Deem and Ramdas Pophale) SiO2 
 PCOD9255576
Probable space group: C 2/C
;
_chemical_formula_sum "Si O2"
_cell_formula_units_Z 40
_cell_length_a 25.431305
_cell_length_b 11.282117
_cell_length_c 14.558720
_cell_angle_alpha 90.000000
_cell_angle_beta 158.391421
_cell_angle_gamma 90.000000
_cell_volume 1538.301377
_symmetry_space_group_name_H-M "C 2/C"
_symmetry_group_IT_number 15
_symmetry_cell_setting 'monoclinic'
loop_
_space_group_symop_operation_xyz
x,y,z
-x,y,1/2-z
-x,-y,-z
x,-y,1/2+z
1/2+x,1/2+y,z
1/2-x,1/2+y,1/2-z
1/2-x,1/2-y,-z
1/2+x,1/2-y,1/2+z
loop_
_atom_site_type_symbol
_atom_site_label
_atom_site_fract_x
_atom_site_fract_y
_atom_site_fract_z
Si Si1 0.774502 0.818417 0.244188
Si Si2 0.617082 0.077693 0.638567
Si Si3 0.000000 0.316117 0.250000
Si Si4 0.500000 0.341531 0.250000
Si Si5 0.006401 0.151415 0.558711
Si Si6 0.742918 0.887295 0.517706
O O1 0.695974 0.927697 0.168925
O O2 0.887715 0.758843 0.502317
O O3 0.858455 0.844421 0.287722
O O4 0.645712 0.733280 0.002973
O O5 0.547743 0.210074 0.522545
O O6 0.500000 0.000000 0.500000
O O7 0.739748 0.057010 0.913015
O O8 0.097716 0.394182 0.340582
O O9 0.481585 0.398745 0.319812
O O10 0.878648 0.087829 0.298365
O O11 0.750000 0.750000 0.500000
#
# Coordination Sequence:
#
# PCOD9255576 Si02
#       6
#     8   8   4   4   8   8
#     4  11  19  33  59  89 126 166 221 273 322 398
#     4  10  20  34  56  94 133 162 212 284 347 384
#     4  12  16  32  61  93 118 160 230 264 308 390
#     4  10  20  32  53  93 122 162 208 280 314 368
#     4  10  19  35  59  90 130 172 226 265 325 399
#     4  10  17  31  56  90 123 158 222 265 318 395
#
# _framework density 26.002707999999998
#
# number of rings (size 3 to 8) (size 9 to 14) (size 15 to 20)
#    0.000    1.600   10.000    0.600    0.000    0.000 
#    0.000    4.000    0.000    3.600    0.000   35.000 
#    0.000    0.000    0.000    0.000    0.000    0.000 
#
# Total GULP energy -111661.497142 kJ/mol
# GULP energy per Si atom -5583.074857 kJ/mol
# Density = 2.594352 g / cm^3
# Si number density = 26.002708 Si / 1000 Ang^3
#
#
#
# Elastic Constant Matrix: (Units=GPa)
#
#
# Indices 1 2 3 4 5 6 
#
# 1 255.9655 7.8252 59.1524 0.0000 8.5406 0.0000
# 2 7.8252 40.7921 23.5986 0.0000 4.4112 0.0000
# 3 59.1524 23.5986 150.0482 0.0000 -0.6271 0.0000
# 4 0.0000 0.0000 0.0000 25.1685 0.0000 14.9756
# 5 8.5406 4.4112 -0.6271 0.0000 64.0063 0.0000
# 6 0.0000 0.0000 0.0000 14.9756 0.0000 23.3479
#
#
#
# Elastic Compliance Matrix: (Units=1/GPa)
#
#
# Indices 1 2 3 4 5 6 
#
# 1 0.004323 0.000247 -0.001746 0.000000 -0.000611 0.000000
# 2 0.000247 0.027215 -0.004386 0.000000 -0.001952 0.000000
# 3 -0.001746 -0.004386 0.008045 0.000000 0.000614 0.000000
# 4 0.000000 0.000000 0.000000 0.064255 0.000000 -0.041214
# 5 -0.000611 -0.001952 0.000614 0.000000 0.015845 0.000000
# 6 0.000000 0.000000 0.000000 -0.041214 0.000000 0.069266
#
#
# Mechanical properties :
#
#
# Convention : Reuss Voigt Hill
#
# Bulk Modulus (GPa) = 35.95285 69.77315 52.86300
# Shear Modulus (GPa) = 23.81060 46.25317 35.03188
#
# Velocity S-wave (km/s) = 3.02933 4.22214 3.67446
# Velocity P-wave (km/s) = 5.10807 7.11757 6.19485
#
# Compressibility (1/GPa) = 0.02781421
#
# Stress axis : x y z
#
# Youngs Moduli (GPa) = 231.32000 36.74386 124.30106
#
# Poissons Ratio (x) = -0.00906 0.21698
# Poissons Ratio (y) = -0.05704 0.54514
# Poissons Ratio (z) = 0.40379 0.16115
#
# Static dielectric constant tensor:
#      x y z
#    x 1.758910 0.000000 0.660150 
#    y 0.000000 2.201620 0.000000 
#    z 0.660150 0.000000 0.388500 
# 
# From -- ./inp_files/178508.got.cif
#   From: 2010.05.17/outbox.cif.g08.bks.cpg/sg15_90_cif.got.tgz:178508.got - 2010.06.03 18:47:42.
