data_PCOD9255758
_publ_section_title
;
Structure prediction by ZEFSAII (Michael W. Deem and Ramdas Pophale) SiO2 
 PCOD9255758
Probable space group: C 2/C
;
_chemical_formula_sum "Si O2"
_cell_formula_units_Z 48
_cell_length_a 5.492748
_cell_length_b 23.484257
_cell_length_c 21.836546
_cell_angle_alpha 90.000000
_cell_angle_beta 48.026220
_cell_angle_gamma 90.000000
_cell_volume 2094.125811
_symmetry_space_group_name_H-M "C 2/C"
_symmetry_group_IT_number 15
_symmetry_cell_setting 'monoclinic'
loop_
_space_group_symop_operation_xyz
x,y,z
-x,y,1/2-z
-x,-y,-z
x,-y,1/2+z
1/2+x,1/2+y,z
1/2-x,1/2+y,1/2-z
1/2-x,1/2-y,-z
1/2+x,1/2-y,1/2+z
loop_
_atom_site_type_symbol
_atom_site_label
_atom_site_fract_x
_atom_site_fract_y
_atom_site_fract_z
Si Si1 0.002218 0.845966 0.931782
Si Si2 0.267000 0.676167 0.650405
Si Si3 0.762440 0.385105 0.151953
Si Si4 0.500000 0.111421 0.250000
Si Si5 0.000000 0.888922 0.750000
Si Si6 0.704702 0.033093 0.517041
Si Si7 0.431563 0.804202 0.592325
O O1 0.284831 0.849764 0.831628
O O2 0.197005 0.823520 0.957974
O O3 0.710875 0.809313 0.951957
O O4 0.865455 0.909352 0.963031
O O5 0.567383 0.637543 0.624918
O O6 0.384798 0.740620 0.623258
O O7 0.000000 0.675589 0.750000
O O8 0.058937 0.654783 0.626721
O O9 0.500000 0.388204 0.250000
O O10 0.934501 0.444882 0.110177
O O11 0.251452 0.077133 0.249550
O O12 0.789426 0.848222 0.830284
O O13 0.500000 0.000000 0.500000
O O14 0.000000 0.000000 0.500000
#
# Coordination Sequence:
#
# PCOD9255758 Si02
#       7
#     8   8   8   4   4   8   8
#     4  10  21  36  58  90 127 159 200 255 309 372
#     4  10  19  35  64  97 131 174 207 242 304 379
#     4  10  23  43  66  93 125 165 218 261 302 382
#     4   8  16  30  50  80 115 148 185 236 292 354
#     4   8  14  24  46  76 119 156 189 222 266 350
#     4  12  26  48  68  88 121 166 215 280 341 367
#     4  10  17  32  56  93 129 164 199 234 302 371
#
# _framework density 22.921258000000002
#
# number of rings (size 3 to 8) (size 9 to 14) (size 15 to 20)
#    0.000    2.000    0.833    3.000    0.000    0.000 
#    3.000    5.000    0.000    0.000    0.000    0.000 
#    0.000    0.000    0.000    0.000    0.000    0.000 
#
# Total GULP energy -134060.693139 kJ/mol
# GULP energy per Si atom -5585.862214 kJ/mol
# Density = 2.286909 g / cm^3
# Si number density = 22.921258 Si / 1000 Ang^3
#
#
#
# Elastic Constant Matrix: (Units=GPa)
#
#
# Indices 1 2 3 4 5 6 
#
# 1 276.6301 57.6909 20.5037 0.0000 -14.7011 0.0000
# 2 57.6909 64.4097 5.8527 0.0000 -12.3320 0.0000
# 3 20.5037 5.8527 71.9193 0.0000 -24.7822 0.0000
# 4 0.0000 0.0000 0.0000 22.9063 0.0000 -3.8105
# 5 -14.7011 -12.3320 -24.7822 0.0000 28.8218 0.0000
# 6 0.0000 0.0000 0.0000 -3.8105 0.0000 46.2125
#
#
#
# Elastic Compliance Matrix: (Units=1/GPa)
#
#
# Indices 1 2 3 4 5 6 
#
# 1 0.004513 -0.004009 -0.001078 0.000000 -0.000340 0.000000
# 2 -0.004009 0.020601 0.002557 0.000000 0.008968 0.000000
# 3 -0.001078 0.002557 0.020166 0.000000 0.017884 0.000000
# 4 0.000000 0.000000 0.000000 0.044263 0.000000 0.003650
# 5 -0.000340 0.008968 0.017884 0.000000 0.053737 0.000000
# 6 0.000000 0.000000 0.000000 0.003650 0.000000 0.021940
#
#
# Mechanical properties :
#
#
# Convention : Reuss Voigt Hill
#
# Bulk Modulus (GPa) = 24.86300 64.56152 44.71226
# Shear Modulus (GPa) = 27.22010 41.51558 34.36784
#
# Velocity S-wave (km/s) = 3.44982 4.26047 3.87639
# Velocity P-wave (km/s) = 5.17098 7.24085 6.29162
#
# Compressibility (1/GPa) = 0.04022040
#
# Stress axis : x y z
#
# Youngs Moduli (GPa) = 221.58876 48.54029 49.58804
#
# Poissons Ratio (x) = 0.19461 0.05343
# Poissons Ratio (y) = 0.88842 -0.12679
# Poissons Ratio (z) = 0.23876 -0.12411
#
# Static dielectric constant tensor:
#      x y z
#    x -1.690520 0.000000 -3.948300 
#    y 0.000000 1.768930 0.000000 
#    z -3.948300 0.000000 -2.373720 
# 
# From -- ./inp_files/261094.got.cif
#   From: 2010.05.17/outbox.cif.g08.bks.cpg/sg15_131_cif.got.tgz:261094.got - 2010.06.03 18:47:42.
