data_PCOD9255422
_publ_section_title
;
Structure prediction by ZEFSAII (Michael W. Deem and Ramdas Pophale) SiO2 
 PCOD9255422
Probable space group: C 2/C
;
_chemical_formula_sum "Si O2"
_cell_formula_units_Z 48
_cell_length_a 16.731906
_cell_length_b 20.460549
_cell_length_c 12.578590
_cell_angle_alpha 90.000000
_cell_angle_beta 30.620800
_cell_angle_gamma 90.000000
_cell_volume 2193.381916
_symmetry_space_group_name_H-M "C 2/C"
_symmetry_group_IT_number 15
_symmetry_cell_setting 'monoclinic'
loop_
_space_group_symop_operation_xyz
x,y,z
-x,y,1/2-z
-x,-y,-z
x,-y,1/2+z
1/2+x,1/2+y,z
1/2-x,1/2+y,1/2-z
1/2-x,1/2-y,-z
1/2+x,1/2-y,1/2+z
loop_
_atom_site_type_symbol
_atom_site_label
_atom_site_fract_x
_atom_site_fract_y
_atom_site_fract_z
Si Si1 0.156821 0.442009 0.112626
Si Si2 0.193642 0.014747 0.389044
Si Si3 0.000000 0.887267 0.250000
Si Si4 0.917257 0.090843 0.175406
Si Si5 0.500000 0.938001 0.750000
Si Si6 0.385984 0.692004 0.674119
Si Si7 0.479336 0.816638 0.895120
O O1 0.168738 0.469640 0.219008
O O2 0.000000 0.406830 0.250000
O O3 0.140317 0.511791 0.068810
O O4 0.313479 0.405436 0.899970
O O5 0.127685 0.064886 0.552588
O O6 0.201666 0.061123 0.277312
O O7 0.054261 0.962486 0.529539
O O8 0.925479 0.844088 0.241061
O O9 0.000488 0.156234 0.039171
O O10 0.528994 0.891120 0.816948
O O11 0.422474 0.768716 0.644247
O O12 0.201937 0.683498 0.864884
O O13 0.500000 0.790031 0.750000
#
# Coordination Sequence:
#
# PCOD9255422 Si02
#       7
#     8   8   4   8   4   8   8
#     4  10  20  37  55  87 123 153 185 244 306 349
#     4  10  19  31  55  79 117 153 192 227 293 351
#     4  10  17  30  56  78 116 151 182 222 292 350
#     4  10  22  34  55  85 120 155 202 234 289 362
#     4   8  21  30  60  82 126 143 188 224 310 364
#     4  11  22  35  55  84 116 157 197 234 282 355
#     4  10  21  34  54  80 118 156 192 228 293 347
#
# _framework density 21.884014000000001
#
# number of rings (size 3 to 8) (size 9 to 14) (size 15 to 20)
#    1.000    1.000    2.500    1.500    4.667    2.000 
#    0.000    1.667    0.000    0.000    0.000    8.167 
#    0.000    0.000    0.000    0.000    0.000    0.000 
#
# Total GULP energy -133661.640953 kJ/mol
# GULP energy per Si atom -5569.235040 kJ/mol
# Density = 2.183421 g / cm^3
# Si number density = 21.884014 Si / 1000 Ang^3
#
#
#
# Elastic Constant Matrix: (Units=GPa)
#
#
# Indices 1 2 3 4 5 6 
#
# 1 35.8082 -9.4598 4.6857 -0.0075 -8.7165 -0.0003
# 2 -9.4598 58.1210 31.1007 -0.0054 10.4375 0.0049
# 3 4.6857 31.1007 62.1739 -0.0196 -0.4196 0.0018
# 4 -0.0075 -0.0054 -0.0196 73.7985 0.0125 4.8320
# 5 -8.7165 10.4375 -0.4196 0.0125 22.2677 -0.0020
# 6 -0.0003 0.0049 0.0018 4.8320 -0.0020 1.3861
#
#
#
# Elastic Compliance Matrix: (Units=1/GPa)
#
#
# Indices 1 2 3 4 5 6 
#
# 1 0.032781 0.006693 -0.005754 0.000000 0.009586 0.000003
# 2 0.006693 0.028053 -0.014610 0.000009 -0.010805 -0.000125
# 3 -0.005754 -0.014610 0.023860 0.000003 0.005046 0.000017
# 4 0.000000 0.000009 0.000003 0.017558 -0.000019 -0.061209
# 5 0.009586 -0.010805 0.005046 -0.000019 0.053820 0.000177
# 6 0.000003 -0.000125 0.000017 -0.061209 0.000177 0.934831
#
#
# Mechanical properties :
#
#
# Convention : Reuss Voigt Hill
#
# Bulk Modulus (GPa) = 17.43620 23.19514 20.31567
# Shear Modulus (GPa) = 4.39614 28.14223 16.26919
#
# Velocity S-wave (km/s) = 1.41887 3.58994 2.72955
# Velocity P-wave (km/s) = 3.26636 5.27311 4.38604
#
# Compressibility (1/GPa) = 0.05735195
#
# Stress axis : x y z
#
# Youngs Moduli (GPa) = 30.50546 35.64674 41.91139
#
# Poissons Ratio (x) = -0.23857 0.24115
# Poissons Ratio (y) = -0.20417 0.61233
# Poissons Ratio (z) = 0.17552 0.52080
#
# Static dielectric constant tensor:
#      x y z
#    x 1.939920 0.000000 0.007630 
#    y 0.000000 1.787770 0.000000 
#    z 0.007630 0.000000 1.824590 
# 
# From -- ./inp_files/163944.got.cif
#   From: 2010.05.17/outbox.cif.g08.bks.cpg/sg15_82_cif.got.tgz:163944.got - 2010.06.03 18:47:42.
