data_PCOD9255748
_publ_section_title
;
Structure prediction by ZEFSAII (Michael W. Deem and Ramdas Pophale) SiO2 
 PCOD9255748
Probable space group: C 2/C
;
_chemical_formula_sum "Si O2"
_cell_formula_units_Z 56
_cell_length_a 9.895243
_cell_length_b 17.202919
_cell_length_c 14.945311
_cell_angle_alpha 90.000000
_cell_angle_beta 71.499182
_cell_angle_gamma 90.000000
_cell_volume 2412.615281
_symmetry_space_group_name_H-M "C 2/C"
_symmetry_group_IT_number 15
_symmetry_cell_setting 'monoclinic'
loop_
_space_group_symop_operation_xyz
x,y,z
-x,y,1/2-z
-x,-y,-z
x,-y,1/2+z
1/2+x,1/2+y,z
1/2-x,1/2+y,1/2-z
1/2-x,1/2-y,-z
1/2+x,1/2-y,1/2+z
loop_
_atom_site_type_symbol
_atom_site_label
_atom_site_fract_x
_atom_site_fract_y
_atom_site_fract_z
Si Si1 0.486460 0.867905 0.380911
Si Si2 0.206412 0.758864 0.670859
Si Si3 0.332493 0.494450 0.397832
Si Si4 0.500000 0.098313 0.250000
Si Si5 0.746446 0.004027 0.611265
Si Si6 0.404098 0.878583 0.578880
Si Si7 0.796476 0.886494 0.247963
Si Si8 0.000000 0.115219 0.250000
O O1 0.412923 0.791249 0.356242
O O2 0.523404 0.869465 0.478310
O O3 0.624419 0.890550 0.296651
O O4 0.365318 0.932426 0.401565
O O5 0.294037 0.809436 0.581609
O O6 0.305272 0.700663 0.707860
O O7 0.128775 0.825861 0.745554
O O8 0.325705 0.476365 0.504873
O O9 0.181363 0.539275 0.404259
O O10 0.352386 0.419151 0.330260
O O11 0.444406 0.560552 0.341575
O O12 0.356256 0.052637 0.311161
O O13 0.541080 0.138207 0.333788
O O14 0.839537 0.052971 0.661910
#
# Coordination Sequence:
#
# PCOD9255748 Si02
#       8
#     8   8   8   4   8   8   8   4
#     4  10  17  32  56  85 110 140 188 243 290 322
#     4  10  19  35  56  81 115 147 193 237 287 330
#     4  10  21  35  57  82 113 148 193 233 288 334
#     4  12  18  33  53  80 126 142 182 224 294 345
#     4  10  18  31  54  85 110 142 181 234 284 338
#     4  10  21  31  54  84 114 151 184 236 286 347
#     4  11  18  34  56  83 113 142 183 243 283 336
#     4  10  20  39  57  80 114 152 188 242 278 339
#
# _framework density 23.211324000000001
#
# number of rings (size 3 to 8) (size 9 to 14) (size 15 to 20)
#    0.000    1.714    4.286    2.143    0.000    3.429 
#    0.000    1.429    0.000    5.143    0.000    0.000 
#    0.000    0.000    0.000    0.000    0.000    0.000 
#
# Total GULP energy -156119.997887 kJ/mol
# GULP energy per Si atom -5575.714210 kJ/mol
# Density = 2.315849 g / cm^3
# Si number density = 23.211324 Si / 1000 Ang^3
#
#
#
# Elastic Constant Matrix: (Units=GPa)
#
#
# Indices 1 2 3 4 5 6 
#
# 1 34.6776 16.7710 11.3189 0.0000 9.7035 0.0000
# 2 16.7710 96.2321 33.5630 0.0000 0.4423 0.0000
# 3 11.3189 33.5630 174.8947 0.0000 10.3857 0.0000
# 4 0.0000 0.0000 0.0000 -9.6727 0.0000 -34.0811
# 5 9.7035 0.4423 10.3857 0.0000 27.0809 0.0000
# 6 0.0000 0.0000 0.0000 -34.0811 0.0000 -5.4621
#
#
#
# Elastic Compliance Matrix: (Units=1/GPa)
#
#
# Indices 1 2 3 4 5 6 
#
# 1 0.035321 -0.005957 -0.000406 0.000000 -0.012403 0.000000
# 2 -0.005957 0.012153 -0.002110 0.000000 0.002745 0.000000
# 3 -0.000406 -0.002110 0.006281 0.000000 -0.002229 0.000000
# 4 0.000000 0.000000 0.000000 0.004927 0.000000 -0.030740
# 5 -0.012403 0.002745 -0.002229 0.000000 0.042181 0.000000
# 6 0.000000 0.000000 0.000000 -0.030740 0.000000 0.008724
#
#
# Mechanical properties :
#
#
# Convention : Reuss Voigt Hill
#
# Bulk Modulus (GPa) = 27.16689 47.67892 37.42290
# Shear Modulus (GPa) = 36.02242 18.66600 27.34421
#
# Velocity S-wave (km/s) = 3.94373 2.83888 3.43600
# Velocity P-wave (km/s) = 5.69798 5.59745 5.64794
#
# Compressibility (1/GPa) = 0.03680952
#
# Stress axis : x y z
#
# Youngs Moduli (GPa) = 28.31164 82.28501 159.20457
#
# Poissons Ratio (x) = 0.49017 0.06468
# Poissons Ratio (y) = 0.16865 0.33587
# Poissons Ratio (z) = 0.01150 0.17359
#
# Static dielectric constant tensor:
#      x y z
#    x 1.977920 0.000000 0.035150 
#    y 0.000000 1.870440 0.000000 
#    z 0.035150 0.000000 1.932910 
# 
# From -- ./inp_files/145586.got.cif
#   From: 2010.05.17/outbox.cif.g08.bks.cpg/sg15_73_cif.got.tgz:145586.got - 2010.06.03 18:47:42.
