data_PCOD9255185
_publ_section_title
;
Structure prediction by ZEFSAII (Michael W. Deem and Ramdas Pophale) SiO2 
 PCOD9255185
Probable space group: C 2/C
;
_chemical_formula_sum "Si O2"
_cell_formula_units_Z 56
_cell_length_a 16.766985
_cell_length_b 21.566778
_cell_length_c 9.650601
_cell_angle_alpha 90.000000
_cell_angle_beta 59.608727
_cell_angle_gamma 90.000000
_cell_volume 3010.228016
_symmetry_space_group_name_H-M "C 2/C"
_symmetry_group_IT_number 15
_symmetry_cell_setting 'monoclinic'
loop_
_space_group_symop_operation_xyz
x,y,z
-x,y,1/2-z
-x,-y,-z
x,-y,1/2+z
1/2+x,1/2+y,z
1/2-x,1/2+y,1/2-z
1/2-x,1/2-y,-z
1/2+x,1/2-y,1/2+z
loop_
_atom_site_type_symbol
_atom_site_label
_atom_site_fract_x
_atom_site_fract_y
_atom_site_fract_z
Si Si1 0.124106 0.036030 0.769951
Si Si2 0.912015 0.928075 0.508042
Si Si3 0.105986 0.326488 0.638947
Si Si4 0.607316 0.198790 0.685361
Si Si5 0.069192 0.785601 0.970107
Si Si6 0.226175 0.633556 0.791892
Si Si7 0.144751 0.251542 0.857595
O O1 0.127787 0.044493 0.600793
O O2 0.203425 0.076935 0.770618
O O3 0.125524 0.966567 0.828393
O O4 0.022998 0.061911 0.902014
O O5 0.898000 0.854813 0.532306
O O6 0.100325 0.260367 0.564239
O O7 0.165203 0.368761 0.485110
O O8 0.149240 0.308929 0.747658
O O9 0.000000 0.348076 0.750000
O O10 0.500000 0.182702 0.750000
O O11 0.604344 0.256172 0.795971
O O12 0.659491 0.143545 0.718835
O O13 0.653846 0.221714 0.503685
O O14 0.957958 0.778453 0.063300
O O15 0.285373 0.697163 0.741586
#
# Coordination Sequence:
#
# PCOD9255185 Si02
#       7
#     8   8   8   8   8   8   8
#     4  10  22  35  57  78 110 151 190 234 268 331
#     4  10  20  38  52  80 114 150 189 224 280 325
#     4   9  19  31  52  78 111 147 182 228 285 339
#     4   9  20  33  49  80 118 151 182 228 285 339
#     4   9  17  32  52  73 113 158 183 215 282 341
#     4  11  19  33  52  80 110 147 188 230 280 338
#     4  10  17  29  47  77 110 147 188 224 267 335
#
# _framework density 18.603241000000001
#
# number of rings (size 3 to 8) (size 9 to 14) (size 15 to 20)
#    0.000    2.286    1.429    2.571    4.000    2.286 
#    7.714    1.429    0.000    0.000    0.000    3.000 
#    0.000    0.000    0.000    0.000    0.000    0.000 
#
# Total GULP energy -156278.235097 kJ/mol
# GULP energy per Si atom -5581.365539 kJ/mol
# Density = 1.856090 g / cm^3
# Si number density = 18.603241 Si / 1000 Ang^3
#
#
#
# Elastic Constant Matrix: (Units=GPa)
#
#
# Indices 1 2 3 4 5 6 
#
# 1 57.9215 27.4146 32.7234 0.0000 4.5471 0.0000
# 2 27.4146 41.5710 12.1400 0.0000 -1.0692 0.0000
# 3 32.7234 12.1400 96.5061 0.0000 15.2540 0.0000
# 4 0.0000 0.0000 0.0000 15.8985 0.0000 -3.7064
# 5 4.5471 -1.0692 15.2540 0.0000 28.3347 0.0000
# 6 0.0000 0.0000 0.0000 -3.7064 0.0000 24.0070
#
#
#
# Elastic Compliance Matrix: (Units=1/GPa)
#
#
# Indices 1 2 3 4 5 6 
#
# 1 0.030100 -0.017610 -0.007785 0.000000 -0.001304 0.000000
# 2 -0.017610 0.035492 0.000927 0.000000 0.003666 0.000000
# 3 -0.007785 0.000927 0.013862 0.000000 -0.006178 0.000000
# 4 0.000000 0.000000 0.000000 0.065247 0.000000 0.010073
# 5 -0.001304 0.003666 -0.006178 0.000000 0.038966 0.000000
# 6 0.000000 0.000000 0.000000 0.010073 0.000000 0.043210
#
#
# Mechanical properties :
#
#
# Convention : Reuss Voigt Hill
#
# Bulk Modulus (GPa) = 32.76782 37.83938 35.30360
# Shear Modulus (GPa) = 17.48336 21.89608 19.68972
#
# Velocity S-wave (km/s) = 3.06894 3.43447 3.25684
# Velocity P-wave (km/s) = 5.49638 6.00931 5.75856
#
# Compressibility (1/GPa) = 0.03051774
#
# Stress axis : x y z
#
# Youngs Moduli (GPa) = 33.22220 28.17535 72.14100
#
# Poissons Ratio (x) = 0.49617 0.56162
# Poissons Ratio (y) = 0.58505 -0.06688
# Poissons Ratio (z) = 0.25864 -0.02612
#
# Static dielectric constant tensor:
#      x y z
#    x 1.692050 0.000000 0.000160 
#    y 0.000000 1.597340 0.000000 
#    z 0.000160 0.000000 1.673700 
# 
# From -- ./inp_files/50097.got.cif
#   From: 2010.05.17/outbox.cif.g08.bks.cpg/sg15_26_cif.got.tgz:50097.got - 2010.06.03 18:47:42.
