data_PCOD9255978
_publ_section_title
;
Structure prediction by ZEFSAII (Michael W. Deem and Ramdas Pophale) SiO2 
 PCOD9255978
Probable space group: C 2/C
;
_chemical_formula_sum "Si O2"
_cell_formula_units_Z 52
_cell_length_a 14.298404
_cell_length_b 18.678847
_cell_length_c 12.200375
_cell_angle_alpha 90.000000
_cell_angle_beta 41.992526
_cell_angle_gamma 90.000000
_cell_volume 2180.011461
_symmetry_space_group_name_H-M "C 2/C"
_symmetry_group_IT_number 15
_symmetry_cell_setting 'monoclinic'
loop_
_space_group_symop_operation_xyz
x,y,z
-x,y,1/2-z
-x,-y,-z
x,-y,1/2+z
1/2+x,1/2+y,z
1/2-x,1/2+y,1/2-z
1/2-x,1/2-y,-z
1/2+x,1/2-y,1/2+z
loop_
_atom_site_type_symbol
_atom_site_label
_atom_site_fract_x
_atom_site_fract_y
_atom_site_fract_z
Si Si1 0.000000 0.220240 0.250000
Si Si2 0.500000 0.093351 0.250000
Si Si3 0.500000 0.522619 0.750000
Si Si4 0.633973 0.882889 0.860038
Si Si5 0.311684 0.371761 0.078495
Si Si6 0.813931 0.248389 0.216270
Si Si7 0.193098 0.532603 0.513683
Si Si8 0.573478 0.609073 0.475061
O O1 0.883730 0.175742 0.419487
O O2 0.912866 0.260108 0.234159
O O3 0.456710 0.129386 0.171175
O O4 0.373921 0.042521 0.397592
O O5 0.640654 0.477711 0.654132
O O6 0.538692 0.576168 0.619552
O O7 0.686271 0.805346 0.855865
O O8 0.604948 0.930955 0.991815
O O9 0.777035 0.919426 0.692687
O O10 0.253631 0.326383 0.233224
O O11 0.447075 0.412406 0.006059
O O12 0.196483 0.418668 0.119311
O O13 0.899435 0.196357 0.058506
#
# Coordination Sequence:
#
# PCOD9255978 Si02
#       8
#     4   4   4   8   8   8   8   8
#     4  10  17  33  62  90 134 167 221 270 342 412
#     4  12  26  45  59 101 146 185 232 284 362 420
#     4  12  23  44  73  97 134 186 245 286 330 426
#     4  10  22  45  64  93 136 188 228 283 347 415
#     4  11  20  39  63 103 134 173 227 285 358 411
#     4   9  20  39  63  94 136 173 221 291 346 413
#     4  12  24  38  69 104 137 178 227 298 352 418
#     4   9  22  42  68  95 129 186 236 283 340 409
#
# _framework density 23.853086000000001
#
# number of rings (size 3 to 8) (size 9 to 14) (size 15 to 20)
#    0.923    0.615    3.077    2.308    2.154    1.846 
#    2.769    1.538    0.000    0.000    0.000    0.000 
#    0.000    0.000    0.000    0.000    0.000    0.000 
#
# Total GULP energy -144859.769188 kJ/mol
# GULP energy per Si atom -5571.529584 kJ/mol
# Density = 2.379879 g / cm^3
# Si number density = 23.853086 Si / 1000 Ang^3
#
#
#
# Elastic Constant Matrix: (Units=GPa)
#
#
# Indices 1 2 3 4 5 6 
#
# 1 126.5748 20.2771 21.1633 0.0003 3.9041 -0.0002
# 2 20.2771 54.4044 26.2585 0.0001 7.0965 -0.0001
# 3 21.1633 26.2585 74.5011 0.0002 4.7804 -0.0002
# 4 0.0003 0.0001 0.0002 25.3613 -0.0002 -12.7552
# 5 3.9041 7.0965 4.7804 -0.0002 24.0312 0.0002
# 6 -0.0002 -0.0001 -0.0002 -12.7552 0.0002 6.3762
#
#
#
# Elastic Compliance Matrix: (Units=1/GPa)
#
#
# Indices 1 2 3 4 5 6 
#
# 1 0.008556 -0.002384 -0.001566 -0.000004 -0.000374 -0.000009
# 2 -0.002384 0.023436 -0.007256 -0.000022 -0.005090 -0.000043
# 3 -0.001566 -0.007256 0.016482 -0.000007 -0.000881 -0.000014
# 4 -0.000004 -0.000022 -0.000007 -6.471144 0.000051-12.945107
# 5 -0.000374 -0.005090 -0.000881 0.000051 0.043352 0.000101
# 6 -0.000009 -0.000043 -0.000014-12.945107 0.000101-25.739019
#
#
# Mechanical properties :
#
#
# Convention : Reuss Voigt Hill
#
# Bulk Modulus (GPa) = 38.37283 43.43090 40.90186
# Shear Modulus (GPa) = -0.15583 23.67250 11.75834
#
# Velocity S-wave (km/s) = -0.25587 3.15370 2.22265
# Velocity P-wave (km/s) = 4.00435 5.61323 4.87561
#
# Compressibility (1/GPa) = 0.02606011
#
# Stress axis : x y z
#
# Youngs Moduli (GPa) = 116.87974 42.67006 60.67382
#
# Poissons Ratio (x) = 0.10173 0.09502
# Poissons Ratio (y) = 0.27866 0.44026
# Poissons Ratio (z) = 0.18304 0.30962
#
# Static dielectric constant tensor:
#      x y z
#    x 1.960340 0.000000 -0.034080 
#    y 0.000000 1.924390 0.000000 
#    z -0.034080 0.000000 1.959880 
# 
# From -- ./inp_files/99722.got.cif
#   From: 2010.05.17/outbox.cif.g08.bks.cpg/sg15_50_cif.got.tgz:99722.got - 2010.06.03 18:47:42.
