data_PCOD9255810
_publ_section_title
;
Structure prediction by ZEFSAII (Michael W. Deem and Ramdas Pophale) SiO2 
 PCOD9255810
Probable space group: C 2/C
;
_chemical_formula_sum "Si O2"
_cell_formula_units_Z 56
_cell_length_a 10.740488
_cell_length_b 16.574133
_cell_length_c 17.890975
_cell_angle_alpha 90.000000
_cell_angle_beta 62.305314
_cell_angle_gamma 90.000000
_cell_volume 2819.982274
_symmetry_space_group_name_H-M "C 2/C"
_symmetry_group_IT_number 15
_symmetry_cell_setting 'monoclinic'
loop_
_space_group_symop_operation_xyz
x,y,z
-x,y,1/2-z
-x,-y,-z
x,-y,1/2+z
1/2+x,1/2+y,z
1/2-x,1/2+y,1/2-z
1/2-x,1/2-y,-z
1/2+x,1/2-y,1/2+z
loop_
_atom_site_type_symbol
_atom_site_label
_atom_site_fract_x
_atom_site_fract_y
_atom_site_fract_z
Si Si1 0.365747 0.448064 0.339174
Si Si2 0.813451 0.404615 0.368312
Si Si3 0.885594 0.861559 0.839527
Si Si4 0.159759 0.248391 0.948982
Si Si5 0.088773 0.797890 0.905103
Si Si6 0.357331 0.548839 0.019030
Si Si7 0.376153 0.138167 0.680599
O O1 0.500000 0.421166 0.250000
O O2 0.361557 0.544921 0.332272
O O3 0.371216 0.433085 0.426738
O O4 0.222944 0.410352 0.347632
O O5 0.688104 0.340391 0.410729
O O6 0.764935 0.487080 0.420400
O O7 0.842887 0.399084 0.271654
O O8 0.954617 0.372619 0.370002
O O9 0.739866 0.814056 0.877521
O O10 0.968198 0.847302 0.893737
O O11 0.000000 0.828010 0.750000
O O12 0.250000 0.250000 0.000000
O O13 0.996745 0.257017 0.011585
O O14 0.166258 0.868299 0.928104
O O15 0.154913 0.732800 0.829665
O O16 0.500000 0.500000 0.000000
#
# Coordination Sequence:
#
# PCOD9255810 Si02
#       7
#     8   8   8   8   8   8   8
#     4  11  25  42  65  96 133 172 220 267 325 391
#     4  11  22  41  66  96 131 168 214 272 327 380
#     4  10  19  34  60  95 121 162 227 270 306 370
#     4  10  17  32  60  95 120 157 217 266 308 363
#     4  11  22  37  66  96 126 172 216 266 318 391
#     4  12  22  41  68  95 130 175 220 261 322 391
#     4  11  25  42  64  97 133 166 214 273 331 376
#
# _framework density 19.858281999999999
#
# number of rings (size 3 to 8) (size 9 to 14) (size 15 to 20)
#    0.000    1.143    5.714    2.571    2.000    1.143 
#    0.000    0.000    3.143    0.000    0.000    0.000 
#    0.000    0.000    0.000    0.000    0.000    0.000 
#
# Total GULP energy -155929.760350 kJ/mol
# GULP energy per Si atom -5568.920013 kJ/mol
# Density = 1.981308 g / cm^3
# Si number density = 19.858282 Si / 1000 Ang^3
#
#
#
# Elastic Constant Matrix: (Units=GPa)
#
#
# Indices 1 2 3 4 5 6 
#
# 1 51.9625 24.2381 35.0894 0.0000 19.8727 0.0000
# 2 24.2381 91.7884 36.0136 0.0000 10.7434 0.0000
# 3 35.0894 36.0136 97.2017 0.0000 8.7392 0.0000
# 4 0.0000 0.0000 0.0000 20.1211 0.0000 3.0223
# 5 19.8727 10.7434 8.7392 0.0000 25.9914 0.0000
# 6 0.0000 0.0000 0.0000 3.0223 0.0000 34.7471
#
#
#
# Elastic Compliance Matrix: (Units=1/GPa)
#
#
# Indices 1 2 3 4 5 6 
#
# 1 0.036110 -0.002966 -0.009863 0.000000 -0.023067 0.000000
# 2 -0.002966 0.013365 -0.003700 0.000000 -0.002013 0.000000
# 3 -0.009863 -0.003700 0.014853 0.000000 0.004076 0.000000
# 4 0.000000 0.000000 0.000000 0.050357 0.000000 -0.004380
# 5 -0.023067 -0.002013 0.004076 0.000000 0.055573 0.000000
# 6 0.000000 0.000000 0.000000 -0.004380 0.000000 0.029160
#
#
# Mechanical properties :
#
#
# Convention : Reuss Voigt Hill
#
# Bulk Modulus (GPa) = 31.97915 47.95942 39.96928
# Shear Modulus (GPa) = 20.58467 25.87936 23.23202
#
# Velocity S-wave (km/s) = 3.22309 3.61391 3.42408
# Velocity P-wave (km/s) = 5.47629 6.45113 5.98359
#
# Compressibility (1/GPa) = 0.03127037
#
# Stress axis : x y z
#
# Youngs Moduli (GPa) = 27.69299 74.82141 67.32744
#
# Poissons Ratio (x) = 0.22190 0.66404
# Poissons Ratio (y) = 0.08213 0.24913
# Poissons Ratio (z) = 0.27313 0.27686
#
# Static dielectric constant tensor:
#      x y z
#    x 1.692650 0.000000 -0.028560 
#    y 0.000000 1.720340 0.000000 
#    z -0.028560 0.000000 1.865660 
# 
# From -- ./inp_files/145562.got.cif
#   From: 2010.05.17/outbox.cif.g08.bks.cpg/sg15_73_cif.got.tgz:145562.got - 2010.06.03 18:47:42.
