data_PCOD9255593
_publ_section_title
;
Structure prediction by ZEFSAII (Michael W. Deem and Ramdas Pophale) SiO2 
 PCOD9255593
Probable space group: C 2/C
;
_chemical_formula_sum "Si O2"
_cell_formula_units_Z 40
_cell_length_a 8.591654
_cell_length_b 21.147314
_cell_length_c 9.903801
_cell_angle_alpha 90.000000
_cell_angle_beta 88.412523
_cell_angle_gamma 90.000000
_cell_volume 1798.734983
_symmetry_space_group_name_H-M "C 2/C"
_symmetry_group_IT_number 15
_symmetry_cell_setting 'monoclinic'
loop_
_space_group_symop_operation_xyz
x,y,z
-x,y,1/2-z
-x,-y,-z
x,-y,1/2+z
1/2+x,1/2+y,z
1/2-x,1/2+y,1/2-z
1/2-x,1/2-y,-z
1/2+x,1/2-y,1/2+z
loop_
_atom_site_type_symbol
_atom_site_label
_atom_site_fract_x
_atom_site_fract_y
_atom_site_fract_z
Si Si1 0.680002 0.393766 0.790428
Si Si2 0.329595 0.658256 0.684441
Si Si3 0.610548 0.523803 0.875076
Si Si4 0.182395 0.319143 0.466313
Si Si5 0.616496 0.796738 0.876655
O O1 0.500000 0.392865 0.750000
O O2 0.721403 0.467201 0.819461
O O3 0.766767 0.350779 0.677670
O O4 0.719515 0.362469 0.933487
O O5 0.500000 0.659078 0.750000
O O6 0.315969 0.592785 0.603011
O O7 0.212967 0.661791 0.812777
O O8 0.321034 0.725090 0.607836
O O9 0.500000 0.533502 0.750000
O O10 0.500000 0.500000 0.000000
O O11 0.250000 0.250000 0.500000
O O12 0.999661 0.318458 0.503387
O O13 0.500000 0.791830 0.750000
#
# Coordination Sequence:
#
# PCOD9255593 Si02
#       5
#     8   8   8   8   8
#     4  10  20  35  53  85 121 148 187 250 308 341
#     4  10  17  31  58  86 107 149 208 239 277 355
#     4  10  21  34  58  87 120 158 199 245 295 355
#     4  11  18  34  63  84 109 152 208 244 285 359
#     4   9  18  32  57  83 111 147 197 245 290 347
#
# _framework density 22.237850000000002
#
# number of rings (size 3 to 8) (size 9 to 14) (size 15 to 20)
#    0.000    2.000    6.000    2.400    0.000    0.000 
#    0.000    2.000    0.000    6.000    0.000    0.000 
#    0.000    0.000    0.000    0.000    0.000    0.000 
#
# Total GULP energy -111611.510353 kJ/mol
# GULP energy per Si atom -5580.575518 kJ/mol
# Density = 2.218724 g / cm^3
# Si number density = 22.237850 Si / 1000 Ang^3
#
#
#
# Elastic Constant Matrix: (Units=GPa)
#
#
# Indices 1 2 3 4 5 6 
#
# 1 71.3072 57.7813 33.6073 0.0000 -23.3276 0.0000
# 2 57.7813 213.3775 78.4541 0.0000 -19.1985 0.0000
# 3 33.6073 78.4541 117.1102 0.0000 -26.8568 0.0000
# 4 0.0000 0.0000 0.0000 64.4448 0.0000 5.7841
# 5 -23.3276 -19.1985 -26.8568 0.0000 49.0661 0.0000
# 6 0.0000 0.0000 0.0000 5.7841 0.0000 24.7405
#
#
#
# Elastic Compliance Matrix: (Units=1/GPa)
#
#
# Indices 1 2 3 4 5 6 
#
# 1 0.020647 -0.004472 -0.001234 0.000000 0.007391 0.000000
# 2 -0.004472 0.007188 -0.003859 0.000000 -0.001426 0.000000
# 3 -0.001234 -0.003859 0.012576 0.000000 0.004787 0.000000
# 4 0.000000 0.000000 0.000000 0.015850 0.000000 -0.003706
# 5 0.007391 -0.001426 0.004787 0.000000 0.025957 0.000000
# 6 0.000000 0.000000 0.000000 -0.003706 0.000000 0.041286
#
#
# Mechanical properties :
#
#
# Convention : Reuss Voigt Hill
#
# Bulk Modulus (GPa) = 46.99112 82.38671 64.68892
# Shear Modulus (GPa) = 33.39363 43.11376 38.25369
#
# Velocity S-wave (km/s) = 3.87933 4.40791 4.15204
# Velocity P-wave (km/s) = 6.42204 7.93943 7.22071
#
# Compressibility (1/GPa) = 0.02128061
#
# Stress axis : x y z
#
# Youngs Moduli (GPa) = 48.43208 139.11614 79.51546
#
# Poissons Ratio (x) = 0.62219 0.09813
# Poissons Ratio (y) = 0.21661 0.30686
# Poissons Ratio (z) = 0.05977 0.53686
#
# Static dielectric constant tensor:
#      x y z
#    x 1.891260 0.000000 0.020780 
#    y 0.000000 1.940800 0.000000 
#    z 0.020780 0.000000 1.867040 
# 
# From -- ./inp_files/77727.got.cif
#   From: 2010.05.17/outbox.cif.g08.bks.cpg/sg15_39_cif.got.tgz:77727.got - 2010.06.03 18:47:42.
