data_PCOD9255033
_publ_section_title
;
Structure prediction by ZEFSAII (Michael W. Deem and Ramdas Pophale) SiO2 
 PCOD9255033
Probable space group: C 2/C
;
_chemical_formula_sum "Si O2"
_cell_formula_units_Z 48
_cell_length_a 31.157504
_cell_length_b 6.943113
_cell_length_c 28.288042
_cell_angle_alpha 90.000000
_cell_angle_beta 163.433857
_cell_angle_gamma 90.000000
_cell_volume 1744.819694
_symmetry_space_group_name_H-M "C 2/C"
_symmetry_group_IT_number 15
_symmetry_cell_setting 'monoclinic'
loop_
_space_group_symop_operation_xyz
x,y,z
-x,y,1/2-z
-x,-y,-z
x,-y,1/2+z
1/2+x,1/2+y,z
1/2-x,1/2+y,1/2-z
1/2-x,1/2-y,-z
1/2+x,1/2-y,1/2+z
loop_
_atom_site_type_symbol
_atom_site_label
_atom_site_fract_x
_atom_site_fract_y
_atom_site_fract_z
Si Si1 0.757615 0.023019 0.494168
Si Si2 0.876491 0.164074 0.379129
Si Si3 0.305310 0.429053 0.704218
Si Si4 0.489695 0.970661 0.834944
Si Si5 0.009813 0.992481 0.182870
Si Si6 0.632215 0.866514 0.697842
O O1 0.750000 0.250000 0.500000
O O2 0.595928 0.967009 0.302966
O O3 0.843957 0.951783 0.631329
O O4 0.868421 0.978532 0.567390
O O5 0.754489 0.088858 0.287211
O O6 0.969782 0.335495 0.501847
O O7 0.807606 0.192995 0.254549
O O8 0.000000 0.000000 0.500000
O O9 0.452199 0.405101 0.826290
O O10 0.316472 0.653814 0.731151
O O11 0.148509 0.428078 0.510751
O O12 0.503751 0.737405 0.843054
O O13 0.390902 0.986417 0.778692
#
# Coordination Sequence:
#
# PCOD9255033 Si02
#       6
#     8   8   8   8   8   8
#     4   9  17  26  43  70 102 139 170 197 254 329
#     4  10  22  36  53  73 101 142 182 221 262 310
#     4  10  20  32  49  73 101 143 179 213 257 309
#     4  10  17  27  48  70 102 139 171 206 257 316
#     4   9  17  29  44  69 107 140 167 206 252 314
#     4  10  19  36  50  72 105 138 175 226 260 304
#
# _framework density 27.510003999999999
#
# number of rings (size 3 to 8) (size 9 to 14) (size 15 to 20)
#    0.000    2.333    1.667    3.000    4.667    2.667 
#    0.000    0.000    0.000    0.000    0.000    0.000 
#    0.000   16.000    0.000    0.000    0.000    0.000 
#
# Total GULP energy -134355.612449 kJ/mol
# GULP energy per Si atom -5598.150519 kJ/mol
# Density = 2.744739 g / cm^3
# Si number density = 27.510004 Si / 1000 Ang^3
#
#
#
# Elastic Constant Matrix: (Units=GPa)
#
#
# Indices 1 2 3 4 5 6 
#
# 1 213.0183 30.4268 53.3143 -0.0063 27.5846 -0.0025
# 2 30.4268 98.6326 12.2355 0.0015 -4.9133 0.0009
# 3 53.3143 12.2355 175.8179 -0.0273 -21.8011 -0.0079
# 4 -0.0063 0.0015 -0.0273 8.3689 -0.0099 13.5884
# 5 27.5846 -4.9133 -21.8011 -0.0099 48.3970 -0.0001
# 6 -0.0025 0.0009 -0.0079 13.5884 -0.0001 25.8411
#
#
#
# Elastic Compliance Matrix: (Units=1/GPa)
#
#
# Indices 1 2 3 4 5 6 
#
# 1 0.006154 -0.001846 -0.002326 -0.000056 -0.004743 0.000029
# 2 -0.001846 0.010807 0.000079 0.000003 0.002185 -0.000002
# 3 -0.002326 0.000079 0.006941 0.000158 0.004460 -0.000081
# 4 -0.000056 0.000003 0.000158 0.817329 0.000269 -0.429789
# 5 -0.004743 0.002185 0.004460 0.000269 0.025597 -0.000140
# 6 0.000029 -0.000002 -0.000081 -0.429789 -0.000140 0.264700
#
#
# Mechanical properties :
#
#
# Convention : Reuss Voigt Hill
#
# Bulk Modulus (GPa) = 63.63218 75.49133 69.56175
# Shear Modulus (GPa) = 4.36699 42.62089 23.49394
#
# Velocity S-wave (km/s) = 1.26129 3.94037 2.92552
# Velocity P-wave (km/s) = 5.03010 6.94284 6.06238
#
# Compressibility (1/GPa) = 0.01571532
#
# Stress axis : x y z
#
# Youngs Moduli (GPa) = 162.48356 92.53033 144.07982
#
# Poissons Ratio (x) = 0.17084 0.33512
# Poissons Ratio (y) = 0.29999 -0.01134
# Poissons Ratio (z) = 0.37792 -0.00728
#
# Static dielectric constant tensor:
#      x y z
#    x 2.004400 0.000000 -0.159640 
#    y 0.000000 2.253010 0.000000 
#    z -0.159640 0.000000 1.976710 
# 
# From -- ./inp_files/283557.got.cif
#   From: 2010.05.17/outbox.cif.g08.bks.cpg/sg15_142_cif.got.tgz:283557.got - 2010.06.03 18:47:42.
