data_PCOD9255165
_publ_section_title
;
Structure prediction by ZEFSAII (Michael W. Deem and Ramdas Pophale) SiO2 
 PCOD9255165
Probable space group: C 2/C
;
_chemical_formula_sum "Si O2"
_cell_formula_units_Z 40
_cell_length_a 6.658681
_cell_length_b 16.763042
_cell_length_c 13.996382
_cell_angle_alpha 90.000000
_cell_angle_beta 85.121036
_cell_angle_gamma 90.000000
_cell_volume 1556.611895
_symmetry_space_group_name_H-M "C 2/C"
_symmetry_group_IT_number 15
_symmetry_cell_setting 'monoclinic'
loop_
_space_group_symop_operation_xyz
x,y,z
-x,y,1/2-z
-x,-y,-z
x,-y,1/2+z
1/2+x,1/2+y,z
1/2-x,1/2+y,1/2-z
1/2-x,1/2-y,-z
1/2+x,1/2-y,1/2+z
loop_
_atom_site_type_symbol
_atom_site_label
_atom_site_fract_x
_atom_site_fract_y
_atom_site_fract_z
Si Si1 0.484105 0.812368 0.137695
Si Si2 0.763041 0.043417 0.580004
Si Si3 0.196078 0.847387 0.580252
Si Si4 0.326889 0.129861 0.471907
Si Si5 0.756525 0.581351 0.278290
O O1 0.500000 0.796576 0.250000
O O2 0.586047 0.899209 0.122478
O O3 0.618596 0.741697 0.088887
O O4 0.291249 0.823825 0.073462
O O5 0.891275 0.100248 0.504670
O O6 0.699432 0.966228 0.520039
O O7 0.831613 0.000202 0.673878
O O8 0.437085 0.851901 0.556772
O O9 0.168163 0.889262 0.683261
O O10 0.234929 0.143763 0.368820
O O11 0.000000 0.570759 0.250000
#
# Coordination Sequence:
#
# PCOD9255165 Si02
#       5
#     8   8   8   8   8
#     4  11  20  27  44  71 107 132 156 195 246 294
#     4   9  17  27  52  73  96 121 164 204 243 279
#     4  10  17  29  43  74 105 126 153 203 254 278
#     4   8  17  29  49  73  95 122 159 210 241 281
#     4   8  16  26  48  71  94 119 158 204 238 283
#
# _framework density 25.696835
#
# number of rings (size 3 to 8) (size 9 to 14) (size 15 to 20)
#    1.200    1.600    0.000    5.400    2.800    0.000 
#    0.000    1.000    0.000    1.200    0.000    4.200 
#    0.000    0.000    0.000    0.000    0.000    0.000 
#
# Total GULP energy -111415.534302 kJ/mol
# GULP energy per Si atom -5570.776715 kJ/mol
# Density = 2.563835 g / cm^3
# Si number density = 25.696835 Si / 1000 Ang^3
#
#
#
# Elastic Constant Matrix: (Units=GPa)
#
#
# Indices 1 2 3 4 5 6 
#
# 1 55.2653 24.2691 18.0703 0.0000 14.2262 0.0000
# 2 24.2691 136.8740 56.5939 0.0000 12.9765 0.0000
# 3 18.0703 56.5939 224.4807 0.0000 13.8724 0.0000
# 4 0.0000 0.0000 0.0000 58.9121 0.0000 -12.7233
# 5 14.2262 12.9765 13.8724 0.0000 46.1363 0.0000
# 6 0.0000 0.0000 0.0000 -12.7233 0.0000 22.5684
#
#
#
# Elastic Compliance Matrix: (Units=1/GPa)
#
#
# Indices 1 2 3 4 5 6 
#
# 1 0.020996 -0.002954 -0.000608 0.000000 -0.005461 0.000000
# 2 -0.002954 0.008706 -0.001897 0.000000 -0.000967 0.000000
# 3 -0.000608 -0.001897 0.005031 0.000000 -0.000792 0.000000
# 4 0.000000 0.000000 0.000000 0.019328 0.000000 0.010896
# 5 -0.005461 -0.000967 -0.000792 0.000000 0.023869 0.000000
# 6 0.000000 0.000000 0.000000 0.010896 0.000000 0.050453
#
#
# Mechanical properties :
#
#
# Convention : Reuss Voigt Hill
#
# Bulk Modulus (GPa) = 41.99065 68.27629 55.13347
# Shear Modulus (GPa) = 33.95852 46.70249 40.33051
#
# Velocity S-wave (km/s) = 3.63920 4.26777 3.96596
# Velocity P-wave (km/s) = 5.83392 7.13532 6.51718
#
# Compressibility (1/GPa) = 0.02381482
#
# Stress axis : x y z
#
# Youngs Moduli (GPa) = 47.62797 114.86454 198.77088
#
# Poissons Ratio (x) = 0.33928 0.12086
# Poissons Ratio (y) = 0.14068 0.37713
# Poissons Ratio (z) = 0.02896 0.21793
#
# Static dielectric constant tensor:
#      x y z
#    x 2.206150 0.000000 0.022220 
#    y 0.000000 1.975570 0.000000 
#    z 0.022220 0.000000 2.160210 
# 
# From -- ./inp_files/133958.got.cif
#   From: 2010.05.17/outbox.cif.g08.bks.cpg/sg15_67_cif.got.tgz:133958.got - 2010.06.03 18:47:42.
