data_PCOD9255488
_publ_section_title
;
Structure prediction by ZEFSAII (Michael W. Deem and Ramdas Pophale) SiO2 
 PCOD9255488
Probable space group: C 2/C
;
_chemical_formula_sum "Si O2"
_cell_formula_units_Z 36
_cell_length_a 9.061251
_cell_length_b 23.973447
_cell_length_c 8.398036
_cell_angle_alpha 90.000000
_cell_angle_beta 131.885222
_cell_angle_gamma 90.000000
_cell_volume 1358.162113
_symmetry_space_group_name_H-M "C 2/C"
_symmetry_group_IT_number 15
_symmetry_cell_setting 'monoclinic'
loop_
_space_group_symop_operation_xyz
x,y,z
-x,y,1/2-z
-x,-y,-z
x,-y,1/2+z
1/2+x,1/2+y,z
1/2-x,1/2+y,1/2-z
1/2-x,1/2-y,-z
1/2+x,1/2-y,1/2+z
loop_
_atom_site_type_symbol
_atom_site_label
_atom_site_fract_x
_atom_site_fract_y
_atom_site_fract_z
Si Si1 0.000000 0.254417 0.250000
Si Si2 0.227575 0.433989 0.970148
Si Si3 0.227394 0.449804 0.348240
Si Si4 0.714132 0.184503 0.485482
Si Si5 0.158432 0.168896 0.556489
O O1 0.978364 0.210575 0.382255
O O2 0.170833 0.298248 0.418828
O O3 0.312803 0.490076 0.956575
O O4 0.319371 0.373085 0.995706
O O5 0.000000 0.432833 0.750000
O O6 0.224205 0.444128 0.155992
O O7 0.341744 0.395191 0.492315
O O8 0.000000 0.446201 0.250000
O O9 0.500000 0.179311 0.250000
O O10 0.750000 0.250000 0.500000
O O11 0.757252 0.174964 0.704528
#
# Coordination Sequence:
#
# PCOD9255488 Si02
#       5
#     4   8   8   8   8
#     4  10  20  36  50  82 102 144 176 214 268 316
#     4   9  18  30  50  78 105 137 175 223 261 316
#     4  10  17  31  51  77 105 136 178 222 266 311
#     4  10  20  35  55  79 107 137 176 221 268 316
#     4  10  20  34  56  76 111 136 180 218 266 318
#
# _framework density 26.506409999999999
#
# number of rings (size 3 to 8) (size 9 to 14) (size 15 to 20)
#    0.000    2.222    1.111    4.000    0.000    0.000 
#    8.000    0.000    2.444    2.667    0.000    0.000 
#    0.000    0.000    0.000    0.000    0.000    0.000 
#
# Total GULP energy -100395.685542 kJ/mol
# GULP energy per Si atom -5577.538086 kJ/mol
# Density = 2.644608 g / cm^3
# Si number density = 26.506410 Si / 1000 Ang^3
#
#
#
# Elastic Constant Matrix: (Units=GPa)
#
#
# Indices 1 2 3 4 5 6 
#
# 1 62.4951 52.4513 18.4523 0.0000 5.0918 0.0000
# 2 52.4513 367.4878 62.2744 0.0000 -21.3747 0.0000
# 3 18.4523 62.2744 161.9626 0.0000 5.3889 0.0000
# 4 0.0000 0.0000 0.0000 59.4502 0.0000 -10.0775
# 5 5.0918 -21.3747 5.3889 0.0000 33.8794 0.0000
# 6 0.0000 0.0000 0.0000 -10.0775 0.0000 23.9293
#
#
#
# Elastic Compliance Matrix: (Units=1/GPa)
#
#
# Indices 1 2 3 4 5 6 
#
# 1 0.019005 -0.002815 -0.000934 0.000000 -0.004484 0.000000
# 2 -0.002815 0.003473 -0.001107 0.000000 0.002790 0.000000
# 3 -0.000934 -0.001107 0.006761 0.000000 -0.001634 0.000000
# 4 0.000000 0.000000 0.000000 0.018114 0.000000 0.007628
# 5 -0.004484 0.002790 -0.001634 0.000000 0.032211 0.000000
# 6 0.000000 0.000000 0.000000 0.007628 0.000000 0.045002
#
#
# Mechanical properties :
#
#
# Convention : Reuss Voigt Hill
#
# Bulk Modulus (GPa) = 51.21307 95.36683 73.28995
# Shear Modulus (GPa) = 35.51465 54.03628 44.77546
#
# Velocity S-wave (km/s) = 3.66437 4.52000 4.11448
# Velocity P-wave (km/s) = 6.10462 7.95597 7.09097
#
# Compressibility (1/GPa) = 0.01952627
#
# Stress axis : x y z
#
# Youngs Moduli (GPa) = 52.61783 287.93918 147.91138
#
# Poissons Ratio (x) = 0.81060 0.13809
# Poissons Ratio (y) = 0.14813 0.16381
# Poissons Ratio (z) = 0.04912 0.31888
#
# Static dielectric constant tensor:
#      x y z
#    x 1.928540 0.000000 -0.031470 
#    y 0.000000 2.068150 0.000000 
#    z -0.031470 0.000000 2.101030 
# 
# From -- ./inp_files/31667.got.cif
#   From: 2010.05.17/outbox.cif.g08.bks.cpg/sg15_16_cif.got.tgz:31667.got - 2010.06.03 18:47:42.
