data_PCOD9255118
_publ_section_title
;
Structure prediction by ZEFSAII (Michael W. Deem and Ramdas Pophale) SiO2 
 PCOD9255118
Probable space group: C 2/C
;
_chemical_formula_sum "Si O2"
_cell_formula_units_Z 56
_cell_length_a 18.600993
_cell_length_b 16.864760
_cell_length_c 30.195094
_cell_angle_alpha 90.000000
_cell_angle_beta 162.899216
_cell_angle_gamma 90.000000
_cell_volume 2785.344330
_symmetry_space_group_name_H-M "C 2/C"
_symmetry_group_IT_number 15
_symmetry_cell_setting 'monoclinic'
loop_
_space_group_symop_operation_xyz
x,y,z
-x,y,1/2-z
-x,-y,-z
x,-y,1/2+z
1/2+x,1/2+y,z
1/2-x,1/2+y,1/2-z
1/2-x,1/2-y,-z
1/2+x,1/2-y,1/2+z
loop_
_atom_site_type_symbol
_atom_site_label
_atom_site_fract_x
_atom_site_fract_y
_atom_site_fract_z
Si Si1 0.570170 0.488076 0.592811
Si Si2 0.953335 0.244818 0.924221
Si Si3 0.453544 0.110859 0.838817
Si Si4 0.495030 0.795893 0.856388
Si Si5 0.498290 0.797288 0.048750
Si Si6 0.234351 0.353265 0.420430
Si Si7 0.310871 0.892118 0.604765
O O1 0.500000 0.500000 0.500000
O O2 0.831464 0.526417 0.756296
O O3 0.476894 0.400152 0.547643
O O4 0.402286 0.544828 0.525093
O O5 0.959240 0.306918 0.887461
O O6 0.733596 0.181672 0.787248
O O7 0.935685 0.290350 0.960019
O O8 0.190219 0.186589 0.056822
O O9 0.499133 0.126433 0.917666
O O10 0.674738 0.122295 0.935215
O O11 0.271186 0.739793 0.710958
O O12 0.537933 0.868810 0.849329
O O13 0.750000 0.750000 0.000000
O O14 0.306995 0.738024 0.959471
O O15 0.000000 0.369565 0.250000
O O16 0.500000 0.929230 0.750000
#
# Coordination Sequence:
#
# PCOD9255118 Si02
#       7
#     8   8   8   8   8   8   8
#     4  11  22  34  52  79 118 149 184 235 294 359
#     4   9  17  32  50  77 113 146 187 236 286 341
#     4  10  22  37  52  87 119 149 196 239 296 351
#     4   9  19  30  48  78 110 148 192 230 286 341
#     4  11  20  35  56  80 120 154 193 245 289 349
#     4  12  21  35  57  85 120 160 192 234 304 355
#     4  10  17  28  48  77 107 144 180 230 287 340
#
# _framework density 20.105235
#
# number of rings (size 3 to 8) (size 9 to 14) (size 15 to 20)
#    0.000    1.714    4.286    2.571    0.000    0.000 
#    0.000    0.000    0.000    0.000    0.000   13.000 
#    0.000    0.000    0.000    0.000    0.000    0.000 
#
# Total GULP energy -156096.442921 kJ/mol
# GULP energy per Si atom -5574.872961 kJ/mol
# Density = 2.005947 g / cm^3
# Si number density = 20.105235 Si / 1000 Ang^3
#
#
#
# Elastic Constant Matrix: (Units=GPa)
#
#
# Indices 1 2 3 4 5 6 
#
# 1 89.9991 18.8524 10.5900 0.0235 -1.2379 0.0107
# 2 18.8524 53.7864 4.0998 0.0688 -5.2013 -0.0030
# 3 10.5900 4.0998 29.3507 0.1660 3.1753 0.0072
# 4 0.0235 0.0688 0.1660 28.1399 -0.0091 4.6282
# 5 -1.2379 -5.2013 3.1753 -0.0091 31.4867 0.0002
# 6 0.0107 -0.0030 0.0072 4.6282 0.0002 29.6460
#
#
#
# Elastic Compliance Matrix: (Units=1/GPa)
#
#
# Indices 1 2 3 4 5 6 
#
# 1 0.012423 -0.004033 -0.003943 0.000024 0.000220 -0.000008
# 2 -0.004033 0.020470 -0.001772 -0.000037 0.003402 0.000010
# 3 -0.003943 -0.001772 0.036185 -0.000211 -0.004097 0.000025
# 4 0.000024 -0.000037 -0.000211 0.036475 0.000027 -0.005694
# 5 0.000220 0.003402 -0.004097 0.000027 0.032743 -0.000003
# 6 -0.000008 0.000010 0.000025 -0.005694 -0.000003 0.034620
#
#
# Mechanical properties :
#
#
# Convention : Reuss Voigt Hill
#
# Bulk Modulus (GPa) = 20.16832 26.69119 23.42975
# Shear Modulus (GPa) = 23.93048 27.16077 25.54563
#
# Velocity S-wave (km/s) = 3.45376 3.67949 3.56841
# Velocity P-wave (km/s) = 5.09488 5.59965 5.35322
#
# Compressibility (1/GPa) = 0.04958271
#
# Stress axis : x y z
#
# Youngs Moduli (GPa) = 80.49656 48.85310 27.63548
#
# Poissons Ratio (x) = 0.19700 0.10896
# Poissons Ratio (y) = 0.32460 0.04897
# Poissons Ratio (z) = 0.31739 0.08657
#
# Static dielectric constant tensor:
#      x y z
#    x 1.757170 -0.000030 0.009090 
#    y -0.000030 1.761200 -0.000070 
#    z 0.009090 -0.000070 1.794140 
# 
# From -- ./inp_files/316594.got.cif
#   From: 2010.05.17/outbox.cif.g08.bks.cpg/sg15_159_cif.got.tgz:316594.got - 2010.06.03 18:47:42.
