data_PCOD9255399
_publ_section_title
;
Structure prediction by ZEFSAII (Michael W. Deem and Ramdas Pophale) SiO2 
 PCOD9255399
Probable space group: C 2/C
;
_chemical_formula_sum "Si O2"
_cell_formula_units_Z 60
_cell_length_a 9.613265
_cell_length_b 19.807670
_cell_length_c 19.814806
_cell_angle_alpha 90.000000
_cell_angle_beta 139.019997
_cell_angle_gamma 90.000000
_cell_volume 2474.358480
_symmetry_space_group_name_H-M "C 2/C"
_symmetry_group_IT_number 15
_symmetry_cell_setting 'monoclinic'
loop_
_space_group_symop_operation_xyz
x,y,z
-x,y,1/2-z
-x,-y,-z
x,-y,1/2+z
1/2+x,1/2+y,z
1/2-x,1/2+y,1/2-z
1/2-x,1/2-y,-z
1/2+x,1/2-y,1/2+z
loop_
_atom_site_type_symbol
_atom_site_label
_atom_site_fract_x
_atom_site_fract_y
_atom_site_fract_z
Si Si1 0.791043 0.813065 0.719774
Si Si2 0.694263 0.455834 0.735062
Si Si3 0.146145 0.345584 0.101686
Si Si4 0.533329 0.285702 0.945683
Si Si5 0.287646 0.471948 0.387638
Si Si6 0.256551 0.417299 0.506050
Si Si7 0.000000 0.067008 0.750000
Si Si8 0.275861 0.834406 0.207951
O O1 0.703390 0.889195 0.694059
O O2 0.681292 0.741290 0.661152
O O3 0.000000 0.818811 0.750000
O O4 0.880088 0.800645 0.827208
O O5 0.786328 0.475833 0.696215
O O6 0.443315 0.444044 0.622112
O O7 0.668473 0.518242 0.775815
O O8 0.352943 0.383505 0.150731
O O9 0.184201 0.340703 0.197181
O O10 0.094975 0.269776 0.058885
O O11 0.928914 0.387023 0.016348
O O12 0.750000 0.250000 0.000000
O O13 0.625438 0.358909 0.995606
O O14 0.500000 0.500000 0.500000
O O15 0.155442 0.460879 0.408219
O O16 0.321514 0.403479 0.356365
O O17 0.500000 0.831469 0.250000
#
# Coordination Sequence:
#
# PCOD9255399 Si02
#       8
#     8   8   8   8   8   8   4   8
#     4   9  17  28  49  77 110 140 185 228 272 325
#     4  10  20  34  49  80 115 155 179 223 290 348
#     4  10  19  32  51  83 111 148 184 235 283 344
#     4   8  16  30  50  78 106 133 185 237 281 314
#     4  10  19  32  55  85 114 142 181 238 293 332
#     4   9  18  34  56  80 106 143 192 242 276 326
#     4  12  22  32  52  78 120 156 182 218 294 360
#     4  10  17  30  54  84 106 139 192 240 272 323
#
# _framework density 24.248709999999999
#
# number of rings (size 3 to 8) (size 9 to 14) (size 15 to 20)
#    0.000    2.400    3.333    0.000    1.867    0.533 
#    0.000    0.000    0.000    0.800   79.733    0.000 
#    0.000    0.000    0.000    0.000    0.000    0.000 
#
# Total GULP energy -167008.038590 kJ/mol
# GULP energy per Si atom -5566.934620 kJ/mol
# Density = 2.419352 g / cm^3
# Si number density = 24.248710 Si / 1000 Ang^3
#
#
#
# Elastic Constant Matrix: (Units=GPa)
#
#
# Indices 1 2 3 4 5 6 
#
# 1 43.3999 13.5433 7.1676 0.0001 1.9252 0.0001
# 2 13.5433 134.5475 28.3723 0.0000 4.4897 0.0000
# 3 7.1676 28.3723 76.5427 0.0002 -0.8533 0.0001
# 4 0.0001 0.0000 0.0002 31.6524 0.0001 11.7933
# 5 1.9252 4.4897 -0.8533 0.0001 31.7220 0.0001
# 6 0.0001 0.0000 0.0001 11.7933 0.0001 8.6444
#
#
#
# Elastic Compliance Matrix: (Units=1/GPa)
#
#
# Indices 1 2 3 4 5 6 
#
# 1 0.023984 -0.002059 -0.001496 0.000000 -0.001205 0.000000
# 2 -0.002059 0.008287 -0.002891 0.000000 -0.001126 0.000000
# 3 -0.001496 -0.002891 0.014286 0.000000 0.000884 0.000000
# 4 0.000000 0.000000 0.000000 0.064255 0.000000 -0.087662
# 5 -0.001205 -0.001126 0.000884 0.000000 0.031780 0.000000
# 6 0.000000 0.000000 0.000000 -0.087662 0.000000 0.235278
#
#
# Mechanical properties :
#
#
# Convention : Reuss Voigt Hill
#
# Bulk Modulus (GPa) = 29.70441 39.18403 34.44422
# Shear Modulus (GPa) = 12.43828 28.09754 20.26791
#
# Velocity S-wave (km/s) = 2.26729 3.40770 2.89422
# Velocity P-wave (km/s) = 4.37386 5.62828 5.04024
#
# Compressibility (1/GPa) = 0.03366503
#
# Stress axis : x y z
#
# Youngs Moduli (GPa) = 41.69363 120.67350 69.99673
#
# Poissons Ratio (x) = 0.24841 0.10474
# Poissons Ratio (y) = 0.08583 0.20239
# Poissons Ratio (z) = 0.06239 0.34893
#
# Static dielectric constant tensor:
#      x y z
#    x 1.920040 0.000000 -0.028370 
#    y 0.000000 2.121960 0.000000 
#    z -0.028370 0.000000 1.959660 
# 
# From -- ./inp_files/270609.got.cif
#   From: 2010.05.17/outbox.cif.g08.bks.cpg/sg15_136_cif.got.tgz:270609.got - 2010.06.03 18:47:42.
