data_PCOD9255044
_publ_section_title
;
Structure prediction by ZEFSAII (Michael W. Deem and Ramdas Pophale) SiO2 
 PCOD9255044
Probable space group: C 2/C
;
_chemical_formula_sum "Si O2"
_cell_formula_units_Z 48
_cell_length_a 10.747323
_cell_length_b 16.895230
_cell_length_c 22.735025
_cell_angle_alpha 90.000000
_cell_angle_beta 149.875057
_cell_angle_gamma 90.000000
_cell_volume 2071.887029
_symmetry_space_group_name_H-M "C 2/C"
_symmetry_group_IT_number 15
_symmetry_cell_setting 'monoclinic'
loop_
_space_group_symop_operation_xyz
x,y,z
-x,y,1/2-z
-x,-y,-z
x,-y,1/2+z
1/2+x,1/2+y,z
1/2-x,1/2+y,1/2-z
1/2-x,1/2-y,-z
1/2+x,1/2-y,1/2+z
loop_
_atom_site_type_symbol
_atom_site_label
_atom_site_fract_x
_atom_site_fract_y
_atom_site_fract_z
Si Si1 0.388535 0.728838 0.892558
Si Si2 0.356055 0.447414 0.135178
Si Si3 0.953663 0.269284 0.665390
Si Si4 0.995169 0.454399 0.664171
Si Si5 0.929350 0.946746 0.403824
Si Si6 0.826378 0.403353 0.892225
O O1 0.376245 0.734262 0.816650
O O2 0.335681 0.638390 0.891067
O O3 0.262961 0.811048 0.861513
O O4 0.672018 0.742037 0.029210
O O5 0.500000 0.419550 0.250000
O O6 0.457593 0.424471 0.113978
O O7 0.349395 0.542983 0.139422
O O8 0.085942 0.412024 0.031139
O O9 0.000000 0.242340 0.750000
O O10 0.992953 0.363305 0.681122
O O11 0.194159 0.499983 0.786799
O O12 0.105225 0.448042 0.642068
O O13 0.695861 0.478857 0.542011
#
# Coordination Sequence:
#
# PCOD9255044 Si02
#       6
#     8   8   8   8   8   8
#     4   9  19  33  51  77 118 138 181 238 286 323
#     4  10  17  27  49  79 107 138 188 224 287 341
#     4   9  17  33  53  78 100 144 186 235 270 330
#     4   9  18  33  52  74 108 139 189 226 279 325
#     4  10  19  33  53  82 107 147 181 237 277 338
#     4   9  18  31  46  76 113 144 176 232 281 339
#
# _framework density 23.167286000000001
#
# number of rings (size 3 to 8) (size 9 to 14) (size 15 to 20)
#    0.000    2.667    1.667    3.000    0.000    2.667 
#    0.000    3.333    0.000    7.000    0.000    0.000 
#    0.000    0.000    0.000    0.000    0.000    0.000 
#
# Total GULP energy -133622.124839 kJ/mol
# GULP energy per Si atom -5567.588535 kJ/mol
# Density = 2.311456 g / cm^3
# Si number density = 23.167286 Si / 1000 Ang^3
#
#
#
# Elastic Constant Matrix: (Units=GPa)
#
#
# Indices 1 2 3 4 5 6 
#
# 1 15.3787 -2.0553 29.1778 0.0006 7.4479 -0.0007
# 2 -2.0553 185.3278 29.9026 0.0016 20.6898 -0.0017
# 3 29.1778 29.9026 172.5466 0.0001 -2.5252 -0.0008
# 4 0.0006 0.0016 0.0001 -25.6363 0.0004 20.8557
# 5 7.4479 20.6898 -2.5252 0.0004 47.1936 -0.0015
# 6 -0.0007 -0.0017 -0.0008 20.8557 -0.0015 -5.6738
#
#
#
# Elastic Compliance Matrix: (Units=1/GPa)
#
#
# Indices 1 2 3 4 5 6 
#
# 1 0.118116 0.007363 -0.021587 0.000002 -0.023024 -0.000001
# 2 0.007363 0.006318 -0.002399 0.000000 -0.004060 0.000000
# 3 -0.021587 -0.002399 0.009935 0.000000 0.004990 0.000001
# 4 0.000002 0.000000 0.000000 0.019598 0.000002 0.072039
# 5 -0.023024 -0.004060 0.004990 0.000002 0.026870 0.000002
# 6 -0.000001 0.000000 0.000001 0.072039 0.000002 0.088553
#
#
# Mechanical properties :
#
#
# Convention : Reuss Voigt Hill
#
# Bulk Modulus (GPa) = 9.88897 54.14482 32.01689
# Shear Modulus (GPa) = 14.86582 24.25857 19.56220
#
# Velocity S-wave (km/s) = 2.53587 3.23941 2.90899
# Velocity P-wave (km/s) = 3.58497 6.11667 5.01327
#
# Compressibility (1/GPa) = 0.10112279
#
# Stress axis : x y z
#
# Youngs Moduli (GPa) = 8.46628 158.27956 100.65728
#
# Poissons Ratio (x) = -1.16545 2.17284
# Poissons Ratio (y) = -0.06234 0.24152
# Poissons Ratio (z) = 0.18276 0.37979
#
# Static dielectric constant tensor:
#      x y z
#    x 1.950010 0.000000 0.026710 
#    y 0.000000 1.940900 0.000000 
#    z 0.026710 0.000000 1.925720 
# 
# From -- ./inp_files/87360.got.cif
#   From: 2010.05.17/outbox.cif.g08.bks.cpg/sg15_44_cif.got.tgz:87360.got - 2010.06.03 18:47:42.
