data_PCOD9255224
_publ_section_title
;
Structure prediction by ZEFSAII (Michael W. Deem and Ramdas Pophale) SiO2 
 PCOD9255224
Probable space group: C 2/C
;
_chemical_formula_sum "Si O2"
_cell_formula_units_Z 56
_cell_length_a 13.469218
_cell_length_b 19.466621
_cell_length_c 23.344460
_cell_angle_alpha 90.000000
_cell_angle_beta 148.280178
_cell_angle_gamma 90.000000
_cell_volume 3218.172041
_symmetry_space_group_name_H-M "C 2/C"
_symmetry_group_IT_number 15
_symmetry_cell_setting 'monoclinic'
loop_
_space_group_symop_operation_xyz
x,y,z
-x,y,1/2-z
-x,-y,-z
x,-y,1/2+z
1/2+x,1/2+y,z
1/2-x,1/2+y,1/2-z
1/2-x,1/2-y,-z
1/2+x,1/2-y,1/2+z
loop_
_atom_site_type_symbol
_atom_site_label
_atom_site_fract_x
_atom_site_fract_y
_atom_site_fract_z
Si Si1 0.470898 0.602112 0.170619
Si Si2 0.887397 0.678615 0.635648
Si Si3 0.046594 0.053759 0.972352
Si Si4 0.212700 0.642529 0.331731
Si Si5 0.756932 0.513729 0.242029
Si Si6 0.492535 0.726584 0.400732
Si Si7 0.161293 0.539348 0.949309
O O1 0.500000 0.621120 0.250000
O O2 0.624185 0.546432 0.225130
O O3 0.493065 0.666541 0.139700
O O4 0.267042 0.571164 0.055574
O O5 0.684449 0.717839 0.532548
O O6 0.998679 0.705578 0.633707
O O7 0.848227 0.598455 0.604246
O O8 0.000000 0.688915 0.750000
O O9 0.137085 0.120663 0.045226
O O10 0.854326 0.050124 0.841715
O O11 0.207586 0.020002 0.012184
O O12 0.000000 0.000000 0.000000
O O13 0.211608 0.575681 0.288796
O O14 0.307363 0.707161 0.345930
O O15 0.000000 0.652916 0.250000
O O16 0.956575 0.488711 0.361447
#
# Coordination Sequence:
#
# PCOD9255224 Si02
#       7
#     8   8   8   8   8   8   8
#     4   9  18  33  49  64 100 137 162 206 241 295
#     4  10  20  31  52  72 100 131 159 216 252 286
#     4   9  17  26  43  73 106 126 147 199 262 298
#     4  10  17  29  51  71 102 136 154 207 253 302
#     4   9  18  28  44  75 103 120 163 206 248 310
#     4   9  20  35  46  77  96 125 183 197 244 302
#     4  10  19  29  46  78 101 122 166 201 255 307
#
# _framework density 17.401184000000001
#
# number of rings (size 3 to 8) (size 9 to 14) (size 15 to 20)
#    0.000    2.571    1.429    3.000    6.000    0.571 
#    0.000    0.000    0.000    1.714    0.000    0.000 
#    0.000    0.000    0.000    0.000    0.000    0.000 
#
# Total GULP energy -155963.691722 kJ/mol
# GULP energy per Si atom -5570.131847 kJ/mol
# Density = 1.736158 g / cm^3
# Si number density = 17.401184 Si / 1000 Ang^3
#
#
#
# Elastic Constant Matrix: (Units=GPa)
#
#
# Indices 1 2 3 4 5 6 
#
# 1 57.8842 8.6489 48.1456 -0.0003 3.5484 -0.0001
# 2 8.6489 18.2355 7.1049 -0.0005 3.8869 0.0000
# 3 48.1456 7.1049 111.6989 -0.0011 6.1166 -0.0001
# 4 -0.0003 -0.0005 -0.0011 15.0360 0.0000 6.3694
# 5 3.5484 3.8869 6.1166 0.0000 33.2969 -0.0001
# 6 -0.0001 0.0000 -0.0001 6.3694 -0.0001 12.5817
#
#
#
# Elastic Compliance Matrix: (Units=1/GPa)
#
#
# Indices 1 2 3 4 5 6 
#
# 1 0.028268 -0.008912 -0.011626 -0.000001 0.000164 0.000001
# 2 -0.008912 0.060240 0.000346 0.000002 -0.006146 -0.000001
# 3 -0.011626 0.000346 0.014017 0.000001 -0.001376 -0.000001
# 4 -0.000001 0.000002 0.000001 0.084663 -0.000001 -0.042860
# 5 0.000164 -0.006146 -0.001376 -0.000001 0.030986 0.000001
# 6 0.000001 -0.000001 -0.000001 -0.042860 0.000001 0.101178
#
#
# Mechanical properties :
#
#
# Convention : Reuss Voigt Hill
#
# Bulk Modulus (GPa) = 16.09252 35.06860 25.58056
# Shear Modulus (GPa) = 13.14231 20.44420 16.79325
#
# Velocity S-wave (km/s) = 2.75117 3.43136 3.10992
# Velocity P-wave (km/s) = 4.39999 5.99131 5.25622
#
# Compressibility (1/GPa) = 0.06214068
#
# Stress axis : x y z
#
# Youngs Moduli (GPa) = 35.37589 16.60020 71.34034
#
# Poissons Ratio (x) = 0.14795 0.82943
# Poissons Ratio (y) = 0.31528 -0.02470
# Poissons Ratio (z) = 0.41129 -0.00575
#
# Static dielectric constant tensor:
#      x y z
#    x 1.590090 0.000000 -0.001450 
#    y 0.000000 1.611290 0.000000 
#    z -0.001450 0.000000 1.610270 
# 
# From -- ./inp_files/271170.got.cif
#   From: 2010.05.17/outbox.cif.g08.bks.cpg/sg15_136_cif.got.tgz:271170.got - 2010.06.03 18:47:42.
