data_PCOD9255771
_publ_section_title
;
Structure prediction by ZEFSAII (Michael W. Deem and Ramdas Pophale) SiO2 
 PCOD9255771
Probable space group: C 2/C
;
_chemical_formula_sum "Si O2"
_cell_formula_units_Z 44
_cell_length_a 20.031336
_cell_length_b 6.923556
_cell_length_c 18.175540
_cell_angle_alpha 90.000000
_cell_angle_beta 46.335577
_cell_angle_gamma 90.000000
_cell_volume 1823.486493
_symmetry_space_group_name_H-M "C 2/C"
_symmetry_group_IT_number 15
_symmetry_cell_setting 'monoclinic'
loop_
_space_group_symop_operation_xyz
x,y,z
-x,y,1/2-z
-x,-y,-z
x,-y,1/2+z
1/2+x,1/2+y,z
1/2-x,1/2+y,1/2-z
1/2-x,1/2-y,-z
1/2+x,1/2-y,1/2+z
loop_
_atom_site_type_symbol
_atom_site_label
_atom_site_fract_x
_atom_site_fract_y
_atom_site_fract_z
Si Si1 0.000000 0.738669 0.250000
Si Si2 0.335168 0.597838 0.521774
Si Si3 0.363406 0.308637 0.608297
Si Si4 0.123739 0.616022 0.636032
Si Si5 0.406102 0.564595 0.226744
Si Si6 0.206607 0.408171 0.832440
O O1 0.075163 0.588101 0.161877
O O2 0.044027 0.884091 0.275593
O O3 0.374777 0.394953 0.519137
O O4 0.231415 0.576185 0.570468
O O5 0.384162 0.730570 0.424404
O O6 0.332627 0.719970 0.599287
O O7 0.425034 0.398610 0.626335
O O8 0.257613 0.358748 0.717160
O O9 0.365752 0.079028 0.613613
O O10 0.084249 0.734835 0.736021
O O11 0.294858 0.529676 0.314984
#
# Coordination Sequence:
#
# PCOD9255771 Si02
#       6
#     4   8   8   8   8   8
#     4  12  22  40  60  78 120 176 200 230 304 374
#     4  10  20  36  60  94 119 147 199 261 300 339
#     4  10  17  32  57  87 117 146 193 250 298 349
#     4  10  22  38  59  88 124 155 199 252 296 354
#     4   9  21  35  58  86 113 156 202 236 292 361
#     4   9  16  31  56  86 114 145 185 247 301 340
#
# _framework density 24.1296
#
# number of rings (size 3 to 8) (size 9 to 14) (size 15 to 20)
#    1.091    1.091    1.818    1.636    0.000    2.909 
#    0.000    6.364    0.000    5.455    0.000    0.000 
#    0.000    0.000    0.000    0.000    0.000    0.000 
#
# Total GULP energy -122895.879555 kJ/mol
# GULP energy per Si atom -5586.176343 kJ/mol
# Density = 2.407468 g / cm^3
# Si number density = 24.129600 Si / 1000 Ang^3
#
#
#
# Elastic Constant Matrix: (Units=GPa)
#
#
# Indices 1 2 3 4 5 6 
#
# 1 61.0196 24.2225 8.6305 0.0037 8.5859 -0.0023
# 2 24.2225 103.7016 2.3852 0.0059 -0.5091 -0.0032
# 3 8.6305 2.3852 52.2966 0.0021 -3.2111 -0.0015
# 4 0.0037 0.0059 0.0021 23.6412 -0.0006 0.6660
# 5 8.5859 -0.5091 -3.2111 -0.0006 27.2923 0.0004
# 6 -0.0023 -0.0032 -0.0015 0.6660 0.0004 39.3046
#
#
#
# Elastic Compliance Matrix: (Units=1/GPa)
#
#
# Indices 1 2 3 4 5 6 
#
# 1 0.019611 -0.004534 -0.003439 -0.000002 -0.006659 0.000001
# 2 -0.004534 0.010702 0.000363 -0.000002 0.001669 0.000001
# 3 -0.003439 0.000363 0.019883 -0.000001 0.003428 0.000001
# 4 -0.000002 -0.000002 -0.000001 0.042319 0.000001 -0.000717
# 5 -0.006659 0.001669 0.003428 0.000001 0.039170 -0.000001
# 6 0.000001 0.000001 0.000001 -0.000717 -0.000001 0.025454
#
#
# Mechanical properties :
#
#
# Convention : Reuss Voigt Hill
#
# Bulk Modulus (GPa) = 28.59100 31.94382 30.26741
# Shear Modulus (GPa) = 27.17111 30.16627 28.66869
#
# Velocity S-wave (km/s) = 3.35931 3.53962 3.45064
# Velocity P-wave (km/s) = 5.18857 5.47470 5.33356
#
# Compressibility (1/GPa) = 0.03497604
#
# Stress axis : x y z
#
# Youngs Moduli (GPa) = 50.99070 93.44008 50.29400
#
# Poissons Ratio (x) = 0.42370 0.17294
# Poissons Ratio (y) = 0.23121 -0.01824
# Poissons Ratio (z) = 0.17533 -0.03389
#
# Static dielectric constant tensor:
#      x y z
#    x 1.932610 0.000000 -0.025070 
#    y 0.000000 1.892070 0.000000 
#    z -0.025070 0.000000 1.987230 
# 
# From -- ./inp_files/281124.got.cif
#   From: 2010.05.17/outbox.cif.g08.bks.cpg/sg15_141_cif.got.tgz:281124.got - 2010.06.03 18:47:42.
