data_PCOD9255924
_publ_section_title
;
Structure prediction by ZEFSAII (Michael W. Deem and Ramdas Pophale) SiO2 
 PCOD9255924
Probable space group: C 2/C
;
_chemical_formula_sum "Si O2"
_cell_formula_units_Z 56
_cell_length_a 8.462128
_cell_length_b 14.806303
_cell_length_c 24.466801
_cell_angle_alpha 90.000000
_cell_angle_beta 60.188546
_cell_angle_gamma 90.000000
_cell_volume 2659.843200
_symmetry_space_group_name_H-M "C 2/C"
_symmetry_group_IT_number 15
_symmetry_cell_setting 'monoclinic'
loop_
_space_group_symop_operation_xyz
x,y,z
-x,y,1/2-z
-x,-y,-z
x,-y,1/2+z
1/2+x,1/2+y,z
1/2-x,1/2+y,1/2-z
1/2-x,1/2-y,-z
1/2+x,1/2-y,1/2+z
loop_
_atom_site_type_symbol
_atom_site_label
_atom_site_fract_x
_atom_site_fract_y
_atom_site_fract_z
Si Si1 0.051996 0.939389 0.679927
Si Si2 0.883401 0.705327 0.932687
Si Si3 0.185488 0.861462 0.869584
Si Si4 0.285684 0.766965 0.640297
Si Si5 0.469464 0.714977 0.813066
Si Si6 0.827611 0.345963 0.963138
Si Si7 0.809053 0.581980 0.581608
O O1 0.127674 0.838750 0.675051
O O2 0.000000 0.970976 0.750000
O O3 0.891252 0.932802 0.661583
O O4 0.219151 0.995042 0.624469
O O5 0.772457 0.695825 0.895736
O O6 0.033863 0.782909 0.897758
O O7 0.994072 0.616836 0.931730
O O8 0.750000 0.750000 0.000000
O O9 0.370061 0.810713 0.819764
O O10 0.224943 0.882757 0.926787
O O11 0.343057 0.724889 0.687523
O O12 0.466283 0.819796 0.588439
O O13 0.500000 0.670190 0.750000
O O14 0.334778 0.658885 0.874631
O O15 0.817401 0.415895 0.014738
O O16 0.750000 0.250000 0.000000
#
# Coordination Sequence:
#
# PCOD9255924 Si02
#       7
#     8   8   8   8   8   8   8
#     4  11  24  41  54  83 125 160 198 243 290 354
#     4  10  17  33  57  86 114 144 187 242 295 355
#     4   9  20  34  58  84 111 158 192 238 295 351
#     4  10  20  35  62  84 113 157 192 244 295 352
#     4  10  19  36  61  84 107 158 211 237 283 356
#     4  11  17  37  62  92 117 140 200 254 300 355
#     4  11  22  35  60  84 121 154 187 250 311 341
#
# _framework density 21.053874
#
# number of rings (size 3 to 8) (size 9 to 14) (size 15 to 20)
#    0.000    1.714    5.714    1.286    0.000    1.143 
#    0.000    2.857    0.000    3.429    0.000    0.000 
#    0.000    0.000    0.000    0.000    0.000    0.000 
#
# Total GULP energy -156113.287945 kJ/mol
# GULP energy per Si atom -5575.474569 kJ/mol
# Density = 2.100595 g / cm^3
# Si number density = 21.053874 Si / 1000 Ang^3
#
#
#
# Elastic Constant Matrix: (Units=GPa)
#
#
# Indices 1 2 3 4 5 6 
#
# 1 147.1412 30.2185 50.7089 0.0000 45.2260 0.0000
# 2 30.2185 46.5961 19.4583 0.0000 16.0128 0.0000
# 3 50.7089 19.4583 111.6229 0.0000 38.6631 0.0000
# 4 0.0000 0.0000 0.0000 9.6365 0.0000 -1.6143
# 5 45.2260 16.0128 38.6631 0.0000 37.4654 0.0000
# 6 0.0000 0.0000 0.0000 -1.6143 0.0000 12.3901
#
#
#
# Elastic Compliance Matrix: (Units=1/GPa)
#
#
# Indices 1 2 3 4 5 6 
#
# 1 0.011183 -0.003026 -0.000506 0.000000 -0.011685 0.000000
# 2 -0.003026 0.026051 -0.000895 0.000000 -0.006558 0.000000
# 3 -0.000506 -0.000895 0.014007 0.000000 -0.013462 0.000000
# 4 0.000000 0.000000 0.000000 0.106087 0.000000 0.013822
# 5 -0.011685 -0.006558 -0.013462 0.000000 0.057492 0.000000
# 6 0.000000 0.000000 0.000000 0.013822 0.000000 0.082511
#
#
# Mechanical properties :
#
#
# Convention : Reuss Voigt Hill
#
# Bulk Modulus (GPa) = 23.59158 56.23682 39.91420
# Shear Modulus (GPa) = 15.60964 25.56335 20.58650
#
# Velocity S-wave (km/s) = 2.72585 3.48830 3.13037
# Velocity P-wave (km/s) = 4.59746 6.55692 5.66259
#
# Compressibility (1/GPa) = 0.04238800
#
# Stress axis : x y z
#
# Youngs Moduli (GPa) = 89.41820 38.38652 71.39047
#
# Poissons Ratio (x) = 0.11616 0.03610
# Poissons Ratio (y) = 0.27058 0.06391
# Poissons Ratio (z) = 0.04522 0.03436
#
# Static dielectric constant tensor:
#      x y z
#    x 1.818270 0.000000 0.092050 
#    y 0.000000 1.799460 0.000000 
#    z 0.092050 0.000000 1.892100 
# 
# From -- ./inp_files/265174.got.cif
#   From: 2010.05.17/outbox.cif.g08.bks.cpg/sg15_133_cif.got.tgz:265174.got - 2010.06.03 18:47:42.
