data_PCOD9255525
_publ_section_title
;
Structure prediction by ZEFSAII (Michael W. Deem and Ramdas Pophale) SiO2 
 PCOD9255525
Probable space group: C 2/C
;
_chemical_formula_sum "Si O2"
_cell_formula_units_Z 56
_cell_length_a 26.408756
_cell_length_b 19.631105
_cell_length_c 16.698312
_cell_angle_alpha 90.000000
_cell_angle_beta 15.508096
_cell_angle_gamma 90.000000
_cell_volume 2314.649868
_symmetry_space_group_name_H-M "C 2/C"
_symmetry_group_IT_number 15
_symmetry_cell_setting 'monoclinic'
loop_
_space_group_symop_operation_xyz
x,y,z
-x,y,1/2-z
-x,-y,-z
x,-y,1/2+z
1/2+x,1/2+y,z
1/2-x,1/2+y,1/2-z
1/2-x,1/2-y,-z
1/2+x,1/2-y,1/2+z
loop_
_atom_site_type_symbol
_atom_site_label
_atom_site_fract_x
_atom_site_fract_y
_atom_site_fract_z
Si Si1 0.228106 0.829363 0.050808
Si Si2 0.278927 0.584107 0.792178
Si Si3 0.217146 0.827006 0.746575
Si Si4 0.294171 0.330308 0.104149
Si Si5 0.725249 0.447082 0.627703
Si Si6 0.233983 0.101927 0.381379
Si Si7 0.779142 0.041018 0.552371
O O1 0.306293 0.865718 0.010603
O O2 0.303754 0.866694 0.857669
O O3 0.005081 0.840296 0.401536
O O4 0.250000 0.750000 0.000000
O O5 0.282374 0.626862 0.704941
O O6 0.205087 0.506839 0.918318
O O7 0.499378 0.566708 0.472431
O O8 0.228837 0.746483 0.716099
O O9 0.292175 0.873777 0.559493
O O10 0.296205 0.854656 0.710342
O O11 0.500000 0.320391 0.750000
O O12 0.196996 0.384222 0.192794
O O13 0.748137 0.470794 0.500715
O O14 0.000000 0.102379 0.750000
O O15 0.295151 0.023365 0.285112
O O16 0.000000 0.044498 0.250000
#
# Coordination Sequence:
#
# PCOD9255525 Si02
#       7
#     8   8   8   8   8   8   8
#     4  10  19  33  55  79 107 136 170 225 275 314
#     4  10  18  32  54  80 106 135 178 227 269 300
#     4  10  22  33  52  80 111 139 175 214 267 326
#     4  11  21  35  51  77 112 146 172 211 265 322
#     4  10  18  32  53  82 106 133 184 231 260 304
#     4   9  17  32  52  79 103 129 175 228 267 302
#     4  10  17  31  53  79 106 135 176 225 267 302
#
# _framework density 24.193725000000001
#
# number of rings (size 3 to 8) (size 9 to 14) (size 15 to 20)
#    0.000    2.000    4.286    1.714    4.000    0.571 
#    0.000    0.000    0.000    4.286    0.000    0.000 
#    0.000    0.000    0.000    0.000    0.000    0.000 
#
# Total GULP energy -156065.485035 kJ/mol
# GULP energy per Si atom -5573.767323 kJ/mol
# Density = 2.413866 g / cm^3
# Si number density = 24.193725 Si / 1000 Ang^3
#
#
#
# Elastic Constant Matrix: (Units=GPa)
#
#
# Indices 1 2 3 4 5 6 
#
# 1 98.2828 36.8582 14.4248 -0.0065 30.9686 -0.0045
# 2 36.8582 165.2970 -15.0232 -0.0242 24.0430 0.0082
# 3 14.4248 -15.0232 48.4086 -0.0062 -7.3952 0.0001
# 4 -0.0065 -0.0242 -0.0062 21.3755 0.0003 19.7243
# 5 30.9686 24.0430 -7.3952 0.0003 30.8400 0.0095
# 6 -0.0045 0.0082 0.0001 19.7243 0.0095 26.7750
#
#
#
# Elastic Compliance Matrix: (Units=1/GPa)
#
#
# Indices 1 2 3 4 5 6 
#
# 1 0.018202 -0.002145 -0.008955 -0.000028 -0.018753 0.000031
# 2 -0.002145 0.007163 0.002427 0.000030 -0.002848 -0.000024
# 3 -0.008955 0.002427 0.026120 0.000044 0.013363 -0.000039
# 4 -0.000028 0.000030 0.000044 0.146089 0.000047 -0.107620
# 5 -0.018753 -0.002848 0.013363 0.000047 0.056682 -0.000057
# 6 0.000031 -0.000024 -0.000039 -0.107620 -0.000057 0.116629
#
#
# Mechanical properties :
#
#
# Convention : Reuss Voigt Hill
#
# Bulk Modulus (GPa) = 29.29047 42.72310 36.00679
# Shear Modulus (GPa) = 12.51217 34.17999 23.34608
#
# Velocity S-wave (km/s) = 2.27660 3.76275 3.10976
# Velocity P-wave (km/s) = 4.36388 6.04771 5.27344
#
# Compressibility (1/GPa) = 0.03414080
#
# Stress axis : x y z
#
# Youngs Moduli (GPa) = 54.93756 139.60861 38.28427
#
# Poissons Ratio (x) = 0.29945 0.34282
# Poissons Ratio (y) = 0.11784 -0.09291
# Poissons Ratio (z) = 0.49194 -0.33882
#
# Static dielectric constant tensor:
#      x y z
#    x 1.976130 -0.000010 -0.089600 
#    y -0.000010 1.947320 -0.000040 
#    z -0.089600 -0.000040 1.845140 
# 
# From -- ./inp_files/225669.got.cif
#   From: 2010.05.17/outbox.cif.g08.bks.cpg/sg15_113_cif.got.tgz:225669.got - 2010.06.03 18:47:42.
