data_PCOD9255301
_publ_section_title
;
Structure prediction by ZEFSAII (Michael W. Deem and Ramdas Pophale) SiO2 
 PCOD9255301
Probable space group: C 2/C
;
_chemical_formula_sum "Si O2"
_cell_formula_units_Z 44
_cell_length_a 16.771924
_cell_length_b 16.548865
_cell_length_c 11.454222
_cell_angle_alpha 90.000000
_cell_angle_beta 52.265639
_cell_angle_gamma 90.000000
_cell_volume 2514.284777
_symmetry_space_group_name_H-M "C 2/C"
_symmetry_group_IT_number 15
_symmetry_cell_setting 'monoclinic'
loop_
_space_group_symop_operation_xyz
x,y,z
-x,y,1/2-z
-x,-y,-z
x,-y,1/2+z
1/2+x,1/2+y,z
1/2-x,1/2+y,1/2-z
1/2-x,1/2-y,-z
1/2+x,1/2-y,1/2+z
loop_
_atom_site_type_symbol
_atom_site_label
_atom_site_fract_x
_atom_site_fract_y
_atom_site_fract_z
Si Si1 0.046169 0.130693 0.829939
Si Si2 0.500000 0.524976 0.250000
Si Si3 0.654617 0.197551 0.432163
Si Si4 0.743494 0.724392 0.640096
Si Si5 0.835128 0.841867 0.904696
Si Si6 0.058899 0.747958 0.901278
O O1 0.164047 0.151552 0.723886
O O2 0.000000 0.165866 0.750000
O O3 0.024370 0.035974 0.834680
O O4 0.989803 0.176779 0.983925
O O5 0.595350 0.581125 0.138167
O O6 0.694651 0.204591 0.264367
O O7 0.726353 0.140693 0.444806
O O8 0.675184 0.286005 0.472563
O O9 0.534628 0.188965 0.541418
O O10 0.750000 0.750000 0.500000
O O11 0.852807 0.710664 0.598992
O O12 0.893300 0.785163 0.758346
#
# Coordination Sequence:
#
# PCOD9255301 Si02
#       6
#     8   4   8   8   8   8
#     4   9  19  30  44  77  96 127 163 187 247 294
#     4  10  18  32  48  66 110 130 152 202 242 298
#     4   9  19  29  48  73  93 122 171 199 240 287
#     4  10  17  30  48  68 101 126 159 204 241 277
#     4  10  18  32  47  70  99 129 157 202 249 280
#     4  10  17  31  51  70  99 126 160 210 239 275
#
# _framework density 17.500007
#
# number of rings (size 3 to 8) (size 9 to 14) (size 15 to 20)
#    0.545    1.818    3.636    0.000    0.000    0.727 
#    0.000    0.000    0.000    1.091    0.000    0.000 
#   60.000    0.000    0.000    0.000    0.000    0.000 
#
# Total GULP energy -122482.925743 kJ/mol
# GULP energy per Si atom -5567.405716 kJ/mol
# Density = 1.746018 g / cm^3
# Si number density = 17.500007 Si / 1000 Ang^3
#
#
#
# Elastic Constant Matrix: (Units=GPa)
#
#
# Indices 1 2 3 4 5 6 
#
# 1 150.1457 33.8746 33.6034 0.0000 -30.0465 0.0000
# 2 33.8746 58.0160 13.5754 0.0000 -11.3429 0.0000
# 3 33.6034 13.5754 87.9550 0.0000 3.3880 0.0000
# 4 0.0000 0.0000 0.0000 13.0864 0.0000 -4.6704
# 5 -30.0465 -11.3429 3.3880 0.0000 42.5299 0.0000
# 6 0.0000 0.0000 0.0000 -4.6704 0.0000 29.0631
#
#
#
# Elastic Compliance Matrix: (Units=1/GPa)
#
#
# Indices 1 2 3 4 5 6 
#
# 1 0.009381 -0.003552 -0.003265 0.000000 0.005940 0.000000
# 2 -0.003552 0.020356 -0.001903 0.000000 0.003071 0.000000
# 3 -0.003265 -0.001903 0.013059 0.000000 -0.003854 0.000000
# 4 0.000000 0.000000 0.000000 0.081064 0.000000 0.013027
# 5 0.005940 0.003071 -0.003854 0.000000 0.028836 0.000000
# 6 0.000000 0.000000 0.000000 0.013027 0.000000 0.036501
#
#
# Mechanical properties :
#
#
# Convention : Reuss Voigt Hill
#
# Bulk Modulus (GPa) = 39.43735 50.91372 45.17553
# Shear Modulus (GPa) = 23.24616 31.27344 27.25980
#
# Velocity S-wave (km/s) = 3.64861 4.23194 3.95106
# Velocity P-wave (km/s) = 6.35093 7.28257 6.83265
#
# Compressibility (1/GPa) = 0.02535667
#
# Stress axis : x y z
#
# Youngs Moduli (GPa) = 106.59921 49.12448 76.57625
#
# Poissons Ratio (x) = 0.17450 0.24999
# Poissons Ratio (y) = 0.37865 0.14573
# Poissons Ratio (z) = 0.34800 0.09349
#
# Static dielectric constant tensor:
#      x y z
#    x 1.669400 0.000000 -0.002710 
#    y 0.000000 1.565500 0.000000 
#    z -0.002710 0.000000 1.621180 
# 
# From -- ./inp_files/105974.got.cif
#   From: 2010.05.17/outbox.cif.g08.bks.cpg/sg15_53_cif.got.tgz:105974.got - 2010.06.03 18:47:42.
