data_PCOD9255048
_publ_section_title
;
Structure prediction by ZEFSAII (Michael W. Deem and Ramdas Pophale) SiO2 
 PCOD9255048
Probable space group: C 2/C
;
_chemical_formula_sum "Si O2"
_cell_formula_units_Z 52
_cell_length_a 7.642158
_cell_length_b 21.301227
_cell_length_c 15.793201
_cell_angle_alpha 90.000000
_cell_angle_beta 122.614555
_cell_angle_gamma 90.000000
_cell_volume 2165.536910
_symmetry_space_group_name_H-M "C 2/C"
_symmetry_group_IT_number 15
_symmetry_cell_setting 'monoclinic'
loop_
_space_group_symop_operation_xyz
x,y,z
-x,y,1/2-z
-x,-y,-z
x,-y,1/2+z
1/2+x,1/2+y,z
1/2-x,1/2+y,1/2-z
1/2-x,1/2-y,-z
1/2+x,1/2-y,1/2+z
loop_
_atom_site_type_symbol
_atom_site_label
_atom_site_fract_x
_atom_site_fract_y
_atom_site_fract_z
Si Si1 0.346235 0.349789 0.625867
Si Si2 0.757400 0.891899 0.854974
Si Si3 0.500000 0.649765 0.750000
Si Si4 0.446915 0.053454 0.371397
Si Si5 0.558532 0.084838 0.667414
Si Si6 0.927578 0.715506 0.633484
Si Si7 0.805738 0.254425 0.611015
O O1 0.500000 0.346888 0.750000
O O2 0.504340 0.375863 0.597163
O O3 0.161716 0.398125 0.594034
O O4 0.279604 0.277231 0.592513
O O5 0.674261 0.926944 0.748473
O O6 0.688382 0.933104 0.916226
O O7 0.647689 0.825488 0.850119
O O8 0.292918 0.611094 0.715634
O O9 0.474166 0.700117 0.667771
O O10 0.435584 0.979743 0.382846
O O11 0.500000 0.068710 0.750000
O O12 0.401354 0.142182 0.603202
O O13 0.118798 0.736523 0.624814
O O14 0.000000 0.710988 0.750000
O O15 0.750000 0.250000 0.500000
#
# Coordination Sequence:
#
# PCOD9255048 Si02
#       7
#     8   8   4   8   8   8   8
#     4   8  15  26  45  70 108 139 186 243 286 343
#     4   9  17  29  49  76 110 139 189 242 295 340
#     4  10  22  36  60  86 120 164 200 246 316 380
#     4  10  17  27  50  85 109 150 202 243 288 365
#     4  10  19  30  52  86 121 154 200 249 305 376
#     4   8  16  32  52  80 113 151 187 249 305 354
#     4  10  20  37  62  91 120 156 204 259 311 373
#
# _framework density 24.012519999999999
#
# number of rings (size 3 to 8) (size 9 to 14) (size 15 to 20)
#    0.000    2.769    1.538    1.846    3.231    3.692 
#    0.000    0.000    0.000   37.846    0.000    0.000 
#    0.000    0.000    0.000    0.000    0.000    0.000 
#
# Total GULP energy -145002.813237 kJ/mol
# GULP energy per Si atom -5577.031278 kJ/mol
# Density = 2.395787 g / cm^3
# Si number density = 24.012520 Si / 1000 Ang^3
#
#
#
# Elastic Constant Matrix: (Units=GPa)
#
#
# Indices 1 2 3 4 5 6 
#
# 1 117.8266 57.2010 30.1753 0.0000 -9.1548 0.0000
# 2 57.2010 217.7829 35.0778 0.0000 -6.1022 0.0000
# 3 30.1753 35.0778 75.6677 0.0000 -5.3742 0.0000
# 4 0.0000 0.0000 0.0000 106.1949 0.0000 35.3085
# 5 -9.1548 -6.1022 -5.3742 0.0000 21.5606 0.0000
# 6 0.0000 0.0000 0.0000 35.3085 0.0000 57.0718
#
#
#
# Elastic Compliance Matrix: (Units=1/GPa)
#
#
# Indices 1 2 3 4 5 6 
#
# 1 0.010561 -0.002209 -0.002966 0.000000 0.003120 0.000000
# 2 -0.002209 0.005439 -0.001627 0.000000 0.000196 0.000000
# 3 -0.002966 -0.001627 0.015301 0.000000 0.002094 0.000000
# 4 0.000000 0.000000 0.000000 0.011855 0.000000 -0.007334
# 5 0.003120 0.000196 0.002094 0.000000 0.048283 0.000000
# 6 0.000000 0.000000 0.000000 -0.007334 0.000000 0.022059
#
#
# Mechanical properties :
#
#
# Convention : Reuss Voigt Hill
#
# Bulk Modulus (GPa) = 56.50162 72.90949 64.70555
# Shear Modulus (GPa) = 37.59309 56.22033 46.90671
#
# Velocity S-wave (km/s) = 3.96101 4.84394 4.42455
# Velocity P-wave (km/s) = 6.67088 7.85583 7.28748
#
# Compressibility (1/GPa) = 0.01769861
#
# Stress axis : x y z
#
# Youngs Moduli (GPa) = 94.68449 183.84404 65.35330
#
# Poissons Ratio (x) = 0.40607 0.19385
# Poissons Ratio (y) = 0.20914 0.10632
# Poissons Ratio (z) = 0.28085 0.29908
#
# Static dielectric constant tensor:
#      x y z
#    x 1.898530 0.000000 0.001750 
#    y 0.000000 1.948650 0.000000 
#    z 0.001750 0.000000 2.027120 
# 
# From -- ./inp_files/191741.got.cif
#   From: 2010.05.17/outbox.cif.g08.bks.cpg/sg15_96_cif.got.tgz:191741.got - 2010.06.03 18:47:42.
