data_PCOD9255222
_publ_section_title
;
Structure prediction by ZEFSAII (Michael W. Deem and Ramdas Pophale) SiO2 
 PCOD9255222
Probable space group: C 2/C
;
_chemical_formula_sum "Si O2"
_cell_formula_units_Z 60
_cell_length_a 23.003773
_cell_length_b 18.730183
_cell_length_c 14.124501
_cell_angle_alpha 90.000000
_cell_angle_beta 33.733589
_cell_angle_gamma 90.000000
_cell_volume 3379.612836
_symmetry_space_group_name_H-M "C 2/C"
_symmetry_group_IT_number 15
_symmetry_cell_setting 'monoclinic'
loop_
_space_group_symop_operation_xyz
x,y,z
-x,y,1/2-z
-x,-y,-z
x,-y,1/2+z
1/2+x,1/2+y,z
1/2-x,1/2+y,1/2-z
1/2-x,1/2-y,-z
1/2+x,1/2-y,1/2+z
loop_
_atom_site_type_symbol
_atom_site_label
_atom_site_fract_x
_atom_site_fract_y
_atom_site_fract_z
Si Si1 0.000000 0.618061 0.750000
Si Si2 0.746566 0.445678 0.186548
Si Si3 0.875181 0.812252 0.409052
Si Si4 0.199728 0.791285 0.205949
Si Si5 0.337934 0.006595 0.888168
Si Si6 0.019432 0.610795 0.119436
Si Si7 0.245654 0.947703 0.839319
Si Si8 0.930755 0.338288 0.546854
O O1 0.898820 0.569955 0.858203
O O2 0.020951 0.658589 0.623060
O O3 0.698107 0.367730 0.257141
O O4 0.700417 0.507218 0.314183
O O5 0.750161 0.474311 0.075156
O O6 0.870315 0.429624 0.036646
O O7 0.841228 0.802845 0.345628
O O8 0.814196 0.746481 0.543387
O O9 0.826473 0.886629 0.515554
O O10 0.000000 0.811978 0.250000
O O11 0.129413 0.734866 0.355218
O O12 0.428341 0.948245 0.747727
O O13 0.283663 0.009790 0.860106
O O14 0.000000 0.646959 0.250000
O O15 0.002122 0.652850 0.044874
O O16 0.347275 0.903417 0.666286
#
# Coordination Sequence:
#
# PCOD9255222 Si02
#       8
#     4   8   8   8   8   8   8   8
#     4  12  18  32  54  82 120 152 176 228 282 354
#     4  11  18  32  54  81 115 139 179 229 282 323
#     4  10  22  38  59  81 112 147 188 233 284 327
#     4  10  23  36  55  85 113 146 183 236 277 333
#     4  10  17  29  50  86 113 135 177 226 281 333
#     4   9  18  29  50  84 113 143 175 226 286 334
#     4  10  19  35  55  80 111 147 184 233 278 329
#     4  10  21  33  52  82 116 150 184 221 286 340
#
# _framework density 17.753513000000002
#
# number of rings (size 3 to 8) (size 9 to 14) (size 15 to 20)
#    0.000    1.867    4.667    0.800    7.467    2.133 
#    0.000    0.667    1.467    3.200    0.000    0.000 
#    0.000    0.000    0.000    0.000    0.000    0.000 
#
# Total GULP energy -167036.296054 kJ/mol
# GULP energy per Si atom -5567.876535 kJ/mol
# Density = 1.771310 g / cm^3
# Si number density = 17.753513 Si / 1000 Ang^3
#
#
#
# Elastic Constant Matrix: (Units=GPa)
#
#
# Indices 1 2 3 4 5 6 
#
# 1 64.0970 23.8404 42.0906 0.0000 20.7819 0.0000
# 2 23.8404 84.8055 31.0784 0.0000 20.8961 0.0000
# 3 42.0906 31.0784 67.6342 0.0000 18.6055 0.0000
# 4 0.0000 0.0000 0.0000 23.8835 0.0000 5.5528
# 5 20.7819 20.8961 18.6055 0.0000 29.1106 0.0000
# 6 0.0000 0.0000 0.0000 5.5528 0.0000 57.2841
#
#
#
# Elastic Compliance Matrix: (Units=1/GPa)
#
#
# Indices 1 2 3 4 5 6 
#
# 1 0.029094 0.000107 -0.015070 0.000000 -0.011215 0.000000
# 2 0.000107 0.015584 -0.005010 0.000000 -0.008061 0.000000
# 3 -0.015070 -0.005010 0.027321 0.000000 -0.003107 0.000000
# 4 0.000000 0.000000 0.000000 0.042835 0.000000 -0.004152
# 5 -0.011215 -0.008061 -0.003107 0.000000 0.050130 0.000000
# 6 0.000000 0.000000 0.000000 -0.004152 0.000000 0.017859
#
#
# Mechanical properties :
#
#
# Convention : Reuss Voigt Hill
#
# Bulk Modulus (GPa) = 31.19883 45.61728 38.40805
# Shear Modulus (GPa) = 21.41767 30.02415 25.72091
#
# Velocity S-wave (km/s) = 3.47708 4.11684 3.81041
# Velocity P-wave (km/s) = 5.80789 6.95330 6.40625
#
# Compressibility (1/GPa) = 0.03205249
#
# Stress axis : x y z
#
# Youngs Moduli (GPa) = 34.37180 64.16943 36.60238
#
# Poissons Ratio (x) = -0.00688 0.55159
# Poissons Ratio (y) = -0.00369 0.18338
# Poissons Ratio (z) = 0.51798 0.32150
#
# Static dielectric constant tensor:
#      x y z
#    x 1.669690 0.000000 -0.006740 
#    y 0.000000 1.614400 0.000000 
#    z -0.006740 0.000000 1.607710 
# 
# From -- ./inp_files/174432.got.cif
#   From: 2010.05.17/outbox.cif.g08.bks.cpg/sg15_88_cif.got.tgz:174432.got - 2010.06.03 18:47:42.
