data_PCOD9255557
_publ_section_title
;
Structure prediction by ZEFSAII (Michael W. Deem and Ramdas Pophale) SiO2 
 PCOD9255557
Probable space group: C 2/C
;
_chemical_formula_sum "Si O2"
_cell_formula_units_Z 64
_cell_length_a 7.993793
_cell_length_b 18.918100
_cell_length_c 23.391255
_cell_angle_alpha 90.000000
_cell_angle_beta 132.569028
_cell_angle_gamma 90.000000
_cell_volume 2605.162371
_symmetry_space_group_name_H-M "C 2/C"
_symmetry_group_IT_number 15
_symmetry_cell_setting 'monoclinic'
loop_
_space_group_symop_operation_xyz
x,y,z
-x,y,1/2-z
-x,-y,-z
x,-y,1/2+z
1/2+x,1/2+y,z
1/2-x,1/2+y,1/2-z
1/2-x,1/2-y,-z
1/2+x,1/2-y,1/2+z
loop_
_atom_site_type_symbol
_atom_site_label
_atom_site_fract_x
_atom_site_fract_y
_atom_site_fract_z
Si Si1 0.826191 0.103386 0.305073
Si Si2 0.612822 0.079173 0.970451
Si Si3 0.472635 0.884710 0.865843
Si Si4 0.613893 0.719175 0.644850
Si Si5 0.616965 0.788651 0.058605
Si Si6 0.551787 0.626364 0.032873
Si Si7 0.295783 0.491959 0.621641
Si Si8 0.441592 0.763375 0.320137
O O1 0.590862 0.103825 0.215509
O O2 0.879358 0.114904 0.384386
O O3 0.939420 0.026942 0.316688
O O4 0.933751 0.178326 0.307394
O O5 0.577134 0.153337 0.995747
O O6 0.357744 0.057641 0.893722
O O7 0.715151 0.023397 0.038410
O O8 0.806532 0.092173 0.968357
O O9 0.448139 0.802076 0.871530
O O10 0.725242 0.906369 0.943760
O O11 0.297640 0.929503 0.860608
O O12 0.360372 0.686664 0.589628
O O13 0.815763 0.708158 0.645849
O O14 0.742127 0.705620 0.734432
O O15 0.553030 0.710526 0.021777
O O16 0.615249 0.778799 0.127164
#
# Coordination Sequence:
#
# PCOD9255557 Si02
#       8
#     8   8   8   8   8   8   8   8
#     4   9  16  31  56  80 105 126 169 228 272 316
#     4  10  22  38  49  71 108 152 180 212 256 322
#     4  10  17  31  55  84  99 127 176 226 273 311
#     4   9  17  30  52  85 107 131 173 227 277 320
#     4  10  19  34  54  78 107 146 181 216 272 327
#     4   9  19  33  54  80 107 133 171 225 275 313
#     4  10  20  35  55  73 102 143 182 217 261 310
#     4   9  16  30  54  80 111 134 168 227 280 315
#
# _framework density 24.566606
#
# number of rings (size 3 to 8) (size 9 to 14) (size 15 to 20)
#    0.000    2.500    1.250    1.500    0.000    3.500 
#    2.250    3.750    0.000    0.000    0.000    0.000 
#    0.000    0.000    0.000    0.000    0.000    0.000 
#
# Total GULP energy -178359.802129 kJ/mol
# GULP energy per Si atom -5573.743817 kJ/mol
# Density = 2.451069 g / cm^3
# Si number density = 24.566606 Si / 1000 Ang^3
#
#
#
# Elastic Constant Matrix: (Units=GPa)
#
#
# Indices 1 2 3 4 5 6 
#
# 1 54.4502 -5.3142 33.4735 -0.0001 6.3610 0.0000
# 2 -5.3142 29.4598 27.4286 -0.0001 9.2694 -0.0001
# 3 33.4735 27.4286 81.5449 -0.0003 12.9717 -0.0001
# 4 -0.0001 -0.0001 -0.0003 20.8772 -0.0001 1.1539
# 5 6.3610 9.2694 12.9717 -0.0001 45.9029 -0.0001
# 6 0.0000 -0.0001 -0.0001 1.1539 -0.0001 19.1959
#
#
#
# Elastic Compliance Matrix: (Units=1/GPa)
#
#
# Indices 1 2 3 4 5 6 
#
# 1 0.037686 0.031951 -0.025506 0.000000 -0.004466 0.000000
# 2 0.031951 0.077889 -0.037808 0.000000 -0.009472 0.000000
# 3 -0.025506 -0.037808 0.035259 0.000000 0.001205 0.000000
# 4 0.000000 0.000000 0.000000 0.048059 0.000000 -0.002889
# 5 -0.004466 -0.009472 0.001205 0.000000 0.023976 0.000000
# 6 0.000000 0.000000 0.000000 -0.002889 0.000000 0.052268
#
#
# Mechanical properties :
#
#
# Convention : Reuss Voigt Hill
#
# Bulk Modulus (GPa) = 11.34980 30.73677 21.04328
# Shear Modulus (GPa) = 13.61537 24.51966 19.06752
#
# Velocity S-wave (km/s) = 2.35675 3.16268 2.78898
# Velocity P-wave (km/s) = 3.46925 5.08680 4.35380
#
# Compressibility (1/GPa) = 0.08810728
#
# Stress axis : x y z
#
# Youngs Moduli (GPa) = 26.53536 12.83872 28.36186
#
# Poissons Ratio (x) = -0.41021 0.72340
# Poissons Ratio (y) = -0.84783 1.07230
# Poissons Ratio (z) = 0.67682 0.48540
#
# Static dielectric constant tensor:
#      x y z
#    x 2.047350 0.000000 0.000810 
#    y 0.000000 1.950370 0.000000 
#    z 0.000810 0.000000 1.998930 
# 
# From -- ./inp_files/308792.got.cif
#   From: 2010.05.17/outbox.cif.g08.bks.cpg/sg15_155_cif.got.tgz:308792.got - 2010.06.03 18:47:42.
