data_PCOD9255285
_publ_section_title
;
Structure prediction by ZEFSAII (Michael W. Deem and Ramdas Pophale) SiO2 
 PCOD9255285
Probable space group: C 2/C
;
_chemical_formula_sum "Si O2"
_cell_formula_units_Z 56
_cell_length_a 22.246163
_cell_length_b 27.485882
_cell_length_c 17.891907
_cell_angle_alpha 90.000000
_cell_angle_beta 160.585351
_cell_angle_gamma 90.000000
_cell_volume 3636.515274
_symmetry_space_group_name_H-M "C 2/C"
_symmetry_group_IT_number 15
_symmetry_cell_setting 'monoclinic'
loop_
_space_group_symop_operation_xyz
x,y,z
-x,y,1/2-z
-x,-y,-z
x,-y,1/2+z
1/2+x,1/2+y,z
1/2-x,1/2+y,1/2-z
1/2-x,1/2-y,-z
1/2+x,1/2-y,1/2+z
loop_
_atom_site_type_symbol
_atom_site_label
_atom_site_fract_x
_atom_site_fract_y
_atom_site_fract_z
Si Si1 0.028247 0.203044 0.372514
Si Si2 0.862550 0.899502 0.519685
Si Si3 0.135282 0.692083 0.979340
Si Si4 0.524430 0.502364 0.868600
Si Si5 0.917006 0.544641 0.355384
Si Si6 0.135425 0.505005 0.478847
Si Si7 0.951723 0.593284 0.543024
O O1 0.142878 0.154262 0.522402
O O2 0.098563 0.256338 0.476410
O O3 0.000000 0.206821 0.250000
O O4 0.834842 0.194356 0.181090
O O5 0.662423 0.912261 0.312078
O O6 0.000000 0.894943 0.750000
O O7 0.931068 0.946472 0.554753
O O8 0.113049 0.644830 0.003550
O O9 0.000000 0.687011 0.750000
O O10 0.500000 0.501210 0.750000
O O11 0.337192 0.518280 0.687743
O O12 0.705053 0.533535 0.094745
O O13 0.939265 0.588933 0.438784
O O14 0.000000 0.500000 0.500000
O O15 0.035359 0.542149 0.418653
O O16 0.146537 0.452518 0.533430
O O17 0.000000 0.499568 0.250000
#
# Coordination Sequence:
#
# PCOD9255285 Si02
#       7
#     8   8   8   8   8   8   8
#     4  10  19  30  45  68  89 121 169 205 232 272
#     4  10  17  30  46  67  93 126 164 200 229 280
#     4  11  19  31  47  65  91 130 163 202 238 277
#     4  11  19  33  54  70  95 131 172 203 236 289
#     4  10  21  36  45  72 100 124 167 207 246 283
#     4  11  19  33  53  70  89 130 170 202 243 285
#     4  11  21  33  46  67 101 126 161 208 244 284
#
# _framework density 15.399357
#
# number of rings (size 3 to 8) (size 9 to 14) (size 15 to 20)
#    0.000    1.429    4.286    6.429    0.000    2.286 
#    2.571    0.000    0.000    0.000    0.000    0.000 
#    0.000    0.000    0.000   15.429    0.000    0.000 
#
# Total GULP energy -156015.245256 kJ/mol
# GULP energy per Si atom -5571.973045 kJ/mol
# Density = 1.536431 g / cm^3
# Si number density = 15.399357 Si / 1000 Ang^3
#
#
#
# Elastic Constant Matrix: (Units=GPa)
#
#
# Indices 1 2 3 4 5 6 
#
# 1 83.6977 34.6688 35.7300 0.0000 20.2582 0.0000
# 2 34.6688 67.2731 16.2614 0.0001 5.5767 0.0001
# 3 35.7300 16.2614 80.9140 0.0004 26.8725 0.0003
# 4 0.0000 0.0001 0.0004 5.8919 0.0000 -2.2775
# 5 20.2582 5.5767 26.8725 0.0000 29.9338 0.0000
# 6 0.0000 0.0001 0.0003 -2.2775 0.0000 25.0832
#
#
#
# Elastic Compliance Matrix: (Units=1/GPa)
#
#
# Indices 1 2 3 4 5 6 
#
# 1 0.018931 -0.008110 -0.004241 0.000000 -0.007494 0.000000
# 2 -0.008110 0.019098 -0.001280 0.000000 0.003079 0.000000
# 3 -0.004241 -0.001280 0.019173 -0.000001 -0.014103 0.000000
# 4 0.000000 0.000000 -0.000001 0.175898 0.000001 0.015971
# 5 -0.007494 0.003079 -0.014103 0.000001 0.050566 0.000000
# 6 0.000000 0.000000 0.000000 0.015971 0.000000 0.041317
#
#
# Mechanical properties :
#
#
# Convention : Reuss Voigt Hill
#
# Bulk Modulus (GPa) = 33.39904 45.02279 39.21092
# Shear Modulus (GPa) = 13.80357 21.86342 17.83350
#
# Velocity S-wave (km/s) = 2.99720 3.77206 3.40673
# Velocity P-wave (km/s) = 5.80631 6.94777 6.40253
#
# Compressibility (1/GPa) = 0.02994098
#
# Stress axis : x y z
#
# Youngs Moduli (GPa) = 52.82281 52.36099 52.15777
#
# Poissons Ratio (x) = 0.42463 0.22120
# Poissons Ratio (y) = 0.42838 0.06675
# Poissons Ratio (z) = 0.22402 0.06701
#
# Static dielectric constant tensor:
#      x y z
#    x 1.545080 0.000000 0.012380 
#    y 0.000000 1.558690 0.000000 
#    z 0.012380 0.000000 1.528020 
# 
# From -- ./inp_files/217067.got.cif
#   From: 2010.05.17/outbox.cif.g08.bks.cpg/sg15_109_cif.got.tgz:217067.got - 2010.06.03 18:47:42.
