data_PCOD9255202
_publ_section_title
;
Structure prediction by ZEFSAII (Michael W. Deem and Ramdas Pophale) SiO2 
 PCOD9255202
Probable space group: C 2/C
;
_chemical_formula_sum "Si O2"
_cell_formula_units_Z 48
_cell_length_a 26.473533
_cell_length_b 20.343785
_cell_length_c 13.978552
_cell_angle_alpha 90.000000
_cell_angle_beta 21.896196
_cell_angle_gamma 90.000000
_cell_volume 2807.557894
_symmetry_space_group_name_H-M "C 2/C"
_symmetry_group_IT_number 15
_symmetry_cell_setting 'monoclinic'
loop_
_space_group_symop_operation_xyz
x,y,z
-x,y,1/2-z
-x,-y,-z
x,-y,1/2+z
1/2+x,1/2+y,z
1/2-x,1/2+y,1/2-z
1/2-x,1/2-y,-z
1/2+x,1/2-y,1/2+z
loop_
_atom_site_type_symbol
_atom_site_label
_atom_site_fract_x
_atom_site_fract_y
_atom_site_fract_z
Si Si1 0.419701 0.011361 0.543397
Si Si2 0.281628 0.313727 0.246893
Si Si3 0.863599 0.925877 0.947493
Si Si4 0.566074 0.315599 0.821292
Si Si5 0.000000 0.596733 0.750000
Si Si6 0.500000 0.878494 0.750000
Si Si7 0.705706 0.790625 0.934918
O O1 0.471358 0.074320 0.391258
O O2 0.500000 0.000000 0.500000
O O3 0.443944 0.949469 0.432301
O O4 0.262364 0.025925 0.840620
O O5 0.132266 0.335143 0.540008
O O6 0.279344 0.246064 0.192109
O O7 0.326451 0.369763 0.091236
O O8 0.403476 0.311685 0.109063
O O9 0.892730 0.885060 0.799645
O O10 0.000000 0.957638 0.750000
O O11 0.620897 0.259229 0.652214
O O12 0.649820 0.303990 0.770196
O O13 0.119267 0.643633 0.577495
#
# Coordination Sequence:
#
# PCOD9255202 Si02
#       7
#     8   8   8   8   4   4   8
#     4  10  20  34  53  76 101 138 175 210 256 302
#     4   9  16  32  50  72 101 129 168 212 247 310
#     4   8  15  30  51  72  94 130 171 208 250 298
#     4   9  16  28  53  76  98 128 170 213 259 303
#     4  11  20  32  52  78 112 131 168 222 250 305
#     4   9  20  36  54  72 100 139 176 210 252 305
#     4  10  17  29  49  77 101 130 166 215 261 295
#
# _framework density 17.096710000000002
#
# number of rings (size 3 to 8) (size 9 to 14) (size 15 to 20)
#    0.000    2.667    1.667    2.000    0.000    1.333 
#    0.000    2.500    1.833    8.000    0.000    0.000 
#    0.000    0.000    0.000    0.000    0.000    0.000 
#
# Total GULP energy -133731.685239 kJ/mol
# GULP energy per Si atom -5572.153552 kJ/mol
# Density = 1.705780 g / cm^3
# Si number density = 17.096710 Si / 1000 Ang^3
#
#
#
# Elastic Constant Matrix: (Units=GPa)
#
#
# Indices 1 2 3 4 5 6 
#
# 1 82.3910 36.4831 53.7971 -0.0007 -34.3998 0.0003
# 2 36.4831 82.5726 50.4784 -0.0016 -19.3662 0.0012
# 3 53.7971 50.4784 133.0858 -0.0021 -43.2563 0.0017
# 4 -0.0007 -0.0016 -0.0021 22.4356 0.0009 -15.3827
# 5 -34.3998 -19.3662 -43.2563 0.0009 33.8540 -0.0007
# 6 0.0003 0.0012 0.0017 -15.3827 -0.0007 12.1612
#
#
#
# Elastic Compliance Matrix: (Units=1/GPa)
#
#
# Indices 1 2 3 4 5 6 
#
# 1 0.023107 -0.004971 -0.001279 0.000002 0.019002 0.000004
# 2 -0.004971 0.016946 -0.004975 0.000000 -0.001714 -0.000001
# 3 -0.001279 -0.004975 0.014658 0.000000 0.014583 -0.000001
# 4 0.000002 0.000000 0.000000 0.335789 0.000001 0.424739
# 5 0.019002 -0.001714 0.014583 0.000001 0.066500 0.000003
# 6 0.000004 -0.000001 -0.000001 0.424739 0.000003 0.619481
#
#
# Mechanical properties :
#
#
# Convention : Reuss Voigt Hill
#
# Bulk Modulus (GPa) = 30.99728 64.39631 47.69679
# Shear Modulus (GPa) = 4.50578 24.17620 14.34099
#
# Velocity S-wave (km/s) = 1.62517 3.76451 2.89937
# Velocity P-wave (km/s) = 4.65741 7.52616 6.25838
#
# Compressibility (1/GPa) = 0.03226089
#
# Stress axis : x y z
#
# Youngs Moduli (GPa) = 43.27649 59.00956 68.22222
#
# Poissons Ratio (x) = 0.29333 0.08726
# Poissons Ratio (y) = 0.21512 0.33943
# Poissons Ratio (z) = 0.05535 0.29359
#
# Static dielectric constant tensor:
#      x y z
#    x 1.574020 0.000000 -0.008600 
#    y 0.000000 1.565340 0.000000 
#    z -0.008600 0.000000 1.591240 
# 
# From -- ./inp_files/146374.got.cif
#   From: 2010.05.17/outbox.cif.g08.bks.cpg/sg15_74_cif.got.tgz:146374.got - 2010.06.03 18:47:42.
