data_PCOD9255270
_publ_section_title
;
Structure prediction by ZEFSAII (Michael W. Deem and Ramdas Pophale) SiO2 
 PCOD9255270
Probable space group: C 2/C
;
_chemical_formula_sum "Si O2"
_cell_formula_units_Z 56
_cell_length_a 6.899731
_cell_length_b 18.385863
_cell_length_c 21.451023
_cell_angle_alpha 90.000000
_cell_angle_beta 85.768269
_cell_angle_gamma 90.000000
_cell_volume 2713.804645
_symmetry_space_group_name_H-M "C 2/C"
_symmetry_group_IT_number 15
_symmetry_cell_setting 'monoclinic'
loop_
_space_group_symop_operation_xyz
x,y,z
-x,y,1/2-z
-x,-y,-z
x,-y,1/2+z
1/2+x,1/2+y,z
1/2-x,1/2+y,1/2-z
1/2-x,1/2-y,-z
1/2+x,1/2-y,1/2+z
loop_
_atom_site_type_symbol
_atom_site_label
_atom_site_fract_x
_atom_site_fract_y
_atom_site_fract_z
Si Si1 0.652061 0.393261 0.819681
Si Si2 0.669372 0.817338 0.885690
Si Si3 0.266162 0.248416 0.243871
Si Si4 0.287045 0.949799 0.696075
Si Si5 0.937345 0.825060 0.556344
Si Si6 0.845414 0.200136 0.921711
Si Si7 0.314918 0.392778 0.299049
O O1 0.672602 0.312777 0.789368
O O2 0.797080 0.436932 0.770710
O O3 0.438821 0.427754 0.814384
O O4 0.665864 0.380111 0.892796
O O5 0.764003 0.771279 0.826815
O O6 0.606988 0.891650 0.851273
O O7 0.496649 0.767281 0.913749
O O8 0.834341 0.830086 0.933157
O O9 0.500000 0.243866 0.250000
O O10 0.208563 0.328752 0.264288
O O11 0.305253 0.034870 0.684070
O O12 0.884345 0.839085 0.486175
O O13 0.859577 0.742992 0.571981
O O14 0.871448 0.147036 0.862452
O O15 0.500000 0.412038 0.250000
#
# Coordination Sequence:
#
# PCOD9255270 Si02
#       7
#     8   8   8   8   8   8   8
#     4   9  15  31  47  79 103 141 177 219 271 332
#     4  10  19  35  57  84 107 150 192 231 275 343
#     4  10  17  29  56  83 106 143 188 237 277 325
#     4   9  19  30  57  81 112 142 181 236 288 331
#     4  10  21  34  56  85 112 149 193 233 272 334
#     4  11  21  36  58  83 113 148 194 234 275 334
#     4  11  18  34  55  86 114 146 180 243 292 325
#
# _framework density 20.635235999999999
#
# number of rings (size 3 to 8) (size 9 to 14) (size 15 to 20)
#    0.000    2.000    5.714    1.286    0.000    0.000 
#    0.000    2.857    0.000   20.571    0.000    0.000 
#    0.000    0.000    0.000    0.000    0.000    0.000 
#
# Total GULP energy -156152.602791 kJ/mol
# GULP energy per Si atom -5576.878671 kJ/mol
# Density = 2.058827 g / cm^3
# Si number density = 20.635236 Si / 1000 Ang^3
#
#
#
# Elastic Constant Matrix: (Units=GPa)
#
#
# Indices 1 2 3 4 5 6 
#
# 1 57.5186 6.0633 1.9181 0.0000 0.2140 0.0000
# 2 6.0633 118.8794 15.3510 0.0000 -0.7459 0.0000
# 3 1.9181 15.3510 111.7320 0.0000 6.7773 0.0000
# 4 0.0000 0.0000 0.0000 11.5363 0.0000 0.7044
# 5 0.2140 -0.7459 6.7773 0.0000 27.0025 0.0000
# 6 0.0000 0.0000 0.0000 0.7044 0.0000 19.1240
#
#
#
# Elastic Compliance Matrix: (Units=1/GPa)
#
#
# Indices 1 2 3 4 5 6 
#
# 1 0.017484 -0.000870 -0.000173 0.000000 -0.000119 0.000000
# 2 -0.000870 0.008615 -0.001202 0.000000 0.000547 0.000000
# 3 -0.000173 -0.001202 0.009261 0.000000 -0.002356 0.000000
# 4 0.000000 0.000000 0.000000 0.086878 0.000000 -0.003200
# 5 -0.000119 0.000547 -0.002356 0.000000 0.037641 0.000000
# 6 0.000000 0.000000 0.000000 -0.003200 0.000000 0.052408
#
#
# Mechanical properties :
#
#
# Convention : Reuss Voigt Hill
#
# Bulk Modulus (GPa) = 32.39501 37.19942 34.79721
# Shear Modulus (GPa) = 22.01990 29.18572 25.60281
#
# Velocity S-wave (km/s) = 3.27020 3.76488 3.52622
# Velocity P-wave (km/s) = 5.47648 6.07992 5.78607
#
# Compressibility (1/GPa) = 0.03086895
#
# Stress axis : x y z
#
# Youngs Moduli (GPa) = 57.19633 116.07811 107.97962
#
# Poissons Ratio (x) = 0.10100 0.01872
# Poissons Ratio (y) = 0.04977 0.12977
# Poissons Ratio (z) = 0.00992 0.13951
#
# Static dielectric constant tensor:
#      x y z
#    x 1.840440 0.000000 0.004640 
#    y 0.000000 1.731410 0.000000 
#    z 0.004640 0.000000 1.748140 
# 
# From -- ./inp_files/232187.got.cif
#   From: 2010.05.17/outbox.cif.g08.bks.cpg/sg15_117_cif.got.tgz:232187.got - 2010.06.03 18:47:42.
