data_PCOD9255025
_publ_section_title
;
Structure prediction by ZEFSAII (Michael W. Deem and Ramdas Pophale) SiO2 
 PCOD9255025
Probable space group: C 2/C
;
_chemical_formula_sum "Si O2"
_cell_formula_units_Z 52
_cell_length_a 18.737383
_cell_length_b 17.605097
_cell_length_c 8.697195
_cell_angle_alpha 90.000000
_cell_angle_beta 72.644700
_cell_angle_gamma 90.000000
_cell_volume 2738.358885
_symmetry_space_group_name_H-M "C 2/C"
_symmetry_group_IT_number 15
_symmetry_cell_setting 'monoclinic'
loop_
_space_group_symop_operation_xyz
x,y,z
-x,y,1/2-z
-x,-y,-z
x,-y,1/2+z
1/2+x,1/2+y,z
1/2-x,1/2+y,1/2-z
1/2-x,1/2-y,-z
1/2+x,1/2-y,1/2+z
loop_
_atom_site_type_symbol
_atom_site_label
_atom_site_fract_x
_atom_site_fract_y
_atom_site_fract_z
Si Si1 0.934221 0.103168 0.503675
Si Si2 0.623971 0.073962 0.038434
Si Si3 0.500000 0.979049 0.250000
Si Si4 0.720083 0.038244 0.258876
Si Si5 0.772282 0.099715 0.526750
Si Si6 0.000000 0.025914 0.750000
Si Si7 0.000000 0.221331 0.250000
Si Si8 0.117179 0.653778 0.756705
O O1 0.850564 0.132662 0.530976
O O2 0.952607 0.076657 0.662988
O O3 0.989449 0.167151 0.403340
O O4 0.947912 0.029438 0.385946
O O5 0.663470 0.080362 0.178974
O O6 0.542272 0.037017 0.109192
O O7 0.623867 0.149635 0.936998
O O8 0.672079 0.014108 0.906584
O O9 0.433180 0.921500 0.247495
O O10 0.768211 0.088226 0.345501
O O11 0.766724 0.981187 0.121052
O O12 0.697831 0.143850 0.627506
O O13 0.071168 0.275259 0.226803
#
# Coordination Sequence:
#
# PCOD9255025 Si02
#       8
#     8   8   4   8   8   4   4   8
#     4  10  20  39  65  85 108 134 174 230 281 334
#     4  10  17  27  47  73 111 148 183 223 259 308
#     4  11  16  29  51  72 113 154 186 226 261 312
#     4   9  17  29  45  84 113 129 177 231 276 311
#     4  10  18  32  55  82 111 142 175 227 277 321
#     4   9  20  39  67  94 101 126 174 234 293 324
#     4  10  24  40  52  74 114 154 188 216 262 330
#     4  10  21  33  50  75 114 152 187 218 264 317
#
# _framework density 18.989477000000001
#
# number of rings (size 3 to 8) (size 9 to 14) (size 15 to 20)
#    0.000    2.154    4.615    1.385    0.000    0.615 
#    0.000    2.308    0.000    1.846    0.000    0.000 
#    0.000    0.000    0.000    0.000    0.000    0.000 
#
# Total GULP energy -144873.725391 kJ/mol
# GULP energy per Si atom -5572.066361 kJ/mol
# Density = 1.894626 g / cm^3
# Si number density = 18.989477 Si / 1000 Ang^3
#
#
#
# Elastic Constant Matrix: (Units=GPa)
#
#
# Indices 1 2 3 4 5 6 
#
# 1 96.4708 18.2603 30.8688 0.0000 12.6170 0.0000
# 2 18.2603 52.1834 19.1882 0.0000 11.7943 0.0000
# 3 30.8688 19.1882 85.3934 0.0000 28.4045 0.0000
# 4 0.0000 0.0000 0.0000 3.6206 0.0000 0.0357
# 5 12.6170 11.7943 28.4045 0.0000 32.4077 0.0000
# 6 0.0000 0.0000 0.0000 0.0357 0.0000 10.8417
#
#
#
# Elastic Compliance Matrix: (Units=1/GPa)
#
#
# Indices 1 2 3 4 5 6 
#
# 1 0.012109 -0.002799 -0.003556 0.000000 -0.000579 0.000000
# 2 -0.002799 0.022108 -0.002318 0.000000 -0.004925 0.000000
# 3 -0.003556 -0.002318 0.018033 0.000000 -0.013578 0.000000
# 4 0.000000 0.000000 0.000000 0.276204 0.000000 -0.000909
# 5 -0.000579 -0.004925 -0.013578 0.000000 0.044775 0.000000
# 6 0.000000 0.000000 0.000000 -0.000909 0.000000 0.092240
#
#
# Mechanical properties :
#
#
# Convention : Reuss Voigt Hill
#
# Bulk Modulus (GPa) = 28.64919 41.18692 34.91806
# Shear Modulus (GPa) = 10.11227 20.42269 15.26748
#
# Velocity S-wave (km/s) = 2.31014 3.28300 2.83856
# Velocity P-wave (km/s) = 4.71543 6.00893 5.40104
#
# Compressibility (1/GPa) = 0.03490500
#
# Stress axis : x y z
#
# Youngs Moduli (GPa) = 82.58228 45.23261 55.45385
#
# Poissons Ratio (x) = 0.12660 0.19718
# Poissons Ratio (y) = 0.23114 0.12854
# Poissons Ratio (z) = 0.29364 0.10484
#
# Static dielectric constant tensor:
#      x y z
#    x 1.703450 0.000000 0.029010 
#    y 0.000000 1.649460 0.000000 
#    z 0.029010 0.000000 1.681220 
# 
# From -- ./inp_files/56068.got.cif
#   From: 2010.05.17/outbox.cif.g08.bks.cpg/sg15_29_cif.got.tgz:56068.got - 2010.06.03 18:47:42.
