data_PCOD9255230
_publ_section_title
;
Structure prediction by ZEFSAII (Michael W. Deem and Ramdas Pophale) SiO2 
 PCOD9255230
Probable space group: C 2/C
;
_chemical_formula_sum "Si O2"
_cell_formula_units_Z 56
_cell_length_a 17.524225
_cell_length_b 24.792437
_cell_length_c 7.723488
_cell_angle_alpha 90.000000
_cell_angle_beta 45.198046
_cell_angle_gamma 90.000000
_cell_volume 2380.962213
_symmetry_space_group_name_H-M "C 2/C"
_symmetry_group_IT_number 15
_symmetry_cell_setting 'monoclinic'
loop_
_space_group_symop_operation_xyz
x,y,z
-x,y,1/2-z
-x,-y,-z
x,-y,1/2+z
1/2+x,1/2+y,z
1/2-x,1/2+y,1/2-z
1/2-x,1/2-y,-z
1/2+x,1/2-y,1/2+z
loop_
_atom_site_type_symbol
_atom_site_label
_atom_site_fract_x
_atom_site_fract_y
_atom_site_fract_z
Si Si1 0.731768 0.475547 0.474235
Si Si2 0.567790 0.156513 0.400333
Si Si3 0.617708 0.046298 0.478753
Si Si4 0.298496 0.236224 0.173101
Si Si5 0.338364 0.167556 0.621984
Si Si6 0.837200 0.081467 0.710523
Si Si7 0.105273 0.814323 0.190961
O O1 0.788710 0.440612 0.531655
O O2 0.689489 0.531385 0.623048
O O3 0.638136 0.447630 0.512313
O O4 0.833231 0.494104 0.193271
O O5 0.606480 0.095651 0.365570
O O6 0.609915 0.191306 0.495161
O O7 0.441855 0.154712 0.567617
O O8 0.618004 0.181090 0.141945
O O9 0.500000 0.037216 0.750000
O O10 0.228156 0.282467 0.189805
O O11 0.205406 0.198059 0.404576
O O12 0.365388 0.276801 0.193137
O O13 0.262527 0.117418 0.701175
O O14 0.902852 0.125493 0.715535
O O15 0.000000 0.800794 0.250000
#
# Coordination Sequence:
#
# PCOD9255230 Si02
#       7
#     8   8   8   8   8   8   8
#     4  10  21  35  52  69 103 142 175 216 258 311
#     4  11  18  30  50  77 108 134 167 215 260 306
#     4  11  21  33  49  77 105 139 178 212 263 311
#     4  10  17  30  51  82 108 131 169 209 266 302
#     4  10  18  29  50  79 107 131 167 217 259 305
#     4  10  19  36  51  76 104 136 175 215 262 305
#     4  10  17  29  51  80 106 128 169 217 255 304
#
# _framework density 23.519902999999999
#
# number of rings (size 3 to 8) (size 9 to 14) (size 15 to 20)
#    0.000    1.714    5.714    2.143    0.000    1.143 
#    0.000    0.714    0.000    7.714    0.000    0.000 
#    0.000    0.000    0.000    0.000    0.000    0.000 
#
# Total GULP energy -155939.868214 kJ/mol
# GULP energy per Si atom -5569.281008 kJ/mol
# Density = 2.346637 g / cm^3
# Si number density = 23.519903 Si / 1000 Ang^3
#
#
#
# Elastic Constant Matrix: (Units=GPa)
#
#
# Indices 1 2 3 4 5 6 
#
# 1 94.7943 33.6118 18.4790 0.0000 -23.2617 0.0000
# 2 33.6118 92.7800 -1.1503 0.0000 3.7778 0.0000
# 3 18.4790 -1.1503 27.0001 0.0000 4.6802 0.0000
# 4 0.0000 0.0000 0.0000 10.5506 0.0000 6.9270
# 5 -23.2617 3.7778 4.6802 0.0000 24.7790 0.0000
# 6 0.0000 0.0000 0.0000 6.9270 0.0000 32.9898
#
#
#
# Elastic Compliance Matrix: (Units=1/GPa)
#
#
# Indices 1 2 3 4 5 6 
#
# 1 0.027336 -0.011517 -0.024763 0.000000 0.032095 0.000000
# 2 -0.011517 0.015713 0.011208 0.000000 -0.015324 0.000000
# 3 -0.024763 0.011208 0.060778 0.000000 -0.036435 0.000000
# 4 0.000000 0.000000 0.000000 0.109937 0.000000 -0.023084
# 5 0.032095 -0.015324 -0.036435 0.000000 0.079704 0.000000
# 6 0.000000 0.000000 0.000000 -0.023084 0.000000 0.035159
#
#
# Mechanical properties :
#
#
# Convention : Reuss Voigt Hill
#
# Bulk Modulus (GPa) = 18.62765 35.16169 26.89467
# Shear Modulus (GPa) = 12.60509 24.57282 18.58896
#
# Velocity S-wave (km/s) = 2.31753 3.23579 2.81437
# Velocity P-wave (km/s) = 3.88567 5.37984 4.69261
#
# Compressibility (1/GPa) = 0.05368362
#
# Stress axis : x y z
#
# Youngs Moduli (GPa) = 36.58223 63.64007 16.45341
#
# Poissons Ratio (x) = 0.73293 0.40743
# Poissons Ratio (y) = 0.42131 -0.18441
# Poissons Ratio (z) = 0.90587 -0.71327
#
# Static dielectric constant tensor:
#      x y z
#    x 1.973910 0.000000 0.078680 
#    y 0.000000 1.934110 0.000000 
#    z 0.078680 0.000000 1.969400 
# 
# From -- ./inp_files/51458.got.cif
#   From: 2010.05.17/outbox.cif.g08.bks.cpg/sg15_26_cif.got.tgz:51458.got - 2010.06.03 18:47:42.
