data_PCOD9255065
_publ_section_title
;
Structure prediction by ZEFSAII (Michael W. Deem and Ramdas Pophale) SiO2 
 PCOD9255065
Probable space group: C 2/C
;
_chemical_formula_sum "Si O2"
_cell_formula_units_Z 64
_cell_length_a 18.619197
_cell_length_b 27.474401
_cell_length_c 15.718334
_cell_angle_alpha 90.000000
_cell_angle_beta 158.165746
_cell_angle_gamma 90.000000
_cell_volume 2990.532766
_symmetry_space_group_name_H-M "C 2/C"
_symmetry_group_IT_number 15
_symmetry_cell_setting 'monoclinic'
loop_
_space_group_symop_operation_xyz
x,y,z
-x,y,1/2-z
-x,-y,-z
x,-y,1/2+z
1/2+x,1/2+y,z
1/2-x,1/2+y,1/2-z
1/2-x,1/2-y,-z
1/2+x,1/2-y,1/2+z
loop_
_atom_site_type_symbol
_atom_site_label
_atom_site_fract_x
_atom_site_fract_y
_atom_site_fract_z
Si Si1 0.550382 0.463909 0.633485
Si Si2 0.605092 0.117695 0.118196
Si Si3 0.896483 0.536215 0.255829
Si Si4 0.304392 0.812694 0.638172
Si Si5 0.462034 0.376460 0.439638
Si Si6 0.677256 0.447822 0.356758
Si Si7 0.130069 0.198863 0.773926
Si Si8 0.492997 0.070617 0.642269
O O1 0.500000 0.500000 0.500000
O O2 0.428768 0.415165 0.479059
O O3 0.553242 0.502676 0.712726
O O4 0.771240 0.445474 0.880853
O O5 0.615113 0.062765 0.167310
O O6 0.576287 0.150466 0.170943
O O7 0.811279 0.134830 0.309238
O O8 0.470059 0.112481 0.887074
O O9 0.112467 0.544686 0.456786
O O10 0.879089 0.477774 0.234068
O O11 0.740191 0.561576 0.022134
O O12 0.285977 0.818788 0.515690
O O13 0.366121 0.757123 0.722860
O O14 0.081925 0.814898 0.424557
O O15 0.421671 0.407016 0.308623
O O16 0.350869 0.326816 0.296885
O O17 0.500000 0.083321 0.750000
#
# Coordination Sequence:
#
# PCOD9255065 Si02
#       8
#     8   8   8   8   8   8   8   8
#     4   8  14  26  43  62  86 118 155 188 214 269
#     4  10  20  29  46  71  92 119 159 199 227 271
#     4  10  17  28  43  66  95 125 156 189 224 268
#     4   9  18  31  44  66  91 116 150 185 235 285
#     4   9  17  28  44  67  87 123 158 187 229 277
#     4   9  16  27  43  63  96 127 154 184 223 276
#     4   9  17  30  46  62  93 118 144 189 234 279
#     4  10  17  31  46  66  96 129 156 193 235 274
#
# _framework density 21.400867999999999
#
# number of rings (size 3 to 8) (size 9 to 14) (size 15 to 20)
#    0.000    2.750    2.500    1.125    0.000    2.500 
#    0.000    2.500    0.000    0.000    0.000    7.875 
#    0.000    0.000    0.000    0.000    0.000    0.000 
#
# Total GULP energy -178269.500146 kJ/mol
# GULP energy per Si atom -5570.921880 kJ/mol
# Density = 2.135216 g / cm^3
# Si number density = 21.400868 Si / 1000 Ang^3
#
#
#
# Elastic Constant Matrix: (Units=GPa)
#
#
# Indices 1 2 3 4 5 6 
#
# 1 47.1240 5.5148 31.8156 0.0000 -6.6821 0.0000
# 2 5.5148 75.2605 29.3836 0.0000 -22.2449 0.0000
# 3 31.8156 29.3836 108.7555 -0.0001 -19.9697 0.0000
# 4 0.0000 0.0000 -0.0001 34.5954 0.0000 -7.5426
# 5 -6.6821 -22.2449 -19.9697 0.0000 43.4727 0.0000
# 6 0.0000 0.0000 0.0000 -7.5426 0.0000 19.2982
#
#
#
# Elastic Compliance Matrix: (Units=1/GPa)
#
#
# Indices 1 2 3 4 5 6 
#
# 1 0.026594 0.001518 -0.007969 0.000000 0.001204 0.000000
# 2 0.001518 0.016701 -0.003653 0.000000 0.007101 0.000000
# 3 -0.007969 -0.003653 0.013045 0.000000 0.002899 0.000000
# 4 0.000000 0.000000 0.000000 0.031598 0.000000 0.012350
# 5 0.001204 0.007101 0.002899 0.000000 0.028153 0.000000
# 6 0.000000 0.000000 0.000000 0.012350 0.000000 0.056645
#
#
# Mechanical properties :
#
#
# Convention : Reuss Voigt Hill
#
# Bulk Modulus (GPa) = 27.67477 40.50756 34.09117
# Shear Modulus (GPa) = 24.39174 30.43500 27.41337
#
# Velocity S-wave (km/s) = 3.37969 3.77522 3.58291
# Velocity P-wave (km/s) = 5.30937 6.16215 5.75159
#
# Compressibility (1/GPa) = 0.03613399
#
# Stress axis : x y z
#
# Youngs Moduli (GPa) = 37.60261 59.87692 76.65601
#
# Poissons Ratio (x) = -0.09092 0.61087
# Poissons Ratio (y) = -0.05710 0.27999
# Poissons Ratio (z) = 0.29966 0.21870
#
# Static dielectric constant tensor:
#      x y z
#    x 1.977380 0.000000 0.041630 
#    y 0.000000 1.843990 0.000000 
#    z 0.041630 0.000000 1.835680 
# 
# From -- ./inp_files/223241.got.cif
#   From: 2010.05.17/outbox.cif.g08.bks.cpg/sg15_112_cif.got.tgz:223241.got - 2010.06.03 18:47:42.
