data_PCOD9255181
_publ_section_title
;
Structure prediction by ZEFSAII (Michael W. Deem and Ramdas Pophale) SiO2 
 PCOD9255181
Probable space group: C 2/C
;
_chemical_formula_sum "Si O2"
_cell_formula_units_Z 64
_cell_length_a 14.000099
_cell_length_b 25.422788
_cell_length_c 12.470485
_cell_angle_alpha 90.000000
_cell_angle_beta 106.326520
_cell_angle_gamma 90.000000
_cell_volume 4259.532486
_symmetry_space_group_name_H-M "C 2/C"
_symmetry_group_IT_number 15
_symmetry_cell_setting 'monoclinic'
loop_
_space_group_symop_operation_xyz
x,y,z
-x,y,1/2-z
-x,-y,-z
x,-y,1/2+z
1/2+x,1/2+y,z
1/2-x,1/2+y,1/2-z
1/2-x,1/2-y,-z
1/2+x,1/2-y,1/2+z
loop_
_atom_site_type_symbol
_atom_site_label
_atom_site_fract_x
_atom_site_fract_y
_atom_site_fract_z
Si Si1 0.818230 0.879389 0.295817
Si Si2 0.915331 0.080139 0.134790
Si Si3 0.622199 0.236148 0.062554
Si Si4 0.400281 0.271124 0.990340
Si Si5 0.971283 0.886923 0.036469
Si Si6 0.229664 0.838223 0.996923
Si Si7 0.114085 0.035627 0.828699
Si Si8 0.291599 0.729808 0.682900
O O1 0.761973 0.872414 0.391080
O O2 0.817879 0.935773 0.238218
O O3 0.784897 0.832025 0.209251
O O4 0.936357 0.870313 0.357555
O O5 0.000000 0.088402 0.250000
O O6 0.862123 0.024074 0.134434
O O7 0.835956 0.126959 0.103991
O O8 0.974675 0.081423 0.041075
O O9 0.666428 0.287141 0.014209
O O10 0.659896 0.243102 0.197059
O O11 0.503976 0.240165 0.015540
O O12 0.671285 0.184957 0.024256
O O13 0.316692 0.252068 0.881078
O O14 0.422840 0.333033 0.981711
O O15 0.357953 0.264156 0.097440
O O16 0.895488 0.924418 0.074824
O O17 0.000000 0.032340 0.750000
#
# Coordination Sequence:
#
# PCOD9255181 Si02
#       8
#     8   8   8   8   8   8   8   8
#     4   9  16  32  47  64  93 133 166 199 228 297
#     4  10  19  29  42  72 101 128 161 203 242 301
#     4  10  19  33  48  67  98 140 162 202 244 289
#     4  11  19  30  48  75  98 131 163 206 246 291
#     4  10  17  29  47  65  98 133 159 193 249 294
#     4   9  19  31  47  65  94 134 171 187 241 298
#     4   9  17  27  49  67  91 131 166 196 250 294
#     4  10  20  29  49  73  96 125 176 200 246 298
#
# _framework density 15.025123000000001
#
# number of rings (size 3 to 8) (size 9 to 14) (size 15 to 20)
#    0.000    2.250    5.000    0.750    1.750    1.000 
#    0.000    5.000    0.000    0.000    0.000    0.875 
#    0.000    0.000    0.000    0.000    0.000    0.000 
#
# Total GULP energy -178207.820693 kJ/mol
# GULP energy per Si atom -5568.994397 kJ/mol
# Density = 1.499092 g / cm^3
# Si number density = 15.025123 Si / 1000 Ang^3
#
#
#
# Elastic Constant Matrix: (Units=GPa)
#
#
# Indices 1 2 3 4 5 6 
#
# 1 61.1540 30.4219 25.7359 0.0000 -1.3668 0.0000
# 2 30.4219 91.1449 41.0251 0.0000 -1.7868 0.0000
# 3 25.7359 41.0251 46.0703 0.0000 3.9601 0.0000
# 4 0.0000 0.0000 0.0000 15.3554 0.0000 -6.8346
# 5 -1.3668 -1.7868 3.9601 0.0000 16.4916 0.0000
# 6 0.0000 0.0000 0.0000 -6.8346 0.0000 22.2030
#
#
#
# Elastic Compliance Matrix: (Units=1/GPa)
#
#
# Indices 1 2 3 4 5 6 
#
# 1 0.022111 -0.002646 -0.010341 0.000000 0.004029 0.000000
# 2 -0.002646 0.019233 -0.016142 0.000000 0.005741 0.000000
# 3 -0.010341 -0.016142 0.042968 0.000000 -0.012924 0.000000
# 4 0.000000 0.000000 0.000000 0.075463 0.000000 0.023229
# 5 0.004029 0.005741 -0.012924 0.000000 0.064696 0.000000
# 6 0.000000 0.000000 0.000000 0.023229 0.000000 0.052189
#
#
# Mechanical properties :
#
#
# Convention : Reuss Voigt Hill
#
# Bulk Modulus (GPa) = 38.38404 43.63722 41.01063
# Shear Modulus (GPa) = 14.55165 17.55575 16.05370
#
# Velocity S-wave (km/s) = 3.11543 3.42193 3.27227
# Velocity P-wave (km/s) = 6.20832 6.68721 6.45221
#
# Compressibility (1/GPa) = 0.02605250
#
# Stress axis : x y z
#
# Youngs Moduli (GPa) = 45.22700 51.99401 23.27307
#
# Poissons Ratio (x) = 0.13759 0.24068
# Poissons Ratio (y) = 0.11968 0.37567
# Poissons Ratio (z) = 0.46771 0.83929
#
# Static dielectric constant tensor:
#      x y z
#    x 1.484760 0.000000 -0.026110 
#    y 0.000000 1.509470 0.000000 
#    z -0.026110 0.000000 1.538230 
# 
# From -- ./inp_files/100500.got.cif
#   From: 2010.05.17/outbox.cif.g08.bks.cpg/sg15_51_cif.got.tgz:100500.got - 2010.06.03 18:47:42.
