data_PCOD9255077
_publ_section_title
;
Structure prediction by ZEFSAII (Michael W. Deem and Ramdas Pophale) SiO2 
 PCOD9255077
Probable space group: C 2/C
;
_chemical_formula_sum "Si O2"
_cell_formula_units_Z 56
_cell_length_a 5.367928
_cell_length_b 17.947049
_cell_length_c 28.193886
_cell_angle_alpha 90.000000
_cell_angle_beta 89.881217
_cell_angle_gamma 90.000000
_cell_volume 2716.149915
_symmetry_space_group_name_H-M "C 2/C"
_symmetry_group_IT_number 15
_symmetry_cell_setting 'monoclinic'
loop_
_space_group_symop_operation_xyz
x,y,z
-x,y,1/2-z
-x,-y,-z
x,-y,1/2+z
1/2+x,1/2+y,z
1/2-x,1/2+y,1/2-z
1/2-x,1/2-y,-z
1/2+x,1/2-y,1/2+z
loop_
_atom_site_type_symbol
_atom_site_label
_atom_site_fract_x
_atom_site_fract_y
_atom_site_fract_z
Si Si1 0.543264 0.028250 0.303328
Si Si2 0.497431 0.549347 0.452926
Si Si3 0.974628 0.709607 0.194758
Si Si4 0.475783 0.707781 0.137801
Si Si5 0.042006 0.974044 0.854513
Si Si6 0.999365 0.730341 0.530627
Si Si7 0.498319 0.914146 0.985392
O O1 0.500000 0.003139 0.250000
O O2 0.535270 0.118794 0.303797
O O3 0.310017 0.004233 0.335074
O O4 0.811719 0.004394 0.321947
O O5 0.500000 0.500000 0.500000
O O6 0.501148 0.497428 0.407490
O O7 0.245753 0.596617 0.454479
O O8 0.749425 0.596629 0.455285
O O9 0.718703 0.731900 0.168343
O O10 0.000000 0.733659 0.250000
O O11 0.218951 0.730906 0.164178
O O12 0.471225 0.616632 0.139474
O O13 0.492938 0.738637 0.084058
O O14 0.750000 0.750000 0.500000
O O15 0.250000 0.750000 0.500000
O O16 0.000228 0.640170 0.529728
O O17 0.500000 0.000000 0.000000
#
# Coordination Sequence:
#
# PCOD9255077 Si02
#       7
#     8   8   8   8   8   8   8
#     4   9  17  27  42  65  95 131 166 202 257 326
#     4  10  20  34  52  73  99 136 183 224 263 318
#     4   9  17  30  46  67  99 136 172 211 260 321
#     4  10  19  29  46  72 101 137 173 211 266 320
#     4  10  17  28  45  66  98 132 164 210 264 313
#     4  12  23  35  53  80 115 151 185 227 277 328
#     4  10  21  37  54  73 106 145 181 221 263 314
#
# _framework density 20.617418000000001
#
# number of rings (size 3 to 8) (size 9 to 14) (size 15 to 20)
#    0.000    2.000    0.000    5.143    0.000    5.714 
#    0.000    0.000    0.000    0.000    0.000    0.000 
#    0.000   91.429    0.000    5.714    0.000    0.000 
#
# Total GULP energy -156126.847019 kJ/mol
# GULP energy per Si atom -5575.958822 kJ/mol
# Density = 2.057049 g / cm^3
# Si number density = 20.617418 Si / 1000 Ang^3
#
#
#
# Elastic Constant Matrix: (Units=GPa)
#
#
# Indices 1 2 3 4 5 6 
#
# 1 160.2682 3.4774 25.3913 0.0000 2.6992 0.0000
# 2 3.4774 41.2019 10.3704 0.0000 0.1662 0.0000
# 3 25.3913 10.3704 109.4790 0.0000 2.9459 0.0000
# 4 0.0000 0.0000 0.0000 20.3038 0.0000 -1.9392
# 5 2.6992 0.1662 2.9459 0.0000 37.4082 0.0000
# 6 0.0000 0.0000 0.0000 -1.9392 0.0000 -4.9258
#
#
#
# Elastic Compliance Matrix: (Units=1/GPa)
#
#
# Indices 1 2 3 4 5 6 
#
# 1 0.006483 -0.000174 -0.001478 0.000000 -0.000351 0.000000
# 2 -0.000174 0.024868 -0.002318 0.000000 0.000085 0.000000
# 3 -0.001478 -0.002318 0.009714 0.000000 -0.000648 0.000000
# 4 0.000000 0.000000 0.000000 0.047467 0.000000 -0.018687
# 5 -0.000351 0.000085 -0.000648 0.000000 0.026808 0.000000
# 6 0.000000 0.000000 0.000000 -0.018687 0.000000 -0.195658
#
#
# Mechanical properties :
#
#
# Convention : Reuss Voigt Hill
#
# Bulk Modulus (GPa) = 30.18671 43.26971 36.72821
# Shear Modulus (GPa) = -81.51811 28.67123 -26.42344
#
# Velocity S-wave (km/s) = -6.29478 3.73316 -3.58384
# Velocity P-wave (km/s) = 6.17732 6.29401 0.85302
#
# Compressibility (1/GPa) = 0.03312716
#
# Stress axis : x y z
#
# Youngs Moduli (GPa) = 154.24145 40.21172 102.94543
#
# Poissons Ratio (x) = 0.00699 0.15213
# Poissons Ratio (y) = 0.02681 0.23859
# Poissons Ratio (z) = 0.22793 0.09320
#
# Static dielectric constant tensor:
#      x y z
#    x 1.802280 0.000000 -0.006970 
#    y 0.000000 1.737730 0.000000 
#    z -0.006970 0.000000 1.758520 
# 
# From -- ./inp_files/261186.got.cif
#   From: 2010.05.17/outbox.cif.g08.bks.cpg/sg15_131_cif.got.tgz:261186.got - 2010.06.03 18:47:42.
