data_PCOD9255386
_publ_section_title
;
Structure prediction by ZEFSAII (Michael W. Deem and Ramdas Pophale) SiO2 
 PCOD9255386
Probable space group: C 2/C
;
_chemical_formula_sum "Si O2"
_cell_formula_units_Z 44
_cell_length_a 11.512604
_cell_length_b 25.730855
_cell_length_c 11.425083
_cell_angle_alpha 90.000000
_cell_angle_beta 134.811594
_cell_angle_gamma 90.000000
_cell_volume 2401.018779
_symmetry_space_group_name_H-M "C 2/C"
_symmetry_group_IT_number 15
_symmetry_cell_setting 'monoclinic'
loop_
_space_group_symop_operation_xyz
x,y,z
-x,y,1/2-z
-x,-y,-z
x,-y,1/2+z
1/2+x,1/2+y,z
1/2-x,1/2+y,1/2-z
1/2-x,1/2-y,-z
1/2+x,1/2-y,1/2+z
loop_
_atom_site_type_symbol
_atom_site_label
_atom_site_fract_x
_atom_site_fract_y
_atom_site_fract_z
Si Si1 0.000000 0.006400 0.250000
Si Si2 0.153613 0.895242 0.792922
Si Si3 0.759617 0.262078 0.367337
Si Si4 0.858329 0.924432 0.984552
Si Si5 0.579798 0.825713 0.601564
Si Si6 0.000000 0.595231 0.250000
Si Si7 0.000000 0.838978 0.250000
O O1 0.151727 0.046419 0.345049
O O2 0.029352 0.969911 0.382862
O O3 0.113312 0.906665 0.627982
O O4 0.316097 0.860832 0.913884
O O5 0.000000 0.869302 0.750000
O O6 0.750000 0.250000 0.500000
O O7 0.710386 0.211035 0.261308
O O8 0.613907 0.303610 0.249719
O O9 0.931069 0.288823 0.456765
O O10 0.666468 0.937233 0.862356
O O11 0.890559 0.875286 0.090897
O O12 0.505532 0.866303 0.642488
#
# Coordination Sequence:
#
# PCOD9255386 Si02
#       7
#     4   8   8   8   8   4   4
#     4   9  20  38  63  80 106 151 194 231 286 328
#     4   9  21  38  59  75 117 155 189 226 280 337
#     4  12  18  30  53  85 114 141 184 230 290 320
#     4  10  19  34  60  89 106 144 186 236 289 333
#     4  11  20  32  53  83 112 150 182 233 276 330
#     4  10  17  30  53  86 122 125 180 239 294 322
#     4  11  19  30  56  90 116 132 182 244 278 336
#
# _framework density 18.325555999999999
#
# number of rings (size 3 to 8) (size 9 to 14) (size 15 to 20)
#    0.545    1.091    5.455    1.636    0.000    0.000 
#    0.000    4.545    4.000    0.000    0.000    0.000 
#    0.000    0.000    0.000    0.000    0.000    0.000 
#
# Total GULP energy -122500.094088 kJ/mol
# GULP energy per Si atom -5568.186095 kJ/mol
# Density = 1.828385 g / cm^3
# Si number density = 18.325556 Si / 1000 Ang^3
#
#
#
# Elastic Constant Matrix: (Units=GPa)
#
#
# Indices 1 2 3 4 5 6 
#
# 1 101.3859 20.1368 18.8281 0.0000 21.2415 0.0000
# 2 20.1368 73.6152 11.8354 0.0000 14.3836 0.0000
# 3 18.8281 11.8354 44.3623 0.0000 17.6287 0.0000
# 4 0.0000 0.0000 0.0000 -2.8373 0.0000 14.1948
# 5 21.2415 14.3836 17.6287 0.0000 26.5868 0.0000
# 6 0.0000 0.0000 0.0000 14.1948 0.0000 27.8746
#
#
#
# Elastic Compliance Matrix: (Units=1/GPa)
#
#
# Indices 1 2 3 4 5 6 
#
# 1 0.012096 -0.001531 -0.001648 0.000000 -0.007743 0.000000
# 2 -0.001531 0.015421 -0.000862 0.000000 -0.006548 0.000000
# 3 -0.001648 -0.000862 0.030906 0.000000 -0.018709 0.000000
# 4 0.000000 0.000000 0.000000 -0.099346 0.000000 0.050591
# 5 -0.007743 -0.006548 -0.018709 0.000000 0.059746 0.000000
# 6 0.000000 0.000000 0.000000 0.050591 0.000000 0.010112
#
#
# Mechanical properties :
#
#
# Convention : Reuss Voigt Hill
#
# Bulk Modulus (GPa) = 19.86525 35.66266 27.76396
# Shear Modulus (GPa) = 92.94051 21.56236 57.25144
#
# Velocity S-wave (km/s) = 7.12927 3.43392 5.59546
# Velocity P-wave (km/s) = 8.86749 5.93509 7.54512
#
# Compressibility (1/GPa) = 0.05033915
#
# Stress axis : x y z
#
# Youngs Moduli (GPa) = 82.67446 64.84684 32.35629
#
# Poissons Ratio (x) = 0.09927 0.05334
# Poissons Ratio (y) = 0.12656 0.02790
# Poissons Ratio (z) = 0.13628 0.05593
#
# Static dielectric constant tensor:
#      x y z
#    x 1.644930 0.000000 0.032230 
#    y 0.000000 1.655660 0.000000 
#    z 0.032230 0.000000 1.657720 
# 
# From -- ./inp_files/25636.got.cif
#   From: 2010.05.17/outbox.cif.g08.bks.cpg/sg15_13_cif.got.tgz:25636.got - 2010.06.03 18:47:42.
