data_PCOD9255357
_publ_section_title
;
Structure prediction by ZEFSAII (Michael W. Deem and Ramdas Pophale) SiO2 
 PCOD9255357
Probable space group: C 2/C
;
_chemical_formula_sum "Si O2"
_cell_formula_units_Z 56
_cell_length_a 20.693683
_cell_length_b 11.123318
_cell_length_c 12.737972
_cell_angle_alpha 90.000000
_cell_angle_beta 58.361419
_cell_angle_gamma 90.000000
_cell_volume 2496.276975
_symmetry_space_group_name_H-M "C 2/C"
_symmetry_group_IT_number 15
_symmetry_cell_setting 'monoclinic'
loop_
_space_group_symop_operation_xyz
x,y,z
-x,y,1/2-z
-x,-y,-z
x,-y,1/2+z
1/2+x,1/2+y,z
1/2-x,1/2+y,1/2-z
1/2-x,1/2-y,-z
1/2+x,1/2-y,1/2+z
loop_
_atom_site_type_symbol
_atom_site_label
_atom_site_fract_x
_atom_site_fract_y
_atom_site_fract_z
Si Si1 0.298130 0.767119 0.749173
Si Si2 0.365387 0.585924 0.515296
Si Si3 0.127993 0.275758 0.350000
Si Si4 0.835269 0.304651 0.413479
Si Si5 0.471979 0.565605 0.152595
Si Si6 0.674726 0.570547 0.640417
Si Si7 0.162112 0.510625 0.415875
O O1 0.322657 0.661421 0.643306
O O2 0.207151 0.783998 0.820626
O O3 0.322514 0.713446 0.840808
O O4 0.336442 0.889817 0.677644
O O5 0.381364 0.693665 0.419564
O O6 0.447853 0.533695 0.472607
O O7 0.324258 0.484703 0.478301
O O8 0.151012 0.329737 0.217920
O O9 0.062416 0.182264 0.377569
O O10 0.114608 0.391217 0.433952
O O11 0.750000 0.250000 0.500000
O O12 0.857963 0.417070 0.463073
O O13 0.500000 0.576437 0.250000
O O14 0.399326 0.479861 0.236457
O O15 0.750545 0.524857 0.634024
#
# Coordination Sequence:
#
# PCOD9255357 Si02
#       7
#     8   8   8   8   8   8   8
#     4  10  19  32  52  76 103 135 171 207 257 302
#     4  10  18  31  54  78  99 133 174 214 243 304
#     4  11  18  31  56  76 106 128 175 219 247 293
#     4  11  15  32  53  76 100 130 181 204 244 301
#     4  10  18  31  52  80  98 131 173 214 252 288
#     4  10  17  30  52  75 104 129 173 213 249 293
#     4  10  19  30  52  81 100 134 170 214 254 295
#
# _framework density 22.433408
#
# number of rings (size 3 to 8) (size 9 to 14) (size 15 to 20)
#    0.000    1.714    8.571    0.000    0.000    0.571 
#    0.000    2.857    3.143    6.000    0.000    0.000 
#    0.000    0.000    0.000    0.000    0.000    0.000 
#
# Total GULP energy -155960.318513 kJ/mol
# GULP energy per Si atom -5570.011375 kJ/mol
# Density = 2.238235 g / cm^3
# Si number density = 22.433408 Si / 1000 Ang^3
#
#
#
# Elastic Constant Matrix: (Units=GPa)
#
#
# Indices 1 2 3 4 5 6 
#
# 1 78.1939 38.7321 -8.4471 0.0000 14.8236 0.0000
# 2 38.7321 70.1989 3.0330 0.0000 19.3850 0.0000
# 3 -8.4471 3.0330 28.6103 0.0000 2.8532 0.0000
# 4 0.0000 0.0000 0.0000 31.1767 0.0000 17.8412
# 5 14.8236 19.3850 2.8532 0.0000 11.8849 0.0000
# 6 0.0000 0.0000 0.0000 17.8412 0.0000 -0.5625
#
#
#
# Elastic Compliance Matrix: (Units=1/GPa)
#
#
# Indices 1 2 3 4 5 6 
#
# 1 0.020180 -0.007266 0.008254 0.000000 -0.015300 0.000000
# 2 -0.007266 0.028599 -0.001464 0.000000 -0.037233 0.000000
# 3 0.008254 -0.001464 0.039274 0.000000 -0.017336 0.000000
# 4 0.000000 0.000000 0.000000 0.001675 0.000000 0.053124
# 5 -0.015300 -0.037233 -0.017336 0.000000 0.168114 0.000000
# 6 0.000000 0.000000 0.000000 0.053124 0.000000 -0.092831
#
#
# Mechanical properties :
#
#
# Convention : Reuss Voigt Hill
#
# Bulk Modulus (GPa) = 11.48088 27.07100 19.27594
# Shear Modulus (GPa) = 25.64177 18.07885 21.86031
#
# Velocity S-wave (km/s) = 3.38452 2.84190 3.12501
# Velocity P-wave (km/s) = 4.51688 4.78142 4.65103
#
# Compressibility (1/GPa) = 0.08710131
#
# Stress axis : x y z
#
# Youngs Moduli (GPa) = 49.55413 34.96636 25.46242
#
# Poissons Ratio (x) = 0.25406 -0.21017
# Poissons Ratio (y) = 0.36005 0.03728
# Poissons Ratio (z) = -0.40903 0.05119
#
# Static dielectric constant tensor:
#      x y z
#    x 1.998050 0.000000 0.116200 
#    y 0.000000 2.193850 0.000000 
#    z 0.116200 0.000000 2.083630 
# 
# From -- ./inp_files/167210.got.cif
#   From: 2010.05.17/outbox.cif.g08.bks.cpg/sg15_84_cif.got.tgz:167210.got - 2010.06.03 18:47:42.
