data_PCOD9255941
_publ_section_title
;
Structure prediction by ZEFSAII (Michael W. Deem and Ramdas Pophale) SiO2 
 PCOD9255941
Probable space group: C 2/C
;
_chemical_formula_sum "Si O2"
_cell_formula_units_Z 64
_cell_length_a 19.024590
_cell_length_b 8.913393
_cell_length_c 23.093403
_cell_angle_alpha 90.000000
_cell_angle_beta 117.941901
_cell_angle_gamma 90.000000
_cell_volume 3459.513998
_symmetry_space_group_name_H-M "C 2/C"
_symmetry_group_IT_number 15
_symmetry_cell_setting 'monoclinic'
loop_
_space_group_symop_operation_xyz
x,y,z
-x,y,1/2-z
-x,-y,-z
x,-y,1/2+z
1/2+x,1/2+y,z
1/2-x,1/2+y,1/2-z
1/2-x,1/2-y,-z
1/2+x,1/2-y,1/2+z
loop_
_atom_site_type_symbol
_atom_site_label
_atom_site_fract_x
_atom_site_fract_y
_atom_site_fract_z
Si Si1 0.844598 0.254726 0.446083
Si Si2 0.179668 0.378699 0.861356
Si Si3 0.532867 0.346175 0.322622
Si Si4 0.719474 0.989082 0.496197
Si Si5 0.406752 0.503095 0.044378
Si Si6 0.092244 0.319096 0.509897
Si Si7 0.938320 0.459904 0.775369
Si Si8 0.056691 0.478752 0.093864
O O1 0.769730 0.173097 0.388608
O O2 0.805156 0.358891 0.480119
O O3 0.890566 0.357981 0.419378
O O4 0.902487 0.136924 0.499067
O O5 0.118712 0.239329 0.849779
O O6 0.182408 0.489847 0.917726
O O7 0.144155 0.450866 0.790125
O O8 0.500000 0.417722 0.250000
O O9 0.541171 0.456879 0.379893
O O10 0.472664 0.205191 0.305942
O O11 0.814345 0.977466 0.528535
O O12 0.679299 0.858118 0.518411
O O13 0.430154 0.653910 0.019706
O O14 0.081119 0.363033 0.573040
O O15 0.034326 0.439974 0.456405
O O16 0.932943 0.539062 0.834213
O O17 0.000000 0.517111 0.750000
#
# Coordination Sequence:
#
# PCOD9255941 Si02
#       8
#     8   8   8   8   8   8   8   8
#     4  10  19  32  60  80 115 142 179 218 281 320
#     4   9  15  32  56  84 101 144 180 220 256 333
#     4   9  17  30  54  82 108 138 181 222 268 312
#     4  10  17  33  58  85 109 139 181 225 269 318
#     4  11  19  33  55  87 110 140 184 232 269 322
#     4  10  22  34  55  78 116 142 183 227 274 317
#     4   9  19  34  61  77 100 138 193 222 269 328
#     4  10  22  39  51  79 108 153 180 222 274 334
#
# _framework density 18.499707999999998
#
# number of rings (size 3 to 8) (size 9 to 14) (size 15 to 20)
#    0.000    2.500    2.500    2.625    3.500    0.500 
#    0.000    4.375    2.750    1.500    0.000    0.000 
#    0.000    0.000    0.000    0.000    0.000    0.000 
#
# Total GULP energy -178333.150491 kJ/mol
# GULP energy per Si atom -5572.910953 kJ/mol
# Density = 1.845760 g / cm^3
# Si number density = 18.499708 Si / 1000 Ang^3
#
#
#
# Elastic Constant Matrix: (Units=GPa)
#
#
# Indices 1 2 3 4 5 6 
#
# 1 57.8571 11.1838 32.2682 0.0000 -11.4591 0.0000
# 2 11.1838 51.3226 17.1047 0.0000 -14.1317 0.0000
# 3 32.2682 17.1047 132.0318 0.0000 -7.6964 0.0000
# 4 0.0000 0.0000 0.0000 16.4207 0.0000 -3.3609
# 5 -11.4591 -14.1317 -7.6964 0.0000 28.7494 0.0000
# 6 0.0000 0.0000 0.0000 -3.3609 0.0000 14.6281
#
#
#
# Elastic Compliance Matrix: (Units=1/GPa)
#
#
# Indices 1 2 3 4 5 6 
#
# 1 0.021470 -0.001277 -0.004693 0.000000 0.006674 0.000000
# 2 -0.001277 0.023326 -0.002104 0.000000 0.010394 0.000000
# 3 -0.004693 -0.002104 0.008964 0.000000 -0.000505 0.000000
# 4 0.000000 0.000000 0.000000 0.063904 0.000000 0.014682
# 5 0.006674 0.010394 -0.000505 0.000000 0.042417 0.000000
# 6 0.000000 0.000000 0.000000 0.014682 0.000000 0.071735
#
#
# Mechanical properties :
#
#
# Convention : Reuss Voigt Hill
#
# Bulk Modulus (GPa) = 26.58694 40.25831 33.42262
# Shear Modulus (GPa) = 19.19384 24.00328 21.59856
#
# Velocity S-wave (km/s) = 3.22455 3.60598 3.42059
# Velocity P-wave (km/s) = 5.31662 6.25670 5.80572
#
# Compressibility (1/GPa) = 0.03761245
#
# Stress axis : x y z
#
# Youngs Moduli (GPa) = 46.57714 42.87076 111.55801
#
# Poissons Ratio (x) = 0.05474 0.52351
# Poissons Ratio (y) = 0.05948 0.23471
# Poissons Ratio (z) = 0.21857 0.09020
#
# Static dielectric constant tensor:
#      x y z
#    x 1.672120 0.000000 -0.005130 
#    y 0.000000 1.679300 0.000000 
#    z -0.005130 0.000000 1.649730 
# 
# From -- ./inp_files/279395.got.cif
#   From: 2010.05.17/outbox.cif.g08.bks.cpg/sg15_140_cif.got.tgz:279395.got - 2010.06.03 18:47:42.
