data_PCOD9255716
_publ_section_title
;
Structure prediction by ZEFSAII (Michael W. Deem and Ramdas Pophale) SiO2 
 PCOD9255716
Probable space group: C 2/C
;
_chemical_formula_sum "Si O2"
_cell_formula_units_Z 40
_cell_length_a 25.230917
_cell_length_b 11.495144
_cell_length_c 8.257676
_cell_angle_alpha 90.000000
_cell_angle_beta 131.406273
_cell_angle_gamma 90.000000
_cell_volume 1796.341652
_symmetry_space_group_name_H-M "C 2/C"
_symmetry_group_IT_number 15
_symmetry_cell_setting 'monoclinic'
loop_
_space_group_symop_operation_xyz
x,y,z
-x,y,1/2-z
-x,-y,-z
x,-y,1/2+z
1/2+x,1/2+y,z
1/2-x,1/2+y,1/2-z
1/2-x,1/2-y,-z
1/2+x,1/2-y,1/2+z
loop_
_atom_site_type_symbol
_atom_site_label
_atom_site_fract_x
_atom_site_fract_y
_atom_site_fract_z
Si Si1 0.679481 0.826079 0.331061
Si Si2 0.126280 0.080316 0.700802
Si Si3 0.833307 0.689205 0.339111
Si Si4 0.222622 0.613306 0.589153
Si Si5 0.422012 0.645333 0.543930
O O1 0.750000 0.750000 0.500000
O O2 0.660084 0.869443 0.472483
O O3 0.695369 0.088224 0.713466
O O4 0.881089 0.758969 0.858041
O O5 0.242910 0.243785 0.820857
O O6 0.207510 0.042701 0.823792
O O7 0.115486 0.198151 0.574671
O O8 0.118034 0.114063 0.870256
O O9 0.833384 0.622204 0.168691
O O10 0.423210 0.474593 0.946433
O O11 0.500000 0.684003 0.750000
#
# Coordination Sequence:
#
# PCOD9255716 Si02
#       5
#     8   8   8   8   8
#     4  10  17  32  55  68  85 134 174 214 241 285
#     4  10  19  32  44  67 101 140 166 201 244 298
#     4   8  14  28  49  69  84 122 174 211 243 272
#     4   8  15  31  50  67  88 121 179 218 241 268
#     4  12  23  33  45  72 112 142 167 199 255 316
#
# _framework density 22.267479999999999
#
# number of rings (size 3 to 8) (size 9 to 14) (size 15 to 20)
#    1.200    1.200    2.000    3.000    0.000    0.000 
#    0.000    0.000    0.000    0.000    0.000    0.000 
#    0.000    1.600    0.400    0.000    0.000    0.400 
#
# Total GULP energy -111475.348609 kJ/mol
# GULP energy per Si atom -5573.767430 kJ/mol
# Density = 2.221680 g / cm^3
# Si number density = 22.267480 Si / 1000 Ang^3
#
#
#
# Elastic Constant Matrix: (Units=GPa)
#
#
# Indices 1 2 3 4 5 6 
#
# 1 122.9925 31.4331 44.8086 0.0000 -56.1091 0.0000
# 2 31.4331 49.3691 36.2503 0.0000 -10.7362 0.0000
# 3 44.8086 36.2503 126.5099 0.0000 -16.4863 0.0000
# 4 0.0000 0.0000 0.0000 -3.3308 0.0000 -42.7860
# 5 -56.1091 -10.7362 -16.4863 0.0000 46.7410 0.0000
# 6 0.0000 0.0000 0.0000 -42.7860 0.0000 11.6504
#
#
#
# Elastic Compliance Matrix: (Units=1/GPa)
#
#
# Indices 1 2 3 4 5 6 
#
# 1 0.021370 -0.006615 -0.002650 0.000000 0.023199 0.000000
# 2 -0.006615 0.028245 -0.006226 0.000000 -0.003649 0.000000
# 3 -0.002650 -0.006226 0.010509 0.000000 -0.000905 0.000000
# 4 0.000000 0.000000 0.000000 -0.006232 0.000000 -0.022887
# 5 0.023199 -0.003649 -0.000905 0.000000 0.048086 0.000000
# 6 0.000000 0.000000 0.000000 -0.022887 0.000000 0.001782
#
#
# Mechanical properties :
#
#
# Convention : Reuss Voigt Hill
#
# Bulk Modulus (GPa) = 34.31487 58.20615 46.26051
# Shear Modulus (GPa) = 34.61224 23.43742 29.02483
#
# Velocity S-wave (km/s) = 3.94685 3.24781 3.61427
# Velocity P-wave (km/s) = 6.01780 6.34513 6.18363
#
# Compressibility (1/GPa) = 0.02914189
#
# Stress axis : x y z
#
# Youngs Moduli (GPa) = 46.79414 35.40399 95.15340
#
# Poissons Ratio (x) = 0.23420 0.25220
# Poissons Ratio (y) = 0.30955 0.59242
# Poissons Ratio (z) = 0.12402 0.22042
#
# Static dielectric constant tensor:
#      x y z
#    x 1.896800 0.000000 -0.009370 
#    y 0.000000 1.955730 0.000000 
#    z -0.009370 0.000000 1.816490 
# 
# From -- ./inp_files/117758.got.cif
#   From: 2010.05.17/outbox.cif.g08.bks.cpg/sg15_59_cif.got.tgz:117758.got - 2010.06.03 18:47:42.
