data_PCOD9255432
_publ_section_title
;
Structure prediction by ZEFSAII (Michael W. Deem and Ramdas Pophale) SiO2 
 PCOD9255432
Probable space group: C 2/C
;
_chemical_formula_sum "Si O2"
_cell_formula_units_Z 40
_cell_length_a 25.619755
_cell_length_b 6.762810
_cell_length_c 16.603323
_cell_angle_alpha 90.000000
_cell_angle_beta 32.103859
_cell_angle_gamma 90.000000
_cell_volume 1528.847581
_symmetry_space_group_name_H-M "C 2/C"
_symmetry_group_IT_number 15
_symmetry_cell_setting 'monoclinic'
loop_
_space_group_symop_operation_xyz
x,y,z
-x,y,1/2-z
-x,-y,-z
x,-y,1/2+z
1/2+x,1/2+y,z
1/2-x,1/2+y,1/2-z
1/2-x,1/2-y,-z
1/2+x,1/2-y,1/2+z
loop_
_atom_site_type_symbol
_atom_site_label
_atom_site_fract_x
_atom_site_fract_y
_atom_site_fract_z
Si Si1 0.681783 0.008520 0.731347
Si Si2 0.976130 0.925998 0.189864
Si Si3 0.849558 0.836299 0.115139
Si Si4 0.770796 0.086061 0.884366
Si Si5 0.568899 0.976407 0.229805
O O1 0.769217 0.143255 0.649727
O O2 0.633970 0.882255 0.868155
O O3 0.731630 0.827009 0.616154
O O4 0.605445 0.104553 0.768787
O O5 0.865018 0.974895 0.312346
O O6 0.980882 0.686157 0.179090
O O7 0.000000 0.969215 0.250000
O O8 0.053454 0.045455 0.035598
O O9 0.799574 0.952907 0.254591
O O10 0.669010 0.008651 0.049000
O O11 0.500000 0.885838 0.250000
#
# Coordination Sequence:
#
# PCOD9255432 Si02
#       5
#     8   8   8   8   8
#     4   9  19  33  55  82 118 146 196 232 295 333
#     4  10  17  30  57  84 109 145 203 240 276 332
#     4  10  20  33  55  87 119 150 188 245 290 344
#     4   9  19  31  54  87 114 142 200 245 280 327
#     4  10  18  32  57  86 110 150 203 245 270 334
#
# _framework density 26.163498000000001
#
# number of rings (size 3 to 8) (size 9 to 14) (size 15 to 20)
#    1.200    1.200    0.000    6.600    0.000    0.000 
#    0.000    1.000    0.000    6.000    0.000    0.000 
#    0.000    0.000    0.000    0.000    0.000    0.000 
#
# Total GULP energy -111753.541056 kJ/mol
# GULP energy per Si atom -5587.677053 kJ/mol
# Density = 2.610395 g / cm^3
# Si number density = 26.163498 Si / 1000 Ang^3
#
#
#
# Elastic Constant Matrix: (Units=GPa)
#
#
# Indices 1 2 3 4 5 6 
#
# 1 235.6652 32.7742 56.6268 -0.0012 -27.2210 -0.0006
# 2 32.7742 113.7182 36.7601 -0.0032 -3.6844 -0.0086
# 3 56.6268 36.7601 126.5256 -0.0033 0.2667 0.0008
# 4 -0.0012 -0.0032 -0.0033 22.9612 0.0025 0.3490
# 5 -27.2210 -3.6844 0.2667 0.0025 32.7180 0.0001
# 6 -0.0006 -0.0086 0.0008 0.3490 0.0001 -2.0640
#
#
#
# Elastic Compliance Matrix: (Units=1/GPa)
#
#
# Indices 1 2 3 4 5 6 
#
# 1 0.005383 -0.000691 -0.002217 -0.000001 0.004419 0.000001
# 2 -0.000691 0.009835 -0.002549 0.000002 0.000553 -0.000042
# 3 -0.002217 -0.002549 0.009641 0.000001 -0.002211 0.000015
# 4 -0.000001 0.000002 0.000001 0.043440 -0.000004 0.007344
# 5 0.004419 0.000553 -0.002211 -0.000004 0.034321 -0.000003
# 6 0.000001 -0.000042 0.000015 0.007344 -0.000003 -0.483250
#
#
# Mechanical properties :
#
#
# Convention : Reuss Voigt Hill
#
# Bulk Modulus (GPa) = 71.72122 80.91459 76.31791
# Shear Modulus (GPa) = -13.69613 34.03955 10.17171
#
# Velocity S-wave (km/s) = -2.29046 3.61090 1.97388
# Velocity P-wave (km/s) = 4.52518 6.95546 5.86753
#
# Compressibility (1/GPa) = 0.01394287
#
# Stress axis : x y z
#
# Youngs Moduli (GPa) = 185.78200 101.67918 103.72110
#
# Poissons Ratio (x) = 0.07030 0.23000
# Poissons Ratio (y) = 0.12844 0.26440
# Poissons Ratio (z) = 0.41197 0.25919
#
# Static dielectric constant tensor:
#      x y z
#    x 2.085860 0.000000 0.026900 
#    y 0.000000 2.115070 0.000000 
#    z 0.026900 0.000000 1.996260 
# 
# From -- ./inp_files/221786.got.cif
#   From: 2010.05.17/outbox.cif.g08.bks.cpg/sg15_111_cif.got.tgz:221786.got - 2010.06.03 18:47:42.
