data_PCOD9255979
_publ_section_title
;
Structure prediction by ZEFSAII (Michael W. Deem and Ramdas Pophale) SiO2 
 PCOD9255979
Probable space group: C 2/C
;
_chemical_formula_sum "Si O2"
_cell_formula_units_Z 52
_cell_length_a 6.599566
_cell_length_b 17.922900
_cell_length_c 27.926045
_cell_angle_alpha 90.000000
_cell_angle_beta 125.853049
_cell_angle_gamma 90.000000
_cell_volume 2677.304882
_symmetry_space_group_name_H-M "C 2/C"
_symmetry_group_IT_number 15
_symmetry_cell_setting 'monoclinic'
loop_
_space_group_symop_operation_xyz
x,y,z
-x,y,1/2-z
-x,-y,-z
x,-y,1/2+z
1/2+x,1/2+y,z
1/2-x,1/2+y,1/2-z
1/2-x,1/2-y,-z
1/2+x,1/2-y,1/2+z
loop_
_atom_site_type_symbol
_atom_site_label
_atom_site_fract_x
_atom_site_fract_y
_atom_site_fract_z
Si Si1 0.632869 0.050357 0.579275
Si Si2 0.186613 0.155418 0.353285
Si Si3 0.246863 0.452649 0.799367
Si Si4 0.827813 0.432861 0.599642
Si Si5 0.207200 0.904610 0.958064
Si Si6 0.418981 0.607656 0.793282
Si Si7 0.500000 0.770712 0.250000
O O1 0.455445 0.104076 0.523841
O O2 0.844019 0.092966 0.638831
O O3 0.446674 0.001120 0.586733
O O4 0.754641 0.986908 0.561508
O O5 0.464315 0.132256 0.375161
O O6 0.189145 0.154754 0.411889
O O7 0.999009 0.086649 0.317789
O O8 0.063204 0.221151 0.305707
O O9 0.217376 0.456782 0.852038
O O10 0.257266 0.532907 0.777160
O O11 0.000000 0.408476 0.750000
O O12 0.548561 0.406904 0.546837
O O13 0.500000 0.612617 0.750000
O O14 0.243990 0.677735 0.779186
#
# Coordination Sequence:
#
# PCOD9255979 Si02
#       7
#     8   8   8   8   8   8   4
#     4  10  19  36  59  97 128 156 203 264 302 372
#     4  10  22  39  59  90 122 163 209 252 300 375
#     4  11  20  34  62  89 118 158 209 251 302 363
#     4  10  17  33  62  92 120 153 202 254 312 350
#     4   9  19  35  63  94 125 157 207 258 311 355
#     4  12  25  39  59  90 127 162 201 255 313 369
#     4  12  28  42  58  88 132 168 202 258 320 362
#
# _framework density 19.422518
#
# number of rings (size 3 to 8) (size 9 to 14) (size 15 to 20)
#    0.000    1.538    5.385    2.308    1.077    3.077 
#    0.000    0.769    0.000    1.846    0.000    0.000 
#    0.000    0.000    0.000    0.000    0.000    0.000 
#
# Total GULP energy -144880.230087 kJ/mol
# GULP energy per Si atom -5572.316542 kJ/mol
# Density = 1.937831 g / cm^3
# Si number density = 19.422518 Si / 1000 Ang^3
#
#
#
# Elastic Constant Matrix: (Units=GPa)
#
#
# Indices 1 2 3 4 5 6 
#
# 1 123.5495 31.7089 44.4319 0.0001 27.7072 0.0000
# 2 31.7089 61.0997 34.5500 0.0000 2.7957 0.0000
# 3 44.4319 34.5500 128.4423 0.0001 31.0930 0.0000
# 4 0.0001 0.0000 0.0001 7.3892 0.0001 7.3966
# 5 27.7072 2.7957 31.0930 0.0001 30.7942 0.0000
# 6 0.0000 0.0000 0.0000 7.3966 0.0000 17.5032
#
#
#
# Elastic Compliance Matrix: (Units=1/GPa)
#
#
# Indices 1 2 3 4 5 6 
#
# 1 0.011821 -0.005577 -0.000181 0.000000 -0.009947 0.000000
# 2 -0.005577 0.022444 -0.006392 0.000000 0.009434 0.000000
# 3 -0.000181 -0.006392 0.012425 0.000000 -0.011802 0.000000
# 4 0.000000 0.000000 0.000000 0.234550 0.000000 -0.099118
# 5 -0.009947 0.009434 -0.011802 0.000000 0.052483 0.000000
# 6 0.000000 0.000000 0.000000 -0.099118 0.000000 0.099018
#
#
# Mechanical properties :
#
#
# Convention : Reuss Voigt Hill
#
# Bulk Modulus (GPa) = 44.66419 59.38589 52.02504
# Shear Modulus (GPa) = 10.76417 24.63070 17.69744
#
# Velocity S-wave (km/s) = 2.35672 3.56498 3.02185
# Velocity P-wave (km/s) = 5.51829 6.89837 6.24656
#
# Compressibility (1/GPa) = 0.02238930
#
# Stress axis : x y z
#
# Youngs Moduli (GPa) = 84.59405 44.55580 80.48596
#
# Poissons Ratio (x) = 0.24850 0.01458
# Poissons Ratio (y) = 0.47181 0.51444
# Poissons Ratio (z) = 0.01532 0.28479
#
# Static dielectric constant tensor:
#      x y z
#    x 1.691980 0.000000 0.021310 
#    y 0.000000 1.662700 0.000000 
#    z 0.021310 0.000000 1.775790 
# 
# From -- ./inp_files/286152.got.cif
#   From: 2010.05.17/outbox.cif.g08.bks.cpg/sg15_144_cif.got.tgz:286152.got - 2010.06.03 18:47:42.
