data_PCOD9255160
_publ_section_title
;
Structure prediction by ZEFSAII (Michael W. Deem and Ramdas Pophale) SiO2 
 PCOD9255160
Probable space group: C 2/C
;
_chemical_formula_sum "Si O2"
_cell_formula_units_Z 60
_cell_length_a 23.016933
_cell_length_b 16.902285
_cell_length_c 8.687420
_cell_angle_alpha 90.000000
_cell_angle_beta 130.672001
_cell_angle_gamma 90.000000
_cell_volume 2563.376001
_symmetry_space_group_name_H-M "C 2/C"
_symmetry_group_IT_number 15
_symmetry_cell_setting 'monoclinic'
loop_
_space_group_symop_operation_xyz
x,y,z
-x,y,1/2-z
-x,-y,-z
x,-y,1/2+z
1/2+x,1/2+y,z
1/2-x,1/2+y,1/2-z
1/2-x,1/2-y,-z
1/2+x,1/2-y,1/2+z
loop_
_atom_site_type_symbol
_atom_site_label
_atom_site_fract_x
_atom_site_fract_y
_atom_site_fract_z
Si Si1 0.875491 0.741069 0.493752
Si Si2 0.766493 0.145714 0.958587
Si Si3 0.411182 0.116816 0.768360
Si Si4 0.395627 0.442997 0.826505
Si Si5 0.817120 0.604795 0.174150
Si Si6 0.668617 0.613143 0.743808
Si Si7 0.110422 0.475261 0.992059
Si Si8 0.000000 0.005891 0.250000
O O1 0.796832 0.769897 0.446077
O O2 0.928929 0.701437 0.718267
O O3 0.857532 0.672141 0.342774
O O4 0.889588 0.818083 0.411262
O O5 0.825828 0.116839 0.190839
O O6 0.679801 0.129324 0.853236
O O7 0.789219 0.094736 0.845957
O O8 0.423525 0.047409 0.666488
O O9 0.440037 0.078635 0.978347
O O10 0.366400 0.532483 0.759973
O O11 0.455615 0.437260 0.791233
O O12 0.441951 0.447952 0.062780
O O13 0.829446 0.525422 0.297306
O O14 0.732486 0.634152 0.980713
O O15 0.855541 0.582874 0.077772
#
# Coordination Sequence:
#
# PCOD9255160 Si02
#       8
#     8   8   8   8   8   8   8   4
#     4   9  20  31  42  62  91 127 152 203 243 277
#     4  10  20  29  46  64  88 119 159 201 245 288
#     4  10  17  29  43  64  92 121 165 192 236 267
#     4  11  20  38  50  72  88 120 166 216 258 301
#     4  10  17  29  43  64  92 121 165 192 236 267
#     4  10  20  29  46  64  88 119 159 201 245 288
#     4   9  17  25  42  59  80 122 156 198 212 257
#     4  10  22  34  56  66  90 112 156 222 278 294
#
# _framework density 23.406634
#
# number of rings (size 3 to 8) (size 9 to 14) (size 15 to 20)
#    0.800    1.333    2.667    2.400    0.000    2.133 
#    0.000    1.333    0.000    0.000    0.000    0.000 
#    0.000    0.000    0.000    0.000    0.000 1066.667 
#
# Total GULP energy -167036.948349 kJ/mol
# GULP energy per Si atom -5567.898278 kJ/mol
# Density = 2.335336 g / cm^3
# Si number density = 23.406634 Si / 1000 Ang^3
#
#
#
# Elastic Constant Matrix: (Units=GPa)
#
#
# Indices 1 2 3 4 5 6 
#
# 1 66.5624 12.8363 14.1734 0.0000 -9.7500 0.0000
# 2 12.8363 99.2704 9.7726 0.0000 -14.5408 0.0000
# 3 14.1734 9.7726 68.6881 0.0000 -30.0350 0.0000
# 4 0.0000 0.0000 0.0000 38.7004 0.0000 -21.7839
# 5 -9.7500 -14.5408 -30.0350 0.0000 24.4401 0.0000
# 6 0.0000 0.0000 0.0000 -21.7839 0.0000 16.6588
#
#
#
# Elastic Compliance Matrix: (Units=1/GPa)
#
#
# Indices 1 2 3 4 5 6 
#
# 1 0.016163 -0.001386 -0.001468 0.000000 0.003820 0.000000
# 2 -0.001386 0.011411 0.003003 0.000000 0.009927 0.000000
# 3 -0.001468 0.003003 0.032335 0.000000 0.040939 0.000000
# 4 0.000000 0.000000 0.000000 0.097898 0.000000 0.128017
# 5 0.003820 0.009927 0.040939 0.000000 0.098657 0.000000
# 6 0.000000 0.000000 0.000000 0.128017 0.000000 0.227431
#
#
# Mechanical properties :
#
#
# Convention : Reuss Voigt Hill
#
# Bulk Modulus (GPa) = 16.60905 34.23173 25.42039
# Shear Modulus (GPa) = 9.92721 29.14242 19.53481
#
# Velocity S-wave (km/s) = 2.06165 3.53235 2.89205
# Velocity P-wave (km/s) = 3.57470 5.59404 4.69424
#
# Compressibility (1/GPa) = 0.06020815
#
# Stress axis : x y z
#
# Youngs Moduli (GPa) = 61.87052 87.63373 30.92590
#
# Poissons Ratio (x) = 0.12146 0.04539
# Poissons Ratio (y) = 0.08575 -0.09288
# Poissons Ratio (z) = 0.09081 -0.26318
#
# Static dielectric constant tensor:
#      x y z
#    x 1.960410 0.000000 0.017080 
#    y 0.000000 1.933650 0.000000 
#    z 0.017080 0.000000 1.966660 
# 
# From -- ./inp_files/70729.got.cif
#   From: 2010.05.17/outbox.cif.g08.bks.cpg/sg15_36_cif.got.tgz:70729.got - 2010.06.03 18:47:42.
