data_PCOD9255871
_publ_section_title
;
Structure prediction by ZEFSAII (Michael W. Deem and Ramdas Pophale) SiO2 
 PCOD9255871
Probable space group: C 2/C
;
_chemical_formula_sum "Si O2"
_cell_formula_units_Z 44
_cell_length_a 9.355632
_cell_length_b 13.948524
_cell_length_c 22.317337
_cell_angle_alpha 90.000000
_cell_angle_beta 128.451763
_cell_angle_gamma 90.000000
_cell_volume 2280.755393
_symmetry_space_group_name_H-M "C 2/C"
_symmetry_group_IT_number 15
_symmetry_cell_setting 'monoclinic'
loop_
_space_group_symop_operation_xyz
x,y,z
-x,y,1/2-z
-x,-y,-z
x,-y,1/2+z
1/2+x,1/2+y,z
1/2-x,1/2+y,1/2-z
1/2-x,1/2-y,-z
1/2+x,1/2-y,1/2+z
loop_
_atom_site_type_symbol
_atom_site_label
_atom_site_fract_x
_atom_site_fract_y
_atom_site_fract_z
Si Si1 0.981552 0.808287 0.181459
Si Si2 0.155343 0.781108 0.536489
Si Si3 0.192814 0.179137 0.614486
Si Si4 0.319095 0.027996 0.124360
Si Si5 0.000000 0.184388 0.250000
Si Si6 0.185112 0.397126 0.741216
O O1 0.769960 0.779636 0.114838
O O2 0.000000 0.861475 0.250000
O O3 0.075390 0.846465 0.144724
O O4 0.092692 0.708349 0.219008
O O5 0.250000 0.750000 0.500000
O O6 0.200570 0.893005 0.559063
O O7 0.942371 0.769573 0.467870
O O8 0.359273 0.246837 0.677665
O O9 0.260917 0.080727 0.603711
O O10 0.300369 0.058025 0.189402
O O11 0.533557 0.042169 0.165701
O O12 0.877986 0.118681 0.261054
#
# Coordination Sequence:
#
# PCOD9255871 Si02
#       6
#     8   8   8   8   4   8
#     4   9  15  32  54  78 105 143 181 218 270 330
#     4   9  17  30  54  84 106 144 185 215 263 329
#     4  10  20  30  53  82 108 136 183 233 262 317
#     4  10  17  33  54  78 108 141 179 222 278 309
#     4  10  20  34  50  80 108 142 188 218 266 320
#     4   9  17  31  55  72 103 144 179 217 262 333
#
# _framework density 19.291854000000001
#
# number of rings (size 3 to 8) (size 9 to 14) (size 15 to 20)
#    0.000    2.545    3.636    2.727    0.000    0.000 
#    1.636    0.909    0.000    0.000    0.000   11.455 
#    0.000    0.000    0.000    0.000    0.000    0.000 
#
# Total GULP energy -122503.240888 kJ/mol
# GULP energy per Si atom -5568.329131 kJ/mol
# Density = 1.924794 g / cm^3
# Si number density = 19.291854 Si / 1000 Ang^3
#
#
#
# Elastic Constant Matrix: (Units=GPa)
#
#
# Indices 1 2 3 4 5 6 
#
# 1 78.3266 18.5334 34.1173 0.0000 26.3306 0.0000
# 2 18.5334 39.1337 15.3245 0.0000 10.5969 0.0000
# 3 34.1173 15.3245 126.0611 0.0000 25.6065 0.0000
# 4 0.0000 0.0000 0.0000 6.6454 0.0000 -6.0839
# 5 26.3306 10.5969 25.6065 0.0000 30.8300 0.0000
# 6 0.0000 0.0000 0.0000 -6.0839 0.0000 21.4724
#
#
#
# Elastic Compliance Matrix: (Units=1/GPa)
#
#
# Indices 1 2 3 4 5 6 
#
# 1 0.019143 -0.004758 -0.001941 0.000000 -0.013101 0.000000
# 2 -0.004758 0.029685 -0.001292 0.000000 -0.005067 0.000000
# 3 -0.001941 -0.001292 0.009850 0.000000 -0.006079 0.000000
# 4 0.000000 0.000000 0.000000 0.203187 0.000000 0.057570
# 5 -0.013101 -0.005067 -0.006079 0.000000 0.050416 0.000000
# 6 0.000000 0.000000 0.000000 0.057570 0.000000 0.062883
#
#
# Mechanical properties :
#
#
# Convention : Reuss Voigt Hill
#
# Bulk Modulus (GPa) = 23.42171 42.16355 32.79263
# Shear Modulus (GPa) = 12.33421 23.49263 17.91342
#
# Velocity S-wave (km/s) = 2.53128 3.49341 3.05052
# Velocity P-wave (km/s) = 4.55085 6.17859 5.42610
#
# Compressibility (1/GPa) = 0.04269542
#
# Stress axis : x y z
#
# Youngs Moduli (GPa) = 52.23967 33.68746 101.52392
#
# Poissons Ratio (x) = 0.16029 0.19707
# Poissons Ratio (y) = 0.24856 0.13114
# Poissons Ratio (z) = 0.10140 0.04351
#
# Static dielectric constant tensor:
#      x y z
#    x 1.719840 0.000000 0.000590 
#    y 0.000000 1.659010 0.000000 
#    z 0.000590 0.000000 1.761650 
# 
# From -- ./inp_files/264497.got.cif
#   From: 2010.05.17/outbox.cif.g08.bks.cpg/sg15_133_cif.got.tgz:264497.got - 2010.06.03 18:47:42.
