data_PCOD9255177
_publ_section_title
;
Structure prediction by ZEFSAII (Michael W. Deem and Ramdas Pophale) SiO2 
 PCOD9255177
Probable space group: C 2/C
;
_chemical_formula_sum "Si O2"
_cell_formula_units_Z 44
_cell_length_a 10.802647
_cell_length_b 8.629903
_cell_length_c 23.921143
_cell_angle_alpha 90.000000
_cell_angle_beta 49.901538
_cell_angle_gamma 90.000000
_cell_volume 1705.864984
_symmetry_space_group_name_H-M "C 2/C"
_symmetry_group_IT_number 15
_symmetry_cell_setting 'monoclinic'
loop_
_space_group_symop_operation_xyz
x,y,z
-x,y,1/2-z
-x,-y,-z
x,-y,1/2+z
1/2+x,1/2+y,z
1/2-x,1/2+y,1/2-z
1/2-x,1/2-y,-z
1/2+x,1/2-y,1/2+z
loop_
_atom_site_type_symbol
_atom_site_label
_atom_site_fract_x
_atom_site_fract_y
_atom_site_fract_z
Si Si1 0.500000 0.055828 0.750000
Si Si2 0.443592 0.726713 0.443738
Si Si3 0.629611 0.860552 0.478770
Si Si4 0.047792 0.453388 0.620039
Si Si5 0.704618 0.338163 0.707250
Si Si6 0.561765 0.492204 0.649399
O O1 0.590014 0.969738 0.673043
O O2 0.627878 0.172501 0.741286
O O3 0.250000 0.750000 0.500000
O O4 0.499977 0.876392 0.390971
O O5 0.480051 0.573398 0.398713
O O6 0.530434 0.723369 0.478377
O O7 0.500000 0.000000 0.500000
O O8 0.652358 0.883991 0.538536
O O9 0.804100 0.875843 0.397812
O O10 0.888933 0.347750 0.667670
O O11 0.672490 0.366720 0.651046
O O12 0.603100 0.476154 0.767181
#
# Coordination Sequence:
#
# PCOD9255177 Si02
#       6
#     4   8   8   8   8   8
#     4  10  22  34  56  78 116 152 188 234 292 330
#     4  11  16  26  48  83 120 141 187 242 279 333
#     4  10  18  26  49  81 116 146 189 238 276 336
#     4  11  19  32  51  82 116 150 192 238 283 336
#     4  10  19  30  49  78 117 149 191 233 279 340
#     4  10  17  29  46  79 118 148 186 235 281 333
#
# _framework density 25.793368000000001
#
# number of rings (size 3 to 8) (size 9 to 14) (size 15 to 20)
#    0.000    1.818   10.909    0.000    0.000    0.000 
#    0.000    0.000    0.000    6.545    0.000    2.545 
#    0.000    0.000    0.000    0.000    0.000    0.000 
#
# Total GULP energy -122659.227153 kJ/mol
# GULP energy per Si atom -5575.419416 kJ/mol
# Density = 2.573466 g / cm^3
# Si number density = 25.793368 Si / 1000 Ang^3
#
#
#
# Elastic Constant Matrix: (Units=GPa)
#
#
# Indices 1 2 3 4 5 6 
#
# 1 82.3238 24.1502 51.1029 0.0000 10.4397 0.0000
# 2 24.1502 43.5322 19.9401 0.0000 2.3796 0.0000
# 3 51.1029 19.9401 150.7318 0.0000 11.0928 0.0000
# 4 0.0000 0.0000 0.0000 32.3575 0.0000 0.2275
# 5 10.4397 2.3796 11.0928 0.0000 51.3620 0.0000
# 6 0.0000 0.0000 0.0000 0.2275 0.0000 36.0999
#
#
#
# Elastic Compliance Matrix: (Units=1/GPa)
#
#
# Indices 1 2 3 4 5 6 
#
# 1 0.017599 -0.007435 -0.004822 0.000000 -0.002191 0.000000
# 2 -0.007435 0.027604 -0.001167 0.000000 0.000484 0.000000
# 3 -0.004822 -0.001167 0.008482 0.000000 -0.000798 0.000000
# 4 0.000000 0.000000 0.000000 0.030906 0.000000 -0.000195
# 5 -0.002191 0.000484 -0.000798 0.000000 0.020065 0.000000
# 6 0.000000 0.000000 0.000000 -0.000195 0.000000 0.027702
#
#
# Mechanical properties :
#
#
# Convention : Reuss Voigt Hill
#
# Bulk Modulus (GPa) = 37.26000 51.88603 44.57302
# Shear Modulus (GPa) = 29.73499 36.05686 32.89592
#
# Velocity S-wave (km/s) = 3.39900 3.74292 3.57510
# Velocity P-wave (km/s) = 5.46637 6.23209 5.86175
#
# Compressibility (1/GPa) = 0.02683843
#
# Stress axis : x y z
#
# Youngs Moduli (GPa) = 56.82014 36.22650 117.89494
#
# Poissons Ratio (x) = 0.26935 0.56848
# Poissons Ratio (y) = 0.42246 0.13754
# Poissons Ratio (z) = 0.27398 0.04226
#
# Static dielectric constant tensor:
#      x y z
#    x 2.086340 0.000000 0.035430 
#    y 0.000000 2.174170 0.000000 
#    z 0.035430 0.000000 2.172420 
# 
# From -- ./inp_files/268367.got.cif
#   From: 2010.05.17/outbox.cif.g08.bks.cpg/sg15_135_cif.got.tgz:268367.got - 2010.06.03 18:47:42.
