data_PCOD9255990
_publ_section_title
;
Structure prediction by ZEFSAII (Michael W. Deem and Ramdas Pophale) SiO2 
 PCOD9255990
Probable space group: C 2/C
;
_chemical_formula_sum "Si O2"
_cell_formula_units_Z 60
_cell_length_a 10.738366
_cell_length_b 23.191985
_cell_length_c 13.788626
_cell_angle_alpha 90.000000
_cell_angle_beta 45.140363
_cell_angle_gamma 90.000000
_cell_volume 2434.128205
_symmetry_space_group_name_H-M "C 2/C"
_symmetry_group_IT_number 15
_symmetry_cell_setting 'monoclinic'
loop_
_space_group_symop_operation_xyz
x,y,z
-x,y,1/2-z
-x,-y,-z
x,-y,1/2+z
1/2+x,1/2+y,z
1/2-x,1/2+y,1/2-z
1/2-x,1/2-y,-z
1/2+x,1/2-y,1/2+z
loop_
_atom_site_type_symbol
_atom_site_label
_atom_site_fract_x
_atom_site_fract_y
_atom_site_fract_z
Si Si1 0.214523 0.248319 0.862622
Si Si2 0.134758 0.564600 0.816209
Si Si3 0.369216 0.839742 0.432968
Si Si4 0.014529 0.962915 0.125595
Si Si5 0.585054 0.949703 0.574900
Si Si6 0.500000 0.151205 0.250000
Si Si7 0.026545 0.095562 0.120841
Si Si8 0.859396 0.198449 0.096346
O O1 0.318010 0.208430 0.882063
O O2 0.325281 0.258848 0.705610
O O3 0.171922 0.307835 0.942582
O O4 0.024789 0.220605 0.945036
O O5 0.341599 0.566749 0.677542
O O6 0.049296 0.625199 0.833473
O O7 0.028601 0.507199 0.840333
O O8 0.111984 0.557195 0.945085
O O9 0.230176 0.891035 0.495239
O O10 0.000000 0.954077 0.250000
O O11 0.982354 0.030153 0.124037
O O12 0.216958 0.949965 0.989186
O O13 0.488899 0.892880 0.666391
O O14 0.675629 0.188474 0.144961
O O15 0.919041 0.139527 0.114981
O O16 0.000000 0.105731 0.250000
#
# Coordination Sequence:
#
# PCOD9255990 Si02
#       8
#     8   8   8   8   8   4   8   8
#     4  10  23  41  68  98 128 166 239 291 345 397
#     4  10  19  37  65  98 136 174 216 278 340 388
#     4  10  19  34  65  99 131 170 215 291 344 398
#     4   9  18  32  60  97 133 170 217 264 316 409
#     4  10  21  38  62  99 134 176 230 263 319 428
#     4  12  26  44  70  88 136 188 224 258 344 426
#     4  10  17  33  66  96 126 172 220 268 336 397
#     4  11  24  44  66  95 131 176 225 290 341 416
#
# _framework density 24.649481999999999
#
# number of rings (size 3 to 8) (size 9 to 14) (size 15 to 20)
#    0.000    1.867    2.667    1.600    1.867    0.533 
#    2.400    4.000    1.467    0.000    0.000    0.000 
#    0.000    0.000    0.000    0.000    0.000    0.000 
#
# Total GULP energy -168016.426127 kJ/mol
# GULP energy per Si atom -5600.547538 kJ/mol
# Density = 2.459338 g / cm^3
# Si number density = 24.649482 Si / 1000 Ang^3
#
#
#
# Elastic Constant Matrix: (Units=GPa)
#
#
# Indices 1 2 3 4 5 6 
#
# 1 82.4578 39.5286 34.1684 0.0000 -26.2419 0.0000
# 2 39.5286 70.2960 11.2014 0.0000 -29.4484 0.0000
# 3 34.1684 11.2014 94.7738 0.0000 -30.9940 0.0000
# 4 0.0000 0.0000 0.0000 37.4262 0.0000 -5.0979
# 5 -26.2419 -29.4484 -30.9940 0.0000 53.5279 0.0000
# 6 0.0000 0.0000 0.0000 -5.0979 0.0000 18.9127
#
#
#
# Elastic Compliance Matrix: (Units=1/GPa)
#
#
# Indices 1 2 3 4 5 6 
#
# 1 0.019312 -0.009552 -0.005497 0.000000 0.001030 0.000000
# 2 -0.009552 0.023364 0.004138 0.000000 0.010567 0.000000
# 3 -0.005497 0.004138 0.014689 0.000000 0.008087 0.000000
# 4 0.000000 0.000000 0.000000 0.027738 0.000000 0.007477
# 5 0.001030 0.010567 0.008087 0.000000 0.029683 0.000000
# 6 0.000000 0.000000 0.000000 0.007477 0.000000 0.054890
#
#
# Mechanical properties :
#
#
# Convention : Reuss Voigt Hill
#
# Bulk Modulus (GPa) = 28.13461 46.36939 37.25200
# Shear Modulus (GPa) = 24.58882 32.81531 28.70206
#
# Velocity S-wave (km/s) = 3.16181 3.65263 3.41604
# Velocity P-wave (km/s) = 4.97675 6.05320 5.54118
#
# Compressibility (1/GPa) = 0.03554341
#
# Stress axis : x y z
#
# Youngs Moduli (GPa) = 51.78145 42.80045 68.07923
#
# Poissons Ratio (x) = 0.40884 0.37421
# Poissons Ratio (y) = 0.49462 -0.28172
# Poissons Ratio (z) = 0.28463 -0.17711
#
# Static dielectric constant tensor:
#      x y z
#    x 1.968910 0.000000 0.015770 
#    y 0.000000 1.909680 0.000000 
#    z 0.015770 0.000000 1.985090 
# 
# From -- ./inp_files/200523.got.cif
#   From: 2010.05.17/outbox.cif.g08.bks.cpg/sg15_101_cif.got.tgz:200523.got - 2010.06.03 18:47:42.
