data_PCOD9255629
_publ_section_title
;
Structure prediction by ZEFSAII (Michael W. Deem and Ramdas Pophale) SiO2 
 PCOD9255629
Probable space group: C 2/C
;
_chemical_formula_sum "Si O2"
_cell_formula_units_Z 56
_cell_length_a 19.906849
_cell_length_b 23.534261
_cell_length_c 23.202915
_cell_angle_alpha 90.000000
_cell_angle_beta 17.995701
_cell_angle_gamma 90.000000
_cell_volume 3358.363484
_symmetry_space_group_name_H-M "C 2/C"
_symmetry_group_IT_number 15
_symmetry_cell_setting 'monoclinic'
loop_
_space_group_symop_operation_xyz
x,y,z
-x,y,1/2-z
-x,-y,-z
x,-y,1/2+z
1/2+x,1/2+y,z
1/2-x,1/2+y,1/2-z
1/2-x,1/2-y,-z
1/2+x,1/2-y,1/2+z
loop_
_atom_site_type_symbol
_atom_site_label
_atom_site_fract_x
_atom_site_fract_y
_atom_site_fract_z
Si Si1 0.983837 0.440515 0.047466
Si Si2 0.623664 0.881692 0.824633
Si Si3 0.842002 0.176410 0.960745
Si Si4 0.817892 0.710034 0.530477
Si Si5 0.851894 0.957185 0.455826
Si Si6 0.014703 0.946409 0.029675
Si Si7 0.329333 0.983341 0.013406
O O1 0.728797 0.426131 0.257075
O O2 0.078398 0.459348 0.032298
O O3 0.000000 0.500000 0.000000
O O4 0.110477 0.396341 0.903456
O O5 0.853921 0.896108 0.608391
O O6 0.471982 0.929403 0.917040
O O7 0.518484 0.821113 0.896493
O O8 0.691236 0.194153 0.029892
O O9 0.807459 0.110181 0.996632
O O10 0.094023 0.185062 0.737859
O O11 0.807974 0.221667 0.039354
O O12 0.866034 0.971944 0.511235
O O13 0.692589 0.983405 0.537923
O O14 0.091212 0.970251 0.234479
O O15 0.000000 0.000000 0.000000
#
# Coordination Sequence:
#
# PCOD9255629 Si02
#       7
#     8   8   8   8   8   8   8
#     4  10  18  34  48  65  91 121 153 213 246 287
#     4  11  19  33  49  63  90 123 162 205 245 281
#     4  10  19  31  45  60  94 124 163 205 243 273
#     4  10  19  32  43  64  88 126 163 206 242 274
#     4  11  19  31  49  68  93 132 163 202 234 288
#     4  12  21  30  49  71  89 121 172 194 244 299
#     4  10  17  32  49  64  91 124 163 199 245 277
#
# _framework density 16.674787999999999
#
# number of rings (size 3 to 8) (size 9 to 14) (size 15 to 20)
#    0.000    1.429    8.571    0.857    2.000    0.571 
#    0.000    0.000    0.000    0.000    0.000    0.000 
#    0.000    0.000    0.000    1.286   14.000   18.714 
#
# Total GULP energy -156115.120637 kJ/mol
# GULP energy per Si atom -5575.540023 kJ/mol
# Density = 1.663684 g / cm^3
# Si number density = 16.674788 Si / 1000 Ang^3
#
#
#
# Elastic Constant Matrix: (Units=GPa)
#
#
# Indices 1 2 3 4 5 6 
#
# 1 122.6520 41.2754 16.9701 -0.0009 5.8057 -0.0529
# 2 41.2754 44.2600 14.7139 -0.1238 -0.9225 0.0036
# 3 16.9701 14.7139 74.8390 -0.1436 -1.5928 -0.0045
# 4 -0.0009 -0.1238 -0.1436 17.0718 -0.0355 -7.2447
# 5 5.8057 -0.9225 -1.5928 -0.0355 19.3538 0.0726
# 6 -0.0529 0.0036 -0.0045 -7.2447 0.0726 21.4179
#
#
#
# Elastic Compliance Matrix: (Units=1/GPa)
#
#
# Indices 1 2 3 4 5 6 
#
# 1 0.012245 -0.011293 -0.000647 -0.000089 -0.004265 0.000017
# 2 -0.011293 0.034601 -0.004142 0.000238 0.004696 0.000030
# 3 -0.000647 -0.004142 0.014348 0.000108 0.001178 0.000035
# 4 -0.000089 0.000238 0.000108 0.068397 0.000085 0.023135
# 5 -0.004265 0.004696 0.001178 0.000085 0.053270 -0.000163
# 6 0.000017 0.000030 0.000035 0.023135 -0.000163 0.054516
#
#
# Mechanical properties :
#
#
# Convention : Reuss Voigt Hill
#
# Bulk Modulus (GPa) = 34.44704 43.07443 38.76074
# Shear Modulus (GPa) = 17.90713 22.82147 20.36430
#
# Velocity S-wave (km/s) = 3.28060 3.70350 3.49845
# Velocity P-wave (km/s) = 5.92054 6.64651 6.29400
#
# Compressibility (1/GPa) = 0.02903007
#
# Stress axis : x y z
#
# Youngs Moduli (GPa) = 81.66562 28.90097 69.69458
#
# Poissons Ratio (x) = 0.32639 0.04511
# Poissons Ratio (y) = 0.92227 0.28865
# Poissons Ratio (z) = 0.05285 0.11970
#
# Static dielectric constant tensor:
#      x y z
#    x 1.619320 0.000000 0.019500 
#    y 0.000000 1.565100 0.000070 
#    z 0.019500 0.000070 1.655070 
# 
# From -- ./inp_files/250205.got.cif
#   From: 2010.05.17/outbox.cif.g08.bks.cpg/sg15_126_cif.got.tgz:250205.got - 2010.06.03 18:47:42.
