data_PCOD9255976
_publ_section_title
;
Structure prediction by ZEFSAII (Michael W. Deem and Ramdas Pophale) SiO2 
 PCOD9255976
Probable space group: C 2/C
;
_chemical_formula_sum "Si O2"
_cell_formula_units_Z 56
_cell_length_a 19.309527
_cell_length_b 12.390941
_cell_length_c 13.914417
_cell_angle_alpha 90.000000
_cell_angle_beta 55.394703
_cell_angle_gamma 90.000000
_cell_volume 2740.217458
_symmetry_space_group_name_H-M "C 2/C"
_symmetry_group_IT_number 15
_symmetry_cell_setting 'monoclinic'
loop_
_space_group_symop_operation_xyz
x,y,z
-x,y,1/2-z
-x,-y,-z
x,-y,1/2+z
1/2+x,1/2+y,z
1/2-x,1/2+y,1/2-z
1/2-x,1/2-y,-z
1/2+x,1/2-y,1/2+z
loop_
_atom_site_type_symbol
_atom_site_label
_atom_site_fract_x
_atom_site_fract_y
_atom_site_fract_z
Si Si1 0.752174 0.572072 0.489072
Si Si2 0.032625 0.673173 0.917022
Si Si3 0.000000 0.223077 0.250000
Si Si4 0.334915 0.243922 0.321379
Si Si5 0.957102 0.863455 0.093696
Si Si6 0.587897 0.011417 0.020758
Si Si7 0.000000 0.636459 0.250000
Si Si8 0.920991 0.030724 0.429206
O O1 0.723015 0.666359 0.584769
O O2 0.783504 0.632466 0.367253
O O3 0.829281 0.511260 0.479171
O O4 0.668973 0.506412 0.535023
O O5 0.047353 0.706668 0.794401
O O6 0.945161 0.605373 0.983428
O O7 0.094706 0.591745 0.924159
O O8 0.020551 0.780002 0.991234
O O9 0.056119 0.140008 0.144560
O O10 0.379675 0.294177 0.194596
O O11 0.417859 0.210892 0.316982
O O12 0.920340 0.942230 0.042311
O O13 0.007371 0.936856 0.131132
O O14 0.512789 0.062003 0.146618
#
# Coordination Sequence:
#
# PCOD9255976 Si02
#       8
#     8   8   4   8   8   8   4   8
#     4  10  22  36  57  89 124 153 198 259 314 351
#     4  10  21  39  63  87 120 158 211 246 298 373
#     4  10  21  41  68  88 114 164 207 257 302 366
#     4  10  19  33  56  85 115 157 199 246 304 352
#     4  10  20  38  62  89 117 164 210 248 293 374
#     4  10  21  38  60  91 121 160 206 250 302 373
#     4  10  17  33  62  82 114 162 207 249 286 364
#     4  10  21  38  64  89 124 157 208 255 305 366
#
# _framework density 20.436333999999999
#
# number of rings (size 3 to 8) (size 9 to 14) (size 15 to 20)
#    0.000    2.000    1.429    2.143    4.000    0.000 
#    2.571    4.286    0.000    0.000    0.000    0.000 
#    0.000    0.000    0.000    0.000    0.000    0.000 
#
# Total GULP energy -156034.203354 kJ/mol
# GULP energy per Si atom -5572.650120 kJ/mol
# Density = 2.038982 g / cm^3
# Si number density = 20.436334 Si / 1000 Ang^3
#
#
#
# Elastic Constant Matrix: (Units=GPa)
#
#
# Indices 1 2 3 4 5 6 
#
# 1 95.1155 28.4073 13.8460 0.0000 4.5101 0.0000
# 2 28.4073 58.8720 -0.5135 0.0000 12.6846 0.0000
# 3 13.8460 -0.5135 57.6250 0.0000 16.0968 0.0000
# 4 0.0000 0.0000 0.0000 35.0294 0.0000 5.6346
# 5 4.5101 12.6846 16.0968 0.0000 28.8973 0.0000
# 6 0.0000 0.0000 0.0000 5.6346 0.0000 10.7261
#
#
#
# Elastic Compliance Matrix: (Units=1/GPa)
#
#
# Indices 1 2 3 4 5 6 
#
# 1 0.013068 -0.007068 -0.004145 0.000000 0.003372 0.000000
# 2 -0.007068 0.023008 0.005230 0.000000 -0.011910 0.000000
# 3 -0.004145 0.005230 0.022332 0.000000 -0.014088 0.000000
# 4 0.000000 0.000000 0.000000 0.031182 0.000000 -0.016381
# 5 0.003372 -0.011910 -0.014088 0.000000 0.047155 0.000000
# 6 0.000000 0.000000 0.000000 -0.016381 0.000000 0.101835
#
#
# Mechanical properties :
#
#
# Convention : Reuss Voigt Hill
#
# Bulk Modulus (GPa) = 21.53215 32.78799 27.16007
# Shear Modulus (GPa) = 18.79507 26.25541 22.52524
#
# Velocity S-wave (km/s) = 3.03593 3.58822 3.32356
# Velocity P-wave (km/s) = 4.77998 5.76592 5.29595
#
# Compressibility (1/GPa) = 0.04644218
#
# Stress axis : x y z
#
# Youngs Moduli (GPa) = 76.52248 43.46230 44.77976
#
# Poissons Ratio (x) = 0.30721 0.18561
# Poissons Ratio (y) = 0.54089 -0.23421
# Poissons Ratio (z) = 0.31717 -0.22732
#
# Static dielectric constant tensor:
#      x y z
#    x 1.706370 0.000000 0.033110 
#    y 0.000000 1.796980 0.000000 
#    z 0.033110 0.000000 1.783120 
# 
# From -- ./inp_files/161265.got.cif
#   From: 2010.05.17/outbox.cif.g08.bks.cpg/sg15_81_cif.got.tgz:161265.got - 2010.06.03 18:47:42.
