data_PCOD9255464
_publ_section_title
;
Structure prediction by ZEFSAII (Michael W. Deem and Ramdas Pophale) SiO2 
 PCOD9255464
Probable space group: C 2/C
;
_chemical_formula_sum "Si O2"
_cell_formula_units_Z 56
_cell_length_a 27.442464
_cell_length_b 16.942204
_cell_length_c 18.021098
_cell_angle_alpha 90.000000
_cell_angle_beta 159.983074
_cell_angle_gamma 90.000000
_cell_volume 2867.994233
_symmetry_space_group_name_H-M "C 2/C"
_symmetry_group_IT_number 15
_symmetry_cell_setting 'monoclinic'
loop_
_space_group_symop_operation_xyz
x,y,z
-x,y,1/2-z
-x,-y,-z
x,-y,1/2+z
1/2+x,1/2+y,z
1/2-x,1/2+y,1/2-z
1/2-x,1/2-y,-z
1/2+x,1/2-y,1/2+z
loop_
_atom_site_type_symbol
_atom_site_label
_atom_site_fract_x
_atom_site_fract_y
_atom_site_fract_z
Si Si1 0.902665 0.876332 0.438378
Si Si2 0.858393 0.450379 0.506368
Si Si3 0.636782 0.754400 0.499300
Si Si4 0.696612 0.135677 0.862365
Si Si5 0.858886 0.001928 0.508167
Si Si6 0.283446 0.392101 0.650376
Si Si7 0.419863 0.949149 0.948244
O O1 0.899873 0.794561 0.479700
O O2 0.900229 0.946102 0.497323
O O3 0.047395 0.888021 0.599913
O O4 0.760735 0.887500 0.187098
O O5 0.778839 0.519766 0.438287
O O6 0.908413 0.494469 0.503108
O O7 0.000000 0.421649 0.750000
O O8 0.754832 0.703204 0.624015
O O9 0.701880 0.841576 0.595975
O O10 0.500000 0.755687 0.250000
O O11 0.528286 0.121453 0.619000
O O12 0.780412 0.058073 0.952759
O O13 0.745100 0.146582 0.016098
O O14 0.000000 0.032881 0.750000
O O15 0.740257 0.063319 0.310493
O O16 0.500000 0.000000 0.000000
#
# Coordination Sequence:
#
# PCOD9255464 Si02
#       7
#     8   8   8   8   8   8   8
#     4  10  21  37  51  79 117 151 180 229 289 334
#     4  11  22  36  56  84 113 145 192 235 276 326
#     4  11  22  34  54  82 115 151 179 218 289 354
#     4  10  17  31  49  77 113 147 174 221 278 335
#     4   9  15  30  51  73 111 153 183 218 273 338
#     4  12  21  33  55  84 115 144 179 234 284 333
#     4   9  19  31  50  77 110 149 184 221 271 330
#
# _framework density 19.525841
#
# number of rings (size 3 to 8) (size 9 to 14) (size 15 to 20)
#    0.000    1.714    4.286    3.000    0.000    0.000 
#    0.000    0.000    0.000    0.857    0.000    6.000 
#    0.000    0.000    0.000    0.000    0.000    0.000 
#
# Total GULP energy -156353.558973 kJ/mol
# GULP energy per Si atom -5584.055678 kJ/mol
# Density = 1.948140 g / cm^3
# Si number density = 19.525841 Si / 1000 Ang^3
#
#
#
# Elastic Constant Matrix: (Units=GPa)
#
#
# Indices 1 2 3 4 5 6 
#
# 1 42.7841 -0.0262 20.4442 0.0000 9.7725 0.0000
# 2 -0.0262 38.6690 33.6727 0.0000 6.2128 0.0000
# 3 20.4442 33.6727 204.0741 0.0000 1.5024 0.0000
# 4 0.0000 0.0000 0.0000 17.8467 0.0000 4.5127
# 5 9.7725 6.2128 1.5024 0.0000 31.1834 0.0000
# 6 0.0000 0.0000 0.0000 4.5127 0.0000 14.9345
#
#
#
# Elastic Compliance Matrix: (Units=1/GPa)
#
#
# Indices 1 2 3 4 5 6 
#
# 1 0.027095 0.004441 -0.003379 0.000000 -0.009213 0.000000
# 2 0.004441 0.032006 -0.005671 0.000000 -0.007495 0.000000
# 3 -0.003379 -0.005671 0.006160 0.000000 0.001892 0.000000
# 4 0.000000 0.000000 0.000000 0.060668 0.000000 -0.018332
# 5 -0.009213 -0.007495 0.001892 0.000000 0.036358 0.000000
# 6 0.000000 0.000000 0.000000 -0.018332 0.000000 0.072498
#
#
# Mechanical properties :
#
#
# Convention : Reuss Voigt Hill
#
# Bulk Modulus (GPa) = 17.84318 43.74542 30.79430
# Shear Modulus (GPa) = 19.03423 28.22203 23.62813
#
# Velocity S-wave (km/s) = 3.12560 3.80592 3.48242
# Velocity P-wave (km/s) = 4.70998 6.46265 5.65464
#
# Compressibility (1/GPa) = 0.05604383
#
# Stress axis : x y z
#
# Youngs Moduli (GPa) = 36.90693 31.24433 162.32462
#
# Poissons Ratio (x) = -0.13877 0.54856
# Poissons Ratio (y) = -0.16392 0.92051
# Poissons Ratio (z) = 0.12472 0.17718
#
# Static dielectric constant tensor:
#      x y z
#    x 1.714500 0.000000 0.015380 
#    y 0.000000 1.699070 0.000000 
#    z 0.015380 0.000000 1.705220 
# 
# From -- ./inp_files/223100.got.cif
#   From: 2010.05.17/outbox.cif.g08.bks.cpg/sg15_112_cif.got.tgz:223100.got - 2010.06.03 18:47:42.
