data_PCOD9255314
_publ_section_title
;
Structure prediction by ZEFSAII (Michael W. Deem and Ramdas Pophale) SiO2 
 PCOD9255314
Probable space group: C 2/C
;
_chemical_formula_sum "Si O2"
_cell_formula_units_Z 60
_cell_length_a 26.700467
_cell_length_b 23.235967
_cell_length_c 8.368700
_cell_angle_alpha 90.000000
_cell_angle_beta 144.287838
_cell_angle_gamma 90.000000
_cell_volume 3030.661296
_symmetry_space_group_name_H-M "C 2/C"
_symmetry_group_IT_number 15
_symmetry_cell_setting 'monoclinic'
loop_
_space_group_symop_operation_xyz
x,y,z
-x,y,1/2-z
-x,-y,-z
x,-y,1/2+z
1/2+x,1/2+y,z
1/2-x,1/2+y,1/2-z
1/2-x,1/2-y,-z
1/2+x,1/2-y,1/2+z
loop_
_atom_site_type_symbol
_atom_site_label
_atom_site_fract_x
_atom_site_fract_y
_atom_site_fract_z
Si Si1 0.000000 0.843950 0.750000
Si Si2 0.319535 0.637803 0.433695
Si Si3 0.599759 0.465768 0.505259
Si Si4 0.071430 0.241855 0.696777
Si Si5 0.351243 0.421473 0.516398
Si Si6 0.622671 0.233543 0.769181
Si Si7 0.810994 0.696776 0.211374
Si Si8 0.754724 0.660722 0.590796
O O1 0.947784 0.801933 0.499457
O O2 0.928817 0.882283 0.652877
O O3 0.383316 0.583925 0.584730
O O4 0.369359 0.698909 0.546317
O O5 0.255756 0.645590 0.418600
O O6 0.263739 0.631890 0.128829
O O7 0.500000 0.481968 0.250000
O O8 0.620989 0.442008 0.734879
O O9 0.654703 0.521818 0.605543
O O10 0.118707 0.297879 0.746440
O O11 0.976824 0.254798 0.512598
O O12 0.265157 0.384343 0.321875
O O13 0.682346 0.290160 0.926096
O O14 0.641484 0.207907 0.995513
O O15 0.656974 0.193057 0.715136
O O16 0.750000 0.750000 0.000000
#
# Coordination Sequence:
#
# PCOD9255314 Si02
#       8
#     4   8   8   8   8   8   8   8
#     4  12  20  30  48  72 100 128 168 200 246 288
#     4   9  21  31  47  68 101 134 163 206 244 293
#     4  11  22  34  48  70  94 132 173 204 245 288
#     4  11  18  29  51  75  99 134 165 200 245 304
#     4  11  22  34  48  70  96 133 167 210 242 292
#     4  10  17  30  49  71  94 131 165 202 241 304
#     4   9  17  31  44  68  99 129 162 197 248 295
#     4   9  19  34  47  67 101 130 166 204 252 292
#
# _framework density 19.797658999999999
#
# number of rings (size 3 to 8) (size 9 to 14) (size 15 to 20)
#    0.000    1.867    3.333    1.200    3.733    0.000 
#    0.000    0.000    0.000    0.000    0.000    0.933 
#    0.000    0.000    0.000    0.000    0.000   10.533 
#
# Total GULP energy -167341.994110 kJ/mol
# GULP energy per Si atom -5578.066470 kJ/mol
# Density = 1.975260 g / cm^3
# Si number density = 19.797659 Si / 1000 Ang^3
#
#
#
# Elastic Constant Matrix: (Units=GPa)
#
#
# Indices 1 2 3 4 5 6 
#
# 1 134.0844 61.8947 30.2195 0.0000 23.7289 0.0000
# 2 61.8947 77.1979 6.6933 0.0000 17.8401 0.0000
# 3 30.2195 6.6933 39.5915 0.0000 5.0257 0.0000
# 4 0.0000 0.0000 0.0000 7.0579 0.0000 16.3257
# 5 23.7289 17.8401 5.0257 0.0000 41.8356 0.0000
# 6 0.0000 0.0000 0.0000 16.3257 0.0000 46.5393
#
#
#
# Elastic Compliance Matrix: (Units=1/GPa)
#
#
# Indices 1 2 3 4 5 6 
#
# 1 0.014873 -0.010463 -0.009219 0.000000 -0.002867 0.000000
# 2 -0.010463 0.021841 0.004796 0.000000 -0.003955 0.000000
# 3 -0.009219 0.004796 0.031561 0.000000 -0.000607 0.000000
# 4 0.000000 0.000000 0.000000 0.751343 0.000000 -0.263566
# 5 -0.002867 -0.003955 -0.000607 0.000000 0.027289 0.000000
# 6 0.000000 0.000000 0.000000 -0.263566 0.000000 0.113944
#
#
# Mechanical properties :
#
#
# Convention : Reuss Voigt Hill
#
# Bulk Modulus (GPa) = 25.97276 49.83209 37.90243
# Shear Modulus (GPa) = 4.98277 29.22432 17.10355
#
# Velocity S-wave (km/s) = 1.58818 3.84624 2.94244
# Velocity P-wave (km/s) = 4.06333 6.70448 5.54350
#
# Compressibility (1/GPa) = 0.03850187
#
# Stress axis : x y z
#
# Youngs Moduli (GPa) = 67.23657 45.78624 31.68435
#
# Poissons Ratio (x) = 0.47905 0.29211
# Poissons Ratio (y) = 0.70348 -0.15195
# Poissons Ratio (z) = 0.61989 -0.21958
#
# Static dielectric constant tensor:
#      x y z
#    x 1.779490 0.000000 -0.033830 
#    y 0.000000 1.725490 0.000000 
#    z -0.033830 0.000000 1.754880 
# 
# From -- ./inp_files/63941.got.cif
#   From: 2010.05.17/outbox.cif.g08.bks.cpg/sg15_32_cif.got.tgz:63941.got - 2010.06.03 18:47:42.
