data_PCOD9255611
_publ_section_title
;
Structure prediction by ZEFSAII (Michael W. Deem and Ramdas Pophale) SiO2 
 PCOD9255611
Probable space group: C 2/C
;
_chemical_formula_sum "Si O2"
_cell_formula_units_Z 36
_cell_length_a 22.708215
_cell_length_b 12.097401
_cell_length_c 14.984450
_cell_angle_alpha 90.000000
_cell_angle_beta 20.345944
_cell_angle_gamma 90.000000
_cell_volume 1431.215708
_symmetry_space_group_name_H-M "C 2/C"
_symmetry_group_IT_number 15
_symmetry_cell_setting 'monoclinic'
loop_
_space_group_symop_operation_xyz
x,y,z
-x,y,1/2-z
-x,-y,-z
x,-y,1/2+z
1/2+x,1/2+y,z
1/2-x,1/2+y,1/2-z
1/2-x,1/2-y,-z
1/2+x,1/2-y,1/2+z
loop_
_atom_site_type_symbol
_atom_site_label
_atom_site_fract_x
_atom_site_fract_y
_atom_site_fract_z
Si Si1 0.341990 0.912629 0.417536
Si Si2 0.718049 0.636597 0.743388
Si Si3 0.000000 0.247509 0.750000
Si Si4 0.880449 0.281431 0.193572
Si Si5 0.505213 0.471310 0.343935
O O1 0.500000 0.952905 0.250000
O O2 0.274346 0.798681 0.557410
O O3 0.396860 0.881637 0.239853
O O4 0.180363 0.991017 0.637948
O O5 0.838361 0.675747 0.492031
O O6 0.830410 0.671953 0.669223
O O7 0.548726 0.708974 0.968750
O O8 0.644476 0.517584 0.880970
O O9 0.002081 0.158627 0.828366
O O10 0.500000 0.522032 0.250000
#
# Coordination Sequence:
#
# PCOD9255611 Si02
#       5
#     8   8   4   8   8
#     4  10  17  31  63 101 134 175 231 284 347 411
#     4  11  21  40  69  97 142 186 229 286 355 407
#     4  10  24  44  72  96 146 188 220 298 350 404
#     4  10  19  31  62 103 131 181 229 279 345 413
#     4   9  20  41  68  99 135 181 232 283 348 417
#
# _framework density 25.153441000000001
#
# number of rings (size 3 to 8) (size 9 to 14) (size 15 to 20)
#    0.667    1.333    4.444    0.000    0.000    0.889 
#    0.000    8.889    7.333    0.000    0.000    0.000 
#    0.000    0.000    0.000    0.000    0.000    0.000 
#
# Total GULP energy -100668.887267 kJ/mol
# GULP energy per Si atom -5592.715959 kJ/mol
# Density = 2.509619 g / cm^3
# Si number density = 25.153441 Si / 1000 Ang^3
#
#
#
# Elastic Constant Matrix: (Units=GPa)
#
#
# Indices 1 2 3 4 5 6 
#
# 1 124.5631 66.1808 33.3899 0.0000 -27.5068 0.0000
# 2 66.1808 121.6897 68.2123 -0.0001 3.8747 0.0001
# 3 33.3899 68.2123 142.0287 -0.0001 -9.1816 0.0001
# 4 0.0000 -0.0001 -0.0001 27.1701 0.0001 -2.5961
# 5 -27.5068 3.8747 -9.1816 0.0001 38.6068 0.0000
# 6 0.0000 0.0001 0.0001 -2.5961 0.0000 34.3396
#
#
#
# Elastic Compliance Matrix: (Units=1/GPa)
#
#
# Indices 1 2 3 4 5 6 
#
# 1 0.015567 -0.009946 0.001929 0.000000 0.012548 0.000000
# 2 -0.009946 0.017833 -0.006907 0.000000 -0.010519 0.000000
# 3 0.001929 -0.006907 0.010195 0.000000 0.004492 0.000000
# 4 0.000000 0.000000 0.000000 0.037073 0.000000 0.002803
# 5 0.012548 -0.010519 0.004492 0.000000 0.036966 0.000000
# 6 0.000000 0.000000 0.000000 0.002803 0.000000 0.029333
#
#
# Mechanical properties :
#
#
# Convention : Reuss Voigt Hill
#
# Bulk Modulus (GPa) = 72.74868 80.42749 76.58808
# Shear Modulus (GPa) = 27.56378 34.72322 31.14350
#
# Velocity S-wave (km/s) = 3.31392 3.71948 3.52254
# Velocity P-wave (km/s) = 6.60511 7.10565 6.85994
#
# Compressibility (1/GPa) = 0.01374595
#
# Stress axis : x y z
#
# Youngs Moduli (GPa) = 64.24019 56.07483 98.08916
#
# Poissons Ratio (x) = 0.55775 -0.18917
# Poissons Ratio (y) = 0.63896 0.67745
# Poissons Ratio (z) = -0.12389 0.38728
#
# Static dielectric constant tensor:
#      x y z
#    x 1.982820 0.000000 0.081190 
#    y 0.000000 1.976080 0.000000 
#    z 0.081190 0.000000 1.946310 
# 
# From -- ./inp_files/173567.got.cif
#   From: 2010.05.17/outbox.cif.g08.bks.cpg/sg15_87_cif.got.tgz:173567.got - 2010.06.03 18:47:42.
