data_PCOD9255838
_publ_section_title
;
Structure prediction by ZEFSAII (Michael W. Deem and Ramdas Pophale) SiO2 
 PCOD9255838
Probable space group: C 2/C
;
_chemical_formula_sum "Si O2"
_cell_formula_units_Z 52
_cell_length_a 14.955373
_cell_length_b 24.338304
_cell_length_c 8.626854
_cell_angle_alpha 90.000000
_cell_angle_beta 97.972752
_cell_angle_gamma 90.000000
_cell_volume 3109.723394
_symmetry_space_group_name_H-M "C 2/C"
_symmetry_group_IT_number 15
_symmetry_cell_setting 'monoclinic'
loop_
_space_group_symop_operation_xyz
x,y,z
-x,y,1/2-z
-x,-y,-z
x,-y,1/2+z
1/2+x,1/2+y,z
1/2-x,1/2+y,1/2-z
1/2-x,1/2-y,-z
1/2+x,1/2-y,1/2+z
loop_
_atom_site_type_symbol
_atom_site_label
_atom_site_fract_x
_atom_site_fract_y
_atom_site_fract_z
Si Si1 0.137316 0.705865 0.608010
Si Si2 0.000000 0.001226 0.750000
Si Si3 0.396583 0.664968 0.891745
Si Si4 0.059180 0.919557 0.500038
Si Si5 0.821298 0.174787 0.519976
Si Si6 0.712197 0.811060 0.465921
Si Si7 0.956999 0.710267 0.410207
O O1 0.150595 0.770388 0.566069
O O2 0.214705 0.677129 0.523300
O O3 0.160534 0.692313 0.789854
O O4 0.036093 0.690527 0.541702
O O5 0.930242 0.042032 0.648208
O O6 0.957217 0.961569 0.866007
O O7 0.368267 0.671847 0.703094
O O8 0.303640 0.654252 0.963468
O O9 0.436781 0.725231 0.939881
O O10 0.471555 0.619337 0.946840
O O11 0.141267 0.879037 0.552494
O O12 0.750000 0.750000 0.500000
O O13 0.637719 0.820452 0.580893
O O14 0.000000 0.706441 0.250000
#
# Coordination Sequence:
#
# PCOD9255838 Si02
#       7
#     8   4   8   8   8   8   8
#     4  10  19  30  48  72  96 137 178 195 242 315
#     4  10  24  32  52  76  96 134 182 214 252 304
#     4  10  17  33  49  66  98 142 162 198 261 291
#     4  11  19  37  51  72 104 133 170 215 255 299
#     4  10  18  30  51  70  98 134 171 204 249 304
#     4   9  21  30  43  68  99 130 173 207 235 294
#     4  11  18  31  47  69 100 135 166 203 240 292
#
# _framework density 16.721744000000001
#
# number of rings (size 3 to 8) (size 9 to 14) (size 15 to 20)
#    0.000    1.846    4.615    0.462    2.154    2.462 
#    0.000    0.000    0.000    0.000    0.000    0.000 
#    0.000    7.385    0.000    0.000    0.000    0.000 
#
# Total GULP energy -144872.822543 kJ/mol
# GULP energy per Si atom -5572.031636 kJ/mol
# Density = 1.668368 g / cm^3
# Si number density = 16.721744 Si / 1000 Ang^3
#
#
#
# Elastic Constant Matrix: (Units=GPa)
#
#
# Indices 1 2 3 4 5 6 
#
# 1 107.3874 23.1726 26.5254 0.0000 -15.2165 0.0000
# 2 23.1726 63.0670 13.1620 0.0000 -6.3152 0.0000
# 3 26.5254 13.1620 42.2111 0.0000 -10.6037 0.0000
# 4 0.0000 0.0000 0.0000 16.9093 0.0000 -2.8758
# 5 -15.2165 -6.3152 -10.6037 0.0000 26.9286 0.0000
# 6 0.0000 0.0000 0.0000 -2.8758 0.0000 17.7429
#
#
#
# Elastic Compliance Matrix: (Units=1/GPa)
#
#
# Indices 1 2 3 4 5 6 
#
# 1 0.011844 -0.002798 -0.005608 0.000000 0.003828 0.000000
# 2 -0.002798 0.017729 -0.003465 0.000000 0.001212 0.000000
# 3 -0.005608 -0.003465 0.030291 0.000000 0.007946 0.000000
# 4 0.000000 0.000000 0.000000 0.060815 0.000000 0.009857
# 5 0.003828 0.001212 0.007946 0.000000 0.042711 0.000000
# 6 0.000000 0.000000 0.000000 0.009857 0.000000 0.057958
#
#
# Mechanical properties :
#
#
# Convention : Reuss Voigt Hill
#
# Bulk Modulus (GPa) = 27.68526 37.59837 32.64182
# Shear Modulus (GPa) = 19.44523 22.30321 20.87422
#
# Velocity S-wave (km/s) = 3.41379 3.65606 3.53700
# Velocity P-wave (km/s) = 5.66842 6.35263 6.02025
#
# Compressibility (1/GPa) = 0.03612030
#
# Stress axis : x y z
#
# Youngs Moduli (GPa) = 84.43427 56.40551 33.01260
#
# Poissons Ratio (x) = 0.15782 0.18515
# Poissons Ratio (y) = 0.23624 0.11440
# Poissons Ratio (z) = 0.47355 0.19547
#
# Static dielectric constant tensor:
#      x y z
#    x 1.606580 0.000000 -0.011460 
#    y 0.000000 1.535090 0.000000 
#    z -0.011460 0.000000 1.668550 
# 
# From -- ./inp_files/41746.got.cif
#   From: 2010.05.17/outbox.cif.g08.bks.cpg/sg15_21_cif.got.tgz:41746.got - 2010.06.03 18:47:42.
