data_PCOD9255598
_publ_section_title
;
Structure prediction by ZEFSAII (Michael W. Deem and Ramdas Pophale) SiO2 
 PCOD9255598
Probable space group: C 2/C
;
_chemical_formula_sum "Si O2"
_cell_formula_units_Z 64
_cell_length_a 23.255343
_cell_length_b 7.298840
_cell_length_c 15.132046
_cell_angle_alpha 90.000000
_cell_angle_beta 93.152277
_cell_angle_gamma 90.000000
_cell_volume 2564.582194
_symmetry_space_group_name_H-M "C 2/C"
_symmetry_group_IT_number 15
_symmetry_cell_setting 'monoclinic'
loop_
_space_group_symop_operation_xyz
x,y,z
-x,y,1/2-z
-x,-y,-z
x,-y,1/2+z
1/2+x,1/2+y,z
1/2-x,1/2+y,1/2-z
1/2-x,1/2-y,-z
1/2+x,1/2-y,1/2+z
loop_
_atom_site_type_symbol
_atom_site_label
_atom_site_fract_x
_atom_site_fract_y
_atom_site_fract_z
Si Si1 0.852081 0.783680 0.602012
Si Si2 0.737305 0.998547 0.140633
Si Si3 0.933480 0.373076 0.260199
Si Si4 0.428905 0.169611 0.961515
Si Si5 0.937809 0.811786 0.277565
Si Si6 0.185953 0.235126 0.762971
Si Si7 0.317724 0.109752 0.041166
Si Si8 0.448381 0.728866 0.981950
O O1 0.796938 0.905004 0.618088
O O2 0.888486 0.707815 0.687857
O O3 0.826741 0.607939 0.548900
O O4 0.901940 0.859807 0.542302
O O5 0.689894 0.137960 0.176067
O O6 0.756586 0.886673 0.229496
O O7 0.718837 0.881596 0.053333
O O8 0.915458 0.319551 0.357103
O O9 0.934826 0.594484 0.252527
O O10 0.000000 0.315635 0.250000
O O11 0.440115 0.952230 0.981637
O O12 0.376086 0.214046 0.019504
O O13 0.485475 0.286758 0.984616
O O14 0.874601 0.874346 0.241187
O O15 0.939320 0.833033 0.382122
O O16 0.000000 0.881129 0.250000
O O17 0.192873 0.333755 0.858515
#
# Coordination Sequence:
#
# PCOD9255598 Si02
#       8
#     8   8   8   8   8   8   8   8
#     4  11  21  38  62  94 127 171 219 271 329 381
#     4  12  28  44  67  93 134 178 222 268 321 395
#     4  10  17  31  59  96 129 164 212 271 317 379
#     4   9  17  29  57  93 126 153 208 268 317 369
#     4  10  20  36  65  96 126 166 215 269 329 380
#     4  12  25  46  66  97 132 175 219 270 326 389
#     4  11  23  41  67  93 127 170 225 274 321 382
#     4   9  17  30  55  96 126 157 206 266 325 374
#
# _framework density 24.95533
#
# number of rings (size 3 to 8) (size 9 to 14) (size 15 to 20)
#    0.000    1.500    2.500    4.500    5.250    1.000 
#    0.000    0.625    0.000    1.500    0.000    0.000 
#    0.000    0.000    0.000    0.000    0.000    0.000 
#
# Total GULP energy -178912.857245 kJ/mol
# GULP energy per Si atom -5591.026789 kJ/mol
# Density = 2.489853 g / cm^3
# Si number density = 24.955330 Si / 1000 Ang^3
#
#
#
# Elastic Constant Matrix: (Units=GPa)
#
#
# Indices 1 2 3 4 5 6 
#
# 1 113.3759 2.1001 48.4610 0.0000 -4.7648 0.0000
# 2 2.1001 44.2853 9.1907 0.0000 -0.8828 0.0000
# 3 48.4610 9.1907 109.0745 0.0000 -4.6710 0.0000
# 4 0.0000 0.0000 0.0000 12.6809 0.0000 -2.6492
# 5 -4.7648 -0.8828 -4.6710 0.0000 52.2372 0.0000
# 6 0.0000 0.0000 0.0000 -2.6492 0.0000 21.5040
#
#
#
# Elastic Compliance Matrix: (Units=1/GPa)
#
#
# Indices 1 2 3 4 5 6 
#
# 1 0.010915 0.000504 -0.004868 0.000000 0.000569 0.000000
# 2 0.000504 0.023008 -0.002152 0.000000 0.000242 0.000000
# 3 -0.004868 -0.002152 0.011536 0.000000 0.000551 0.000000
# 4 0.000000 0.000000 0.000000 0.080942 0.000000 0.009972
# 5 0.000569 0.000242 0.000551 0.000000 0.019249 0.000000
# 6 0.000000 0.000000 0.000000 0.009972 0.000000 0.047732
#
#
# Mechanical properties :
#
#
# Convention : Reuss Voigt Hill
#
# Bulk Modulus (GPa) = 30.83803 42.91547 36.87675
# Shear Modulus (GPa) = 23.01784 31.08336 27.05060
#
# Velocity S-wave (km/s) = 3.04034 3.53308 3.29593
# Velocity P-wave (km/s) = 4.97081 5.82046 5.41233
#
# Compressibility (1/GPa) = 0.03242750
#
# Stress axis : x y z
#
# Youngs Moduli (GPa) = 91.61329 43.46235 86.68747
#
# Poissons Ratio (x) = -0.02190 0.42197
# Poissons Ratio (y) = -0.04617 0.18657
# Poissons Ratio (z) = 0.44595 0.09354
#
# Static dielectric constant tensor:
#      x y z
#    x 2.015410 0.000000 0.012000 
#    y 0.000000 2.061920 0.000000 
#    z 0.012000 0.000000 1.894030 
# 
# From -- ./inp_files/172407.got.cif
#   From: 2010.05.17/outbox.cif.g08.bks.cpg/sg15_87_cif.got.tgz:172407.got - 2010.06.03 18:47:42.
