data_PCOD9255465
_publ_section_title
;
Structure prediction by ZEFSAII (Michael W. Deem and Ramdas Pophale) SiO2 
 PCOD9255465
Probable space group: C 2/C
;
_chemical_formula_sum "Si O2"
_cell_formula_units_Z 60
_cell_length_a 27.900417
_cell_length_b 9.042175
_cell_length_c 14.111383
_cell_angle_alpha 90.000000
_cell_angle_beta 50.421109
_cell_angle_gamma 90.000000
_cell_volume 2743.883105
_symmetry_space_group_name_H-M "C 2/C"
_symmetry_group_IT_number 15
_symmetry_cell_setting 'monoclinic'
loop_
_space_group_symop_operation_xyz
x,y,z
-x,y,1/2-z
-x,-y,-z
x,-y,1/2+z
1/2+x,1/2+y,z
1/2-x,1/2+y,1/2-z
1/2-x,1/2-y,-z
1/2+x,1/2-y,1/2+z
loop_
_atom_site_type_symbol
_atom_site_label
_atom_site_fract_x
_atom_site_fract_y
_atom_site_fract_z
Si Si1 0.427613 0.341795 0.619110
Si Si2 0.219417 0.938429 0.040354
Si Si3 0.706181 0.747962 0.895607
Si Si4 0.824368 0.273800 0.363554
Si Si5 0.444440 0.689716 0.633748
Si Si6 0.000000 0.890857 0.250000
Si Si7 0.374982 0.544553 0.996430
Si Si8 0.189364 0.689124 0.212513
O O1 0.392218 0.234442 0.734763
O O2 0.428013 0.513607 0.651992
O O3 0.498173 0.294569 0.510320
O O4 0.388912 0.355162 0.569770
O O5 0.167985 0.880146 0.029292
O O6 0.216765 0.844682 0.138925
O O7 0.195538 0.101692 0.091624
O O8 0.283880 0.917952 0.902577
O O9 0.773735 0.692370 0.845590
O O10 0.711080 0.838372 0.792339
O O11 0.679984 0.831480 0.022595
O O12 0.660880 0.607394 0.932880
O O13 0.471705 0.709759 0.703667
O O14 0.384590 0.789240 0.692578
O O15 0.056735 0.984205 0.134014
#
# Coordination Sequence:
#
# PCOD9255465 Si02
#       8
#     8   8   8   8   8   4   8   8
#     4  10  18  30  50  72 112 138 166 203 263 311
#     4  10  20  31  52  71 110 133 175 210 258 309
#     4  10  20  31  51  69 107 127 181 211 258 312
#     4  10  19  35  47  75 100 142 168 217 258 306
#     4  10  18  30  47  75 108 140 166 203 252 323
#     4  10  18  28  48  72 116 136 162 202 268 306
#     4  10  17  31  49  79 104 145 160 214 257 309
#     4  11  19  33  47  78 102 140 172 212 250 317
#
# _framework density 21.866820000000001
#
# number of rings (size 3 to 8) (size 9 to 14) (size 15 to 20)
#    0.000    1.867    4.000    1.600    0.000    1.067 
#    0.000    0.000    0.000    0.000    0.000    9.333 
#    0.000    0.000    0.000    0.000    0.000    0.000 
#
# Total GULP energy -167260.963864 kJ/mol
# GULP energy per Si atom -5575.365462 kJ/mol
# Density = 2.181705 g / cm^3
# Si number density = 21.866820 Si / 1000 Ang^3
#
#
#
# Elastic Constant Matrix: (Units=GPa)
#
#
# Indices 1 2 3 4 5 6 
#
# 1 99.6199 5.2910 47.2101 0.0000 2.0980 0.0000
# 2 5.2910 15.4031 3.9362 0.0000 3.8257 0.0000
# 3 47.2101 3.9362 144.6341 0.0000 -10.5855 0.0000
# 4 0.0000 0.0000 0.0000 21.9972 0.0000 -2.5147
# 5 2.0980 3.8257 -10.5855 0.0000 48.8999 0.0000
# 6 0.0000 0.0000 0.0000 -2.5147 0.0000 19.0705
#
#
#
# Elastic Compliance Matrix: (Units=1/GPa)
#
#
# Indices 1 2 3 4 5 6 
#
# 1 0.012087 -0.002856 -0.003952 0.000000 -0.001151 0.000000
# 2 -0.002856 0.067590 -0.001306 0.000000 -0.005448 0.000000
# 3 -0.003952 -0.001306 0.008392 0.000000 0.002088 0.000000
# 4 0.000000 0.000000 0.000000 0.046156 0.000000 0.006086
# 5 -0.001151 -0.005448 0.002088 0.000000 0.021378 0.000000
# 6 0.000000 0.000000 0.000000 0.006086 0.000000 0.053239
#
#
# Mechanical properties :
#
#
# Convention : Reuss Voigt Hill
#
# Bulk Modulus (GPa) = 13.91955 41.39240 27.65598
# Shear Modulus (GPa) = 20.07894 31.54151 25.81023
#
# Velocity S-wave (km/s) = 3.03353 3.80206 3.43933
# Velocity P-wave (km/s) = 4.31847 6.18423 5.33356
#
# Compressibility (1/GPa) = 0.07184139
#
# Stress axis : x y z
#
# Youngs Moduli (GPa) = 82.73469 14.79509 119.15719
#
# Poissons Ratio (x) = 0.04226 0.47088
# Poissons Ratio (y) = 0.23631 0.15560
# Poissons Ratio (z) = 0.32695 0.01932
#
# Static dielectric constant tensor:
#      x y z
#    x 1.854800 0.000000 0.013150 
#    y 0.000000 1.893460 0.000000 
#    z 0.013150 0.000000 1.895940 
# 
# From -- ./inp_files/181410.got.cif
#   From: 2010.05.17/outbox.cif.g08.bks.cpg/sg15_91_cif.got.tgz:181410.got - 2010.06.03 18:47:42.
