data_PCOD9255542
_publ_section_title
;
Structure prediction by ZEFSAII (Michael W. Deem and Ramdas Pophale) SiO2 
 PCOD9255542
Probable space group: C 2/C
;
_chemical_formula_sum "Si O2"
_cell_formula_units_Z 60
_cell_length_a 8.603218
_cell_length_b 19.633688
_cell_length_c 16.416866
_cell_angle_alpha 90.000000
_cell_angle_beta 86.452340
_cell_angle_gamma 90.000000
_cell_volume 2767.706394
_symmetry_space_group_name_H-M "C 2/C"
_symmetry_group_IT_number 15
_symmetry_cell_setting 'monoclinic'
loop_
_space_group_symop_operation_xyz
x,y,z
-x,y,1/2-z
-x,-y,-z
x,-y,1/2+z
1/2+x,1/2+y,z
1/2-x,1/2+y,1/2-z
1/2-x,1/2-y,-z
1/2+x,1/2-y,1/2+z
loop_
_atom_site_type_symbol
_atom_site_label
_atom_site_fract_x
_atom_site_fract_y
_atom_site_fract_z
Si Si1 0.787635 0.341411 0.213156
Si Si2 0.236039 0.205751 0.890766
Si Si3 0.441956 0.516175 0.411089
Si Si4 0.420252 0.226572 0.340885
Si Si5 0.692111 0.650761 0.058401
Si Si6 0.593966 0.047579 0.899970
Si Si7 0.500000 0.558035 0.750000
Si Si8 0.020758 0.592522 0.085030
O O1 0.811805 0.315187 0.303516
O O2 0.726571 0.276547 0.164092
O O3 0.905433 0.390439 0.162750
O O4 0.640936 0.391718 0.227960
O O5 0.331830 0.270432 0.921071
O O6 0.058012 0.232140 0.882958
O O7 0.223861 0.148436 0.960318
O O8 0.500000 0.500000 0.500000
O O9 0.435973 0.597908 0.409153
O O10 0.266667 0.485379 0.406804
O O11 0.530777 0.485908 0.330294
O O12 0.500000 0.214416 0.250000
O O13 0.378260 0.153540 0.381052
O O14 0.849089 0.625577 0.097148
O O15 0.485441 0.983619 0.877980
O O16 0.551855 0.077773 0.989387
#
# Coordination Sequence:
#
# PCOD9255542 Si02
#       8
#     8   8   8   8   8   8   4   8
#     4  10  17  31  54  82 101 140 178 232 274 313
#     4   9  16  31  53  77 101 137 179 219 268 326
#     4  10  20  33  54  80 107 141 177 222 277 330
#     4   9  17  30  55  78 103 135 178 226 268 326
#     4   9  18  31  55  74 102 146 175 212 267 329
#     4   9  20  34  53  75 108 142 175 228 268 323
#     4  10  18  32  52  78 110 134 174 228 278 316
#     4   9  18  37  49  73 109 140 179 213 269 330
#
# _framework density 21.678599999999999
#
# number of rings (size 3 to 8) (size 9 to 14) (size 15 to 20)
#    0.000    2.667    2.000    0.800    1.867    0.533 
#    0.000   11.333    8.800    0.000    0.000    0.000 
#    0.000    0.000    0.000    0.000    0.000    0.000 
#
# Total GULP energy -167269.659457 kJ/mol
# GULP energy per Si atom -5575.655315 kJ/mol
# Density = 2.162926 g / cm^3
# Si number density = 21.678600 Si / 1000 Ang^3
#
#
#
# Elastic Constant Matrix: (Units=GPa)
#
#
# Indices 1 2 3 4 5 6 
#
# 1 24.1307 20.4898 0.7853 0.0000 7.5529 0.0000
# 2 20.4898 162.0872 67.8822 0.0000 -2.1149 0.0000
# 3 0.7853 67.8822 80.4504 0.0000 9.8021 0.0000
# 4 0.0000 0.0000 0.0000 38.6347 0.0000 -3.1883
# 5 7.5529 -2.1149 9.8021 0.0000 21.5487 0.0000
# 6 0.0000 0.0000 0.0000 -3.1883 0.0000 3.2500
#
#
#
# Elastic Compliance Matrix: (Units=1/GPa)
#
#
# Indices 1 2 3 4 5 6 
#
# 1 0.063377 -0.015051 0.015846 0.000000 -0.030899 0.000000
# 2 -0.015051 0.013624 -0.012867 0.000000 0.012466 0.000000
# 3 0.015846 -0.012867 0.025369 0.000000 -0.018357 0.000000
# 4 0.000000 0.000000 0.000000 0.028163 0.000000 0.027628
# 5 -0.030899 0.012466 -0.018357 0.000000 0.066810 0.000000
# 6 0.000000 0.000000 0.000000 0.027628 0.000000 0.334794
#
#
# Mechanical properties :
#
#
# Convention : Reuss Voigt Hill
#
# Bulk Modulus (GPa) = 12.78371 49.44255 31.11313
# Shear Modulus (GPa) = 8.58580 24.52075 16.55328
#
# Velocity S-wave (km/s) = 1.99226 3.36684 2.76629
# Velocity P-wave (km/s) = 3.34692 6.16204 4.95846
#
# Compressibility (1/GPa) = 0.07822455
#
# Stress axis : x y z
#
# Youngs Moduli (GPa) = 15.77866 73.40210 39.41825
#
# Poissons Ratio (x) = 1.10478 -0.62461
# Poissons Ratio (y) = 0.23749 0.50720
# Poissons Ratio (z) = -0.25003 0.94448
#
# Static dielectric constant tensor:
#      x y z
#    x 1.845800 0.000000 0.014890 
#    y 0.000000 1.828400 0.000000 
#    z 0.014890 0.000000 1.824110 
# 
# From -- ./inp_files/146718.got.cif
#   From: 2010.05.17/outbox.cif.g08.bks.cpg/sg15_74_cif.got.tgz:146718.got - 2010.06.03 18:47:42.
