data_PCOD9255739
_publ_section_title
;
Structure prediction by ZEFSAII (Michael W. Deem and Ramdas Pophale) SiO2 
 PCOD9255739
Probable space group: C 2/C
;
_chemical_formula_sum "Si O2"
_cell_formula_units_Z 44
_cell_length_a 8.647199
_cell_length_b 14.533190
_cell_length_c 14.575667
_cell_angle_alpha 90.000000
_cell_angle_beta 109.634178
_cell_angle_gamma 90.000000
_cell_volume 1725.241500
_symmetry_space_group_name_H-M "C 2/C"
_symmetry_group_IT_number 15
_symmetry_cell_setting 'monoclinic'
loop_
_space_group_symop_operation_xyz
x,y,z
-x,y,1/2-z
-x,-y,-z
x,-y,1/2+z
1/2+x,1/2+y,z
1/2-x,1/2+y,1/2-z
1/2-x,1/2-y,-z
1/2+x,1/2-y,1/2+z
loop_
_atom_site_type_symbol
_atom_site_label
_atom_site_fract_x
_atom_site_fract_y
_atom_site_fract_z
Si Si1 0.862259 0.040255 0.538141
Si Si2 0.242491 0.255542 0.810692
Si Si3 0.447927 0.932050 0.641269
Si Si4 0.000000 0.906506 0.250000
Si Si5 0.016416 0.205045 0.484734
Si Si6 0.743916 0.656629 0.373099
O O1 0.689166 0.023326 0.451989
O O2 0.920004 0.031007 0.654897
O O3 0.900271 0.149437 0.530107
O O4 0.000000 0.000000 0.500000
O O5 0.129312 0.331952 0.841635
O O6 0.145343 0.166330 0.757080
O O7 0.395675 0.228674 0.904312
O O8 0.312962 0.312149 0.738288
O O9 0.500000 0.976655 0.750000
O O10 0.615209 0.918365 0.618245
O O11 0.152068 0.257711 0.567473
O O12 0.111106 0.144116 0.426400
#
# Coordination Sequence:
#
# PCOD9255739 Si02
#       6
#     8   8   8   4   8   8
#     4  11  24  42  60  86 125 171 214 249 291 380
#     4  10  17  32  58  92 115 149 196 252 311 364
#     4   9  18  37  63  88 116 156 204 249 308 366
#     4  12  20  38  66  86 122 164 220 252 316 372
#     4  10  20  32  57  88 124 147 189 255 311 360
#     4  10  17  32  55  91 120 143 186 257 321 351
#
# _framework density 25.503675999999999
#
# number of rings (size 3 to 8) (size 9 to 14) (size 15 to 20)
#    0.000    1.818    4.545    1.636    0.000    2.909 
#    9.818    0.909    8.000    0.000    0.000    0.000 
#    0.000    0.000    0.000    0.000    0.000    0.000 
#
# Total GULP energy -122799.056715 kJ/mol
# GULP energy per Si atom -5581.775305 kJ/mol
# Density = 2.544563 g / cm^3
# Si number density = 25.503676 Si / 1000 Ang^3
#
#
#
# Elastic Constant Matrix: (Units=GPa)
#
#
# Indices 1 2 3 4 5 6 
#
# 1 107.5385 9.6569 52.8624 0.0000 -8.5875 0.0000
# 2 9.6569 21.7741 31.9176 0.0000 -2.5029 0.0000
# 3 52.8624 31.9176 185.2149 0.0000 13.3972 0.0000
# 4 0.0000 0.0000 0.0000 34.9392 0.0000 -7.5546
# 5 -8.5875 -2.5029 13.3972 0.0000 41.9373 0.0000
# 6 0.0000 0.0000 0.0000 -7.5546 0.0000 24.6179
#
#
#
# Elastic Compliance Matrix: (Units=1/GPa)
#
#
# Indices 1 2 3 4 5 6 
#
# 1 0.011282 0.000654 -0.003585 0.000000 0.003495 0.000000
# 2 0.000654 0.063697 -0.011719 0.000000 0.007679 0.000000
# 3 -0.003585 -0.011719 0.008748 0.000000 -0.004228 0.000000
# 4 0.000000 0.000000 0.000000 0.030655 0.000000 0.009407
# 5 0.003495 0.007679 -0.004228 0.000000 0.026370 0.000000
# 6 0.000000 0.000000 0.000000 0.009407 0.000000 0.043508
#
#
# Mechanical properties :
#
#
# Convention : Reuss Voigt Hill
#
# Bulk Modulus (GPa) = 18.37365 55.93347 37.15356
# Shear Modulus (GPa) = 21.57946 34.97158 28.27552
#
# Velocity S-wave (km/s) = 2.91199 3.70704 3.33330
# Velocity P-wave (km/s) = 4.30421 6.34839 5.42348
#
# Compressibility (1/GPa) = 0.05442576
#
# Stress axis : x y z
#
# Youngs Moduli (GPa) = 88.63824 15.69936 114.31515
#
# Poissons Ratio (x) = -0.01026 0.40987
# Poissons Ratio (y) = -0.05796 1.33963
# Poissons Ratio (z) = 0.31780 0.18398
#
# Static dielectric constant tensor:
#      x y z
#    x 2.028540 0.000000 -0.013260 
#    y 0.000000 2.206330 0.000000 
#    z -0.013260 0.000000 2.003330 
# 
# From -- ./inp_files/134544.got.cif
#   From: 2010.05.17/outbox.cif.g08.bks.cpg/sg15_68_cif.got.tgz:134544.got - 2010.06.03 18:47:42.
