data_PCOD9255163
_publ_section_title
;
Structure prediction by ZEFSAII (Michael W. Deem and Ramdas Pophale) SiO2 
 PCOD9255163
Probable space group: C 2/C
;
_chemical_formula_sum "Si O2"
_cell_formula_units_Z 64
_cell_length_a 14.175869
_cell_length_b 19.636839
_cell_length_c 13.631790
_cell_angle_alpha 90.000000
_cell_angle_beta 57.756899
_cell_angle_gamma 90.000000
_cell_volume 3209.502851
_symmetry_space_group_name_H-M "C 2/C"
_symmetry_group_IT_number 15
_symmetry_cell_setting 'monoclinic'
loop_
_space_group_symop_operation_xyz
x,y,z
-x,y,1/2-z
-x,-y,-z
x,-y,1/2+z
1/2+x,1/2+y,z
1/2-x,1/2+y,1/2-z
1/2-x,1/2-y,-z
1/2+x,1/2-y,1/2+z
loop_
_atom_site_type_symbol
_atom_site_label
_atom_site_fract_x
_atom_site_fract_y
_atom_site_fract_z
Si Si1 0.557117 0.989873 0.111693
Si Si2 0.858826 0.205310 0.512906
Si Si3 0.710295 0.316294 0.663673
Si Si4 0.126789 0.310171 0.469357
Si Si5 0.492936 0.160555 0.869858
Si Si6 0.226405 0.596983 0.067082
Si Si7 0.587184 0.116518 0.339348
Si Si8 0.913145 0.838553 0.570964
O O1 0.500000 0.984570 0.250000
O O2 0.677311 0.025837 0.054218
O O3 0.473453 0.044132 0.107284
O O4 0.560605 0.912383 0.077017
O O5 0.758262 0.238237 0.631312
O O6 0.820712 0.170567 0.432492
O O7 0.576121 0.225670 0.555800
O O8 0.953546 0.161811 0.514337
O O9 0.807707 0.363142 0.653498
O O10 0.613591 0.328014 0.797898
O O11 0.217466 0.350081 0.482118
O O12 0.137245 0.229746 0.451327
O O13 0.105933 0.338604 0.371198
O O14 0.009769 0.328436 0.588542
O O15 0.500000 0.167544 0.750000
O O16 0.136078 0.616762 0.201890
O O17 0.344155 0.601228 0.057626
#
# Coordination Sequence:
#
# PCOD9255163 Si02
#       8
#     8   8   8   8   8   8   8   8
#     4   8  16  29  45  68  98 125 155 191 234 285
#     4  10  19  31  46  71  99 124 158 194 238 285
#     4  10  18  30  46  66  96 127 156 195 238 280
#     4  10  17  29  43  68  94 124 158 189 235 280
#     4  10  18  29  46  69  99 127 151 194 244 285
#     4   9  18  28  45  64  95 131 157 190 225 285
#     4   9  16  30  44  66  95 127 155 188 231 280
#     4  10  18  29  46  66  94 127 158 195 235 277
#
# _framework density 19.940781999999999
#
# number of rings (size 3 to 8) (size 9 to 14) (size 15 to 20)
#    0.000    2.500    2.500    3.375    0.000    2.000 
#    0.000    0.000    0.000    0.000    0.000    3.500 
#    0.000    4.000    0.000    0.000    0.000    0.000 
#
# Total GULP energy -178195.409271 kJ/mol
# GULP energy per Si atom -5568.606540 kJ/mol
# Density = 1.989540 g / cm^3
# Si number density = 19.940782 Si / 1000 Ang^3
#
#
#
# Elastic Constant Matrix: (Units=GPa)
#
#
# Indices 1 2 3 4 5 6 
#
# 1 107.5659 18.4956 3.6033 0.0000 16.1542 0.0000
# 2 18.4956 59.6218 -3.5891 0.0000 8.6286 0.0000
# 3 3.6033 -3.5891 48.0916 0.0000 17.5636 0.0000
# 4 0.0000 0.0000 0.0000 18.9728 0.0000 -2.4549
# 5 16.1542 8.6286 17.5636 0.0000 29.2659 0.0000
# 6 0.0000 0.0000 0.0000 -2.4549 0.0000 10.6006
#
#
#
# Elastic Compliance Matrix: (Units=1/GPa)
#
#
# Indices 1 2 3 4 5 6 
#
# 1 0.010537 -0.002357 0.001159 0.000000 -0.005817 0.000000
# 2 -0.002357 0.018699 0.003983 0.000000 -0.006603 0.000000
# 3 0.001159 0.003983 0.027748 0.000000 -0.018467 0.000000
# 4 0.000000 0.000000 0.000000 0.054335 0.000000 0.012583
# 5 -0.005817 -0.006603 -0.018467 0.000000 0.050410 0.000000
# 6 0.000000 0.000000 0.000000 0.012583 0.000000 0.097248
#
#
# Mechanical properties :
#
#
# Convention : Reuss Voigt Hill
#
# Bulk Modulus (GPa) = 15.98602 28.03320 22.00961
# Shear Modulus (GPa) = 18.23102 24.88583 21.55843
#
# Velocity S-wave (km/s) = 3.02695 3.53652 3.29161
# Velocity P-wave (km/s) = 4.50008 5.54659 5.05052
#
# Compressibility (1/GPa) = 0.06255467
#
# Stress axis : x y z
#
# Youngs Moduli (GPa) = 94.90712 53.47895 36.03801
#
# Poissons Ratio (x) = 0.12605 -0.04176
# Poissons Ratio (y) = 0.22370 -0.14356
# Poissons Ratio (z) = -0.10999 -0.21303
#
# Static dielectric constant tensor:
#      x y z
#    x 1.790460 0.000000 0.019840 
#    y 0.000000 1.706420 0.000000 
#    z 0.019840 0.000000 1.790990 
# 
# From -- ./inp_files/147867.got.cif
#   From: 2010.05.17/outbox.cif.g08.bks.cpg/sg15_74_cif.got.tgz:147867.got - 2010.06.03 18:47:42.
