data_PCOD9255725
_publ_section_title
;
Structure prediction by ZEFSAII (Michael W. Deem and Ramdas Pophale) SiO2 
 PCOD9255725
Probable space group: C 2/C
;
_chemical_formula_sum "Si O2"
_cell_formula_units_Z 56
_cell_length_a 25.147269
_cell_length_b 9.370048
_cell_length_c 15.182388
_cell_angle_alpha 90.000000
_cell_angle_beta 58.592520
_cell_angle_gamma 90.000000
_cell_volume 3053.286012
_symmetry_space_group_name_H-M "C 2/C"
_symmetry_group_IT_number 15
_symmetry_cell_setting 'monoclinic'
loop_
_space_group_symop_operation_xyz
x,y,z
-x,y,1/2-z
-x,-y,-z
x,-y,1/2+z
1/2+x,1/2+y,z
1/2-x,1/2+y,1/2-z
1/2-x,1/2-y,-z
1/2+x,1/2-y,1/2+z
loop_
_atom_site_type_symbol
_atom_site_label
_atom_site_fract_x
_atom_site_fract_y
_atom_site_fract_z
Si Si1 0.453841 0.672339 0.866890
Si Si2 0.679112 0.345930 0.987400
Si Si3 0.969353 0.844699 0.037351
Si Si4 0.446059 0.322767 0.865114
Si Si5 0.746593 0.435753 0.099980
Si Si6 0.191911 0.279885 0.985106
Si Si7 0.170394 0.924887 0.343632
O O1 0.500000 0.712825 0.750000
O O2 0.487883 0.722895 0.925811
O O3 0.445478 0.497619 0.868847
O O4 0.383974 0.726768 0.923844
O O5 0.727616 0.224565 0.920372
O O6 0.664061 0.439250 0.914069
O O7 0.705364 0.439168 0.046004
O O8 0.897889 0.870529 0.126337
O O9 0.967095 0.773906 0.944091
O O10 0.000000 0.000000 0.000000
O O11 0.500000 0.282461 0.750000
O O12 0.375345 0.265049 0.915712
O O13 0.800486 0.553227 0.043941
O O14 0.708909 0.458762 0.222866
O O15 0.197938 0.192615 0.887812
O O16 0.250000 0.250000 0.000000
#
# Coordination Sequence:
#
# PCOD9255725 Si02
#       7
#     8   8   8   8   8   8   8
#     4  10  17  32  55  81 103 142 185 230 278 321
#     4  11  21  39  54  84 116 143 192 230 280 337
#     4   9  16  29  51  82 106 126 178 237 266 321
#     4   9  18  32  53  80 109 140 179 235 277 318
#     4  11  24  36  56  80 118 154 178 236 283 330
#     4  11  20  38  59  84 112 147 196 232 274 339
#     4  11  20  38  58  85 111 146 187 233 284 331
#
# _framework density 18.340896000000001
#
# number of rings (size 3 to 8) (size 9 to 14) (size 15 to 20)
#    0.000    1.714    5.714    1.714    0.000    2.286 
#    2.571    0.714    0.000    3.429    0.000    0.000 
#    0.000    0.000    0.000    0.000    0.000    0.000 
#
# Total GULP energy -155956.406215 kJ/mol
# GULP energy per Si atom -5569.871651 kJ/mol
# Density = 1.829915 g / cm^3
# Si number density = 18.340896 Si / 1000 Ang^3
#
#
#
# Elastic Constant Matrix: (Units=GPa)
#
#
# Indices 1 2 3 4 5 6 
#
# 1 96.0532 8.0708 33.9084 0.0000 -15.2523 0.0000
# 2 8.0708 28.0669 12.5828 0.0000 -2.2717 0.0000
# 3 33.9084 12.5828 129.4296 0.0000 -21.1072 0.0000
# 4 0.0000 0.0000 0.0000 15.3486 0.0000 -1.3370
# 5 -15.2523 -2.2717 -21.1072 0.0000 17.7033 0.0000
# 6 0.0000 0.0000 0.0000 -1.3370 0.0000 16.7487
#
#
#
# Elastic Compliance Matrix: (Units=1/GPa)
#
#
# Indices 1 2 3 4 5 6 
#
# 1 0.012540 -0.002161 -0.001686 0.000000 0.008516 0.000000
# 2 -0.002161 0.037630 -0.003238 0.000000 -0.000893 0.000000
# 3 -0.001686 -0.003238 0.010152 0.000000 0.010236 0.000000
# 4 0.000000 0.000000 0.000000 0.065609 0.000000 0.005238
# 5 0.008516 -0.000893 0.010236 0.000000 0.075913 0.000000
# 6 0.000000 0.000000 0.000000 0.005238 0.000000 0.060124
#
#
# Mechanical properties :
#
#
# Convention : Reuss Voigt Hill
#
# Bulk Modulus (GPa) = 21.66761 40.29708 30.98234
# Shear Modulus (GPa) = 17.15139 23.22595 20.18867
#
# Velocity S-wave (km/s) = 3.06133 3.56244 3.32135
# Velocity P-wave (km/s) = 4.93306 6.24020 5.62473
#
# Compressibility (1/GPa) = 0.04615184
#
# Stress axis : x y z
#
# Youngs Moduli (GPa) = 79.74461 26.57468 98.50258
#
# Poissons Ratio (x) = 0.05742 0.16612
# Poissons Ratio (y) = 0.17230 0.31894
# Poissons Ratio (z) = 0.13449 0.08605
#
# Static dielectric constant tensor:
#      x y z
#    x 1.664750 0.000000 0.056940 
#    y 0.000000 1.621660 0.000000 
#    z 0.056940 0.000000 1.777330 
# 
# From -- ./inp_files/171973.got.cif
#   From: 2010.05.17/outbox.cif.g08.bks.cpg/sg15_86_cif.got.tgz:171973.got - 2010.06.03 18:47:42.
