data_PCOD9255249
_publ_section_title
;
Structure prediction by ZEFSAII (Michael W. Deem and Ramdas Pophale) SiO2 
 PCOD9255249
Probable space group: C 2/C
;
_chemical_formula_sum "Si O2"
_cell_formula_units_Z 64
_cell_length_a 21.241594
_cell_length_b 10.992406
_cell_length_c 16.711172
_cell_angle_alpha 90.000000
_cell_angle_beta 106.420470
_cell_angle_gamma 90.000000
_cell_volume 3742.845051
_symmetry_space_group_name_H-M "C 2/C"
_symmetry_group_IT_number 15
_symmetry_cell_setting 'monoclinic'
loop_
_space_group_symop_operation_xyz
x,y,z
-x,y,1/2-z
-x,-y,-z
x,-y,1/2+z
1/2+x,1/2+y,z
1/2-x,1/2+y,1/2-z
1/2-x,1/2-y,-z
1/2+x,1/2-y,1/2+z
loop_
_atom_site_type_symbol
_atom_site_label
_atom_site_fract_x
_atom_site_fract_y
_atom_site_fract_z
Si Si1 0.648551 0.708852 0.154228
Si Si2 0.695491 0.839915 0.017891
Si Si3 0.332390 0.954949 0.650421
Si Si4 0.681198 0.551824 0.612042
Si Si5 0.703379 0.779584 0.729608
Si Si6 0.076571 0.315190 0.279777
Si Si7 0.848754 0.212107 0.052007
Si Si8 0.721024 0.097696 0.076420
O O1 0.651820 0.780268 0.071224
O O2 0.643799 0.567162 0.129102
O O3 0.721048 0.730523 0.217149
O O4 0.598988 0.752327 0.204730
O O5 0.732539 0.956677 0.067313
O O6 0.750000 0.750000 0.000000
O O7 0.654195 0.897903 0.931216
O O8 0.334006 0.839675 0.710305
O O9 0.256979 0.008543 0.623206
O O10 0.379883 0.063180 0.693254
O O11 0.682039 0.653742 0.681550
O O12 0.651927 0.613901 0.520867
O O13 0.698614 0.878675 0.657688
O O14 0.093436 0.231935 0.363936
O O15 0.000000 0.342598 0.250000
O O16 0.786609 0.174300 0.083918
O O17 0.830927 0.339725 0.002392
#
# Coordination Sequence:
#
# PCOD9255249 Si02
#       8
#     8   8   8   8   8   8   8   8
#     4  11  22  34  53  91 122 144 195 235 291 345
#     4  12  20  30  54  90 124 143 169 240 317 348
#     4  11  20  36  54  89 119 147 195 236 300 351
#     4  10  19  35  57  90 119 141 179 255 313 340
#     4  10  19  30  58  85 117 143 179 245 301 345
#     4  12  24  41  60  79 115 166 205 230 264 349
#     4  10  17  34  56  79 107 150 192 229 285 344
#     4  10  17  29  53  81 115 144 178 236 296 339
#
# _framework density 17.099291999999998
#
# number of rings (size 3 to 8) (size 9 to 14) (size 15 to 20)
#    0.000    1.250    7.500    1.500    1.750    0.000 
#    2.250    1.250    0.000    0.750    0.000    0.000 
#    0.000    0.000    0.000    0.000    0.000    0.000 
#
# Total GULP energy -178400.284280 kJ/mol
# GULP energy per Si atom -5575.008884 kJ/mol
# Density = 1.706037 g / cm^3
# Si number density = 17.099292 Si / 1000 Ang^3
#
#
#
# Elastic Constant Matrix: (Units=GPa)
#
#
# Indices 1 2 3 4 5 6 
#
# 1 54.1580 26.2196 28.9160 0.0000 -3.3436 0.0000
# 2 26.2196 108.7384 47.6081 0.0000 -15.3903 0.0000
# 3 28.9160 47.6081 93.1815 0.0000 -18.6069 0.0000
# 4 0.0000 0.0000 0.0000 25.5511 0.0000 -10.4149
# 5 -3.3436 -15.3903 -18.6069 0.0000 16.1817 0.0000
# 6 0.0000 0.0000 0.0000 -10.4149 0.0000 9.3812
#
#
#
# Elastic Compliance Matrix: (Units=1/GPa)
#
#
# Indices 1 2 3 4 5 6 
#
# 1 0.023382 -0.003607 -0.006663 0.000000 -0.006261 0.000000
# 2 -0.003607 0.012806 -0.004076 0.000000 0.006747 0.000000
# 3 -0.006663 -0.004076 0.017956 0.000000 0.015393 0.000000
# 4 0.000000 0.000000 0.000000 0.071487 0.000000 0.079365
# 5 -0.006261 0.006747 0.015393 0.000000 0.084622 0.000000
# 6 0.000000 0.000000 0.000000 0.079365 0.000000 0.194707
#
#
# Mechanical properties :
#
#
# Convention : Reuss Voigt Hill
#
# Bulk Modulus (GPa) = 39.29121 51.28503 45.28812
# Shear Modulus (GPa) = 11.30875 20.44509 15.87692
#
# Velocity S-wave (km/s) = 2.57448 3.46160 3.05046
# Velocity P-wave (km/s) = 5.64494 6.78487 6.24099
#
# Compressibility (1/GPa) = 0.02545098
#
# Stress axis : x y z
#
# Youngs Moduli (GPa) = 42.76837 78.09081 55.69225
#
# Poissons Ratio (x) = 0.28165 0.37109
# Poissons Ratio (y) = 0.15426 0.22701
# Poissons Ratio (z) = 0.28498 0.31830
#
# Static dielectric constant tensor:
#      x y z
#    x 1.532600 0.000000 -0.014840 
#    y 0.000000 1.605480 0.000000 
#    z -0.014840 0.000000 1.650030 
# 
# From -- ./inp_files/167655.got.cif
#   From: 2010.05.17/outbox.cif.g08.bks.cpg/sg15_84_cif.got.tgz:167655.got - 2010.06.03 18:47:42.
