data_PCOD9255501
_publ_section_title
;
Structure prediction by ZEFSAII (Michael W. Deem and Ramdas Pophale) SiO2 
 PCOD9255501
Probable space group: C 2/C
;
_chemical_formula_sum "Si O2"
_cell_formula_units_Z 36
_cell_length_a 22.556533
_cell_length_b 6.908621
_cell_length_c 9.750099
_cell_angle_alpha 90.000000
_cell_angle_beta 116.568633
_cell_angle_gamma 90.000000
_cell_volume 1358.952133
_symmetry_space_group_name_H-M "C 2/C"
_symmetry_group_IT_number 15
_symmetry_cell_setting 'monoclinic'
loop_
_space_group_symop_operation_xyz
x,y,z
-x,y,1/2-z
-x,-y,-z
x,-y,1/2+z
1/2+x,1/2+y,z
1/2-x,1/2+y,1/2-z
1/2-x,1/2-y,-z
1/2+x,1/2-y,1/2+z
loop_
_atom_site_type_symbol
_atom_site_label
_atom_site_fract_x
_atom_site_fract_y
_atom_site_fract_z
Si Si1 0.570912 0.233078 0.870360
Si Si2 0.888135 0.284278 0.805624
Si Si3 0.820566 0.871784 0.735911
Si Si4 0.000000 0.900153 0.250000
Si Si5 0.299438 0.102777 0.974633
O O1 0.500000 0.145135 0.750000
O O2 0.626579 0.291893 0.818512
O O3 0.545493 0.451352 0.884205
O O4 0.599133 0.125589 0.032545
O O5 0.854299 0.409116 0.651246
O O6 0.956675 0.220024 0.809167
O O7 0.846035 0.089744 0.793159
O O8 0.819664 0.725853 0.862046
O O9 0.745112 0.914980 0.607416
O O10 0.250000 0.250000 0.000000
#
# Coordination Sequence:
#
# PCOD9255501 Si02
#       5
#     8   8   8   4   8
#     4   9  19  30  55  89 128 144 192 262 317 339
#     4  10  17  31  51  87 120 152 190 244 308 354
#     4  10  20  38  55  87 126 161 198 244 304 364
#     4   8  16  24  50  80 120 148 174 250 308 342
#     4  10  22  37  58  83 128 163 202 243 300 370
#
# _framework density 26.490998000000001
#
# number of rings (size 3 to 8) (size 9 to 14) (size 15 to 20)
#    0.667    1.778    0.000    4.667    3.111    0.000 
#    0.000   20.000    0.000    0.000    0.000   15.556 
#    0.000    0.222    0.000    0.000    0.000    0.000 
#
# Total GULP energy -100699.467253 kJ/mol
# GULP energy per Si atom -5594.414847 kJ/mol
# Density = 2.643070 g / cm^3
# Si number density = 26.490998 Si / 1000 Ang^3
#
#
#
# Elastic Constant Matrix: (Units=GPa)
#
#
# Indices 1 2 3 4 5 6 
#
# 1 146.0063 33.2080 87.2969 0.0000 6.7877 0.0000
# 2 33.2080 122.1278 64.1613 0.0000 13.0758 0.0000
# 3 87.2969 64.1613 247.1964 0.0000 11.1643 0.0000
# 4 0.0000 0.0000 0.0000 51.6652 0.0000 2.6342
# 5 6.7877 13.0758 11.1643 0.0000 28.8462 0.0000
# 6 0.0000 0.0000 0.0000 2.6342 0.0000 3.2857
#
#
#
# Elastic Compliance Matrix: (Units=1/GPa)
#
#
# Indices 1 2 3 4 5 6 
#
# 1 0.008772 -0.000821 -0.002858 0.000000 -0.000586 0.000000
# 2 -0.000821 0.009898 -0.002122 0.000000 -0.003472 0.000000
# 3 -0.002858 -0.002122 0.005630 0.000000 -0.000544 0.000000
# 4 0.000000 0.000000 0.000000 0.020180 0.000000 -0.016179
# 5 -0.000586 -0.003472 -0.000544 0.000000 0.036589 0.000000
# 6 0.000000 0.000000 0.000000 -0.016179 0.000000 0.317320
#
#
# Mechanical properties :
#
#
# Convention : Reuss Voigt Hill
#
# Bulk Modulus (GPa) = 78.75753 98.29587 88.52670
# Shear Modulus (GPa) = 12.07073 38.80370 25.43721
#
# Velocity S-wave (km/s) = 2.13692 3.83141 3.10211
# Velocity P-wave (km/s) = 5.99025 7.53385 6.80595
#
# Compressibility (1/GPa) = 0.01269720
#
# Stress axis : x y z
#
# Youngs Moduli (GPa) = 114.00044 101.02917 177.61254
#
# Poissons Ratio (x) = 0.08293 0.50766
# Poissons Ratio (y) = 0.09358 0.37697
# Poissons Ratio (z) = 0.32584 0.21443
#
# Static dielectric constant tensor:
#      x y z
#    x 2.144850 0.000000 0.066530 
#    y 0.000000 2.027710 0.000000 
#    z 0.066530 0.000000 2.154960 
# 
# From -- ./inp_files/60119.got.cif
#   From: 2010.05.17/outbox.cif.g08.bks.cpg/sg15_31_cif.got.tgz:60119.got - 2010.06.03 18:47:42.
