data_PCOD9255129
_publ_section_title
;
Structure prediction by ZEFSAII (Michael W. Deem and Ramdas Pophale) SiO2 
 PCOD9255129
Probable space group: C 2/C
;
_chemical_formula_sum "Si O2"
_cell_formula_units_Z 56
_cell_length_a 11.479083
_cell_length_b 15.321013
_cell_length_c 13.904534
_cell_angle_alpha 90.000000
_cell_angle_beta 84.914918
_cell_angle_gamma 90.000000
_cell_volume 2435.782112
_symmetry_space_group_name_H-M "C 2/C"
_symmetry_group_IT_number 15
_symmetry_cell_setting 'monoclinic'
loop_
_space_group_symop_operation_xyz
x,y,z
-x,y,1/2-z
-x,-y,-z
x,-y,1/2+z
1/2+x,1/2+y,z
1/2-x,1/2+y,1/2-z
1/2-x,1/2-y,-z
1/2+x,1/2-y,1/2+z
loop_
_atom_site_type_symbol
_atom_site_label
_atom_site_fract_x
_atom_site_fract_y
_atom_site_fract_z
Si Si1 0.611485 0.432180 0.103259
Si Si2 0.701925 0.376212 0.576576
Si Si3 0.678380 0.177895 0.906082
Si Si4 0.620273 0.074210 0.718775
Si Si5 0.122626 0.839210 0.787471
Si Si6 0.373370 0.470701 0.168808
Si Si7 0.922947 0.695949 0.957048
O O1 0.658138 0.525360 0.061051
O O2 0.699130 0.356568 0.061532
O O3 0.472027 0.419326 0.101847
O O4 0.617255 0.441827 0.219832
O O5 0.702599 0.364656 0.691753
O O6 0.830722 0.356599 0.527863
O O7 0.620631 0.296141 0.544781
O O8 0.654991 0.109955 0.820753
O O9 0.682710 0.269901 0.851134
O O10 0.558453 0.182704 0.975415
O O11 0.500000 0.022876 0.750000
O O12 0.590264 0.153466 0.648468
O O13 0.735055 0.034014 0.661315
O O14 0.090743 0.928610 0.843027
O O15 0.000000 0.808497 0.750000
#
# Coordination Sequence:
#
# PCOD9255129 Si02
#       7
#     8   8   8   8   8   8   8
#     4   9  17  29  46  71  96 127 162 203 245 295
#     4  10  18  29  47  73 101 123 167 204 253 293
#     4  10  17  28  50  72  96 121 165 210 247 285
#     4   9  17  30  49  73 100 123 161 206 248 286
#     4  11  15  30  52  73  93 126 171 210 242 291
#     4   9  16  29  51  69  96 127 166 205 239 296
#     4  10  18  29  47  74 100 126 158 214 248 292
#
# _framework density 22.990562000000001
#
# number of rings (size 3 to 8) (size 9 to 14) (size 15 to 20)
#    0.000    2.286    5.714    0.429    0.000    0.571 
#    0.000    0.714    6.286    0.000    0.000    5.000 
#    0.000    0.000    0.000    0.000    0.000    0.000 
#
# Total GULP energy -156149.567091 kJ/mol
# GULP energy per Si atom -5576.770253 kJ/mol
# Density = 2.293823 g / cm^3
# Si number density = 22.990562 Si / 1000 Ang^3
#
#
#
# Elastic Constant Matrix: (Units=GPa)
#
#
# Indices 1 2 3 4 5 6 
#
# 1 135.5465 57.4726 63.0241 0.0000 -55.7843 0.0000
# 2 57.4726 66.3522 16.5200 0.0000 -21.3021 0.0000
# 3 63.0241 16.5200 81.2724 0.0000 -37.0477 0.0000
# 4 0.0000 0.0000 0.0000 18.8770 0.0000 -6.5208
# 5 -55.7843 -21.3021 -37.0477 0.0000 51.3492 0.0000
# 6 0.0000 0.0000 0.0000 -6.5208 0.0000 26.5562
#
#
#
# Elastic Compliance Matrix: (Units=1/GPa)
#
#
# Indices 1 2 3 4 5 6 
#
# 1 0.021977 -0.012940 -0.008904 0.000000 0.012083 0.000000
# 2 -0.012940 0.025013 0.004876 0.000000 -0.000163 0.000000
# 3 -0.008904 0.004876 0.021950 0.000000 0.008186 0.000000
# 4 0.000000 0.000000 0.000000 0.057884 0.000000 0.014213
# 5 0.012083 -0.000163 0.008186 0.000000 0.038439 0.000000
# 6 0.000000 0.000000 0.000000 0.014213 0.000000 0.041146
#
#
# Mechanical properties :
#
#
# Convention : Reuss Voigt Hill
#
# Bulk Modulus (GPa) = 28.56919 61.91160 45.24040
# Shear Modulus (GPa) = 19.84023 29.10011 24.47017
#
# Velocity S-wave (km/s) = 2.94083 3.56159 3.26599
# Velocity P-wave (km/s) = 4.89742 6.62577 5.82604
#
# Compressibility (1/GPa) = 0.03500274
#
# Stress axis : x y z
#
# Youngs Moduli (GPa) = 45.50220 39.97927 45.55897
#
# Poissons Ratio (x) = 0.51733 0.40567
# Poissons Ratio (y) = 0.58879 -0.22213
# Poissons Ratio (z) = 0.40517 -0.19493
#
# Static dielectric constant tensor:
#      x y z
#    x 1.996880 0.000000 0.001100 
#    y 0.000000 1.847010 0.000000 
#    z 0.001100 0.000000 1.890290 
# 
# From -- ./inp_files/239268.got.cif
#   From: 2010.05.17/outbox.cif.g08.bks.cpg/sg15_120_cif.got.tgz:239268.got - 2010.06.03 18:47:42.
