data_PCOD9255607
_publ_section_title
;
Structure prediction by ZEFSAII (Michael W. Deem and Ramdas Pophale) SiO2 
 PCOD9255607
Probable space group: C 2/C
;
_chemical_formula_sum "Si O2"
_cell_formula_units_Z 48
_cell_length_a 22.491074
_cell_length_b 16.666213
_cell_length_c 14.831596
_cell_angle_alpha 90.000000
_cell_angle_beta 155.874571
_cell_angle_gamma 90.000000
_cell_volume 2272.361519
_symmetry_space_group_name_H-M "C 2/C"
_symmetry_group_IT_number 15
_symmetry_cell_setting 'monoclinic'
loop_
_space_group_symop_operation_xyz
x,y,z
-x,y,1/2-z
-x,-y,-z
x,-y,1/2+z
1/2+x,1/2+y,z
1/2-x,1/2+y,1/2-z
1/2-x,1/2-y,-z
1/2+x,1/2-y,1/2+z
loop_
_atom_site_type_symbol
_atom_site_label
_atom_site_fract_x
_atom_site_fract_y
_atom_site_fract_z
Si Si1 0.328871 0.521245 0.997009
Si Si2 0.960735 0.232386 0.799620
Si Si3 0.313531 0.113129 0.075411
Si Si4 0.119379 0.194060 0.348098
Si Si5 0.719394 0.525376 0.784006
Si Si6 0.067146 0.873181 0.590857
O O1 0.500000 0.497601 0.250000
O O2 0.235078 0.456248 0.922448
O O3 0.322601 0.611039 0.028158
O O4 0.284457 0.526065 0.830108
O O5 0.816907 0.178613 0.616590
O O6 0.936540 0.326755 0.783037
O O7 0.000000 0.223883 0.750000
O O8 0.078288 0.190323 0.026288
O O9 0.334391 0.071060 0.006473
O O10 0.250000 0.250000 0.500000
O O11 0.038906 0.170601 0.144912
O O12 0.000000 0.229981 0.250000
O O13 0.704521 0.431827 0.788622
O O14 0.570846 0.568536 0.612434
#
# Coordination Sequence:
#
# PCOD9255607 Si02
#       6
#     8   8   8   8   8   8
#     4  11  18  35  59  85 110 157 209 262 294 360
#     4  10  21  35  53  85 125 155 189 251 315 367
#     4  10  20  34  55  87 116 150 202 249 303 366
#     4  11  23  41  62  90 123 158 206 260 308 369
#     4  10  17  31  62  86 112 148 205 254 301 350
#     4  10  18  35  59  88 112 153 205 253 305 360
#
# _framework density 21.1234
#
# number of rings (size 3 to 8) (size 9 to 14) (size 15 to 20)
#    0.000    1.667    5.000    3.500    0.000    1.333 
#    6.000    0.833    0.000    2.000    0.000    0.000 
#    0.000    0.000    0.000    0.000    0.000    0.000 
#
# Total GULP energy -133775.178445 kJ/mol
# GULP energy per Si atom -5573.965769 kJ/mol
# Density = 2.107532 g / cm^3
# Si number density = 21.123400 Si / 1000 Ang^3
#
#
#
# Elastic Constant Matrix: (Units=GPa)
#
#
# Indices 1 2 3 4 5 6 
#
# 1 121.4853 68.2910 31.2060 0.0000 -30.7929 0.0000
# 2 68.2910 117.3452 43.0012 0.0000 -3.1328 0.0000
# 3 31.2060 43.0012 30.0958 0.0000 -4.5605 0.0000
# 4 0.0000 0.0000 0.0000 -175.6926 0.0000 27.6917
# 5 -30.7929 -3.1328 -4.5605 0.0000 27.2963 0.0000
# 6 0.0000 0.0000 0.0000 27.6917 0.0000 37.3128
#
#
#
# Elastic Compliance Matrix: (Units=1/GPa)
#
#
# Indices 1 2 3 4 5 6 
#
# 1 0.019827 -0.009657 -0.003632 0.000000 0.020652 0.000000
# 2 -0.009657 0.022729 -0.024335 0.000000 -0.012351 0.000000
# 3 -0.003632 -0.024335 0.072556 0.000000 0.005232 0.000000
# 4 0.000000 0.000000 0.000000 -0.005096 0.000000 0.003782
# 5 0.020652 -0.012351 0.005232 0.000000 0.059389 0.000000
# 6 0.000000 0.000000 0.000000 0.003782 0.000000 0.023994
#
#
# Mechanical properties :
#
#
# Convention : Reuss Voigt Hill
#
# Bulk Modulus (GPa) = 25.08399 61.54698 43.31549
# Shear Modulus (GPa) = 17.73459 -13.78816 1.97322
#
# Velocity S-wave (km/s) = 2.90068 -2.55766 0.96756
# Velocity P-wave (km/s) = 4.80826 4.52526 4.66890
#
# Compressibility (1/GPa) = 0.03986606
#
# Stress axis : x y z
#
# Youngs Moduli (GPa) = 50.43528 43.99576 13.78254
#
# Poissons Ratio (x) = 0.42485 0.05006
# Poissons Ratio (y) = 0.48704 0.33539
# Poissons Ratio (z) = 0.18317 1.07063
#
# Static dielectric constant tensor:
#      x y z
#    x 1.782270 0.000000 -0.005680 
#    y 0.000000 1.846880 0.000000 
#    z -0.005680 0.000000 1.781020 
# 
# From -- ./inp_files/96162.got.cif
#   From: 2010.05.17/outbox.cif.g08.bks.cpg/sg15_49_cif.got.tgz:96162.got - 2010.06.03 18:47:42.
