data_PCOD9255138
_publ_section_title
;
Structure prediction by ZEFSAII (Michael W. Deem and Ramdas Pophale) SiO2 
 PCOD9255138
Probable space group: C 2/C
;
_chemical_formula_sum "Si O2"
_cell_formula_units_Z 64
_cell_length_a 21.196775
_cell_length_b 9.250976
_cell_length_c 17.294621
_cell_angle_alpha 90.000000
_cell_angle_beta 80.917396
_cell_angle_gamma 90.000000
_cell_volume 3348.795973
_symmetry_space_group_name_H-M "C 2/C"
_symmetry_group_IT_number 15
_symmetry_cell_setting 'monoclinic'
loop_
_space_group_symop_operation_xyz
x,y,z
-x,y,1/2-z
-x,-y,-z
x,-y,1/2+z
1/2+x,1/2+y,z
1/2-x,1/2+y,1/2-z
1/2-x,1/2-y,-z
1/2+x,1/2-y,1/2+z
loop_
_atom_site_type_symbol
_atom_site_label
_atom_site_fract_x
_atom_site_fract_y
_atom_site_fract_z
Si Si1 0.809051 0.678652 0.703308
Si Si2 0.189421 0.342860 0.791114
Si Si3 0.432954 0.830666 0.261673
Si Si4 0.562626 0.844864 0.057644
Si Si5 0.685833 0.826718 0.482639
Si Si6 0.954969 0.326381 0.974952
Si Si7 0.693069 0.836260 0.973580
Si Si8 0.544666 0.151950 0.309581
O O1 0.805779 0.511923 0.731079
O O2 0.743540 0.756124 0.736714
O O3 0.870863 0.740413 0.736345
O O4 0.818961 0.682146 0.609551
O O5 0.200585 0.334418 0.880399
O O6 0.116715 0.291778 0.792187
O O7 0.500000 0.745813 0.250000
O O8 0.423919 0.865593 0.354177
O O9 0.446496 0.978009 0.208902
O O10 0.560522 0.002427 0.017734
O O11 0.494379 0.779784 0.044034
O O12 0.624563 0.769504 0.010021
O O13 0.750000 0.750000 0.500000
O O14 0.616606 0.765876 0.524650
O O15 0.693388 0.996758 0.501214
O O16 0.005769 0.315999 0.895148
O O17 0.750000 0.750000 0.000000
O O18 0.500000 0.207068 0.250000
#
# Coordination Sequence:
#
# PCOD9255138 Si02
#       8
#     8   8   8   8   8   8   8   8
#     4  10  22  36  55  82 116 143 185 226 274 336
#     4  10  21  37  54  84 111 145 182 228 274 327
#     4  10  17  29  49  80 106 138 178 223 278 316
#     4  10  17  28  51  77 107 135 174 233 271 311
#     4  10  23  36  54  83 113 148 180 227 284 325
#     4  10  18  31  51  78 109 138 180 234 274 322
#     4  10  20  35  55  81 110 144 184 220 272 329
#     4  10  18  30  51  80 106 138 186 225 272 325
#
# _framework density 19.111346000000001
#
# number of rings (size 3 to 8) (size 9 to 14) (size 15 to 20)
#    0.000    2.000    3.750    1.500    5.250    2.000 
#    0.000    0.000    0.000    1.500    3.250    0.000 
#    0.000    0.000    0.000    0.000    0.000    0.000 
#
# Total GULP energy -178202.564593 kJ/mol
# GULP energy per Si atom -5568.830144 kJ/mol
# Density = 1.906785 g / cm^3
# Si number density = 19.111346 Si / 1000 Ang^3
#
#
#
# Elastic Constant Matrix: (Units=GPa)
#
#
# Indices 1 2 3 4 5 6 
#
# 1 192.5583 32.2447 35.8510 0.0000 0.0187 0.0000
# 2 32.2447 15.0861 10.6317 0.0000 -1.5830 0.0000
# 3 35.8510 10.6317 63.1095 0.0000 -4.2746 0.0000
# 4 0.0000 0.0000 0.0000 14.3781 0.0000 2.6997
# 5 0.0187 -1.5830 -4.2746 0.0000 41.2830 0.0000
# 6 0.0000 0.0000 0.0000 2.6997 0.0000 19.1408
#
#
#
# Elastic Compliance Matrix: (Units=1/GPa)
#
#
# Indices 1 2 3 4 5 6 
#
# 1 0.008325 -0.016464 -0.002013 0.000000 -0.000843 0.000000
# 2 -0.016464 0.107878 -0.008601 0.000000 0.003254 0.000000
# 3 -0.002013 -0.008601 0.018546 0.000000 0.001591 0.000000
# 4 0.000000 0.000000 0.000000 0.071442 0.000000 -0.010077
# 5 -0.000843 0.003254 0.001591 0.000000 0.024513 0.000000
# 6 0.000000 0.000000 0.000000 -0.010077 0.000000 0.053666
#
#
# Mechanical properties :
#
#
# Convention : Reuss Voigt Hill
#
# Bulk Modulus (GPa) = 12.40778 47.57874 29.99326
# Shear Modulus (GPa) = 13.68405 27.76215 20.72310
#
# Velocity S-wave (km/s) = 2.67875 3.81550 3.29650
# Velocity P-wave (km/s) = 4.00925 6.66036 5.49702
#
# Compressibility (1/GPa) = 0.08059459
#
# Stress axis : x y z
#
# Youngs Moduli (GPa) = 120.12024 9.26970 53.92119
#
# Poissons Ratio (x) = 0.15261 0.10853
# Poissons Ratio (y) = 1.97763 0.46375
# Poissons Ratio (z) = 0.24178 0.07972
#
# Static dielectric constant tensor:
#      x y z
#    x 1.739060 0.000000 -0.007060 
#    y 0.000000 1.669730 0.000000 
#    z -0.007060 0.000000 1.696820 
# 
# From -- ./inp_files/210305.got.cif
#   From: 2010.05.17/outbox.cif.g08.bks.cpg/sg15_106_cif.got.tgz:210305.got - 2010.06.03 18:47:42.
