data_PCOD9255798
_publ_section_title
;
Structure prediction by ZEFSAII (Michael W. Deem and Ramdas Pophale) SiO2 
 PCOD9255798
Probable space group: C 2/C
;
_chemical_formula_sum "Si O2"
_cell_formula_units_Z 60
_cell_length_a 12.197280
_cell_length_b 31.983442
_cell_length_c 12.507796
_cell_angle_alpha 90.000000
_cell_angle_beta 43.338730
_cell_angle_gamma 90.000000
_cell_volume 3348.801473
_symmetry_space_group_name_H-M "C 2/C"
_symmetry_group_IT_number 15
_symmetry_cell_setting 'monoclinic'
loop_
_space_group_symop_operation_xyz
x,y,z
-x,y,1/2-z
-x,-y,-z
x,-y,1/2+z
1/2+x,1/2+y,z
1/2-x,1/2+y,1/2-z
1/2-x,1/2-y,-z
1/2+x,1/2-y,1/2+z
loop_
_atom_site_type_symbol
_atom_site_label
_atom_site_fract_x
_atom_site_fract_y
_atom_site_fract_z
Si Si1 0.113399 0.707697 0.001076
Si Si2 0.061142 0.465765 0.370456
Si Si3 0.753243 0.021123 0.534282
Si Si4 0.257784 0.793876 0.851389
Si Si5 0.591617 0.119048 0.966393
Si Si6 0.285563 0.619938 0.220655
Si Si7 0.811919 0.568170 0.405893
Si Si8 0.000000 0.919465 0.750000
O O1 0.210197 0.701916 0.043922
O O2 0.929740 0.709804 0.170971
O O3 0.163455 0.750466 0.908974
O O4 0.142573 0.666475 0.908578
O O5 0.202586 0.482165 0.194342
O O6 0.118557 0.421223 0.374058
O O7 0.000000 0.500000 0.500000
O O8 0.901227 0.459560 0.414714
O O9 0.897319 0.050239 0.399413
O O10 0.768409 0.972922 0.488251
O O11 0.176712 0.835220 0.859694
O O12 0.400494 0.121101 0.114485
O O13 0.669139 0.105709 0.024261
O O14 0.281143 0.584549 0.131419
O O15 0.391235 0.607750 0.247178
O O16 0.000000 0.556510 0.250000
#
# Coordination Sequence:
#
# PCOD9255798 Si02
#       8
#     8   8   8   8   8   8   8   4
#     4   9  17  31  57  88 110 138 172 234 293 345
#     4  11  19  37  61  84 108 149 200 243 276 328
#     4  11  23  36  56  82 114 155 195 237 284 333
#     4   9  17  33  56  83 113 138 178 227 293 343
#     4  10  17  32  61  85 108 140 196 238 278 331
#     4  10  20  35  56  81 113 156 190 226 284 353
#     4  10  17  32  59  85 105 141 197 244 272 327
#     4  12  26  40  52  78 126 164 186 230 292 348
#
# _framework density 17.916857
#
# number of rings (size 3 to 8) (size 9 to 14) (size 15 to 20)
#    0.000    1.867    5.333    0.800    0.000    0.533 
#    2.400    0.000    0.000    4.800    0.000    0.000 
#    0.000    0.000    0.000    0.000    0.000    0.000 
#
# Total GULP energy -167093.059615 kJ/mol
# GULP energy per Si atom -5569.768654 kJ/mol
# Density = 1.787608 g / cm^3
# Si number density = 17.916857 Si / 1000 Ang^3
#
#
#
# Elastic Constant Matrix: (Units=GPa)
#
#
# Indices 1 2 3 4 5 6 
#
# 1 78.5971 42.9666 11.8715 0.0000 12.5680 0.0000
# 2 42.9666 151.7294 29.6416 0.0000 4.8297 0.0000
# 3 11.8715 29.6416 47.0168 0.0000 6.3811 0.0000
# 4 0.0000 0.0000 0.0000 27.2074 0.0000 6.2312
# 5 12.5680 4.8297 6.3811 0.0000 11.5593 0.0000
# 6 0.0000 0.0000 0.0000 6.2312 0.0000 12.9465
#
#
#
# Elastic Compliance Matrix: (Units=1/GPa)
#
#
# Indices 1 2 3 4 5 6 
#
# 1 0.018070 -0.004709 0.000871 0.000000 -0.018160 0.000000
# 2 -0.004709 0.008747 -0.004891 0.000000 0.004165 0.000000
# 3 0.000871 -0.004891 0.025926 0.000000 -0.013216 0.000000
# 4 0.000000 0.000000 0.000000 0.041308 0.000000 -0.019882
# 5 -0.018160 0.004165 -0.013216 0.000000 0.111810 0.000000
# 6 0.000000 0.000000 0.000000 -0.019882 0.000000 0.086810
#
#
# Mechanical properties :
#
#
# Convention : Reuss Voigt Hill
#
# Bulk Modulus (GPa) = 28.34064 49.58918 38.96491
# Shear Modulus (GPa) = 15.53324 23.20022 19.36673
#
# Velocity S-wave (km/s) = 2.94762 3.60235 3.29130
# Velocity P-wave (km/s) = 5.23801 6.71119 6.01984
#
# Compressibility (1/GPa) = 0.03528502
#
# Stress axis : x y z
#
# Youngs Moduli (GPa) = 55.34135 114.32386 38.57107
#
# Poissons Ratio (x) = 0.53836 -0.03359
# Poissons Ratio (y) = 0.26061 0.18865
# Poissons Ratio (z) = -0.04820 0.55914
#
# Static dielectric constant tensor:
#      x y z
#    x 1.462600 0.000000 0.012870 
#    y 0.000000 1.642610 0.000000 
#    z 0.012870 0.000000 1.645700 
# 
# From -- ./inp_files/92606.got.cif
#   From: 2010.05.17/outbox.cif.g08.bks.cpg/sg15_47_cif.got.tgz:92606.got - 2010.06.03 18:47:42.
