data_PCOD9255939
_publ_section_title
;
Structure prediction by ZEFSAII (Michael W. Deem and Ramdas Pophale) SiO2 
 PCOD9255939
Probable space group: C 2/C
;
_chemical_formula_sum "Si O2"
_cell_formula_units_Z 44
_cell_length_a 19.772759
_cell_length_b 8.808270
_cell_length_c 14.142563
_cell_angle_alpha 90.000000
_cell_angle_beta 52.628921
_cell_angle_gamma 90.000000
_cell_volume 1957.495439
_symmetry_space_group_name_H-M "C 2/C"
_symmetry_group_IT_number 15
_symmetry_cell_setting 'monoclinic'
loop_
_space_group_symop_operation_xyz
x,y,z
-x,y,1/2-z
-x,-y,-z
x,-y,1/2+z
1/2+x,1/2+y,z
1/2-x,1/2+y,1/2-z
1/2-x,1/2-y,-z
1/2+x,1/2-y,1/2+z
loop_
_atom_site_type_symbol
_atom_site_label
_atom_site_fract_x
_atom_site_fract_y
_atom_site_fract_z
Si Si1 0.466067 0.320806 0.924599
Si Si2 0.931203 0.155684 0.968737
Si Si3 0.730271 0.191748 0.799192
Si Si4 0.852355 0.405977 0.610267
Si Si5 0.105733 0.608677 0.765777
Si Si6 0.500000 0.876450 0.750000
O O1 0.430921 0.484757 0.928651
O O2 0.547360 0.255061 0.801129
O O3 0.502698 0.337627 0.000338
O O4 0.397161 0.186225 0.990054
O O5 0.964648 0.272343 0.863192
O O6 0.839676 0.205285 0.088350
O O7 0.816633 0.282808 0.715321
O O8 0.699778 0.162028 0.715392
O O9 0.724071 0.023771 0.849656
O O10 0.913000 0.521091 0.617479
O O11 0.077958 0.484861 0.714750
#
# Coordination Sequence:
#
# PCOD9255939 Si02
#       6
#     8   8   8   8   8   4
#     4  10  18  36  58  84 106 145 204 229 267 331
#     4  10  20  33  58  83 111 147 188 239 274 333
#     4   9  19  34  55  87 107 150 187 231 274 330
#     4  10  17  33  58  83 109 142 194 233 271 321
#     4   9  21  34  58  84 111 149 186 229 282 330
#     4  12  20  38  56  84 120 146 186 234 290 332
#
# _framework density 22.477703999999999
#
# number of rings (size 3 to 8) (size 9 to 14) (size 15 to 20)
#    1.091    1.091    1.818    2.727    0.000    0.727 
#    0.000    0.909    0.000    2.182    0.000    0.000 
#    0.000    0.000    0.000    0.000    0.000    0.000 
#
# Total GULP energy -122487.712042 kJ/mol
# GULP energy per Si atom -5567.623275 kJ/mol
# Density = 2.242654 g / cm^3
# Si number density = 22.477704 Si / 1000 Ang^3
#
#
#
# Elastic Constant Matrix: (Units=GPa)
#
#
# Indices 1 2 3 4 5 6 
#
# 1 26.7703 6.5497 3.6115 -0.0001 6.5058 0.0001
# 2 6.5497 121.8497 -3.1748 -0.0008 8.2431 0.0007
# 3 3.6115 -3.1748 27.9855 -0.0001 -1.9837 0.0001
# 4 -0.0001 -0.0008 -0.0001 64.5562 0.0001 -26.6646
# 5 6.5058 8.2431 -1.9837 0.0001 23.8826 -0.0001
# 6 0.0001 0.0007 0.0001 -26.6646 -0.0001 46.2091
#
#
#
# Elastic Compliance Matrix: (Units=1/GPa)
#
#
# Indices 1 2 3 4 5 6 
#
# 1 0.041332 -0.001627 -0.006314 0.000000 -0.011222 0.000000
# 2 -0.001627 0.008483 0.001002 0.000000 -0.002401 0.000000
# 3 -0.006314 0.001002 0.036976 0.000000 0.004445 0.000000
# 4 0.000000 0.000000 0.000000 0.020338 0.000000 0.011736
# 5 -0.011222 -0.002401 0.004445 0.000000 0.046127 0.000000
# 6 0.000000 0.000000 0.000000 0.011736 0.000000 0.028413
#
#
# Mechanical properties :
#
#
# Convention : Reuss Voigt Hill
#
# Bulk Modulus (GPa) = 13.71489 21.17538 17.44513
# Shear Modulus (GPa) = 22.74278 38.23752 30.49015
#
# Velocity S-wave (km/s) = 3.18432 4.12895 3.68701
# Velocity P-wave (km/s) = 4.43110 5.67204 5.08953
#
# Compressibility (1/GPa) = 0.07291346
#
# Stress axis : x y z
#
# Youngs Moduli (GPa) = 24.19446 117.88481 27.04434
#
# Poissons Ratio (x) = 0.19180 0.17075
# Poissons Ratio (y) = 0.03937 -0.02710
# Poissons Ratio (z) = 0.15276 -0.11813
#
# Static dielectric constant tensor:
#      x y z
#    x 1.881890 0.000000 0.004890 
#    y 0.000000 1.888800 0.000000 
#    z 0.004890 0.000000 1.870960 
# 
# From -- ./inp_files/171712.got.cif
#   From: 2010.05.17/outbox.cif.g08.bks.cpg/sg15_86_cif.got.tgz:171712.got - 2010.06.03 18:47:42.
