data_PCOD9255326
_publ_section_title
;
Structure prediction by ZEFSAII (Michael W. Deem and Ramdas Pophale) SiO2 
 PCOD9255326
Probable space group: C 2/C
;
_chemical_formula_sum "Si O2"
_cell_formula_units_Z 52
_cell_length_a 14.490658
_cell_length_b 18.706050
_cell_length_c 13.136650
_cell_angle_alpha 90.000000
_cell_angle_beta 126.665310
_cell_angle_gamma 90.000000
_cell_volume 2856.298264
_symmetry_space_group_name_H-M "C 2/C"
_symmetry_group_IT_number 15
_symmetry_cell_setting 'monoclinic'
loop_
_space_group_symop_operation_xyz
x,y,z
-x,y,1/2-z
-x,-y,-z
x,-y,1/2+z
1/2+x,1/2+y,z
1/2-x,1/2+y,1/2-z
1/2-x,1/2-y,-z
1/2+x,1/2-y,1/2+z
loop_
_atom_site_type_symbol
_atom_site_label
_atom_site_fract_x
_atom_site_fract_y
_atom_site_fract_z
Si Si1 0.065036 0.585886 0.494908
Si Si2 0.701881 0.477872 0.023950
Si Si3 0.283774 0.857779 0.565598
Si Si4 0.500000 0.509799 0.750000
Si Si5 0.186581 0.910277 0.235051
Si Si6 0.442024 0.934379 0.103497
Si Si7 0.369438 0.275422 0.200690
O O1 0.100308 0.637197 0.426445
O O2 0.189539 0.573314 0.631454
O O3 0.020531 0.514379 0.409021
O O4 0.982142 0.610266 0.531423
O O5 0.738828 0.562238 0.058523
O O6 0.688067 0.443754 0.125106
O O7 0.807050 0.440210 0.034611
O O8 0.585799 0.470079 0.883021
O O9 0.314328 0.803124 0.674904
O O10 0.193282 0.817910 0.433264
O O11 0.414030 0.555569 0.763294
O O12 0.159312 0.825914 0.222638
O O13 0.500000 0.916805 0.250000
O O14 0.500000 0.272448 0.250000
#
# Coordination Sequence:
#
# PCOD9255326 Si02
#       7
#     8   8   8   4   8   8   8
#     4   9  18  31  48  77 113 145 180 236 278 339
#     4  11  21  33  54  85 113 158 189 238 286 343
#     4   9  19  33  52  79 111 145 190 228 289 334
#     4  12  20  36  48  78 120 146 202 234 278 334
#     4  11  19  34  54  77 116 152 191 238 287 334
#     4  10  17  30  50  73 114 143 181 232 285 334
#     4  10  18  34  53  76 114 146 182 239 276 345
#
# _framework density 18.205380999999999
#
# number of rings (size 3 to 8) (size 9 to 14) (size 15 to 20)
#    0.000    1.846    6.923    0.462    0.000    2.462 
#    0.000    0.000    0.000    0.000    0.000   10.769 
#    2.308    0.000    0.000    0.000    0.000    0.000 
#
# Total GULP energy -144803.312133 kJ/mol
# GULP energy per Si atom -5569.358159 kJ/mol
# Density = 1.816395 g / cm^3
# Si number density = 18.205381 Si / 1000 Ang^3
#
#
#
# Elastic Constant Matrix: (Units=GPa)
#
#
# Indices 1 2 3 4 5 6 
#
# 1 98.2680 32.8147 27.1194 0.0000 -10.3234 0.0000
# 2 32.8147 59.3982 41.9544 0.0000 -3.6653 0.0000
# 3 27.1194 41.9544 58.9752 0.0000 -12.8072 0.0000
# 4 0.0000 0.0000 0.0000 11.5958 0.0000 -4.5177
# 5 -10.3234 -3.6653 -12.8072 0.0000 34.1396 0.0000
# 6 0.0000 0.0000 0.0000 -4.5177 0.0000 17.0859
#
#
#
# Elastic Compliance Matrix: (Units=1/GPa)
#
#
# Indices 1 2 3 4 5 6 
#
# 1 0.012816 -0.006403 -0.000703 0.000000 0.002924 0.000000
# 2 -0.006403 0.038156 -0.025835 0.000000 -0.007531 0.000000
# 3 -0.000703 -0.025835 0.038115 0.000000 0.011312 0.000000
# 4 0.000000 0.000000 0.000000 0.096142 0.000000 0.025421
# 5 0.002924 -0.007531 0.011312 0.000000 0.033611 0.000000
# 6 0.000000 0.000000 0.000000 0.025421 0.000000 0.065249
#
#
# Mechanical properties :
#
#
# Convention : Reuss Voigt Hill
#
# Bulk Modulus (GPa) = 43.09541 46.71317 44.90429
# Shear Modulus (GPa) = 13.97797 20.21447 17.09622
#
# Velocity S-wave (km/s) = 2.77391 3.33582 3.06776
# Velocity P-wave (km/s) = 5.82946 6.36801 6.10468
#
# Compressibility (1/GPa) = 0.02320433
#
# Stress axis : x y z
#
# Youngs Moduli (GPa) = 78.02978 26.20817 26.23631
#
# Poissons Ratio (x) = 0.16781 0.01845
# Poissons Ratio (y) = 0.49961 0.67782
# Poissons Ratio (z) = 0.05488 0.67709
#
# Static dielectric constant tensor:
#      x y z
#    x 1.654250 0.000000 0.002330 
#    y 0.000000 1.655430 0.000000 
#    z 0.002330 0.000000 1.671420 
# 
# From -- ./inp_files/99855.got.cif
#   From: 2010.05.17/outbox.cif.g08.bks.cpg/sg15_50_cif.got.tgz:99855.got - 2010.06.03 18:47:42.
