data_PCOD9255200
_publ_section_title
;
Structure prediction by ZEFSAII (Michael W. Deem and Ramdas Pophale) SiO2 
 PCOD9255200
Probable space group: C 2/C
;
_chemical_formula_sum "Si O2"
_cell_formula_units_Z 56
_cell_length_a 15.653458
_cell_length_b 25.890674
_cell_length_c 13.009661
_cell_angle_alpha 90.000000
_cell_angle_beta 146.662179
_cell_angle_gamma 90.000000
_cell_volume 2897.651392
_symmetry_space_group_name_H-M "C 2/C"
_symmetry_group_IT_number 15
_symmetry_cell_setting 'monoclinic'
loop_
_space_group_symop_operation_xyz
x,y,z
-x,y,1/2-z
-x,-y,-z
x,-y,1/2+z
1/2+x,1/2+y,z
1/2-x,1/2+y,1/2-z
1/2-x,1/2-y,-z
1/2+x,1/2-y,1/2+z
loop_
_atom_site_type_symbol
_atom_site_label
_atom_site_fract_x
_atom_site_fract_y
_atom_site_fract_z
Si Si1 0.546774 0.363472 0.679577
Si Si2 0.515559 0.172746 0.640249
Si Si3 0.675240 0.529605 0.063115
Si Si4 0.276257 0.260455 0.646877
Si Si5 0.851548 0.534754 0.036215
Si Si6 0.355980 0.073371 0.425322
Si Si7 0.136756 0.926757 0.157165
O O1 0.500000 0.372400 0.750000
O O2 0.589711 0.303573 0.710365
O O3 0.700550 0.398347 0.813039
O O4 0.416296 0.380012 0.467467
O O5 0.500000 0.169381 0.750000
O O6 0.665924 0.204911 0.757634
O O7 0.373182 0.209567 0.461867
O O8 0.491294 0.115236 0.574792
O O9 0.719271 0.525634 0.989289
O O10 0.810710 0.558502 0.263908
O O11 0.661098 0.473919 0.102139
O O12 0.514261 0.558386 0.925924
O O13 0.250000 0.250000 0.500000
O O14 0.000000 0.552511 0.250000
O O15 0.886521 0.479611 0.017032
O O16 0.782175 0.572602 0.880127
#
# Coordination Sequence:
#
# PCOD9255200 Si02
#       7
#     8   8   8   8   8   8   8
#     4  10  17  29  49  73  98 127 164 201 239 293
#     4   9  16  29  44  65  95 124 157 192 237 294
#     4   9  18  34  50  67  93 126 170 212 245 288
#     4   9  17  28  44  67  97 129 155 191 241 293
#     4  11  21  33  47  69 101 134 164 208 253 289
#     4   9  19  30  47  70  93 129 167 200 247 295
#     4   9  19  32  51  72  92 128 171 207 246 296
#
# _framework density 19.325996
#
# number of rings (size 3 to 8) (size 9 to 14) (size 15 to 20)
#    0.000    2.571    0.000    3.857    0.000    2.286 
#    0.000    7.143    0.000    0.000    0.000    1.000 
#    0.000    4.571    0.000    0.857    0.000    0.000 
#
# Total GULP energy -156269.618345 kJ/mol
# GULP energy per Si atom -5581.057798 kJ/mol
# Density = 1.928201 g / cm^3
# Si number density = 19.325996 Si / 1000 Ang^3
#
#
#
# Elastic Constant Matrix: (Units=GPa)
#
#
# Indices 1 2 3 4 5 6 
#
# 1 60.1502 15.0464 19.4154 0.0000 -6.3356 0.0000
# 2 15.0464 84.1275 62.8085 0.0000 -1.3602 0.0000
# 3 19.4154 62.8085 134.9176 0.0000 -7.4704 0.0000
# 4 0.0000 0.0000 0.0000 49.2128 0.0000 4.3531
# 5 -6.3356 -1.3602 -7.4704 0.0000 15.8658 0.0000
# 6 0.0000 0.0000 0.0000 4.3531 0.0000 14.8961
#
#
#
# Elastic Compliance Matrix: (Units=1/GPa)
#
#
# Indices 1 2 3 4 5 6 
#
# 1 0.018270 -0.002252 -0.001219 0.000000 0.006528 0.000000
# 2 -0.002252 0.018593 -0.008515 0.000000 -0.003314 0.000000
# 3 -0.001219 -0.008515 0.011792 0.000000 0.004335 0.000000
# 4 0.000000 0.000000 0.000000 0.020859 0.000000 -0.006096
# 5 0.006528 -0.003314 0.004335 0.000000 0.067393 0.000000
# 6 0.000000 0.000000 0.000000 -0.006096 0.000000 0.068913
#
#
# Mechanical properties :
#
#
# Convention : Reuss Voigt Hill
#
# Bulk Modulus (GPa) = 40.51575 52.63732 46.57653
# Shear Modulus (GPa) = 21.00674 28.12328 24.56501
#
# Velocity S-wave (km/s) = 3.30050 3.81885 3.56910
# Velocity P-wave (km/s) = 5.96106 6.83670 6.41384
#
# Compressibility (1/GPa) = 0.02468176
#
# Stress axis : x y z
#
# Youngs Moduli (GPa) = 54.73603 53.78312 84.80639
#
# Poissons Ratio (x) = 0.12110 0.10341
# Poissons Ratio (y) = 0.12324 0.72215
# Poissons Ratio (z) = 0.06675 0.45798
#
# Static dielectric constant tensor:
#      x y z
#    x 1.707620 0.000000 0.071920 
#    y 0.000000 1.681490 0.000000 
#    z 0.071920 0.000000 1.735880 
# 
# From -- ./inp_files/101088.got.cif
#   From: 2010.05.17/outbox.cif.g08.bks.cpg/sg15_51_cif.got.tgz:101088.got - 2010.06.03 18:47:42.
