data_PCOD9255162
_publ_section_title
;
Structure prediction by ZEFSAII (Michael W. Deem and Ramdas Pophale) SiO2 
 PCOD9255162
Probable space group: C 2/C
;
_chemical_formula_sum "Si O2"
_cell_formula_units_Z 48
_cell_length_a 20.174733
_cell_length_b 7.752840
_cell_length_c 22.368436
_cell_angle_alpha 90.000000
_cell_angle_beta 37.992014
_cell_angle_gamma 90.000000
_cell_volume 2153.618263
_symmetry_space_group_name_H-M "C 2/C"
_symmetry_group_IT_number 15
_symmetry_cell_setting 'monoclinic'
loop_
_space_group_symop_operation_xyz
x,y,z
-x,y,1/2-z
-x,-y,-z
x,-y,1/2+z
1/2+x,1/2+y,z
1/2-x,1/2+y,1/2-z
1/2-x,1/2-y,-z
1/2+x,1/2-y,1/2+z
loop_
_atom_site_type_symbol
_atom_site_label
_atom_site_fract_x
_atom_site_fract_y
_atom_site_fract_z
Si Si1 0.209856 0.186019 0.964671
Si Si2 0.034218 0.883062 0.847895
Si Si3 0.076078 0.732654 0.937576
Si Si4 0.749971 0.516106 0.157927
Si Si5 0.090864 0.618166 0.361633
Si Si6 0.913785 0.526822 0.760262
O O1 0.209748 0.357809 0.923174
O O2 0.297896 0.061784 0.872044
O O3 0.250000 0.250000 0.000000
O O4 0.093749 0.097759 0.055430
O O5 0.075256 0.873691 0.887368
O O6 0.122131 0.002587 0.752673
O O7 0.050852 0.707551 0.796595
O O8 0.187336 0.664772 0.886039
O O9 0.043523 0.565896 0.919306
O O10 0.988760 0.753625 0.051377
O O11 0.794734 0.616464 0.185806
O O12 0.092468 0.605300 0.290105
O O13 0.000000 0.483051 0.750000
#
# Coordination Sequence:
#
# PCOD9255162 Si02
#       6
#     8   8   8   8   8   8
#     4  11  19  26  41  68 101 121 138 182 236 282
#     4  10  17  29  43  67  93 118 150 186 225 274
#     4   8  14  28  46  59  85 118 155 183 215 267
#     4   9  17  27  45  62  88 121 153 183 220 264
#     4   8  14  28  44  60  85 118 158 181 211 268
#     4  10  18  26  43  66  93 116 150 182 219 275
#
# _framework density 22.288070999999999
#
# number of rings (size 3 to 8) (size 9 to 14) (size 15 to 20)
#    1.000    1.667    3.333    1.000    0.000    0.000 
#    0.000    0.833    0.000    0.000    0.000    1.167 
#    5.000    0.000    0.000    0.000    0.000    0.000 
#
# Total GULP energy -133684.049464 kJ/mol
# GULP energy per Si atom -5570.168728 kJ/mol
# Density = 2.223734 g / cm^3
# Si number density = 22.288071 Si / 1000 Ang^3
#
#
#
# Elastic Constant Matrix: (Units=GPa)
#
#
# Indices 1 2 3 4 5 6 
#
# 1 131.4653 22.2480 81.0591 -0.0001 6.9781 0.0000
# 2 22.2480 48.1216 11.5293 -0.0009 1.5815 0.0009
# 3 81.0591 11.5293 165.3430 -0.0003 -24.3629 0.0003
# 4 -0.0001 -0.0009 -0.0003 4.9399 0.0002 -9.3746
# 5 6.9781 1.5815 -24.3629 0.0002 54.9112 -0.0002
# 6 0.0000 0.0009 0.0003 -9.3746 -0.0002 6.7574
#
#
#
# Elastic Compliance Matrix: (Units=1/GPa)
#
#
# Indices 1 2 3 4 5 6 
#
# 1 0.012543 -0.004097 -0.006506 0.000000 -0.004363 0.000000
# 2 -0.004097 0.022566 0.000445 0.000001 0.000068 -0.000002
# 3 -0.006506 0.000445 0.009979 0.000000 0.005242 0.000000
# 4 0.000000 0.000001 0.000000 -0.123986 0.000000 -0.172005
# 5 -0.004363 0.000068 0.005242 0.000000 0.021089 0.000000
# 6 0.000000 -0.000002 0.000000 -0.172005 0.000000 -0.090638
#
#
# Mechanical properties :
#
#
# Convention : Reuss Voigt Hill
#
# Bulk Modulus (GPa) = 40.36876 63.84473 52.10675
# Shear Modulus (GPa) = -41.71117 28.66127 -6.52495
#
# Velocity S-wave (km/s) = -4.33073 3.58990 -1.71287
# Velocity P-wave (km/s) = 2.61827 6.77426 4.41788
#
# Compressibility (1/GPa) = 0.02477163
#
# Stress axis : x y z
#
# Youngs Moduli (GPa) = 79.72435 44.31462 100.20939
#
# Poissons Ratio (x) = 0.18155 0.65201
# Poissons Ratio (y) = 0.32662 -0.04459
# Poissons Ratio (z) = 0.51872 -0.01972
#
# Static dielectric constant tensor:
#      x y z
#    x 1.816480 0.000000 -0.012660 
#    y 0.000000 1.896310 0.000000 
#    z -0.012660 0.000000 1.862460 
# 
# From -- ./inp_files/252216.got.cif
#   From: 2010.05.17/outbox.cif.g08.bks.cpg/sg15_127_cif.got.tgz:252216.got - 2010.06.03 18:47:42.
