data_PCOD9255522
_publ_section_title
;
Structure prediction by ZEFSAII (Michael W. Deem and Ramdas Pophale) SiO2 
 PCOD9255522
Probable space group: C 2/C
;
_chemical_formula_sum "Si O2"
_cell_formula_units_Z 64
_cell_length_a 11.487385
_cell_length_b 19.433952
_cell_length_c 27.983285
_cell_angle_alpha 90.000000
_cell_angle_beta 143.004040
_cell_angle_gamma 90.000000
_cell_volume 3759.268817
_symmetry_space_group_name_H-M "C 2/C"
_symmetry_group_IT_number 15
_symmetry_cell_setting 'monoclinic'
loop_
_space_group_symop_operation_xyz
x,y,z
-x,y,1/2-z
-x,-y,-z
x,-y,1/2+z
1/2+x,1/2+y,z
1/2-x,1/2+y,1/2-z
1/2-x,1/2-y,-z
1/2+x,1/2-y,1/2+z
loop_
_atom_site_type_symbol
_atom_site_label
_atom_site_fract_x
_atom_site_fract_y
_atom_site_fract_z
Si Si1 0.195340 0.854222 0.013610
Si Si2 0.081233 0.810622 0.326073
Si Si3 0.482178 0.814453 0.918344
Si Si4 0.562872 0.342455 0.424368
Si Si5 0.045870 0.700567 0.984699
Si Si6 0.721803 0.411069 0.644591
Si Si7 0.457100 0.156277 0.306667
Si Si8 0.146053 0.952284 0.078629
O O1 0.353191 0.841869 0.024487
O O2 0.258525 0.903711 0.077935
O O3 0.127820 0.778484 0.008979
O O4 0.001782 0.889699 0.929333
O O5 0.035950 0.853298 0.358927
O O6 0.313276 0.798706 0.401527
O O7 0.978470 0.736486 0.299941
O O8 0.000000 0.839655 0.250000
O O9 0.474449 0.731927 0.908813
O O10 0.398467 0.848159 0.842817
O O11 0.708573 0.834473 0.991915
O O12 0.409123 0.829102 0.947718
O O13 0.472757 0.401182 0.426782
O O14 0.831473 0.374741 0.636029
O O15 0.753775 0.491936 0.646567
O O16 0.817285 0.381775 0.723889
O O17 0.000000 0.000000 0.000000
#
# Coordination Sequence:
#
# PCOD9255522 Si02
#       8
#     8   8   8   8   8   8   8   8
#     4  10  18  31  48  77 108 134 165 202 267 310
#     4  10  17  31  54  76 103 130 167 226 259 301
#     4   9  16  28  51  78 104 124 168 227 250 295
#     4   9  17  28  50  79 101 127 173 214 259 293
#     4  10  18  29  52  78 108 130 160 219 262 315
#     4  10  19  32  52  73 102 138 179 207 247 309
#     4  10  17  31  53  76  97 128 185 216 251 292
#     4  10  19  31  51  72 105 138 170 210 246 303
#
# _framework density 17.024588000000001
#
# number of rings (size 3 to 8) (size 9 to 14) (size 15 to 20)
#    0.000    2.250    3.750    2.250    0.000    0.000 
#    0.000    3.125    0.000   21.750    0.000    0.000 
#    0.000    0.000    0.000    0.000    0.000    0.000 
#
# Total GULP energy -178210.802524 kJ/mol
# GULP energy per Si atom -5569.087579 kJ/mol
# Density = 1.698584 g / cm^3
# Si number density = 17.024588 Si / 1000 Ang^3
#
#
#
# Elastic Constant Matrix: (Units=GPa)
#
#
# Indices 1 2 3 4 5 6 
#
# 1 114.5977 45.3092 42.8704 0.0000 -37.3276 0.0000
# 2 45.3092 77.0928 26.4257 0.0000 -20.5674 0.0000
# 3 42.8704 26.4257 77.1213 -0.0002 -29.4281 -0.0001
# 4 0.0000 0.0000 -0.0002 24.0830 -0.0001 -7.9011
# 5 -37.3276 -20.5674 -29.4281 -0.0001 29.2599 0.0000
# 6 0.0000 0.0000 -0.0001 -7.9011 0.0000 25.4512
#
#
#
# Elastic Compliance Matrix: (Units=1/GPa)
#
#
# Indices 1 2 3 4 5 6 
#
# 1 0.016421 -0.004885 -0.001251 0.000000 0.016256 0.000000
# 2 -0.004885 0.017597 -0.001578 0.000000 0.004551 0.000000
# 3 -0.001251 -0.001578 0.021373 0.000000 0.018791 0.000000
# 4 0.000000 0.000000 0.000000 0.046232 0.000000 0.014352
# 5 0.016256 0.004551 0.018791 0.000000 0.077013 0.000000
# 6 0.000000 0.000000 0.000000 0.014352 0.000000 0.043746
#
#
# Mechanical properties :
#
#
# Convention : Reuss Voigt Hill
#
# Bulk Modulus (GPa) = 25.02299 55.33581 40.17940
# Shear Modulus (GPa) = 19.90997 26.03925 22.97461
#
# Velocity S-wave (km/s) = 3.42348 3.91514 3.67753
# Velocity P-wave (km/s) = 5.50972 7.28092 6.45634
#
# Compressibility (1/GPa) = 0.03996325
#
# Stress axis : x y z
#
# Youngs Moduli (GPa) = 60.89849 56.82691 46.78846
#
# Poissons Ratio (x) = 0.27760 0.05853
# Poissons Ratio (y) = 0.29749 0.07382
# Poissons Ratio (z) = 0.07618 0.08966
#
# Static dielectric constant tensor:
#      x y z
#    x 1.583990 0.000000 -0.025440 
#    y 0.000000 1.580920 0.000000 
#    z -0.025440 0.000000 1.619060 
# 
# From -- ./inp_files/293634.got.cif
#   From: 2010.05.17/outbox.cif.g08.bks.cpg/sg15_147_cif.got.tgz:293634.got - 2010.06.03 18:47:42.
