data_PCOD9255504
_publ_section_title
;
Structure prediction by ZEFSAII (Michael W. Deem and Ramdas Pophale) SiO2 
 PCOD9255504
Probable space group: C 2/C
;
_chemical_formula_sum "Si O2"
_cell_formula_units_Z 56
_cell_length_a 10.184342
_cell_length_b 16.728487
_cell_length_c 21.542219
_cell_angle_alpha 90.000000
_cell_angle_beta 124.553386
_cell_angle_gamma 90.000000
_cell_volume 3022.702449
_symmetry_space_group_name_H-M "C 2/C"
_symmetry_group_IT_number 15
_symmetry_cell_setting 'monoclinic'
loop_
_space_group_symop_operation_xyz
x,y,z
-x,y,1/2-z
-x,-y,-z
x,-y,1/2+z
1/2+x,1/2+y,z
1/2-x,1/2+y,1/2-z
1/2-x,1/2-y,-z
1/2+x,1/2-y,1/2+z
loop_
_atom_site_type_symbol
_atom_site_label
_atom_site_fract_x
_atom_site_fract_y
_atom_site_fract_z
Si Si1 0.174631 0.347136 0.304121
Si Si2 0.389196 0.500391 0.629420
Si Si3 0.901037 0.213592 0.965542
Si Si4 0.424331 0.012796 0.627258
Si Si5 0.120633 0.929963 0.507009
Si Si6 0.725438 0.530501 0.765871
Si Si7 0.175668 0.625285 0.006091
O O1 0.299533 0.294328 0.375041
O O2 0.138602 0.424937 0.337835
O O3 0.243471 0.384354 0.259387
O O4 0.000000 0.308282 0.250000
O O5 0.372024 0.556028 0.564704
O O6 0.578152 0.487877 0.691705
O O7 0.323337 0.536733 0.675464
O O8 0.287163 0.422254 0.584067
O O9 0.926419 0.305326 0.989728
O O10 0.052411 0.156732 0.001981
O O11 0.792033 0.170766 0.988933
O O12 0.602948 0.987681 0.691067
O O13 0.422728 0.062661 0.561962
O O14 0.291494 0.946025 0.582909
O O15 0.000000 0.000000 0.500000
#
# Coordination Sequence:
#
# PCOD9255504 Si02
#       7
#     8   8   8   8   8   8   8
#     4   9  16  29  49  76 102 135 181 223 272 327
#     4  10  19  32  51  78 107 138 181 241 278 322
#     4  10  17  31  52  75 107 145 178 218 285 338
#     4   9  18  31  53  78 106 137 184 241 272 326
#     4  11  16  30  53  78 107 140 186 233 270 328
#     4  10  19  31  51  78 108 141 183 237 282 324
#     4   9  19  31  50  78 109 138 179 229 281 327
#
# _framework density 18.526468999999999
#
# number of rings (size 3 to 8) (size 9 to 14) (size 15 to 20)
#    0.000    2.286    5.714    0.000    0.000    2.286 
#    2.571    0.000    0.000    3.429    0.000    2.000 
#    0.000    0.000    0.000    0.000    0.000    0.000 
#
# Total GULP energy -156044.761287 kJ/mol
# GULP energy per Si atom -5573.027189 kJ/mol
# Density = 1.848430 g / cm^3
# Si number density = 18.526469 Si / 1000 Ang^3
#
#
#
# Elastic Constant Matrix: (Units=GPa)
#
#
# Indices 1 2 3 4 5 6 
#
# 1 52.7900 21.6878 23.9762 0.0000 5.4034 0.0000
# 2 21.6878 65.4841 13.4756 0.0000 5.9754 0.0000
# 3 23.9762 13.4756 67.4069 0.0000 2.9400 0.0000
# 4 0.0000 0.0000 0.0000 11.2254 0.0000 0.4748
# 5 5.4034 5.9754 2.9400 0.0000 38.3583 0.0000
# 6 0.0000 0.0000 0.0000 0.4748 0.0000 24.8574
#
#
#
# Elastic Compliance Matrix: (Units=1/GPa)
#
#
# Indices 1 2 3 4 5 6 
#
# 1 0.025322 -0.006646 -0.007593 0.000000 -0.001950 0.000000
# 2 -0.006646 0.017865 -0.001131 0.000000 -0.001760 0.000000
# 3 -0.007593 -0.001131 0.017767 0.000000 -0.000116 0.000000
# 4 0.000000 0.000000 0.000000 0.089156 0.000000 -0.001703
# 5 -0.001950 -0.001760 -0.000116 0.000000 0.026628 0.000000
# 6 0.000000 0.000000 0.000000 -0.001703 0.000000 0.040262
#
#
# Mechanical properties :
#
#
# Convention : Reuss Voigt Hill
#
# Bulk Modulus (GPa) = 33.09674 33.77335 33.43505
# Shear Modulus (GPa) = 19.39408 23.32431 21.35919
#
# Velocity S-wave (km/s) = 3.23899 3.55205 3.39912
# Velocity P-wave (km/s) = 5.64725 5.92386 5.78721
#
# Compressibility (1/GPa) = 0.03021445
#
# Stress axis : x y z
#
# Youngs Moduli (GPa) = 39.49212 55.97456 56.28341
#
# Poissons Ratio (x) = 0.37200 0.42736
# Poissons Ratio (y) = 0.26246 0.06365
# Poissons Ratio (z) = 0.29987 0.06330
#
# Static dielectric constant tensor:
#      x y z
#    x 1.683200 0.000000 -0.001570 
#    y 0.000000 1.614460 0.000000 
#    z -0.001570 0.000000 1.670650 
# 
# From -- ./inp_files/232800.got.cif
#   From: 2010.05.17/outbox.cif.g08.bks.cpg/sg15_117_cif.got.tgz:232800.got - 2010.06.03 18:47:42.
