data_PCOD9255418
_publ_section_title
;
Structure prediction by ZEFSAII (Michael W. Deem and Ramdas Pophale) SiO2 
 PCOD9255418
Probable space group: C 2/C
;
_chemical_formula_sum "Si O2"
_cell_formula_units_Z 56
_cell_length_a 13.846482
_cell_length_b 14.099735
_cell_length_c 23.387071
_cell_angle_alpha 90.000000
_cell_angle_beta 31.751732
_cell_angle_gamma 90.000000
_cell_volume 2402.756604
_symmetry_space_group_name_H-M "C 2/C"
_symmetry_group_IT_number 15
_symmetry_cell_setting 'monoclinic'
loop_
_space_group_symop_operation_xyz
x,y,z
-x,y,1/2-z
-x,-y,-z
x,-y,1/2+z
1/2+x,1/2+y,z
1/2-x,1/2+y,1/2-z
1/2-x,1/2-y,-z
1/2+x,1/2-y,1/2+z
loop_
_atom_site_type_symbol
_atom_site_label
_atom_site_fract_x
_atom_site_fract_y
_atom_site_fract_z
Si Si1 0.331981 0.005544 0.790479
Si Si2 0.335182 0.207656 0.286557
Si Si3 0.168809 0.425869 0.919688
Si Si4 0.640432 0.592082 0.729539
Si Si5 0.845191 0.496628 0.956880
Si Si6 0.468059 0.406176 0.441660
Si Si7 0.520773 0.198088 0.068141
O O1 0.500000 0.020365 0.750000
O O2 0.151955 0.070769 0.884445
O O3 0.251536 0.897812 0.833411
O O4 0.451066 0.015460 0.670980
O O5 0.500000 0.202414 0.250000
O O6 0.235697 0.311261 0.338439
O O7 0.420720 0.207675 0.179523
O O8 0.305878 0.484830 0.811387
O O9 0.117466 0.330929 0.912796
O O10 0.210649 0.428448 0.966094
O O11 0.000000 0.500000 0.000000
O O12 0.500000 0.612136 0.750000
O O13 0.550444 0.592182 0.836229
O O14 0.850619 0.393004 0.985552
O O15 0.698375 0.480581 0.980238
O O16 0.392917 0.299723 0.489709
#
# Coordination Sequence:
#
# PCOD9255418 Si02
#       7
#     8   8   8   8   8   8   8
#     4  10  22  41  60  82 121 159 208 256 310 370
#     4   8  16  31  53  80 113 152 201 252 291 345
#     4  10  19  34  54  88 125 154 187 257 325 359
#     4  10  17  30  55  89 116 151 201 252 303 356
#     4  10  20  37  63  89 119 154 211 266 306 362
#     4  11  20  35  62  88 121 166 204 247 309 374
#     4   9  19  33  54  91 124 152 196 255 318 360
#
# _framework density 23.306563000000001
#
# number of rings (size 3 to 8) (size 9 to 14) (size 15 to 20)
#    0.000    2.286    1.429    3.000    0.000    0.571 
#    7.714    0.714    3.143    0.857    0.000    0.000 
#    0.000    0.000    0.000    0.000    0.000    0.000 
#
# Total GULP energy -155967.798278 kJ/mol
# GULP energy per Si atom -5570.278510 kJ/mol
# Density = 2.325352 g / cm^3
# Si number density = 23.306563 Si / 1000 Ang^3
#
#
#
# Elastic Constant Matrix: (Units=GPa)
#
#
# Indices 1 2 3 4 5 6 
#
# 1 109.3169 27.6550 22.0412 0.0002 4.6579 0.0004
# 2 27.6550 43.7543 17.3935 -0.0012 4.3573 -0.0008
# 3 22.0412 17.3935 58.7821 -0.0033 -2.7789 0.0061
# 4 0.0002 -0.0012 -0.0033 64.6647 -0.0008 77.8155
# 5 4.6579 4.3573 -2.7789 -0.0008 36.2680 -0.0016
# 6 0.0004 -0.0008 0.0061 77.8155 -0.0016 211.5430
#
#
#
# Elastic Compliance Matrix: (Units=1/GPa)
#
#
# Indices 1 2 3 4 5 6 
#
# 1 0.011204 -0.006011 -0.002465 -0.000001 -0.000906 0.000000
# 2 -0.006011 0.029635 -0.006671 0.000000 -0.003299 0.000000
# 3 -0.002465 -0.006671 0.020036 0.000003 0.002653 -0.000002
# 4 -0.000001 0.000000 0.000003 0.027747 0.000001 -0.010206
# 5 -0.000906 -0.003299 0.002653 0.000001 0.028288 0.000000
# 6 0.000000 0.000000 -0.000002 -0.010206 0.000000 0.008482
#
#
# Mechanical properties :
#
#
# Convention : Reuss Voigt Hill
#
# Bulk Modulus (GPa) = 32.70132 38.44805 35.57469
# Shear Modulus (GPa) = 30.14239 72.14605 51.14422
#
# Velocity S-wave (km/s) = 3.60015 5.56978 4.68954
# Velocity P-wave (km/s) = 5.59847 7.60893 6.67977
#
# Compressibility (1/GPa) = 0.03057980
#
# Stress axis : x y z
#
# Youngs Moduli (GPa) = 89.25278 33.74406 49.91106
#
# Poissons Ratio (x) = 0.20285 0.12304
# Poissons Ratio (y) = 0.53654 0.33295
# Poissons Ratio (z) = 0.22003 0.22510
#
# Static dielectric constant tensor:
#      x y z
#    x 1.976290 0.000010 0.009060 
#    y 0.000010 -0.289870 -0.000320 
#    z 0.009060 -0.000320 1.573170 
# 
# From -- ./inp_files/296540.got.cif
#   From: 2010.05.17/outbox.cif.g08.bks.cpg/sg15_149_cif.got.tgz:296540.got - 2010.06.03 18:47:42.
