data_PCOD9255864
_publ_section_title
;
Structure prediction by ZEFSAII (Michael W. Deem and Ramdas Pophale) SiO2 
 PCOD9255864
Probable space group: C 2/C
;
_chemical_formula_sum "Si O2"
_cell_formula_units_Z 48
_cell_length_a 18.086300
_cell_length_b 9.367961
_cell_length_c 13.618411
_cell_angle_alpha 90.000000
_cell_angle_beta 131.095358
_cell_angle_gamma 90.000000
_cell_volume 1738.888462
_symmetry_space_group_name_H-M "C 2/C"
_symmetry_group_IT_number 15
_symmetry_cell_setting 'monoclinic'
loop_
_space_group_symop_operation_xyz
x,y,z
-x,y,1/2-z
-x,-y,-z
x,-y,1/2+z
1/2+x,1/2+y,z
1/2-x,1/2+y,1/2-z
1/2-x,1/2-y,-z
1/2+x,1/2-y,1/2+z
loop_
_atom_site_type_symbol
_atom_site_label
_atom_site_fract_x
_atom_site_fract_y
_atom_site_fract_z
Si Si1 0.219939 0.927393 0.600560
Si Si2 0.667601 0.657396 0.848065
Si Si3 0.512390 0.805430 0.503648
Si Si4 0.585948 0.425432 0.671071
Si Si5 0.866662 0.653013 0.699003
Si Si6 0.621314 0.012003 0.492247
O O1 0.312722 0.821032 0.661018
O O2 0.154135 0.882713 0.449583
O O3 0.164231 0.901515 0.652522
O O4 0.260955 0.087653 0.632045
O O5 0.586047 0.584125 0.711167
O O6 0.771578 0.581978 0.912028
O O7 0.510876 0.644299 0.460780
O O8 0.437631 0.871788 0.353913
O O9 0.610857 0.888999 0.565544
O O10 0.457214 0.862792 0.551819
O O11 0.622492 0.324558 0.793910
O O12 0.893271 0.572686 0.622315
#
# Coordination Sequence:
#
# PCOD9255864 Si02
#       6
#     8   8   8   8   8   8
#     4  10  18  32  52  81 116 147 183 234 287 338
#     4  10  20  32  54  85 116 149 185 235 289 333
#     4   9  19  32  54  83 109 145 185 240 275 325
#     4  10  19  35  52  86 114 148 186 237 285 328
#     4   9  20  32  56  84 109 151 187 233 280 330
#     4  10  17  33  53  84 110 140 191 235 273 327
#
# _framework density 27.603840000000002
#
# number of rings (size 3 to 8) (size 9 to 14) (size 15 to 20)
#    1.000    1.333    1.667    2.500    0.000    2.667 
#    0.000    1.667    0.000    0.000   30.333   14.000 
#    0.000    0.000    0.000    0.000    0.000    0.000 
#
# Total GULP energy -134152.883921 kJ/mol
# GULP energy per Si atom -5589.703497 kJ/mol
# Density = 2.754101 g / cm^3
# Si number density = 27.603840 Si / 1000 Ang^3
#
#
#
# Elastic Constant Matrix: (Units=GPa)
#
#
# Indices 1 2 3 4 5 6 
#
# 1 88.9356 3.9782 8.9294 0.0000 -10.3389 0.0000
# 2 3.9782 76.6804 23.9667 0.0000 5.1583 0.0000
# 3 8.9294 23.9667 127.9616 0.0000 -16.4064 0.0000
# 4 0.0000 0.0000 0.0000 48.6266 0.0000 2.0379
# 5 -10.3389 5.1583 -16.4064 0.0000 35.3397 0.0000
# 6 0.0000 0.0000 0.0000 2.0379 0.0000 31.5110
#
#
#
# Elastic Compliance Matrix: (Units=1/GPa)
#
#
# Indices 1 2 3 4 5 6 
#
# 1 0.011700 -0.000764 -0.000234 0.000000 0.003426 0.000000
# 2 -0.000764 0.014304 -0.003107 0.000000 -0.003754 0.000000
# 3 -0.000234 -0.003107 0.008998 0.000000 0.004562 0.000000
# 4 0.000000 0.000000 0.000000 0.020621 0.000000 -0.001334
# 5 0.003426 -0.003754 0.004562 0.000000 0.031965 0.000000
# 6 0.000000 0.000000 0.000000 -0.001334 0.000000 0.031821
#
#
# Mechanical properties :
#
#
# Convention : Reuss Voigt Hill
#
# Bulk Modulus (GPa) = 37.32518 40.81404 39.06961
# Shear Modulus (GPa) = 36.61631 40.20902 38.41267
#
# Velocity S-wave (km/s) = 3.64606 3.82074 3.73442
# Velocity P-wave (km/s) = 5.59250 5.85507 5.72529
#
# Compressibility (1/GPa) = 0.02679156
#
# Stress axis : x y z
#
# Youngs Moduli (GPa) = 85.46980 69.90820 111.13465
#
# Poissons Ratio (x) = 0.05343 0.02601
# Poissons Ratio (y) = 0.06533 0.34531
# Poissons Ratio (z) = 0.02001 0.21722
#
# Static dielectric constant tensor:
#      x y z
#    x 2.159570 0.000000 0.033730 
#    y 0.000000 2.281660 0.000000 
#    z 0.033730 0.000000 2.208310 
# 
# From -- ./inp_files/166396.got.cif
#   From: 2010.05.17/outbox.cif.g08.bks.cpg/sg15_84_cif.got.tgz:166396.got - 2010.06.03 18:47:42.
