data_PCOD9255707
_publ_section_title
;
Structure prediction by ZEFSAII (Michael W. Deem and Ramdas Pophale) SiO2 
 PCOD9255707
Probable space group: C 2/C
;
_chemical_formula_sum "Si O2"
_cell_formula_units_Z 40
_cell_length_a 12.812518
_cell_length_b 4.912855
_cell_length_c 26.010778
_cell_angle_alpha 90.000000
_cell_angle_beta 83.835764
_cell_angle_gamma 90.000000
_cell_volume 1627.809127
_symmetry_space_group_name_H-M "C 2/C"
_symmetry_group_IT_number 15
_symmetry_cell_setting 'monoclinic'
loop_
_space_group_symop_operation_xyz
x,y,z
-x,y,1/2-z
-x,-y,-z
x,-y,1/2+z
1/2+x,1/2+y,z
1/2-x,1/2+y,1/2-z
1/2-x,1/2-y,-z
1/2+x,1/2-y,1/2+z
loop_
_atom_site_type_symbol
_atom_site_label
_atom_site_fract_x
_atom_site_fract_y
_atom_site_fract_z
Si Si1 0.457815 0.215884 0.026315
Si Si2 0.133554 0.668946 0.359763
Si Si3 0.676434 0.169461 0.248131
Si Si4 0.723217 0.841623 0.637121
Si Si5 0.297197 0.027567 0.975483
O O1 0.444374 0.170135 0.088279
O O2 0.574118 0.028737 0.014760
O O3 0.500000 0.500000 0.000000
O O4 0.319008 0.280081 0.021002
O O5 0.104791 0.609901 0.301617
O O6 0.229452 0.462414 0.369404
O O7 0.175486 0.975710 0.355547
O O8 0.723362 0.472801 0.247677
O O9 0.646597 0.130121 0.190161
O O10 0.685695 0.973229 0.586515
O O11 0.250000 0.750000 0.000000
#
# Coordination Sequence:
#
# PCOD9255707 Si02
#       5
#     8   8   8   8   8
#     4  12  24  36  52  80 118 153 186 224 288 349
#     4  10  18  33  52  77 110 139 179 229 281 336
#     4   8  16  27  49  78 103 129 171 231 283 317
#     4  10  17  32  54  81 103 135 183 237 281 325
#     4  12  21  36  57  80 110 148 188 239 282 331
#
# _framework density 24.572906
#
# number of rings (size 3 to 8) (size 9 to 14) (size 15 to 20)
#    0.000    1.600    4.000    2.400    0.000    0.000 
#    0.000    0.000    0.000    1.200    0.000    2.800 
#    0.000    0.000    0.000    0.000    0.000    0.000 
#
# Total GULP energy -111376.236394 kJ/mol
# GULP energy per Si atom -5568.811820 kJ/mol
# Density = 2.451698 g / cm^3
# Si number density = 24.572906 Si / 1000 Ang^3
#
#
#
# Elastic Constant Matrix: (Units=GPa)
#
#
# Indices 1 2 3 4 5 6 
#
# 1 128.1437 14.0934 95.1792 0.0000 -19.7045 0.0000
# 2 14.0934 115.0043 78.9811 0.0000 -13.3289 0.0000
# 3 95.1792 78.9811 309.4115 0.0000 -41.3646 0.0000
# 4 0.0000 0.0000 0.0000 33.5649 0.0000 -5.8435
# 5 -19.7045 -13.3289 -41.3646 0.0000 31.1797 0.0000
# 6 0.0000 0.0000 0.0000 -5.8435 0.0000 37.4722
#
#
#
# Elastic Compliance Matrix: (Units=1/GPa)
#
#
# Indices 1 2 3 4 5 6 
#
# 1 0.010450 0.001211 -0.003126 0.000000 0.002974 0.000000
# 2 0.001211 0.010717 -0.002909 0.000000 0.001487 0.000000
# 3 -0.003126 -0.002909 0.005477 0.000000 0.004047 0.000000
# 4 0.000000 0.000000 0.000000 0.030624 0.000000 0.004776
# 5 0.002974 0.001487 0.004047 0.000000 0.039957 0.000000
# 6 0.000000 0.000000 0.000000 0.004776 0.000000 0.027431
#
#
# Mechanical properties :
#
#
# Convention : Reuss Voigt Hill
#
# Bulk Modulus (GPa) = 58.83912 103.22966 81.03439
# Shear Modulus (GPa) = 35.72172 44.73042 40.22607
#
# Velocity S-wave (km/s) = 3.81688 4.27114 4.05039
# Velocity P-wave (km/s) = 6.58950 8.15011 7.41100
#
# Compressibility (1/GPa) = 0.01699550
#
# Stress axis : x y z
#
# Youngs Moduli (GPa) = 95.69609 93.30632 182.57299
#
# Poissons Ratio (x) = -0.11299 0.57071
# Poissons Ratio (y) = -0.11588 0.53119
# Poissons Ratio (z) = 0.29914 0.27147
#
# Static dielectric constant tensor:
#      x y z
#    x 2.244920 0.000000 -0.150180 
#    y 0.000000 1.769390 0.000000 
#    z -0.150180 0.000000 2.408470 
# 
# From -- ./inp_files/271693.got.cif
#   From: 2010.05.17/outbox.cif.g08.bks.cpg/sg15_136_cif.got.tgz:271693.got - 2010.06.03 18:47:42.
