data_PCOD9255317
_publ_section_title
;
Structure prediction by ZEFSAII (Michael W. Deem and Ramdas Pophale) SiO2 
 PCOD9255317
Probable space group: C 2/C
;
_chemical_formula_sum "Si O2"
_cell_formula_units_Z 64
_cell_length_a 29.437488
_cell_length_b 21.631703
_cell_length_c 16.954016
_cell_angle_alpha 90.000000
_cell_angle_beta 18.017754
_cell_angle_gamma 90.000000
_cell_volume 3339.337900
_symmetry_space_group_name_H-M "C 2/C"
_symmetry_group_IT_number 15
_symmetry_cell_setting 'monoclinic'
loop_
_space_group_symop_operation_xyz
x,y,z
-x,y,1/2-z
-x,-y,-z
x,-y,1/2+z
1/2+x,1/2+y,z
1/2-x,1/2+y,1/2-z
1/2-x,1/2-y,-z
1/2+x,1/2-y,1/2+z
loop_
_atom_site_type_symbol
_atom_site_label
_atom_site_fract_x
_atom_site_fract_y
_atom_site_fract_z
Si Si1 0.915610 0.430074 0.211524
Si Si2 0.734462 0.471369 0.649401
Si Si3 0.350939 0.798869 0.380939
Si Si4 0.010119 0.074849 0.055064
Si Si5 0.195824 0.288002 0.856962
Si Si6 0.124285 0.840364 0.481592
Si Si7 0.238119 0.414523 0.729273
Si Si8 0.309494 0.464767 0.033193
O O1 0.859610 0.472057 0.376670
O O2 0.837894 0.363871 0.356773
O O3 0.851671 0.458417 0.237940
O O4 0.085936 0.416563 0.933598
O O5 0.597497 0.431476 0.841105
O O6 0.792485 0.440372 0.632543
O O7 0.657541 0.536714 0.793681
O O8 0.250000 0.750000 0.500000
O O9 0.302924 0.804006 0.551846
O O10 0.527753 0.787816 0.099343
O O11 0.919754 0.044294 0.277408
O O12 0.050623 0.142037 0.020215
O O13 0.280452 0.342787 0.671444
O O14 0.237273 0.215561 0.785282
O O15 0.176461 0.905915 0.431868
O O16 0.000000 0.819756 0.750000
O O17 0.333094 0.468631 0.533004
#
# Coordination Sequence:
#
# PCOD9255317 Si02
#       8
#     8   8   8   8   8   8   8   8
#     4  10  20  31  49  72 103 135 169 202 254 312
#     4  10  18  32  50  72 101 126 170 216 250 300
#     4  10  18  29  45  69 103 135 159 199 256 312
#     4   9  20  32  50  78  96 128 172 213 265 290
#     4  10  20  29  45  73 104 133 165 199 256 319
#     4  10  17  30  49  73 103 128 163 210 259 301
#     4  11  20  33  47  73 107 137 167 202 257 312
#     4  10  20  33  51  72 103 135 168 213 248 309
#
# _framework density 19.165476000000002
#
# number of rings (size 3 to 8) (size 9 to 14) (size 15 to 20)
#    0.000    2.000    3.750    1.500    3.500    0.000 
#    0.000    0.000    0.000    0.000    0.000   11.375 
#    0.000    0.000    0.000    0.125    0.000    0.000 
#
# Total GULP energy -178221.748682 kJ/mol
# GULP energy per Si atom -5569.429646 kJ/mol
# Density = 1.912185 g / cm^3
# Si number density = 19.165476 Si / 1000 Ang^3
#
#
#
# Elastic Constant Matrix: (Units=GPa)
#
#
# Indices 1 2 3 4 5 6 
#
# 1 71.9303 26.3265 -3.2230 0.0031 -13.5316 -0.0003
# 2 26.3265 128.7265 16.6614 0.0008 4.8956 -0.0028
# 3 -3.2230 16.6614 20.4249 -0.0029 -6.1144 -0.0011
# 4 0.0031 0.0008 -0.0029 24.3924 -0.0021 0.7572
# 5 -13.5316 4.8956 -6.1144 -0.0021 18.3389 0.0007
# 6 -0.0003 -0.0028 -0.0011 0.7572 0.0007 31.0664
#
#
#
# Elastic Compliance Matrix: (Units=1/GPa)
#
#
# Indices 1 2 3 4 5 6 
#
# 1 0.021870 -0.007536 0.016698 0.000001 0.023716 0.000000
# 2 -0.007536 0.011753 -0.014864 -0.000002 -0.013654 0.000001
# 3 0.016698 -0.014864 0.076201 0.000011 0.041695 0.000000
# 4 0.000001 -0.000002 0.000011 0.041027 0.000010 -0.001000
# 5 0.023716 -0.013654 0.041695 0.000010 0.089575 -0.000002
# 6 0.000000 0.000001 0.000000 -0.001000 -0.000002 0.032214
#
#
# Mechanical properties :
#
#
# Convention : Reuss Voigt Hill
#
# Bulk Modulus (GPa) = 10.16042 33.40129 21.78086
# Shear Modulus (GPa) = 15.78035 26.84733 21.31384
#
# Velocity S-wave (km/s) = 2.87256 3.74681 3.33843
# Velocity P-wave (km/s) = 4.03919 6.01530 5.12342
#
# Compressibility (1/GPa) = 0.09842108
#
# Stress axis : x y z
#
# Youngs Moduli (GPa) = 45.72414 85.08661 13.12317
#
# Poissons Ratio (x) = 0.64122 -0.21913
# Poissons Ratio (y) = 0.34458 0.19506
# Poissons Ratio (z) = -0.76351 1.26469
#
# Static dielectric constant tensor:
#      x y z
#    x 1.703040 0.000000 -0.041060 
#    y 0.000000 1.751980 0.000000 
#    z -0.041060 0.000000 1.703270 
# 
# From -- ./inp_files/225864.got.cif
#   From: 2010.05.17/outbox.cif.g08.bks.cpg/sg15_113_cif.got.tgz:225864.got - 2010.06.03 18:47:42.
