data_PCOD9255574
_publ_section_title
;
Structure prediction by ZEFSAII (Michael W. Deem and Ramdas Pophale) SiO2 
 PCOD9255574
Probable space group: C 2/C
;
_chemical_formula_sum "Si O2"
_cell_formula_units_Z 64
_cell_length_a 10.112726
_cell_length_b 17.081640
_cell_length_c 18.536460
_cell_angle_alpha 90.000000
_cell_angle_beta 96.082334
_cell_angle_gamma 90.000000
_cell_volume 3183.998874
_symmetry_space_group_name_H-M "C 2/C"
_symmetry_group_IT_number 15
_symmetry_cell_setting 'monoclinic'
loop_
_space_group_symop_operation_xyz
x,y,z
-x,y,1/2-z
-x,-y,-z
x,-y,1/2+z
1/2+x,1/2+y,z
1/2-x,1/2+y,1/2-z
1/2-x,1/2-y,-z
1/2+x,1/2-y,1/2+z
loop_
_atom_site_type_symbol
_atom_site_label
_atom_site_fract_x
_atom_site_fract_y
_atom_site_fract_z
Si Si1 0.762644 0.627006 0.520372
Si Si2 0.204731 0.917525 0.854321
Si Si3 0.804557 0.298480 0.757647
Si Si4 0.521580 0.738163 0.861805
Si Si5 0.100480 0.934603 0.408818
Si Si6 0.527481 0.746455 0.487003
Si Si7 0.085208 0.836329 0.651810
Si Si8 0.673776 0.473624 0.571649
O O1 0.764058 0.604597 0.435851
O O2 0.622418 0.673723 0.517542
O O3 0.877200 0.688693 0.541297
O O4 0.768700 0.548365 0.567370
O O5 0.295904 0.882179 0.797277
O O6 0.060069 0.873828 0.841003
O O7 0.179630 0.009809 0.857925
O O8 0.894139 0.284798 0.692474
O O9 0.655597 0.288071 0.718844
O O10 0.870323 0.242910 0.822407
O O11 0.571966 0.649401 0.873321
O O12 0.533883 0.774935 0.941797
O O13 0.167871 0.932619 0.492193
O O14 0.966915 0.983729 0.419115
O O15 0.431061 0.715714 0.420417
O O16 0.181388 0.908361 0.633578
#
# Coordination Sequence:
#
# PCOD9255574 Si02
#       8
#     8   8   8   8   8   8   8   8
#     4   9  16  28  58  88 116 145 186 246 292 347
#     4   9  18  35  58  83 117 150 192 238 298 350
#     4  11  24  37  50  83 121 166 189 235 299 360
#     4  11  21  38  57  80 119 155 200 234 288 360
#     4   9  16  32  58  88 111 138 193 250 285 332
#     4  10  17  31  56  88 113 150 192 239 292 341
#     4  10  20  34  57  83 113 148 193 253 289 339
#     4   9  15  30  56  90 114 132 184 252 300 323
#
# _framework density 20.100508000000001
#
# number of rings (size 3 to 8) (size 9 to 14) (size 15 to 20)
#    0.000    2.250    3.750    1.875    0.000    0.500 
#    9.000    0.000    0.000    3.750    0.000    0.000 
#    0.000    0.000    0.000    0.000    0.000    0.000 
#
# Total GULP energy -178197.639932 kJ/mol
# GULP energy per Si atom -5568.676248 kJ/mol
# Density = 2.005476 g / cm^3
# Si number density = 20.100508 Si / 1000 Ang^3
#
#
#
# Elastic Constant Matrix: (Units=GPa)
#
#
# Indices 1 2 3 4 5 6 
#
# 1 19.6707 31.6845 15.2307 0.0000 -6.8630 0.0000
# 2 31.6845 93.0409 29.7904 0.0000 -6.5613 0.0000
# 3 15.2307 29.7904 61.6938 0.0000 -20.0093 0.0000
# 4 0.0000 0.0000 0.0000 25.3296 0.0000 -10.0797
# 5 -6.8630 -6.5613 -20.0093 0.0000 26.1745 0.0000
# 6 0.0000 0.0000 0.0000 -10.0797 0.0000 27.8717
#
#
#
# Elastic Compliance Matrix: (Units=1/GPa)
#
#
# Indices 1 2 3 4 5 6 
#
# 1 0.125626 -0.039589 -0.005894 0.000000 0.018509 0.000000
# 2 -0.039589 0.025269 -0.004974 0.000000 -0.007848 0.000000
# 3 -0.005894 -0.004974 0.025477 0.000000 0.016684 0.000000
# 4 0.000000 0.000000 0.000000 0.046116 0.000000 0.016678
# 5 0.018509 -0.007848 0.016684 0.000000 0.053845 0.000000
# 6 0.000000 0.000000 0.000000 0.016678 0.000000 0.041910
#
#
# Mechanical properties :
#
#
# Convention : Reuss Voigt Hill
#
# Bulk Modulus (GPa) = 13.25228 36.42406 24.83817
# Shear Modulus (GPa) = 11.25340 22.38846 16.82093
#
# Velocity S-wave (km/s) = 2.36870 3.34102 2.89596
# Velocity P-wave (km/s) = 3.75344 5.74835 4.85447
#
# Compressibility (1/GPa) = 0.07545873
#
# Stress axis : x y z
#
# Youngs Moduli (GPa) = 7.96011 39.57465 39.25114
#
# Poissons Ratio (x) = 1.56671 0.23136
# Poissons Ratio (y) = 0.31513 0.19522
# Poissons Ratio (z) = 0.04692 0.19683
#
# Static dielectric constant tensor:
#      x y z
#    x 1.782720 0.000000 -0.019960 
#    y 0.000000 1.715750 0.000000 
#    z -0.019960 0.000000 1.740750 
# 
# From -- ./inp_files/199210.got.cif
#   From: 2010.05.17/outbox.cif.g08.bks.cpg/sg15_100_cif.got.tgz:199210.got - 2010.06.03 18:47:42.
