data_PCOD9255552
_publ_section_title
;
Structure prediction by ZEFSAII (Michael W. Deem and Ramdas Pophale) SiO2 
 PCOD9255552
Probable space group: C 2/C
;
_chemical_formula_sum "Si O2"
_cell_formula_units_Z 64
_cell_length_a 13.063237
_cell_length_b 10.560070
_cell_length_c 20.588900
_cell_angle_alpha 90.000000
_cell_angle_beta 84.435638
_cell_angle_gamma 90.000000
_cell_volume 2826.828580
_symmetry_space_group_name_H-M "C 2/C"
_symmetry_group_IT_number 15
_symmetry_cell_setting 'monoclinic'
loop_
_space_group_symop_operation_xyz
x,y,z
-x,y,1/2-z
-x,-y,-z
x,-y,1/2+z
1/2+x,1/2+y,z
1/2-x,1/2+y,1/2-z
1/2-x,1/2-y,-z
1/2+x,1/2-y,1/2+z
loop_
_atom_site_type_symbol
_atom_site_label
_atom_site_fract_x
_atom_site_fract_y
_atom_site_fract_z
Si Si1 0.502268 0.359396 0.426040
Si Si2 0.612662 0.791170 0.824214
Si Si3 0.327742 0.504639 0.003559
Si Si4 0.259413 0.106325 0.363407
Si Si5 0.524577 0.588704 0.325070
Si Si6 0.388118 0.050042 0.753638
Si Si7 0.314668 0.620662 0.370447
Si Si8 0.805562 0.855447 0.297073
O O1 0.531791 0.234019 0.385995
O O2 0.595307 0.405819 0.466025
O O3 0.399703 0.380606 0.473167
O O4 0.500878 0.461155 0.367563
O O5 0.596213 0.927086 0.793322
O O6 0.725352 0.789711 0.850186
O O7 0.618397 0.690009 0.764834
O O8 0.253324 0.559177 0.062607
O O9 0.286066 0.433060 0.943009
O O10 0.144264 0.109493 0.337250
O O11 0.331846 0.009709 0.319545
O O12 0.305274 0.246642 0.351200
O O13 0.500000 0.582700 0.250000
O O14 0.430897 0.674926 0.360202
O O15 0.500000 0.110105 0.750000
O O16 0.307648 0.144543 0.727116
O O17 0.314974 0.497199 0.322992
#
# Coordination Sequence:
#
# PCOD9255552 Si02
#       8
#     8   8   8   8   8   8   8   8
#     4   9  18  32  54  79 111 140 178 230 264 316
#     4  10  20  36  57  83 108 142 185 226 277 321
#     4   9  19  36  53  79 110 144 183 222 271 321
#     4  10  21  37  57  78 110 147 181 223 272 332
#     4  10  17  31  55  82 105 136 181 228 275 315
#     4  10  22  38  55  80 112 141 178 228 278 324
#     4  10  21  34  54  82 113 142 181 229 268 328
#     4  10  20  36  55  81 111 139 179 230 275 322
#
# _framework density 22.640212999999999
#
# number of rings (size 3 to 8) (size 9 to 14) (size 15 to 20)
#    0.000    2.250    0.000    5.250    0.000    7.000 
#    0.000    1.250    0.000    3.000    0.000    0.000 
#    0.000    0.000    0.000    0.000    0.000    0.000 
#
# Total GULP energy -178680.041709 kJ/mol
# GULP energy per Si atom -5583.751303 kJ/mol
# Density = 2.258868 g / cm^3
# Si number density = 22.640213 Si / 1000 Ang^3
#
#
#
# Elastic Constant Matrix: (Units=GPa)
#
#
# Indices 1 2 3 4 5 6 
#
# 1 103.1338 -1.2394 21.4333 0.0000 -7.0386 0.0000
# 2 -1.2394 41.8583 35.8712 0.0000 -11.2856 0.0000
# 3 21.4333 35.8712 158.5511 0.0000 -16.4265 0.0000
# 4 0.0000 0.0000 0.0000 26.9934 0.0000 -0.6630
# 5 -7.0386 -11.2856 -16.4265 0.0000 33.3794 0.0000
# 6 0.0000 0.0000 0.0000 -0.6630 0.0000 8.7516
#
#
#
# Elastic Compliance Matrix: (Units=1/GPa)
#
#
# Indices 1 2 3 4 5 6 
#
# 1 0.010218 0.002317 -0.001687 0.000000 0.002108 0.000000
# 2 0.002317 0.031840 -0.006692 0.000000 0.007960 0.000000
# 3 -0.001687 -0.006692 0.008196 0.000000 0.001415 0.000000
# 4 0.000000 0.000000 0.000000 0.037115 0.000000 0.002812
# 5 0.002108 0.007960 0.001415 0.000000 0.033791 0.000000
# 6 0.000000 0.000000 0.000000 0.002812 0.000000 0.114478
#
#
# Mechanical properties :
#
#
# Convention : Reuss Voigt Hill
#
# Bulk Modulus (GPa) = 26.22670 46.18595 36.20633
# Shear Modulus (GPa) = 19.19591 30.32343 24.75967
#
# Velocity S-wave (km/s) = 2.91498 3.66370 3.31057
# Velocity P-wave (km/s) = 4.78944 6.19202 5.53534
#
# Compressibility (1/GPa) = 0.03812908
#
# Stress axis : x y z
#
# Youngs Moduli (GPa) = 97.86230 31.40721 122.01372
#
# Poissons Ratio (x) = -0.07276 0.20585
# Poissons Ratio (y) = -0.22671 0.81652
# Poissons Ratio (z) = 0.16510 0.21018
#
# Static dielectric constant tensor:
#      x y z
#    x 1.981760 0.000000 0.010570 
#    y 0.000000 1.860560 0.000000 
#    z 0.010570 0.000000 1.832120 
# 
# From -- ./inp_files/243725.got.cif
#   From: 2010.05.17/outbox.cif.g08.bks.cpg/sg15_122_cif.got.tgz:243725.got - 2010.06.03 18:47:42.
