data_PCOD9255696
_publ_section_title
;
Structure prediction by ZEFSAII (Michael W. Deem and Ramdas Pophale) SiO2 
 PCOD9255696
Probable space group: C 2/C
;
_chemical_formula_sum "Si O2"
_cell_formula_units_Z 56
_cell_length_a 17.284033
_cell_length_b 9.674465
_cell_length_c 24.280139
_cell_angle_alpha 90.000000
_cell_angle_beta 48.126924
_cell_angle_gamma 90.000000
_cell_volume 3023.159032
_symmetry_space_group_name_H-M "C 2/C"
_symmetry_group_IT_number 15
_symmetry_cell_setting 'monoclinic'
loop_
_space_group_symop_operation_xyz
x,y,z
-x,y,1/2-z
-x,-y,-z
x,-y,1/2+z
1/2+x,1/2+y,z
1/2-x,1/2+y,1/2-z
1/2-x,1/2-y,-z
1/2+x,1/2-y,1/2+z
loop_
_atom_site_type_symbol
_atom_site_label
_atom_site_fract_x
_atom_site_fract_y
_atom_site_fract_z
Si Si1 0.044864 0.932934 0.034152
Si Si2 0.247669 0.496052 0.617385
Si Si3 0.916158 0.286969 0.337851
Si Si4 0.198749 0.066374 0.175572
Si Si5 0.140859 0.228736 0.860112
Si Si6 0.564402 0.664489 0.345320
Si Si7 0.769449 0.239596 0.805381
O O1 0.981762 0.792267 0.073862
O O2 0.002578 0.037876 0.100012
O O3 0.166758 0.934015 0.964963
O O4 0.000000 0.000000 0.000000
O O5 0.167579 0.592758 0.623846
O O6 0.302427 0.597619 0.636851
O O7 0.196366 0.371450 0.675434
O O8 0.858460 0.143094 0.347944
O O9 0.000000 0.314337 0.250000
O O10 0.981417 0.273507 0.362253
O O11 0.309404 0.139313 0.133856
O O12 0.130313 0.110692 0.261568
O O13 0.212006 0.902511 0.170931
O O14 0.172804 0.230012 0.780942
O O15 0.648254 0.728063 0.347656
#
# Coordination Sequence:
#
# PCOD9255696 Si02
#       7
#     8   8   8   8   8   8   8
#     4  10  17  32  53  84 112 141 186 225 277 319
#     4  10  20  33  55  80 111 144 181 232 272 332
#     4   9  20  36  53  78 112 140 183 227 277 325
#     4   9  18  31  53  80 109 139 181 229 273 321
#     4   9  16  30  51  79 106 141 182 227 263 321
#     4  10  18  32  57  81 106 144 185 226 267 328
#     4  11  17  31  57  85 102 135 192 229 265 312
#
# _framework density 18.523669999999999
#
# number of rings (size 3 to 8) (size 9 to 14) (size 15 to 20)
#    0.000    2.286    4.286    1.714    0.000    0.571 
#    0.000    2.857    3.143    0.857    0.000    0.000 
#    0.000    0.000    0.000    0.000    0.000    0.000 
#
# Total GULP energy -155985.381407 kJ/mol
# GULP energy per Si atom -5570.906479 kJ/mol
# Density = 1.848151 g / cm^3
# Si number density = 18.523670 Si / 1000 Ang^3
#
#
#
# Elastic Constant Matrix: (Units=GPa)
#
#
# Indices 1 2 3 4 5 6 
#
# 1 46.6479 5.3646 -1.7132 0.0000 -4.2100 0.0000
# 2 5.3646 58.2096 -19.6906 0.0000 4.8961 0.0001
# 3 -1.7132 -19.6906 25.8491 0.0000 -1.6667 0.0000
# 4 0.0000 0.0000 0.0000 22.7730 0.0000 -4.5270
# 5 -4.2100 4.8961 -1.6667 0.0000 10.8316 0.0000
# 6 0.0000 0.0001 0.0000 -4.5270 0.0000 13.4030
#
#
#
# Elastic Compliance Matrix: (Units=1/GPa)
#
#
# Indices 1 2 3 4 5 6 
#
# 1 0.022692 -0.002984 -0.000114 0.000000 0.010151 0.000000
# 2 -0.002984 0.024211 0.017640 0.000000 -0.009389 0.000000
# 3 -0.000114 0.017640 0.052116 0.000000 0.000001 0.000000
# 4 0.000000 0.000000 0.000000 0.047072 0.000000 0.015899
# 5 0.010151 -0.009389 0.000001 0.000000 0.100512 0.000000
# 6 0.000000 0.000000 0.000000 0.015899 0.000000 0.079980
#
#
# Mechanical properties :
#
#
# Convention : Reuss Voigt Hill
#
# Bulk Modulus (GPa) = 7.80632 10.95870 9.38251
# Shear Modulus (GPa) = 14.69718 19.18457 16.94088
#
# Velocity S-wave (km/s) = 2.81984 3.22169 3.02744
# Velocity P-wave (km/s) = 3.85037 4.44611 4.15892
#
# Compressibility (1/GPa) = 0.12810127
#
# Stress axis : x y z
#
# Youngs Moduli (GPa) = 44.06788 41.30360 19.18814
#
# Poissons Ratio (x) = 0.12324 0.00220
# Poissons Ratio (y) = 0.13149 -0.33847
# Poissons Ratio (z) = 0.00504 -0.72858
#
# Static dielectric constant tensor:
#      x y z
#    x 1.662250 0.000000 -0.016760 
#    y 0.000000 1.655990 0.000000 
#    z -0.016760 0.000000 1.685000 
# 
# From -- ./inp_files/246978.got.cif
#   From: 2010.05.17/outbox.cif.g08.bks.cpg/sg15_124_cif.got.tgz:246978.got - 2010.06.03 18:47:42.
