data_PCOD9255503
_publ_section_title
;
Structure prediction by ZEFSAII (Michael W. Deem and Ramdas Pophale) SiO2 
 PCOD9255503
Probable space group: C 2/C
;
_chemical_formula_sum "Si O2"
_cell_formula_units_Z 48
_cell_length_a 29.408942
_cell_length_b 11.269070
_cell_length_c 24.090889
_cell_angle_alpha 90.000000
_cell_angle_beta 15.218943
_cell_angle_gamma 90.000000
_cell_volume 2095.864513
_symmetry_space_group_name_H-M "C 2/C"
_symmetry_group_IT_number 15
_symmetry_cell_setting 'monoclinic'
loop_
_space_group_symop_operation_xyz
x,y,z
-x,y,1/2-z
-x,-y,-z
x,-y,1/2+z
1/2+x,1/2+y,z
1/2-x,1/2+y,1/2-z
1/2-x,1/2-y,-z
1/2+x,1/2-y,1/2+z
loop_
_atom_site_type_symbol
_atom_site_label
_atom_site_fract_x
_atom_site_fract_y
_atom_site_fract_z
Si Si1 0.905535 0.917974 0.554955
Si Si2 0.383453 0.206156 0.179335
Si Si3 0.797015 0.624944 0.972121
Si Si4 0.364459 0.988678 0.789874
Si Si5 0.725228 0.101949 0.380324
Si Si6 0.738576 0.140070 0.694297
O O1 0.769791 0.828400 0.682490
O O2 0.083048 0.843098 0.344849
O O3 0.856282 0.926972 0.677344
O O4 0.855390 0.043120 0.587137
O O5 0.347406 0.135407 0.278641
O O6 0.560581 0.160641 0.939435
O O7 0.769158 0.521885 0.959395
O O8 0.000000 0.629498 0.750000
O O9 0.750000 0.750000 0.000000
O O10 0.705981 0.605213 0.138154
O O11 0.565211 0.013739 0.565273
O O12 0.311117 0.083622 0.806053
O O13 0.670435 0.235768 0.427071
#
# Coordination Sequence:
#
# PCOD9255503 Si02
#       6
#     8   8   8   8   8   8
#     4  10  19  32  52  78 109 145 174 217 267 321
#     4  10  19  33  53  74 112 144 180 213 268 319
#     4  10  20  31  52  79 105 136 170 215 264 314
#     4  10  17  33  50  75 108 144 175 209 274 320
#     4  10  18  30  49  81 108 130 178 217 263 320
#     4  10  17  31  52  72 114 139 178 212 275 318
#
# _framework density 22.902245000000001
#
# number of rings (size 3 to 8) (size 9 to 14) (size 15 to 20)
#    0.000    2.000    5.000    1.000    0.000    0.000 
#    0.000    5.000    0.000    0.000    0.000   52.500 
#    0.000    0.000    0.000    0.000    0.000    0.000 
#
# Total GULP energy -134134.830752 kJ/mol
# GULP energy per Si atom -5588.951281 kJ/mol
# Density = 2.285012 g / cm^3
# Si number density = 22.902245 Si / 1000 Ang^3
#
#
#
# Elastic Constant Matrix: (Units=GPa)
#
#
# Indices 1 2 3 4 5 6 
#
# 1 179.3930 43.6349 36.6724 -0.0081 30.5112 0.0072
# 2 43.6349 87.0703 14.1586 -0.0082 9.3954 0.0068
# 3 36.6724 14.1586 47.0390 -0.0068 2.4023 0.0093
# 4 -0.0081 -0.0082 -0.0068 14.5732 0.0078 -6.0936
# 5 30.5112 9.3954 2.4023 0.0078 37.1683 -0.0085
# 6 0.0072 0.0068 0.0093 -6.0936 -0.0085 44.0601
#
#
#
# Elastic Compliance Matrix: (Units=1/GPa)
#
#
# Indices 1 2 3 4 5 6 
#
# 1 0.008308 -0.002663 -0.005379 0.000004 -0.005799 0.000000
# 2 -0.002663 0.013233 -0.001854 0.000005 -0.001039 -0.000001
# 3 -0.005379 -0.001854 0.025847 0.000005 0.003214 -0.000003
# 4 0.000004 0.000005 0.000005 0.072831 -0.000018 0.010073
# 5 -0.005799 -0.001039 0.003214 -0.000018 0.031720 0.000004
# 6 0.000000 -0.000001 -0.000003 0.010073 0.000004 0.024089
#
#
# Mechanical properties :
#
#
# Convention : Reuss Voigt Hill
#
# Bulk Modulus (GPa) = 36.23814 55.82603 46.03208
# Shear Modulus (GPa) = 24.38794 33.76276 29.07535
#
# Velocity S-wave (km/s) = 3.26678 3.84371 3.56693
# Velocity P-wave (km/s) = 5.48511 6.64286 6.09155
#
# Compressibility (1/GPa) = 0.02759524
#
# Stress axis : x y z
#
# Youngs Moduli (GPa) = 120.36418 75.56773 38.68965
#
# Poissons Ratio (x) = 0.20124 0.20813
# Poissons Ratio (y) = 0.32054 0.07173
# Poissons Ratio (z) = 0.64749 0.14010
#
# Static dielectric constant tensor:
#      x y z
#    x 1.842460 0.000000 -0.005690 
#    y 0.000000 1.913930 0.000000 
#    z -0.005690 0.000000 1.920720 
# 
# From -- ./inp_files/110567.got.cif
#   From: 2010.05.17/outbox.cif.g08.bks.cpg/sg15_56_cif.got.tgz:110567.got - 2010.06.03 18:47:42.
