data_PCOD9255530
_publ_section_title
;
Structure prediction by ZEFSAII (Michael W. Deem and Ramdas Pophale) SiO2 
 PCOD9255530
Probable space group: C 2/C
;
_chemical_formula_sum "Si O2"
_cell_formula_units_Z 56
_cell_length_a 14.737260
_cell_length_b 13.568540
_cell_length_c 14.239341
_cell_angle_alpha 90.000000
_cell_angle_beta 82.768852
_cell_angle_gamma 90.000000
_cell_volume 2824.696223
_symmetry_space_group_name_H-M "C 2/C"
_symmetry_group_IT_number 15
_symmetry_cell_setting 'monoclinic'
loop_
_space_group_symop_operation_xyz
x,y,z
-x,y,1/2-z
-x,-y,-z
x,-y,1/2+z
1/2+x,1/2+y,z
1/2-x,1/2+y,1/2-z
1/2-x,1/2-y,-z
1/2+x,1/2-y,1/2+z
loop_
_atom_site_type_symbol
_atom_site_label
_atom_site_fract_x
_atom_site_fract_y
_atom_site_fract_z
Si Si1 0.802717 0.639295 0.792319
Si Si2 0.528772 0.235114 0.984277
Si Si3 0.406926 0.332615 0.703628
Si Si4 0.320675 0.235391 0.075469
Si Si5 0.969370 0.564260 0.861928
Si Si6 0.274323 0.068820 0.222891
Si Si7 0.571822 0.152915 0.162655
O O1 0.856538 0.732349 0.743733
O O2 0.708478 0.683463 0.842952
O O3 0.863980 0.599152 0.871464
O O4 0.794192 0.547365 0.723372
O O5 0.566076 0.316781 0.908111
O O6 0.524246 0.133392 0.924601
O O7 0.423845 0.250687 0.029060
O O8 0.585248 0.222850 0.072515
O O9 0.500000 0.344465 0.750000
O O10 0.331235 0.413899 0.737030
O O11 0.302443 0.128901 0.126151
O O12 0.250000 0.250000 0.000000
O O13 0.974011 0.447404 0.873570
O O14 0.000000 0.580287 0.750000
O O15 0.337615 0.118548 0.295420
O O16 0.500000 0.190956 0.250000
#
# Coordination Sequence:
#
# PCOD9255530 Si02
#       7
#     8   8   8   8   8   8   8
#     4  10  19  38  59  86 123 158 200 259 310 360
#     4  12  19  32  58  86 118 157 202 248 307 370
#     4  11  21  40  66  90 120 162 213 262 310 372
#     4  11  21  36  62  92 119 160 215 261 305 372
#     4  10  17  31  53  87 117 147 195 259 307 355
#     4  10  23  40  60  87 130 158 200 261 323 367
#     4  10  21  33  51  85 125 157 187 250 325 372
#
# _framework density 19.825140999999999
#
# number of rings (size 3 to 8) (size 9 to 14) (size 15 to 20)
#    0.000    1.429    5.714    1.286    0.000    1.714 
#    0.000    0.714    6.286    0.000    0.000    0.000 
#    0.000    0.000    0.000    0.000    0.000    0.000 
#
# Total GULP energy -156256.163753 kJ/mol
# GULP energy per Si atom -5580.577277 kJ/mol
# Density = 1.978002 g / cm^3
# Si number density = 19.825141 Si / 1000 Ang^3
#
#
#
# Elastic Constant Matrix: (Units=GPa)
#
#
# Indices 1 2 3 4 5 6 
#
# 1 87.1255 9.6162 21.0893 0.0000 -12.7175 0.0000
# 2 9.6162 31.5404 -1.8431 0.0000 8.7631 0.0000
# 3 21.0893 -1.8431 62.2293 0.0000 -5.8870 0.0000
# 4 0.0000 0.0000 0.0000 23.4158 0.0000 -1.7823
# 5 -12.7175 8.7631 -5.8870 0.0000 30.0185 0.0000
# 6 0.0000 0.0000 0.0000 -1.7823 0.0000 25.5035
#
#
#
# Elastic Compliance Matrix: (Units=1/GPa)
#
#
# Indices 1 2 3 4 5 6 
#
# 1 0.014304 -0.006597 -0.004368 0.000000 0.007129 0.000000
# 2 -0.006597 0.037547 0.002085 0.000000 -0.013347 0.000000
# 3 -0.004368 0.002085 0.017708 0.000000 0.001013 0.000000
# 4 0.000000 0.000000 0.000000 0.042935 0.000000 0.003001
# 5 0.007129 -0.013347 0.001013 0.000000 0.040428 0.000000
# 6 0.000000 0.000000 0.000000 0.003001 0.000000 0.039420
#
#
# Mechanical properties :
#
#
# Convention : Reuss Voigt Hill
#
# Bulk Modulus (GPa) = 19.30596 26.51335 22.90965
# Shear Modulus (GPa) = 21.99083 25.92307 23.95695
#
# Velocity S-wave (km/s) = 3.33414 3.61998 3.47999
# Velocity P-wave (km/s) = 4.95795 5.55652 5.26575
#
# Compressibility (1/GPa) = 0.05179748
#
# Stress axis : x y z
#
# Youngs Moduli (GPa) = 69.91123 26.63348 56.47268
#
# Poissons Ratio (x) = 0.17570 0.24670
# Poissons Ratio (y) = 0.46121 -0.11775
# Poissons Ratio (z) = 0.30541 -0.05553
#
# Static dielectric constant tensor:
#      x y z
#    x 1.739360 0.000000 -0.022320 
#    y 0.000000 1.726680 0.000000 
#    z -0.022320 0.000000 1.740100 
# 
# From -- ./inp_files/153404.got.cif
#   From: 2010.05.17/outbox.cif.g08.bks.cpg/sg15_77_cif.got.tgz:153404.got - 2010.06.03 18:47:42.
