data_PCOD9255026
_publ_section_title
;
Structure prediction by ZEFSAII (Michael W. Deem and Ramdas Pophale) SiO2 
 PCOD9255026
Probable space group: C 2/C
;
_chemical_formula_sum "Si O2"
_cell_formula_units_Z 52
_cell_length_a 18.315923
_cell_length_b 17.682942
_cell_length_c 8.635424
_cell_angle_alpha 90.000000
_cell_angle_beta 103.725179
_cell_angle_gamma 90.000000
_cell_volume 2716.972177
_symmetry_space_group_name_H-M "C 2/C"
_symmetry_group_IT_number 15
_symmetry_cell_setting 'monoclinic'
loop_
_space_group_symop_operation_xyz
x,y,z
-x,y,1/2-z
-x,-y,-z
x,-y,1/2+z
1/2+x,1/2+y,z
1/2-x,1/2+y,1/2-z
1/2-x,1/2-y,-z
1/2+x,1/2-y,1/2+z
loop_
_atom_site_type_symbol
_atom_site_label
_atom_site_fract_x
_atom_site_fract_y
_atom_site_fract_z
Si Si1 0.617689 0.848190 0.377942
Si Si2 0.500000 0.982127 0.250000
Si Si3 0.778205 0.537667 0.997189
Si Si4 0.500000 0.274812 0.750000
Si Si5 0.274974 0.599998 0.832341
Si Si6 0.935749 0.106053 0.005447
Si Si7 0.875999 0.574762 0.328837
Si Si8 0.000000 0.014978 0.750000
O O1 0.567916 0.924182 0.321735
O O2 0.572083 0.779278 0.284201
O O3 0.699589 0.857262 0.346603
O O4 0.622757 0.849990 0.567101
O O5 0.458623 0.039497 0.346625
O O6 0.729564 0.587268 0.854450
O O7 0.827835 0.485343 0.906338
O O8 0.730888 0.481213 0.082104
O O9 0.834567 0.580750 0.142465
O O10 0.510636 0.328324 0.903645
O O11 0.352047 0.635026 0.931196
O O12 0.964911 0.066171 0.865546
O O13 0.939640 0.041054 0.139645
#
# Coordination Sequence:
#
# PCOD9255026 Si02
#       8
#     8   4   8   4   8   8   8   4
#     4  10  21  33  51  78 116 153 194 220 266 326
#     4  11  16  29  51  74 115 156 192 228 261 316
#     4   9  17  29  45  84 114 133 180 232 280 315
#     4  10  24  40  54  78 112 156 194 220 266 340
#     4  10  18  32  55  83 114 145 179 233 279 327
#     4  10  20  39  65  86 110 137 178 236 289 338
#     4  10  17  27  47  73 112 150 184 227 263 311
#     4   9  20  39  67  94 103 130 178 238 301 336
#
# _framework density 19.138952
#
# number of rings (size 3 to 8) (size 9 to 14) (size 15 to 20)
#    0.000    2.154    4.615    1.385    0.000    0.615 
#    0.000    3.846    0.000    1.846    0.000    0.000 
#    0.000    0.000    0.000    0.000    0.000    0.000 
#
# Total GULP energy -144826.358950 kJ/mol
# GULP energy per Si atom -5570.244575 kJ/mol
# Density = 1.909539 g / cm^3
# Si number density = 19.138952 Si / 1000 Ang^3
#
#
#
# Elastic Constant Matrix: (Units=GPa)
#
#
# Indices 1 2 3 4 5 6 
#
# 1 60.2667 26.3179 46.1907 0.0000 30.0795 0.0000
# 2 26.3179 63.6396 42.1028 0.0000 9.0069 0.0000
# 3 46.1907 42.1028 138.1338 0.0000 17.9684 0.0000
# 4 0.0000 0.0000 0.0000 7.5530 0.0000 11.3678
# 5 30.0795 9.0069 17.9684 0.0000 24.5934 0.0000
# 6 0.0000 0.0000 0.0000 11.3678 0.0000 15.0114
#
#
#
# Elastic Compliance Matrix: (Units=1/GPa)
#
#
# Indices 1 2 3 4 5 6 
#
# 1 0.057552 -0.009645 -0.008407 0.000000 -0.060716 0.000000
# 2 -0.009645 0.021518 -0.004246 0.000000 0.007019 0.000000
# 3 -0.008407 -0.004246 0.010835 0.000000 0.003922 0.000000
# 4 0.000000 0.000000 0.000000 -0.947367 0.000000 0.717421
# 5 -0.060716 0.007019 0.003922 0.000000 0.109486 0.000000
# 6 0.000000 0.000000 0.000000 0.717421 0.000000 -0.476672
#
#
# Mechanical properties :
#
#
# Convention : Reuss Voigt Hill
#
# Bulk Modulus (GPa) = 22.07141 54.58477 38.32809
# Shear Modulus (GPa) = -4.29204 19.26012 7.48404
#
# Velocity S-wave (km/s) = -1.49914 3.17571 1.97961
# Velocity P-wave (km/s) = 2.92586 6.48298 5.02940
#
# Compressibility (1/GPa) = 0.04530748
#
# Stress axis : x y z
#
# Youngs Moduli (GPa) = 17.37549 46.47216 92.29516
#
# Poissons Ratio (x) = 0.44824 0.77594
# Poissons Ratio (y) = 0.16759 0.39192
# Poissons Ratio (z) = 0.14608 0.19734
#
# Static dielectric constant tensor:
#      x y z
#    x 1.666040 0.000000 0.039300 
#    y 0.000000 1.678980 0.000000 
#    z 0.039300 0.000000 1.733390 
# 
# From -- ./inp_files/48626.got.cif
#   From: 2010.05.17/outbox.cif.g08.bks.cpg/sg15_25_cif.got.tgz:48626.got - 2010.06.03 18:47:42.
