data_PCOD9255960
_publ_section_title
;
Structure prediction by ZEFSAII (Michael W. Deem and Ramdas Pophale) SiO2 
 PCOD9255960
Probable space group: C 2/C
;
_chemical_formula_sum "Si O2"
_cell_formula_units_Z 56
_cell_length_a 13.805829
_cell_length_b 18.860818
_cell_length_c 18.665631
_cell_angle_alpha 90.000000
_cell_angle_beta 137.423327
_cell_angle_gamma 90.000000
_cell_volume 3288.383211
_symmetry_space_group_name_H-M "C 2/C"
_symmetry_group_IT_number 15
_symmetry_cell_setting 'monoclinic'
loop_
_space_group_symop_operation_xyz
x,y,z
-x,y,1/2-z
-x,-y,-z
x,-y,1/2+z
1/2+x,1/2+y,z
1/2-x,1/2+y,1/2-z
1/2-x,1/2-y,-z
1/2+x,1/2-y,1/2+z
loop_
_atom_site_type_symbol
_atom_site_label
_atom_site_fract_x
_atom_site_fract_y
_atom_site_fract_z
Si Si1 0.737239 0.921197 0.229943
Si Si2 0.036528 0.644201 0.135654
Si Si3 0.288318 0.396680 0.007955
Si Si4 0.842483 0.523169 0.195319
Si Si5 0.534139 0.697219 0.683284
Si Si6 0.556214 0.924033 0.499068
Si Si7 0.655967 0.487332 0.845655
O O1 0.836872 0.853833 0.270336
O O2 0.571533 0.903190 0.122861
O O3 0.734884 0.959373 0.305446
O O4 0.792502 0.978699 0.201415
O O5 0.118470 0.584651 0.226193
O O6 0.066641 0.721749 0.181932
O O7 0.070410 0.630885 0.071450
O O8 0.867338 0.629027 0.051554
O O9 0.395734 0.330765 0.064015
O O10 0.355062 0.448576 0.103951
O O11 0.255718 0.441290 0.918896
O O12 0.000000 0.502340 0.250000
O O13 0.500000 0.691844 0.750000
O O14 0.713964 0.939078 0.555458
O O15 0.500000 0.000000 0.500000
O O16 0.500000 0.454267 0.750000
#
# Coordination Sequence:
#
# PCOD9255960 Si02
#       7
#     8   8   8   8   8   8   8
#     4  11  19  37  57  79 111 154 192 223 282 343
#     4  11  20  33  53  83 114 148 186 225 280 343
#     4  11  19  33  51  80 118 149 180 225 295 338
#     4  10  21  34  53  82 110 142 193 246 273 323
#     4  12  22  34  52  83 122 155 177 228 290 352
#     4  10  17  33  60  75 104 147 199 225 262 337
#     4  11  18  34  58  83 107 143 196 229 272 338
#
# _framework density 17.029646
#
# number of rings (size 3 to 8) (size 9 to 14) (size 15 to 20)
#    0.000    1.143    8.571    2.571    0.000    1.714 
#    0.000    0.000    0.000    0.857    0.000    3.000 
#    0.000    0.000    0.000    0.000    0.000    0.000 
#
# Total GULP energy -156132.256269 kJ/mol
# GULP energy per Si atom -5576.152010 kJ/mol
# Density = 1.699089 g / cm^3
# Si number density = 17.029646 Si / 1000 Ang^3
#
#
#
# Elastic Constant Matrix: (Units=GPa)
#
#
# Indices 1 2 3 4 5 6 
#
# 1 37.3968 25.0781 14.0791 0.0000 9.2580 0.0000
# 2 25.0781 69.6154 9.2829 0.0000 3.4458 0.0000
# 3 14.0791 9.2829 46.4760 0.0000 11.7336 0.0000
# 4 0.0000 0.0000 0.0000 10.3907 0.0000 -7.1959
# 5 9.2580 3.4458 11.7336 0.0000 34.1784 0.0000
# 6 0.0000 0.0000 0.0000 -7.1959 0.0000 24.3470
#
#
#
# Elastic Compliance Matrix: (Units=1/GPa)
#
#
# Indices 1 2 3 4 5 6 
#
# 1 0.040159 -0.013084 -0.007816 0.000000 -0.006875 0.000000
# 2 -0.013084 0.019029 -0.000271 0.000000 0.001719 0.000000
# 3 -0.007816 -0.000271 0.025617 0.000000 -0.006650 0.000000
# 4 0.000000 0.000000 0.000000 0.121009 0.000000 0.035765
# 5 -0.006875 0.001719 -0.006650 0.000000 0.033230 0.000000
# 6 0.000000 0.000000 0.000000 0.035765 0.000000 0.051643
#
#
# Mechanical properties :
#
#
# Convention : Reuss Voigt Hill
#
# Bulk Modulus (GPa) = 23.55024 27.81870 25.68447
# Shear Modulus (GPa) = 14.40152 20.78643 17.59397
#
# Velocity S-wave (km/s) = 2.91120 3.49750 3.21773
# Velocity P-wave (km/s) = 5.01589 5.71673 5.37773
#
# Compressibility (1/GPa) = 0.04246241
#
# Stress axis : x y z
#
# Youngs Moduli (GPa) = 24.90087 52.55098 39.03608
#
# Poissons Ratio (x) = 0.68759 0.30512
# Poissons Ratio (y) = 0.32581 0.01058
# Poissons Ratio (z) = 0.19463 0.01424
#
# Static dielectric constant tensor:
#      x y z
#    x 1.596080 0.000000 0.011100 
#    y 0.000000 1.566160 0.000000 
#    z 0.011100 0.000000 1.626100 
# 
# From -- ./inp_files/206300.got.cif
#   From: 2010.05.17/outbox.cif.g08.bks.cpg/sg15_104_cif.got.tgz:206300.got - 2010.06.03 18:47:42.
