data_PCOD9255113
_publ_section_title
;
Structure prediction by ZEFSAII (Michael W. Deem and Ramdas Pophale) SiO2 
 PCOD9255113
Probable space group: C 2/C
;
_chemical_formula_sum "Si O2"
_cell_formula_units_Z 64
_cell_length_a 9.337807
_cell_length_b 20.359218
_cell_length_c 15.873294
_cell_angle_alpha 90.000000
_cell_angle_beta 74.922522
_cell_angle_gamma 90.000000
_cell_volume 2913.795306
_symmetry_space_group_name_H-M "C 2/C"
_symmetry_group_IT_number 15
_symmetry_cell_setting 'monoclinic'
loop_
_space_group_symop_operation_xyz
x,y,z
-x,y,1/2-z
-x,-y,-z
x,-y,1/2+z
1/2+x,1/2+y,z
1/2-x,1/2+y,1/2-z
1/2-x,1/2-y,-z
1/2+x,1/2-y,1/2+z
loop_
_atom_site_type_symbol
_atom_site_label
_atom_site_fract_x
_atom_site_fract_y
_atom_site_fract_z
Si Si1 0.255894 0.174633 0.223503
Si Si2 0.632497 0.536838 0.049212
Si Si3 0.514831 0.673204 0.108681
Si Si4 0.566212 0.959591 0.066460
Si Si5 0.000319 0.317025 0.110387
Si Si6 0.750022 0.181689 0.717816
Si Si7 0.907712 0.954060 0.176966
Si Si8 0.171290 0.534425 0.306718
O O1 0.142370 0.174143 0.161298
O O2 0.325938 0.246970 0.211235
O O3 0.359087 0.111123 0.204499
O O4 0.142721 0.168030 0.319588
O O5 0.553441 0.607506 0.053073
O O6 0.512949 0.480703 0.086830
O O7 0.729649 0.535686 0.122175
O O8 0.758701 0.529020 0.959725
O O9 0.513524 0.745273 0.066061
O O10 0.536041 0.882712 0.054685
O O11 0.469923 0.987686 0.157914
O O12 0.500000 0.000000 0.000000
O O13 0.122945 0.316069 0.165777
O O14 0.841637 0.326159 0.180736
O O15 0.849892 0.120007 0.680252
O O16 0.000000 0.955608 0.250000
O O17 0.774359 0.003954 0.218841
#
# Coordination Sequence:
#
# PCOD9255113 Si02
#       8
#     8   8   8   8   8   8   8   8
#     4   8  13  24  44  66  88 116 151 194 235 272
#     4   9  17  26  42  69  96 120 148 188 235 278
#     4   8  13  24  42  67  93 114 144 191 244 277
#     4  10  19  29  43  69 101 127 151 182 232 285
#     4   9  17  29  46  69  95 120 150 191 237 281
#     4   9  17  29  48  70  90 117 157 198 233 267
#     4  10  17  28  48  70  93 121 156 192 227 268
#     4   9  15  27  45  66  92 122 155 188 229 275
#
# _framework density 21.964480999999999
#
# number of rings (size 3 to 8) (size 9 to 14) (size 15 to 20)
#    0.000    3.000    2.500    1.500    0.000    0.500 
#    0.000    0.625    0.000    2.250    0.000    0.000 
#    0.000    0.000    0.000    0.000    0.000    0.000 
#
# Total GULP energy -178535.096393 kJ/mol
# GULP energy per Si atom -5579.221762 kJ/mol
# Density = 2.191449 g / cm^3
# Si number density = 21.964481 Si / 1000 Ang^3
#
#
#
# Elastic Constant Matrix: (Units=GPa)
#
#
# Indices 1 2 3 4 5 6 
#
# 1 34.7898 43.9319 12.8558 0.0000 -10.1093 0.0000
# 2 43.9319 213.7524 67.8031 0.0000 -35.9311 0.0000
# 3 12.8558 67.8031 68.1423 0.0000 -16.3239 0.0000
# 4 0.0000 0.0000 0.0000 30.8977 0.0000 -1.8021
# 5 -10.1093 -35.9311 -16.3239 0.0000 29.9253 0.0000
# 6 0.0000 0.0000 0.0000 -1.8021 0.0000 22.1928
#
#
#
# Elastic Compliance Matrix: (Units=1/GPa)
#
#
# Indices 1 2 3 4 5 6 
#
# 1 0.039384 -0.007740 0.001417 0.000000 0.004785 0.000000
# 2 -0.007740 0.009132 -0.006472 0.000000 0.004820 0.000000
# 3 0.001417 -0.006472 0.021972 0.000000 0.004693 0.000000
# 4 0.000000 0.000000 0.000000 0.032519 0.000000 0.002641
# 5 0.004785 0.004820 0.004693 0.000000 0.043380 0.000000
# 6 0.000000 0.000000 0.000000 0.002641 0.000000 0.045274
#
#
# Mechanical properties :
#
#
# Convention : Reuss Voigt Hill
#
# Bulk Modulus (GPa) = 22.27206 62.87401 42.57304
# Shear Modulus (GPa) = 21.53160 29.40944 25.47052
#
# Velocity S-wave (km/s) = 3.13436 3.66314 3.40902
# Velocity P-wave (km/s) = 4.82296 6.82488 5.90931
#
# Compressibility (1/GPa) = 0.04489929
#
# Stress axis : x y z
#
# Youngs Moduli (GPa) = 25.39081 109.50313 45.51296
#
# Poissons Ratio (x) = 0.84753 -0.06450
# Poissons Ratio (y) = 0.19652 0.29455
# Poissons Ratio (z) = -0.03598 0.70869
#
# Static dielectric constant tensor:
#      x y z
#    x 1.845920 0.000000 0.028780 
#    y 0.000000 1.814610 0.000000 
#    z 0.028780 0.000000 1.857640 
# 
# From -- ./inp_files/199963.got.cif
#   From: 2010.05.17/outbox.cif.g08.bks.cpg/sg15_100_cif.got.tgz:199963.got - 2010.06.03 18:47:42.
