data_PCOD9255001
_publ_section_title
;
Structure prediction by ZEFSAII (Michael W. Deem and Ramdas Pophale) SiO2 
 PCOD9255001
Probable space group: C 2/C
;
_chemical_formula_sum "Si O2"
_cell_formula_units_Z 40
_cell_length_a 18.604642
_cell_length_b 7.752979
_cell_length_c 25.162509
_cell_angle_alpha 90.000000
_cell_angle_beta 26.604275
_cell_angle_gamma 90.000000
_cell_volume 1625.372774
_symmetry_space_group_name_H-M "C 2/C"
_symmetry_group_IT_number 15
_symmetry_cell_setting 'monoclinic'
loop_
_space_group_symop_operation_xyz
x,y,z
-x,y,1/2-z
-x,-y,-z
x,-y,1/2+z
1/2+x,1/2+y,z
1/2-x,1/2+y,1/2-z
1/2-x,1/2-y,-z
1/2+x,1/2-y,1/2+z
loop_
_atom_site_type_symbol
_atom_site_label
_atom_site_fract_x
_atom_site_fract_y
_atom_site_fract_z
Si Si1 0.089016 0.945352 0.354028
Si Si2 0.129931 0.799182 0.442129
Si Si3 0.640477 0.139334 0.031663
Si Si4 0.398659 0.985494 0.766744
Si Si5 0.810255 0.363720 0.115479
O O1 0.158482 0.892636 0.365265
O O2 0.217197 0.969491 0.222595
O O3 0.981657 0.784910 0.407884
O O4 0.971923 0.100756 0.445356
O O5 0.992377 0.666317 0.514846
O O6 0.311038 0.836742 0.340987
O O7 0.531459 0.999782 0.133195
O O8 0.750000 0.250000 0.000000
O O9 0.709441 0.061991 0.931127
O O10 0.500000 0.919911 0.750000
O O11 0.276552 0.825236 0.833730
#
# Coordination Sequence:
#
# PCOD9255001 Si02
#       5
#     8   8   8   8   8
#     4   9  17  28  49  66  96 134 158 200 240 293
#     4  10  17  35  47  69 100 130 169 194 247 300
#     4  10  17  27  43  75 105 124 157 198 256 300
#     4  11  17  27  50  72  98 132 158 198 250 301
#     4  10  18  30  49  72 101 131 161 200 246 298
#
# _framework density 24.609739999999999
#
# number of rings (size 3 to 8) (size 9 to 14) (size 15 to 20)
#    0.000    2.000    8.000    0.000    0.000    0.000 
#    0.000    1.000    0.000    1.200    0.000    0.000 
#    0.000    0.000    0.000    3.200    0.000    0.000 
#
# Total GULP energy -111350.263746 kJ/mol
# GULP energy per Si atom -5567.513187 kJ/mol
# Density = 2.455373 g / cm^3
# Si number density = 24.609740 Si / 1000 Ang^3
#
#
#
# Elastic Constant Matrix: (Units=GPa)
#
#
# Indices 1 2 3 4 5 6 
#
# 1 59.2537 19.7342 40.0029 -0.0002 10.4634 0.0000
# 2 19.7342 69.8255 34.4888 0.0012 -4.2573 -0.0004
# 3 40.0029 34.4888 181.1625 0.0031 46.6556 -0.0002
# 4 -0.0002 0.0012 0.0031 9.8096 -0.0003 1.6637
# 5 10.4634 -4.2573 46.6556 -0.0003 54.0103 0.0003
# 6 0.0000 -0.0004 -0.0002 1.6637 0.0003 11.3720
#
#
#
# Elastic Compliance Matrix: (Units=1/GPa)
#
#
# Indices 1 2 3 4 5 6 
#
# 1 0.020870 -0.004294 -0.003424 0.000002 -0.001424 0.000000
# 2 -0.004294 0.017790 -0.003876 -0.000001 0.005583 0.000001
# 3 -0.003424 -0.003876 0.008902 -0.000003 -0.007332 0.000001
# 4 0.000002 -0.000001 -0.000003 0.104535 0.000003 -0.015293
# 5 -0.001424 0.005583 -0.007332 0.000003 0.025565 -0.000001
# 6 0.000000 0.000001 0.000001 -0.015293 -0.000001 0.090172
#
#
# Mechanical properties :
#
#
# Convention : Reuss Voigt Hill
#
# Bulk Modulus (GPa) = 41.02853 55.41039 48.21946
# Shear Modulus (GPa) = 16.71418 29.43943 23.07681
#
# Velocity S-wave (km/s) = 2.60891 3.46244 3.06553
# Velocity P-wave (km/s) = 5.07771 6.20880 5.67152
#
# Compressibility (1/GPa) = 0.02437328
#
# Stress axis : x y z
#
# Youngs Moduli (GPa) = 47.91634 56.21157 112.33075
#
# Poissons Ratio (x) = 0.24136 0.38465
# Poissons Ratio (y) = 0.20574 0.43544
# Poissons Ratio (z) = 0.16408 0.21790
#
# Static dielectric constant tensor:
#      x y z
#    x 2.156260 0.000000 -0.053980 
#    y 0.000000 2.439950 0.000000 
#    z -0.053980 0.000000 2.098760 
# 
# From -- ./inp_files/276724.got.cif
#   From: 2010.05.17/outbox.cif.g08.bks.cpg/sg15_139_cif.got.tgz:276724.got - 2010.06.03 18:47:42.
