data_PCOD9255836
_publ_section_title
;
Structure prediction by ZEFSAII (Michael W. Deem and Ramdas Pophale) SiO2 
 PCOD9255836
Probable space group: C 2/C
;
_chemical_formula_sum "Si O2"
_cell_formula_units_Z 56
_cell_length_a 22.619031
_cell_length_b 12.272301
_cell_length_c 8.810090
_cell_angle_alpha 90.000000
_cell_angle_beta 112.323838
_cell_angle_gamma 90.000000
_cell_volume 2262.280101
_symmetry_space_group_name_H-M "C 2/C"
_symmetry_group_IT_number 15
_symmetry_cell_setting 'monoclinic'
loop_
_space_group_symop_operation_xyz
x,y,z
-x,y,1/2-z
-x,-y,-z
x,-y,1/2+z
1/2+x,1/2+y,z
1/2-x,1/2+y,1/2-z
1/2-x,1/2-y,-z
1/2+x,1/2-y,1/2+z
loop_
_atom_site_type_symbol
_atom_site_label
_atom_site_fract_x
_atom_site_fract_y
_atom_site_fract_z
Si Si1 0.080958 0.136608 0.185388
Si Si2 0.751600 0.878138 0.949936
Si Si3 0.147367 0.398018 0.048926
Si Si4 0.780320 0.785794 0.685158
Si Si5 0.437104 0.784371 0.789275
Si Si6 0.024707 0.625315 0.621149
Si Si7 0.400230 0.426042 0.137408
O O1 0.156624 0.145907 0.283114
O O2 0.050946 0.254012 0.187702
O O3 0.067025 0.036692 0.280056
O O4 0.071711 0.111455 0.997864
O O5 0.737191 0.857638 0.757920
O O6 0.750000 0.750000 0.000000
O O7 0.703551 0.952643 0.001604
O O8 0.823561 0.922461 0.037314
O O9 0.189653 0.319858 0.198806
O O10 0.085210 0.428590 0.091236
O O11 0.113725 0.337275 0.873649
O O12 0.750000 0.750000 0.500000
O O13 0.500000 0.775870 0.750000
O O14 0.412634 0.661454 0.784453
O O15 0.462531 0.849577 0.958046
O O16 0.000000 0.567605 0.750000
#
# Coordination Sequence:
#
# PCOD9255836 Si02
#       7
#     8   8   8   8   8   8   8
#     4  10  22  34  43  73 101 137 177 209 251 300
#     4   9  16  32  51  67  89 130 174 210 267 310
#     4   9  17  33  49  69  92 127 178 208 267 303
#     4   9  17  31  49  71  96 121 169 216 255 308
#     4  10  17  33  49  61  97 136 173 212 240 299
#     4  10  21  34  47  71 100 135 182 221 248 291
#     4  11  20  33  48  69 100 135 179 212 251 306
#
# _framework density 24.753786999999999
#
# number of rings (size 3 to 8) (size 9 to 14) (size 15 to 20)
#    0.000    2.286    7.143    0.000    2.000    5.714 
#    0.000    0.000    0.000    0.000    0.000    0.000 
#    0.000    0.000    0.000  210.857    8.286    5.143 
#
# Total GULP energy -156072.110805 kJ/mol
# GULP energy per Si atom -5574.003957 kJ/mol
# Density = 2.469745 g / cm^3
# Si number density = 24.753787 Si / 1000 Ang^3
#
#
#
# Elastic Constant Matrix: (Units=GPa)
#
#
# Indices 1 2 3 4 5 6 
#
# 1 102.9800 13.4289 55.9711 0.0000 -25.2951 0.0000
# 2 13.4289 53.7933 20.2851 0.0000 -6.5561 0.0000
# 3 55.9711 20.2851 160.4408 0.0000 1.0414 0.0000
# 4 0.0000 0.0000 0.0000 26.8855 0.0000 -1.1589
# 5 -25.2951 -6.5561 1.0414 0.0000 29.2109 0.0000
# 6 0.0000 0.0000 0.0000 -1.1589 0.0000 -9.6680
#
#
#
# Elastic Compliance Matrix: (Units=1/GPa)
#
#
# Indices 1 2 3 4 5 6 
#
# 1 0.016419 -0.000157 -0.005801 0.000000 0.014389 0.000000
# 2 -0.000157 0.020123 -0.002518 0.000000 0.004470 0.000000
# 3 -0.005801 -0.002518 0.008613 0.000000 -0.005896 0.000000
# 4 0.000000 0.000000 0.000000 0.037004 0.000000 -0.004436
# 5 0.014389 0.004470 -0.005896 0.000000 0.047907 0.000000
# 6 0.000000 0.000000 0.000000 -0.004436 0.000000 -0.102902
#
#
# Mechanical properties :
#
#
# Convention : Reuss Voigt Hill
#
# Bulk Modulus (GPa) = 35.45942 55.17604 45.31773
# Shear Modulus (GPa) = 93.42547 24.45430 58.93988
#
# Velocity S-wave (km/s) = 6.15011 3.14650 4.88489
# Velocity P-wave (km/s) = 8.04908 5.96145 7.08261
#
# Compressibility (1/GPa) = 0.02820125
#
# Stress axis : x y z
#
# Youngs Moduli (GPa) = 60.90627 49.69337 116.09914
#
# Poissons Ratio (x) = 0.00782 0.67352
# Poissons Ratio (y) = 0.00959 0.29238
# Poissons Ratio (z) = 0.35333 0.12515
#
# Static dielectric constant tensor:
#      x y z
#    x 2.048020 0.000000 0.001330 
#    y 0.000000 2.065560 0.000000 
#    z 0.001330 0.000000 2.081140 
# 
# From -- ./inp_files/66755.got.cif
#   From: 2010.05.17/outbox.cif.g08.bks.cpg/sg15_34_cif.got.tgz:66755.got - 2010.06.03 18:47:42.
