data_PCOD9255712
_publ_section_title
;
Structure prediction by ZEFSAII (Michael W. Deem and Ramdas Pophale) SiO2 
 PCOD9255712
Probable space group: C 2/C
;
_chemical_formula_sum "Si O2"
_cell_formula_units_Z 48
_cell_length_a 9.436785
_cell_length_b 23.322903
_cell_length_c 12.018141
_cell_angle_alpha 90.000000
_cell_angle_beta 130.878612
_cell_angle_gamma 90.000000
_cell_volume 1999.962951
_symmetry_space_group_name_H-M "C 2/C"
_symmetry_group_IT_number 15
_symmetry_cell_setting 'monoclinic'
loop_
_space_group_symop_operation_xyz
x,y,z
-x,y,1/2-z
-x,-y,-z
x,-y,1/2+z
1/2+x,1/2+y,z
1/2-x,1/2+y,1/2-z
1/2-x,1/2-y,-z
1/2+x,1/2-y,1/2+z
loop_
_atom_site_type_symbol
_atom_site_label
_atom_site_fract_x
_atom_site_fract_y
_atom_site_fract_z
Si Si1 0.221992 0.173540 0.288051
Si Si2 0.298373 0.063456 0.957966
Si Si3 0.798372 0.436543 0.957970
Si Si4 0.500000 0.875710 0.750000
Si Si5 0.500000 0.263825 0.500000
Si Si6 0.500000 0.875709 0.250000
Si Si7 0.778007 0.173541 0.711949
O O1 0.198672 0.114384 0.340830
O O2 0.382265 0.161247 0.276895
O O3 0.319256 0.222362 0.412874
O O4 0.044040 0.197149 0.129866
O O5 0.198670 0.114384 0.840829
O O6 0.213410 1.000000 0.913910
O O7 0.499998 0.059604 0.999993
O O8 0.350976 0.085065 0.107855
O O9 0.850969 0.414934 0.107856
O O10 0.680746 0.222363 0.587126
O O11 0.455959 0.302851 0.370134
O O12 0.382270 0.838752 0.276899
#
# Coordination Sequence:
#
# PCOD9255712 Si02
#       7
#     8   8   8   4   8   4   8
#     4  10  20  36  53  79 103 139 169 213 256 303
#     4   9  17  32  53  78 105 131 171 216 255 301
#     4   9  17  32  53  78 105 131 171 216 255 301
#     4  10  17  32  54  84  98 132 179 206 260 298
#     4  10  20  38  52  72 114 136 170 208 258 310
#     4  10  17  32  54  84  98 132 179 206 260 298
#     4  10  20  36  53  79 103 139 169 213 256 303
#
# _framework density 24.000443000000001
#
# number of rings (size 3 to 8) (size 9 to 14) (size 15 to 20)
#    0.000    2.333    5.000    0.500    0.000    2.667 
#    0.000    0.833    0.000    2.000    0.000    0.000 
#    0.000    0.000    0.000    0.000    0.000    0.000 
#
# Total GULP energy -134223.620900 kJ/mol
# GULP energy per Si atom -5592.650871 kJ/mol
# Density = 2.394582 g / cm^3
# Si number density = 24.000443 Si / 1000 Ang^3
#
#
#
# Elastic Constant Matrix: (Units=GPa)
#
#
# Indices 1 2 3 4 5 6 
#
# 1 66.6815 30.4531 27.9313 0.0000 6.6759 0.0000
# 2 30.4531 231.3958 126.2255 0.0000 4.3534 0.0000
# 3 27.9313 126.2255 203.8718 0.0000 10.0056 0.0000
# 4 0.0000 0.0000 0.0000 25.1545 0.0000 -3.6067
# 5 6.6759 4.3534 10.0056 0.0000 23.5633 0.0000
# 6 0.0000 0.0000 0.0000 -3.6067 0.0000 4.4912
#
#
#
# Elastic Compliance Matrix: (Units=1/GPa)
#
#
# Indices 1 2 3 4 5 6 
#
# 1 0.016548 -0.001468 -0.001166 0.000000 -0.003922 0.000000
# 2 -0.001468 0.006662 -0.003966 0.000000 0.000869 0.000000
# 3 -0.001166 -0.003966 0.007627 0.000000 -0.002176 0.000000
# 4 0.000000 0.000000 0.000000 0.044927 0.000000 0.036079
# 5 -0.003922 0.000869 -0.002176 0.000000 0.044313 0.000000
# 6 0.000000 0.000000 0.000000 0.036079 0.000000 0.251629
#
#
# Mechanical properties :
#
#
# Convention : Reuss Voigt Hill
#
# Bulk Modulus (GPa) = 56.69850 96.79656 76.74753
# Shear Modulus (GPa) = 12.79471 31.79775 22.29623
#
# Velocity S-wave (km/s) = 2.31141 3.64384 3.05124
# Velocity P-wave (km/s) = 5.54966 7.62379 6.66787
#
# Compressibility (1/GPa) = 0.01763715
#
# Stress axis : x y z
#
# Youngs Moduli (GPa) = 60.42982 150.10393 131.10963
#
# Poissons Ratio (x) = 0.22038 0.15283
# Poissons Ratio (y) = 0.08872 0.52002
# Poissons Ratio (z) = 0.07044 0.59535
#
# Static dielectric constant tensor:
#      x y z
#    x 1.914010 0.000000 -0.014980 
#    y 0.000000 1.911270 0.000000 
#    z -0.014980 0.000000 1.950560 
# 
# From -- ./inp_files/63903.got.cif
#   From: 2010.05.17/outbox.cif.g08.bks.cpg/sg15_32_cif.got.tgz:63903.got - 2010.06.03 18:47:42.
