data_PCOD9255436
_publ_section_title
;
Structure prediction by ZEFSAII (Michael W. Deem and Ramdas Pophale) SiO2 
 PCOD9255436
Probable space group: C 2/C
;
_chemical_formula_sum "Si O2"
_cell_formula_units_Z 52
_cell_length_a 8.268545
_cell_length_b 23.830833
_cell_length_c 12.921042
_cell_angle_alpha 90.000000
_cell_angle_beta 98.572700
_cell_angle_gamma 90.000000
_cell_volume 2517.598087
_symmetry_space_group_name_H-M "C 2/C"
_symmetry_group_IT_number 15
_symmetry_cell_setting 'monoclinic'
loop_
_space_group_symop_operation_xyz
x,y,z
-x,y,1/2-z
-x,-y,-z
x,-y,1/2+z
1/2+x,1/2+y,z
1/2-x,1/2+y,1/2-z
1/2-x,1/2-y,-z
1/2+x,1/2-y,1/2+z
loop_
_atom_site_type_symbol
_atom_site_label
_atom_site_fract_x
_atom_site_fract_y
_atom_site_fract_z
Si Si1 0.000000 0.489942 0.250000
Si Si2 0.736165 0.056894 0.617639
Si Si3 0.500000 0.272847 0.250000
Si Si4 0.840561 0.935574 0.560529
Si Si5 0.013791 0.146370 0.929266
Si Si6 0.000000 0.122750 0.250000
Si Si7 0.483019 0.914727 0.587138
Si Si8 0.250364 0.682393 0.358351
O O1 0.157439 0.457852 0.220378
O O2 0.054884 0.531107 0.347102
O O3 0.860029 0.107936 0.623257
O O4 0.582978 0.074239 0.533022
O O5 0.814648 0.002354 0.567071
O O6 0.561145 0.310121 0.158858
O O7 0.648535 0.237152 0.315338
O O8 0.676321 0.910627 0.595758
O O9 0.887004 0.898893 0.465296
O O10 0.983546 0.918615 0.652020
O O11 0.118781 0.177950 0.032073
O O12 0.851163 0.162326 0.267996
O O13 0.388910 0.862700 0.625985
#
# Coordination Sequence:
#
# PCOD9255436 Si02
#       8
#     4   8   4   8   8   4   8   8
#     4  10  17  30  57  88 113 150 189 218 272 340
#     4  10  21  36  56  86 123 153 183 233 282 343
#     4  12  23  41  62  78 110 155 195 250 296 334
#     4  10  19  36  58  88 120 151 187 231 283 349
#     4  10  24  38  57  87 117 151 196 240 292 344
#     4  10  20  35  61  86 109 147 196 240 286 344
#     4  10  20  36  61  85 114 156 193 226 278 348
#     4  10  21  41  59  83 114 148 196 245 288 342
#
# _framework density 20.654608
#
# number of rings (size 3 to 8) (size 9 to 14) (size 15 to 20)
#    0.000    1.846    0.000    6.000    0.000    3.077 
#    0.000   12.308    0.000    0.000    0.000    0.000 
#    0.000    0.000    0.000    0.000    0.000    0.000 
#
# Total GULP energy -144927.189233 kJ/mol
# GULP energy per Si atom -5574.122663 kJ/mol
# Density = 2.060760 g / cm^3
# Si number density = 20.654608 Si / 1000 Ang^3
#
#
#
# Elastic Constant Matrix: (Units=GPa)
#
#
# Indices 1 2 3 4 5 6 
#
# 1 38.5143 27.8922 22.1129 0.0000 -11.6052 0.0000
# 2 27.8922 83.1765 38.7440 0.0000 -6.1658 0.0000
# 3 22.1129 38.7440 71.0036 0.0000 -12.8159 0.0000
# 4 0.0000 0.0000 0.0000 27.1366 0.0000 17.5349
# 5 -11.6052 -6.1658 -12.8159 0.0000 19.7981 0.0000
# 6 0.0000 0.0000 0.0000 17.5349 0.0000 75.9163
#
#
#
# Elastic Compliance Matrix: (Units=1/GPa)
#
#
# Indices 1 2 3 4 5 6 
#
# 1 0.041518 -0.010840 -0.003659 0.000000 0.018592 0.000000
# 2 -0.010840 0.018960 -0.007984 0.000000 -0.005617 0.000000
# 3 -0.003659 -0.007984 0.021224 0.000000 0.009107 0.000000
# 4 0.000000 0.000000 0.000000 0.043316 0.000000 -0.010005
# 5 0.018592 -0.005617 0.009107 0.000000 0.065554 0.000000
# 6 0.000000 0.000000 0.000000 -0.010005 0.000000 0.015483
#
#
# Mechanical properties :
#
#
# Convention : Reuss Voigt Hill
#
# Bulk Modulus (GPa) = 27.22145 41.13251 34.17698
# Shear Modulus (GPa) = 18.99222 31.49988 25.24605
#
# Velocity S-wave (km/s) = 3.03564 3.90946 3.49993
# Velocity P-wave (km/s) = 5.04924 6.35108 5.73720
#
# Compressibility (1/GPa) = 0.03673574
#
# Stress axis : x y z
#
# Youngs Moduli (GPa) = 24.08605 52.74234 47.11699
#
# Poissons Ratio (x) = 0.57171 0.17242
# Poissons Ratio (y) = 0.26109 0.37618
# Poissons Ratio (z) = 0.08814 0.42109
#
# Static dielectric constant tensor:
#      x y z
#    x 1.753810 0.000000 0.015070 
#    y 0.000000 1.769480 0.000000 
#    z 0.015070 0.000000 1.799110 
# 
# From -- ./inp_files/80763.got.cif
#   From: 2010.05.17/outbox.cif.g08.bks.cpg/sg15_41_cif.got.tgz:80763.got - 2010.06.03 18:47:42.
