data_PCOD9255942
_publ_section_title
;
Structure prediction by ZEFSAII (Michael W. Deem and Ramdas Pophale) SiO2 
 PCOD9255942
Probable space group: C 2/C
;
_chemical_formula_sum "Si O2"
_cell_formula_units_Z 56
_cell_length_a 11.700813
_cell_length_b 10.903113
_cell_length_c 18.498984
_cell_angle_alpha 90.000000
_cell_angle_beta 99.317445
_cell_angle_gamma 90.000000
_cell_volume 2328.876268
_symmetry_space_group_name_H-M "C 2/C"
_symmetry_group_IT_number 15
_symmetry_cell_setting 'monoclinic'
loop_
_space_group_symop_operation_xyz
x,y,z
-x,y,1/2-z
-x,-y,-z
x,-y,1/2+z
1/2+x,1/2+y,z
1/2-x,1/2+y,1/2-z
1/2-x,1/2-y,-z
1/2+x,1/2-y,1/2+z
loop_
_atom_site_type_symbol
_atom_site_label
_atom_site_fract_x
_atom_site_fract_y
_atom_site_fract_z
Si Si1 0.568652 0.479629 0.079787
Si Si2 0.854260 0.719984 0.426867
Si Si3 0.551758 0.120916 0.335242
Si Si4 0.032466 0.588204 0.936245
Si Si5 0.599968 0.625884 0.817346
Si Si6 0.846090 0.137045 0.188186
Si Si7 0.101986 0.781374 0.659532
O O1 0.653040 0.365228 0.081420
O O2 0.467038 0.434530 0.122921
O O3 0.629909 0.602768 0.112224
O O4 0.500000 0.500000 0.000000
O O5 0.890421 0.685717 0.511905
O O6 0.739867 0.658160 0.385850
O O7 0.951056 0.673012 0.378629
O O8 0.500000 0.092813 0.250000
O O9 0.640918 0.237217 0.341689
O O10 0.587767 0.995925 0.379292
O O11 0.922759 0.658298 0.888369
O O12 0.000000 0.500000 0.000000
O O13 0.500000 0.654059 0.750000
O O14 0.666266 0.507713 0.792608
O O15 0.825572 0.217069 0.258559
O O16 0.972665 0.178685 0.174415
#
# Coordination Sequence:
#
# PCOD9255942 Si02
#       7
#     8   8   8   8   8   8   8
#     4  10  17  33  58  85 111 152 200 243 305 363
#     4  10  21  37  61  93 120 149 208 264 301 359
#     4   9  20  37  63  81 116 171 205 237 309 385
#     4  10  21  39  56  83 122 164 200 250 314 372
#     4   9  16  35  59  81 111 160 199 238 301 370
#     4  10  20  37  62  94 115 152 202 265 306 363
#     4  10  20  38  63  81 123 162 200 248 325 374
#
# _framework density 24.045932000000001
#
# number of rings (size 3 to 8) (size 9 to 14) (size 15 to 20)
#    0.000    2.286    4.286    0.000    2.000    0.571 
#    5.143    0.714    0.000    0.000    0.000    0.000 
#    0.000    0.000    0.000    0.000    0.000    0.000 
#
# Total GULP energy -156210.030590 kJ/mol
# GULP energy per Si atom -5578.929664 kJ/mol
# Density = 2.399120 g / cm^3
# Si number density = 24.045932 Si / 1000 Ang^3
#
#
#
# Elastic Constant Matrix: (Units=GPa)
#
#
# Indices 1 2 3 4 5 6 
#
# 1 28.9062 1.4900 -6.6382 0.0000 -10.7588 0.0000
# 2 1.4900 137.0437 44.9948 0.0000 -1.3663 0.0000
# 3 -6.6382 44.9948 147.7191 0.0000 -9.5708 0.0000
# 4 0.0000 0.0000 0.0000 49.2863 0.0000 1.8315
# 5 -10.7588 -1.3663 -9.5708 0.0000 27.2319 0.0000
# 6 0.0000 0.0000 0.0000 1.8315 0.0000 16.1136
#
#
#
# Elastic Compliance Matrix: (Units=1/GPa)
#
#
# Indices 1 2 3 4 5 6 
#
# 1 0.042082 -0.001422 0.003476 0.000000 0.017776 0.000000
# 2 -0.001422 0.008162 -0.002619 0.000000 -0.001073 0.000000
# 3 0.003476 -0.002619 0.007986 0.000000 0.004049 0.000000
# 4 0.000000 0.000000 0.000000 0.020376 0.000000 -0.002316
# 5 0.017776 -0.001073 0.004049 0.000000 0.045114 0.000000
# 6 0.000000 0.000000 0.000000 -0.002316 0.000000 0.062323
#
#
# Mechanical properties :
#
#
# Convention : Reuss Voigt Hill
#
# Bulk Modulus (GPa) = 17.51317 43.70691 30.61004
# Shear Modulus (GPa) = 24.24765 36.78118 30.51442
#
# Velocity S-wave (km/s) = 3.17896 3.91528 3.56617
# Velocity P-wave (km/s) = 4.55778 6.21732 5.45108
#
# Compressibility (1/GPa) = 0.05709988
#
# Stress axis : x y z
#
# Youngs Moduli (GPa) = 23.76290 122.52315 125.21951
#
# Poissons Ratio (x) = 0.17417 -0.43524
# Poissons Ratio (y) = 0.03378 0.32800
# Poissons Ratio (z) = -0.08260 0.32094
#
# Static dielectric constant tensor:
#      x y z
#    x 2.059330 0.000000 -0.042450 
#    y 0.000000 2.071720 0.000000 
#    z -0.042450 0.000000 1.871660 
# 
# From -- ./inp_files/204138.got.cif
#   From: 2010.05.17/outbox.cif.g08.bks.cpg/sg15_103_cif.got.tgz:204138.got - 2010.06.03 18:47:42.
