data_PCOD9255860
_publ_section_title
;
Structure prediction by ZEFSAII (Michael W. Deem and Ramdas Pophale) SiO2 
 PCOD9255860
Probable space group: C 2/C
;
_chemical_formula_sum "Si O2"
_cell_formula_units_Z 48
_cell_length_a 8.452893
_cell_length_b 32.675770
_cell_length_c 14.101751
_cell_angle_alpha 90.000000
_cell_angle_beta 42.660987
_cell_angle_gamma 90.000000
_cell_volume 2639.462657
_symmetry_space_group_name_H-M "C 2/C"
_symmetry_group_IT_number 15
_symmetry_cell_setting 'monoclinic'
loop_
_space_group_symop_operation_xyz
x,y,z
-x,y,1/2-z
-x,-y,-z
x,-y,1/2+z
1/2+x,1/2+y,z
1/2-x,1/2+y,1/2-z
1/2-x,1/2-y,-z
1/2+x,1/2-y,1/2+z
loop_
_atom_site_type_symbol
_atom_site_label
_atom_site_fract_x
_atom_site_fract_y
_atom_site_fract_z
Si Si1 0.177630 0.180100 0.807089
Si Si2 0.992563 0.734202 0.140105
Si Si3 0.500000 0.120832 0.750000
Si Si4 0.221749 0.553088 0.771604
Si Si5 0.267762 0.066524 0.521716
Si Si6 0.153571 0.658622 0.974826
Si Si7 0.500000 0.983202 0.750000
O O1 0.180349 0.229307 0.815108
O O2 0.283388 0.152377 0.843637
O O3 0.316366 0.167912 0.649972
O O4 0.909475 0.168546 0.905775
O O5 0.000000 0.730561 0.250000
O O6 0.250000 0.750000 0.000000
O O7 0.970542 0.690233 0.100678
O O8 0.546981 0.089047 0.814702
O O9 0.485518 0.569294 0.639802
O O10 0.189459 0.544016 0.896748
O O11 0.175059 0.513437 0.728751
O O12 0.379859 0.111291 0.486451
O O13 0.369599 0.043775 0.386110
#
# Coordination Sequence:
#
# PCOD9255860 Si02
#       7
#     8   8   4   8   8   8   4
#     4  10  17  33  53  82 104 148 194 223 269 337
#     4  10  18  31  55  81 108 140 185 243 275 324
#     4  11  18  32  58  84 104 152 204 226 256 339
#     4  10  21  38  60  81 115 151 192 229 278 345
#     4  11  20  39  59  84 114 151 189 234 277 348
#     4  10  18  33  56  79 106 141 195 232 276 325
#     4  11  24  34  58  98 112 140 182 246 302 325
#
# _framework density 18.18552
#
# number of rings (size 3 to 8) (size 9 to 14) (size 15 to 20)
#    0.000    1.667    6.667    2.000    1.167    0.000 
#    0.000    0.833    0.000    0.000    8.667    0.000 
#    0.000    0.000    0.000    0.000    0.000    0.000 
#
# Total GULP energy -133661.022584 kJ/mol
# GULP energy per Si atom -5569.209274 kJ/mol
# Density = 1.814413 g / cm^3
# Si number density = 18.185520 Si / 1000 Ang^3
#
#
#
# Elastic Constant Matrix: (Units=GPa)
#
#
# Indices 1 2 3 4 5 6 
#
# 1 74.2948 35.7247 30.9436 0.0000 13.3150 0.0000
# 2 35.7247 144.1431 51.5247 0.0000 18.1068 0.0000
# 3 30.9436 51.5247 78.1443 0.0000 24.8050 0.0000
# 4 0.0000 0.0000 0.0000 28.6141 0.0000 -1.0476
# 5 13.3150 18.1068 24.8050 0.0000 16.3594 0.0000
# 6 0.0000 0.0000 0.0000 -1.0476 0.0000 22.9848
#
#
#
# Elastic Compliance Matrix: (Units=1/GPa)
#
#
# Indices 1 2 3 4 5 6 
#
# 1 0.017047 -0.002267 -0.003177 0.000000 -0.006548 0.000000
# 2 -0.002267 0.009408 -0.004985 0.000000 -0.001009 0.000000
# 3 -0.003177 -0.004985 0.028474 0.000000 -0.035071 0.000000
# 4 0.000000 0.000000 0.000000 0.035006 0.000000 0.001596
# 5 -0.006548 -0.001009 -0.035071 0.000000 0.120750 0.000000
# 6 0.000000 0.000000 0.000000 0.001596 0.000000 0.043580
#
#
# Mechanical properties :
#
#
# Convention : Reuss Voigt Hill
#
# Bulk Modulus (GPa) = 29.35050 59.21868 44.28459
# Shear Modulus (GPa) = 17.45324 25.48427 21.46876
#
# Velocity S-wave (km/s) = 3.10132 3.74752 3.43963
# Velocity P-wave (km/s) = 5.38505 7.16656 6.33870
#
# Compressibility (1/GPa) = 0.03407097
#
# Stress axis : x y z
#
# Youngs Moduli (GPa) = 58.66267 106.29087 35.11933
#
# Poissons Ratio (x) = 0.24092 0.11157
# Poissons Ratio (y) = 0.13297 0.17509
# Poissons Ratio (z) = 0.18637 0.52991
#
# Static dielectric constant tensor:
#      x y z
#    x 1.641150 0.000000 0.003790 
#    y 0.000000 1.688920 0.000000 
#    z 0.003790 0.000000 1.603720 
# 
# From -- ./inp_files/139421.got.cif
#   From: 2010.05.17/outbox.cif.g08.bks.cpg/sg15_70_cif.got.tgz:139421.got - 2010.06.03 18:47:42.
