data_PCOD9255962
_publ_section_title
;
Structure prediction by ZEFSAII (Michael W. Deem and Ramdas Pophale) SiO2 
 PCOD9255962
Probable space group: C 2/C
;
_chemical_formula_sum "Si O2"
_cell_formula_units_Z 60
_cell_length_a 17.871129
_cell_length_b 31.874434
_cell_length_c 5.255101
_cell_angle_alpha 90.000000
_cell_angle_beta 101.268309
_cell_angle_gamma 90.000000
_cell_volume 2935.768795
_symmetry_space_group_name_H-M "C 2/C"
_symmetry_group_IT_number 15
_symmetry_cell_setting 'monoclinic'
loop_
_space_group_symop_operation_xyz
x,y,z
-x,y,1/2-z
-x,-y,-z
x,-y,1/2+z
1/2+x,1/2+y,z
1/2-x,1/2+y,1/2-z
1/2-x,1/2-y,-z
1/2+x,1/2-y,1/2+z
loop_
_atom_site_type_symbol
_atom_site_label
_atom_site_fract_x
_atom_site_fract_y
_atom_site_fract_z
Si Si1 0.921053 0.547086 0.781558
Si Si2 0.729291 0.847046 0.041747
Si Si3 0.500000 0.529389 0.750000
Si Si4 0.612751 0.606204 0.889632
Si Si5 0.079603 0.156996 0.377079
Si Si6 0.625690 0.087755 0.246690
Si Si7 0.268397 0.012001 0.190030
Si Si8 0.234721 0.798443 0.941199
O O1 0.909333 0.582543 0.555953
O O2 0.846439 0.516953 0.728760
O O3 0.000000 0.525616 0.750000
O O4 0.922963 0.566216 0.062338
O O5 0.654015 0.868943 0.880013
O O6 0.750241 0.813223 0.838024
O O7 0.797652 0.881959 0.101643
O O8 0.722062 0.826622 0.315764
O O9 0.500000 0.500000 0.500000
O O10 0.573616 0.560949 0.825142
O O11 0.574240 0.634363 0.643902
O O12 0.598002 0.623063 0.166302
O O13 0.146853 0.190217 0.431841
O O14 0.000000 0.177124 0.250000
O O15 0.701525 0.058699 0.275032
O O16 0.224631 0.998247 0.407728
O O17 0.250000 0.750000 0.000000
#
# Coordination Sequence:
#
# PCOD9255962 Si02
#       8
#     8   8   4   8   8   8   8   8
#     4  10  19  31  50  74 100 135 189 247 273 296
#     4  10  21  37  58  79 109 147 178 220 273 327
#     4  12  22  34  52  80 118 156 188 234 286 316
#     4  10  20  35  54  80 110 143 193 228 261 326
#     4  10  17  33  60  84 105 142 182 234 268 317
#     4  10  19  32  49  73 101 137 178 222 275 328
#     4   8  16  27  42  66  92 124 166 222 272 288
#     4  10  21  36  59  88 112 135 173 222 281 339
#
# _framework density 20.437574999999999
#
# number of rings (size 3 to 8) (size 9 to 14) (size 15 to 20)
#    0.000    2.133    1.333    2.400    0.000    4.800 
#    0.000    4.000    0.000    4.800    0.000    0.000 
#    0.000    0.000    0.000    0.000    0.000    0.000 
#
# Total GULP energy -167261.988044 kJ/mol
# GULP energy per Si atom -5575.399601 kJ/mol
# Density = 2.039106 g / cm^3
# Si number density = 20.437575 Si / 1000 Ang^3
#
#
#
# Elastic Constant Matrix: (Units=GPa)
#
#
# Indices 1 2 3 4 5 6 
#
# 1 25.5418 29.2017 12.7128 0.0000 7.7611 0.0000
# 2 29.2017 88.2437 24.5189 0.0000 16.1503 0.0000
# 3 12.7128 24.5189 136.7149 0.0000 -5.2824 0.0000
# 4 0.0000 0.0000 0.0000 26.1922 0.0000 10.0066
# 5 7.7611 16.1503 -5.2824 0.0000 24.4108 0.0000
# 6 0.0000 0.0000 0.0000 10.0066 0.0000 19.6391
#
#
#
# Elastic Compliance Matrix: (Units=1/GPa)
#
#
# Indices 1 2 3 4 5 6 
#
# 1 0.065158 -0.019150 -0.002960 0.000000 -0.008687 0.000000
# 2 -0.019150 0.019562 -0.002009 0.000000 -0.007288 0.000000
# 3 -0.002960 -0.002009 0.008106 0.000000 0.004024 0.000000
# 4 0.000000 0.000000 0.000000 0.047408 0.000000 -0.024155
# 5 -0.008687 -0.007288 0.004024 0.000000 0.049420 0.000000
# 6 0.000000 0.000000 0.000000 -0.024155 0.000000 0.063226
#
#
# Mechanical properties :
#
#
# Convention : Reuss Voigt Hill
#
# Bulk Modulus (GPa) = 22.42801 42.59635 32.51218
# Shear Modulus (GPa) = 15.82376 26.31955 21.07165
#
# Velocity S-wave (km/s) = 2.78555 3.59249 3.21444
# Velocity P-wave (km/s) = 4.61990 6.17215 5.45155
#
# Compressibility (1/GPa) = 0.04458711
#
# Stress axis : x y z
#
# Youngs Moduli (GPa) = 15.34722 51.12076 123.37195
#
# Poissons Ratio (x) = 0.97896 0.36520
# Poissons Ratio (y) = 0.29390 0.24787
# Poissons Ratio (z) = 0.04543 0.10271
#
# Static dielectric constant tensor:
#      x y z
#    x 1.793630 0.000000 0.015530 
#    y 0.000000 1.704890 0.000000 
#    z 0.015530 0.000000 1.802280 
# 
# From -- ./inp_files/14300.got.cif
#   From: 2010.05.17/outbox.cif.g08.bks.cpg/sg15_8_cif.got.tgz:14300.got - 2010.06.03 18:47:42.
