data_PCOD9255198
_publ_section_title
;
Structure prediction by ZEFSAII (Michael W. Deem and Ramdas Pophale) SiO2 
 PCOD9255198
Probable space group: C 2/C
;
_chemical_formula_sum "Si O2"
_cell_formula_units_Z 56
_cell_length_a 16.755188
_cell_length_b 29.663286
_cell_length_c 7.075064
_cell_angle_alpha 90.000000
_cell_angle_beta 46.731589
_cell_angle_gamma 90.000000
_cell_volume 2560.473259
_symmetry_space_group_name_H-M "C 2/C"
_symmetry_group_IT_number 15
_symmetry_cell_setting 'monoclinic'
loop_
_space_group_symop_operation_xyz
x,y,z
-x,y,1/2-z
-x,-y,-z
x,-y,1/2+z
1/2+x,1/2+y,z
1/2-x,1/2+y,1/2-z
1/2-x,1/2-y,-z
1/2+x,1/2-y,1/2+z
loop_
_atom_site_type_symbol
_atom_site_label
_atom_site_fract_x
_atom_site_fract_y
_atom_site_fract_z
Si Si1 0.244960 0.364620 0.996676
Si Si2 0.416801 0.289401 0.658449
Si Si3 0.156865 0.211259 0.657522
Si Si4 0.047487 0.310334 0.375796
Si Si5 0.909227 0.447408 0.677335
Si Si6 0.167414 0.351266 0.680675
Si Si7 0.148218 0.456002 0.166859
O O1 0.350136 0.331828 0.849848
O O2 0.209095 0.356441 0.833159
O O3 0.140487 0.345162 0.279186
O O4 0.242003 0.418259 0.047161
O O5 0.388138 0.291090 0.482361
O O6 0.549299 0.287417 0.462054
O O7 0.391195 0.237384 0.750865
O O8 0.250000 0.250000 0.500000
O O9 0.225629 0.167069 0.593944
O O10 0.000000 0.323743 0.250000
O O11 0.934527 0.315920 0.675453
O O12 0.872337 0.399873 0.815886
O O13 0.889689 0.444916 0.483697
O O14 0.836340 0.490007 0.859846
O O15 0.041240 0.452604 0.477888
#
# Coordination Sequence:
#
# PCOD9255198 Si02
#       7
#     8   8   8   8   8   8   8
#     4   9  17  29  46  71  94 125 165 199 232 298
#     4  10  20  31  49  71  94 132 171 195 243 290
#     4  10  19  33  49  67  98 131 165 206 237 284
#     4  10  17  29  49  70  97 128 164 197 236 288
#     4   9  16  28  48  70  93 126 158 198 255 295
#     4   9  16  29  49  68  93 130 161 192 242 293
#     4   9  16  28  48  70  96 120 158 204 248 298
#
# _framework density 21.870958000000002
#
# number of rings (size 3 to 8) (size 9 to 14) (size 15 to 20)
#    0.000    2.571    2.857    0.429    0.000    0.000 
#    0.000    1.429    3.143    0.857    0.000    0.000 
#    0.000    0.000    0.000    0.000    0.000    0.000 
#
# Total GULP energy -155994.496357 kJ/mol
# GULP energy per Si atom -5571.232013 kJ/mol
# Density = 2.182118 g / cm^3
# Si number density = 21.870958 Si / 1000 Ang^3
#
#
#
# Elastic Constant Matrix: (Units=GPa)
#
#
# Indices 1 2 3 4 5 6 
#
# 1 65.6956 11.6545 8.9473 0.0000 -4.3856 0.0000
# 2 11.6545 157.5378 60.4359 0.0000 -33.0140 0.0000
# 3 8.9473 60.4359 87.5102 0.0000 -15.8127 0.0000
# 4 0.0000 0.0000 0.0000 30.7428 0.0000 -4.0108
# 5 -4.3856 -33.0140 -15.8127 0.0000 24.0939 0.0000
# 6 0.0000 0.0000 0.0000 -4.0108 0.0000 27.5474
#
#
#
# Elastic Compliance Matrix: (Units=1/GPa)
#
#
# Indices 1 2 3 4 5 6 
#
# 1 0.015541 -0.000434 -0.001004 0.000000 0.001574 0.000000
# 2 -0.000434 0.010786 -0.005387 0.000000 0.011165 0.000000
# 3 -0.001004 -0.005387 0.015752 0.000000 0.002773 0.000000
# 4 0.000000 0.000000 0.000000 0.033158 0.000000 0.004828
# 5 0.001574 0.011165 0.002773 0.000000 0.058909 0.000000
# 6 0.000000 0.000000 0.000000 0.004828 0.000000 0.037004
#
#
# Mechanical properties :
#
#
# Convention : Reuss Voigt Hill
#
# Bulk Modulus (GPa) = 35.17888 52.53545 43.85717
# Shear Modulus (GPa) = 25.73643 31.79055 28.76349
#
# Velocity S-wave (km/s) = 3.43409 3.81668 3.63043
# Velocity P-wave (km/s) = 5.64301 6.59512 6.13755
#
# Compressibility (1/GPa) = 0.02842615
#
# Stress axis : x y z
#
# Youngs Moduli (GPa) = 64.34725 92.71023 63.48571
#
# Poissons Ratio (x) = 0.04028 0.06377
# Poissons Ratio (y) = 0.02796 0.34202
# Poissons Ratio (z) = 0.06463 0.49946
#
# Static dielectric constant tensor:
#      x y z
#    x 1.883090 0.000000 0.063420 
#    y 0.000000 1.837160 0.000000 
#    z 0.063420 0.000000 1.860430 
# 
# From -- ./inp_files/90413.got.cif
#   From: 2010.05.17/outbox.cif.g08.bks.cpg/sg15_46_cif.got.tgz:90413.got - 2010.06.03 18:47:42.
