data_PCOD9255509
_publ_section_title
;
Structure prediction by ZEFSAII (Michael W. Deem and Ramdas Pophale) SiO2 
 PCOD9255509
Probable space group: C 2/C
;
_chemical_formula_sum "Si O2"
_cell_formula_units_Z 44
_cell_length_a 10.423772
_cell_length_b 16.788945
_cell_length_c 15.057546
_cell_angle_alpha 90.000000
_cell_angle_beta 134.794233
_cell_angle_gamma 90.000000
_cell_volume 1870.000013
_symmetry_space_group_name_H-M "C 2/C"
_symmetry_group_IT_number 15
_symmetry_cell_setting 'monoclinic'
loop_
_space_group_symop_operation_xyz
x,y,z
-x,y,1/2-z
-x,-y,-z
x,-y,1/2+z
1/2+x,1/2+y,z
1/2-x,1/2+y,1/2-z
1/2-x,1/2-y,-z
1/2+x,1/2-y,1/2+z
loop_
_atom_site_type_symbol
_atom_site_label
_atom_site_fract_x
_atom_site_fract_y
_atom_site_fract_z
Si Si1 0.960131 0.680232 0.500978
Si Si2 0.000000 0.715278 0.750000
Si Si3 0.526853 0.956219 0.918238
Si Si4 0.945334 0.008720 0.618921
Si Si5 0.706562 0.906756 0.260264
Si Si6 0.904630 0.832651 0.552912
O O1 0.954815 0.775209 0.493762
O O2 0.783811 0.664391 0.478572
O O3 0.956979 0.632303 0.407133
O O4 0.127724 0.642676 0.637847
O O5 0.839339 0.649616 0.678436
O O6 0.013847 0.775887 0.676538
O O7 0.405803 0.010367 0.794626
O O8 0.739834 0.962940 0.004581
O O9 0.500000 0.000000 0.000000
O O10 0.000000 0.998777 0.750000
O O11 0.088600 0.070418 0.651086
O O12 0.967863 0.922919 0.583726
#
# Coordination Sequence:
#
# PCOD9255509 Si02
#       6
#     8   4   8   8   8   8
#     4   9  17  31  50  78 106 133 168 232 265 296
#     4  10  22  34  50  78 114 144 166 226 274 312
#     4  10  17  31  52  79 107 135 177 222 263 301
#     4  12  18  30  56  87  99 140 184 220 258 321
#     4  10  20  34  51  78 115 139 177 216 267 314
#     4  10  18  29  53  81 104 132 182 219 267 302
#
# _framework density 23.529412000000001
#
# number of rings (size 3 to 8) (size 9 to 14) (size 15 to 20)
#    0.000    1.818    8.182    0.000    0.000    0.000 
#    0.000    0.909    0.000    5.455    0.000    0.000 
#    0.000    0.000    0.000    0.000    0.000    0.000 
#
# Total GULP energy -122574.460320 kJ/mol
# GULP energy per Si atom -5571.566378 kJ/mol
# Density = 2.347586 g / cm^3
# Si number density = 23.529412 Si / 1000 Ang^3
#
#
#
# Elastic Constant Matrix: (Units=GPa)
#
#
# Indices 1 2 3 4 5 6 
#
# 1 69.2584 63.1780 36.3756 0.0000 25.3020 0.0000
# 2 63.1780 168.6878 30.6265 0.0000 19.7705 0.0000
# 3 36.3756 30.6265 48.3016 0.0001 33.7620 0.0001
# 4 0.0000 0.0000 0.0001 26.6715 0.0000 -26.4342
# 5 25.3020 19.7705 33.7620 0.0000 44.5122 0.0001
# 6 0.0000 0.0000 0.0001 -26.4342 0.0001 -53.2850
#
#
#
# Elastic Compliance Matrix: (Units=1/GPa)
#
#
# Indices 1 2 3 4 5 6 
#
# 1 0.032175 -0.008652 -0.018405 0.000000 -0.000487 0.000000
# 2 -0.008652 0.009032 0.000331 0.000000 0.000656 0.000000
# 3 -0.018405 0.000331 0.057774 0.000000 -0.033506 0.000000
# 4 0.000000 0.000000 0.000000 0.025135 0.000000 -0.012469
# 5 -0.000487 0.000656 -0.033506 0.000000 0.047865 0.000000
# 6 0.000000 0.000000 0.000000 -0.012469 0.000000 -0.012581
#
#
# Mechanical properties :
#
#
# Convention : Reuss Voigt Hill
#
# Bulk Modulus (GPa) = 21.96396 60.73423 41.34909
# Shear Modulus (GPa) = 21.92703 13.98427 17.95565
#
# Velocity S-wave (km/s) = 3.05601 2.44054 2.76545
# Velocity P-wave (km/s) = 4.66982 5.81461 5.27337
#
# Compressibility (1/GPa) = 0.04552913
#
# Stress axis : x y z
#
# Youngs Moduli (GPa) = 31.07967 110.72247 17.30869
#
# Poissons Ratio (x) = 0.95796 0.31857
# Poissons Ratio (y) = 0.26890 -0.00572
# Poissons Ratio (z) = 0.57202 -0.03662
#
# Static dielectric constant tensor:
#      x y z
#    x 1.945210 0.000000 -0.042980 
#    y 0.000000 1.943930 0.000000 
#    z -0.042980 0.000000 2.228320 
# 
# From -- ./inp_files/145222.got.cif
#   From: 2010.05.17/outbox.cif.g08.bks.cpg/sg15_73_cif.got.tgz:145222.got - 2010.06.03 18:47:42.
