data_PCOD9255411
_publ_section_title
;
Structure prediction by ZEFSAII (Michael W. Deem and Ramdas Pophale) SiO2 
 PCOD9255411
Probable space group: C 2/C
;
_chemical_formula_sum "Si O2"
_cell_formula_units_Z 56
_cell_length_a 11.733050
_cell_length_b 15.168715
_cell_length_c 26.551267
_cell_angle_alpha 90.000000
_cell_angle_beta 150.460213
_cell_angle_gamma 90.000000
_cell_volume 2329.787959
_symmetry_space_group_name_H-M "C 2/C"
_symmetry_group_IT_number 15
_symmetry_cell_setting 'monoclinic'
loop_
_space_group_symop_operation_xyz
x,y,z
-x,y,1/2-z
-x,-y,-z
x,-y,1/2+z
1/2+x,1/2+y,z
1/2-x,1/2+y,1/2-z
1/2-x,1/2-y,-z
1/2+x,1/2-y,1/2+z
loop_
_atom_site_type_symbol
_atom_site_label
_atom_site_fract_x
_atom_site_fract_y
_atom_site_fract_z
Si Si1 0.907748 0.197496 0.407601
Si Si2 0.504634 0.890186 0.556562
Si Si3 0.165283 0.332139 0.265739
Si Si4 0.247045 0.634456 0.244876
Si Si5 0.088927 0.205159 0.980217
Si Si6 0.920160 0.371061 0.076398
Si Si7 0.186284 0.984417 0.901342
O O1 0.747568 0.150356 0.304520
O O2 0.822202 0.178387 0.431124
O O3 0.936859 0.299002 0.401113
O O4 0.174520 0.165010 0.503557
O O5 0.529711 0.891640 0.626682
O O6 0.565476 0.790863 0.563425
O O7 0.697907 0.950654 0.605339
O O8 0.257580 0.914495 0.436876
O O9 0.174490 0.231327 0.246918
O O10 0.415170 0.358127 0.384117
O O11 0.000000 0.335885 0.250000
O O12 0.073805 0.390654 0.184394
O O13 0.438806 0.559442 0.309365
O O14 0.250000 0.250000 0.000000
O O15 0.837305 0.444365 0.005655
#
# Coordination Sequence:
#
# PCOD9255411 Si02
#       7
#     8   8   8   8   8   8   8
#     4   9  16  30  55  81 105 134 182 234 274 315
#     4  10  20  34  52  80 114 153 176 220 292 343
#     4  10  17  30  55  82 106 138 190 233 268 321
#     4   9  18  31  55  80 105 146 187 233 274 326
#     4  11  21  35  53  82 120 147 177 224 292 342
#     4   9  16  29  53  84 100 128 184 242 265 306
#     4  10  18  32  57  80 112 140 188 237 271 331
#
# _framework density 24.036521
#
# number of rings (size 3 to 8) (size 9 to 14) (size 15 to 20)
#    0.000    2.286    2.857    3.000    0.000    0.000 
#    2.571    6.429    0.000    5.143    0.000    0.000 
#    0.000    0.000    0.000    0.000    0.000    0.000 
#
# Total GULP energy -156105.918871 kJ/mol
# GULP energy per Si atom -5575.211388 kJ/mol
# Density = 2.398181 g / cm^3
# Si number density = 24.036521 Si / 1000 Ang^3
#
#
#
# Elastic Constant Matrix: (Units=GPa)
#
#
# Indices 1 2 3 4 5 6 
#
# 1 160.4159 -6.0619 46.0255 0.0002 -38.9803 0.0001
# 2 -6.0619 20.8891 -3.0624 0.0001 -4.4596 0.0001
# 3 46.0255 -3.0624 98.3352 0.0012 -43.3440 0.0005
# 4 0.0002 0.0001 0.0012 31.7506 0.0002 -4.0117
# 5 -38.9803 -4.4596 -43.3440 0.0002 50.5141 0.0001
# 6 0.0001 0.0001 0.0005 -4.0117 0.0001 21.9905
#
#
#
# Elastic Compliance Matrix: (Units=1/GPa)
#
#
# Indices 1 2 3 4 5 6 
#
# 1 0.008036 0.003295 -0.001282 0.000000 0.005393 0.000000
# 2 0.003295 0.052063 0.005188 -0.000001 0.011591 0.000000
# 3 -0.001282 0.005188 0.017203 -0.000001 0.014230 -0.000001
# 4 0.000000 -0.000001 -0.000001 0.032239 -0.000001 0.005881
# 5 0.005393 0.011591 0.014230 -0.000001 0.037191 -0.000001
# 6 0.000000 0.000000 -0.000001 0.005881 -0.000001 0.046547
#
#
# Mechanical properties :
#
#
# Convention : Reuss Voigt Hill
#
# Bulk Modulus (GPa) = 10.90441 39.27139 25.08790
# Shear Modulus (GPa) = 23.87254 37.03363 30.45308
#
# Velocity S-wave (km/s) = 3.15489 3.92946 3.56329
# Velocity P-wave (km/s) = 4.22109 6.07958 5.23349
#
# Compressibility (1/GPa) = 0.09170606
#
# Stress axis : x y z
#
# Youngs Moduli (GPa) = 124.43256 19.20740 58.12868
#
# Poissons Ratio (x) = -0.06330 0.07452
# Poissons Ratio (y) = -0.41006 -0.30157
# Poissons Ratio (z) = 0.15951 -0.09965
#
# Static dielectric constant tensor:
#      x y z
#    x 1.925100 0.000000 0.010540 
#    y 0.000000 2.097700 0.000000 
#    z 0.010540 0.000000 1.996060 
# 
# From -- ./inp_files/199436.got.cif
#   From: 2010.05.17/outbox.cif.g08.bks.cpg/sg15_100_cif.got.tgz:199436.got - 2010.06.03 18:47:42.
