data_PCOD9255636
_publ_section_title
;
Structure prediction by ZEFSAII (Michael W. Deem and Ramdas Pophale) SiO2 
 PCOD9255636
Probable space group: C 2/C
;
_chemical_formula_sum "Si O2"
_cell_formula_units_Z 56
_cell_length_a 20.804820
_cell_length_b 17.429876
_cell_length_c 8.529392
_cell_angle_alpha 90.000000
_cell_angle_beta 97.298148
_cell_angle_gamma 90.000000
_cell_volume 3067.916885
_symmetry_space_group_name_H-M "C 2/C"
_symmetry_group_IT_number 15
_symmetry_cell_setting 'monoclinic'
loop_
_space_group_symop_operation_xyz
x,y,z
-x,y,1/2-z
-x,-y,-z
x,-y,1/2+z
1/2+x,1/2+y,z
1/2-x,1/2+y,1/2-z
1/2-x,1/2-y,-z
1/2+x,1/2-y,1/2+z
loop_
_atom_site_type_symbol
_atom_site_label
_atom_site_fract_x
_atom_site_fract_y
_atom_site_fract_z
Si Si1 0.650245 0.346793 0.615222
Si Si2 0.213959 0.433930 0.439353
Si Si3 0.793117 0.406355 0.694426
Si Si4 0.837007 0.761809 0.195849
Si Si5 0.637176 0.596582 0.612605
Si Si6 0.291106 0.775537 0.166906
Si Si7 0.924020 0.032082 0.220921
O O1 0.720488 0.386570 0.612883
O O2 0.638284 0.296058 0.458948
O O3 0.660074 0.290178 0.766746
O O4 0.598189 0.409564 0.648531
O O5 0.214542 0.424890 0.625070
O O6 0.186001 0.515875 0.383496
O O7 0.288008 0.424150 0.401483
O O8 0.179897 0.358701 0.356623
O O9 0.837493 0.330433 0.695811
O O10 0.868932 0.813865 0.342460
O O11 0.760539 0.779156 0.205947
O O12 0.596795 0.569383 0.449996
O O13 0.614726 0.545818 0.753727
O O14 0.250000 0.750000 0.000000
O O15 0.000000 0.017942 0.250000
#
# Coordination Sequence:
#
# PCOD9255636 Si02
#       7
#     8   8   8   8   8   8   8
#     4  11  20  35  50  73 111 146 188 226 273 321
#     4  11  20  30  51  75 111 144 181 217 268 330
#     4  11  21  32  49  80 108 146 185 213 270 333
#     4  10  22  33  53  74 108 146 186 221 279 338
#     4  11  21  38  53  73 110 149 183 233 278 316
#     4  10  17  32  49  74 103 148 184 221 266 337
#     4  12  24  38  58  80 106 149 200 234 268 319
#
# _framework density 18.253428
#
# number of rings (size 3 to 8) (size 9 to 14) (size 15 to 20)
#    0.000    1.143    5.714    3.857    6.000    0.000 
#    0.000    0.000    0.000    0.000    0.000    0.000 
#    0.000    5.714    0.000    0.000    0.000    0.000 
#
# Total GULP energy -156265.441990 kJ/mol
# GULP energy per Si atom -5580.908643 kJ/mol
# Density = 1.821188 g / cm^3
# Si number density = 18.253428 Si / 1000 Ang^3
#
#
#
# Elastic Constant Matrix: (Units=GPa)
#
#
# Indices 1 2 3 4 5 6 
#
# 1 25.9516 9.8896 3.7635 0.0000 -4.2279 0.0000
# 2 9.8896 152.3845 31.9867 0.0000 -7.0489 0.0000
# 3 3.7635 31.9867 60.8840 0.0000 -10.9163 0.0000
# 4 0.0000 0.0000 0.0000 36.4049 0.0000 -5.6637
# 5 -4.2279 -7.0489 -10.9163 0.0000 10.9019 0.0000
# 6 0.0000 0.0000 0.0000 -5.6637 0.0000 6.8195
#
#
#
# Elastic Compliance Matrix: (Units=1/GPa)
#
#
# Indices 1 2 3 4 5 6 
#
# 1 0.041834 -0.002284 0.001533 0.000000 0.016282 0.000000
# 2 -0.002284 0.007511 -0.003770 0.000000 0.000196 0.000000
# 3 0.001533 -0.003770 0.021914 0.000000 0.020101 0.000000
# 4 0.000000 0.000000 0.000000 0.031545 0.000000 0.026199
# 5 0.016282 0.000196 0.020101 0.000000 0.118296 0.000000
# 6 0.000000 0.000000 0.000000 0.026199 0.000000 0.168398
#
#
# Mechanical properties :
#
#
# Convention : Reuss Voigt Hill
#
# Bulk Modulus (GPa) = 16.07233 36.72220 26.39727
# Shear Modulus (GPa) = 11.92529 23.73059 17.82794
#
# Velocity S-wave (km/s) = 2.55878 3.60955 3.12859
# Velocity P-wave (km/s) = 4.18975 6.12645 5.24821
#
# Compressibility (1/GPa) = 0.06221872
#
# Stress axis : x y z
#
# Youngs Moduli (GPa) = 23.90412 133.13961 45.63214
#
# Poissons Ratio (x) = 0.30404 -0.06996
# Poissons Ratio (y) = 0.05459 0.17202
# Poissons Ratio (z) = -0.03665 0.50190
#
# Static dielectric constant tensor:
#      x y z
#    x 1.591100 0.000000 -0.009100 
#    y 0.000000 1.709960 0.000000 
#    z -0.009100 0.000000 1.687210 
# 
# From -- ./inp_files/56069.got.cif
#   From: 2010.05.17/outbox.cif.g08.bks.cpg/sg15_29_cif.got.tgz:56069.got - 2010.06.03 18:47:42.
