data_PCOD9255703
_publ_section_title
;
Structure prediction by ZEFSAII (Michael W. Deem and Ramdas Pophale) SiO2 
 PCOD9255703
Probable space group: C 2/C
;
_chemical_formula_sum "Si O2"
_cell_formula_units_Z 52
_cell_length_a 16.638153
_cell_length_b 14.854518
_cell_length_c 23.028343
_cell_angle_alpha 90.000000
_cell_angle_beta 25.078601
_cell_angle_gamma 90.000000
_cell_volume 2412.403828
_symmetry_space_group_name_H-M "C 2/C"
_symmetry_group_IT_number 15
_symmetry_cell_setting 'monoclinic'
loop_
_space_group_symop_operation_xyz
x,y,z
-x,y,1/2-z
-x,-y,-z
x,-y,1/2+z
1/2+x,1/2+y,z
1/2-x,1/2+y,1/2-z
1/2-x,1/2-y,-z
1/2+x,1/2-y,1/2+z
loop_
_atom_site_type_symbol
_atom_site_label
_atom_site_fract_x
_atom_site_fract_y
_atom_site_fract_z
Si Si1 0.000000 0.735115 0.250000
Si Si2 0.415580 0.416245 0.867562
Si Si3 0.889405 0.093559 0.143116
Si Si4 0.104440 0.878499 0.386019
Si Si5 0.014454 0.611888 0.807049
Si Si6 0.614900 0.622648 0.584183
Si Si7 0.440812 0.907375 0.709292
O O1 0.103829 0.800877 0.139000
O O2 0.133390 0.669363 0.199592
O O3 0.500000 0.387356 0.750000
O O4 0.526992 0.377536 0.850356
O O5 0.451822 0.524326 0.849514
O O6 0.192254 0.394534 0.026722
O O7 0.664622 0.106944 0.282147
O O8 0.913064 0.985899 0.117393
O O9 0.998429 0.135945 0.016794
O O10 0.321803 0.849920 0.257674
O O11 0.006091 0.842901 0.391843
O O12 0.000000 0.648362 0.750000
O O13 0.093221 0.508963 0.747473
O O14 0.836907 0.604928 0.431964
#
# Coordination Sequence:
#
# PCOD9255703 Si02
#       7
#     4   8   8   8   8   8   8
#     4  12  20  34  50  70 110 144 174 212 258 308
#     4  10  19  34  51  79 110 136 167 217 274 311
#     4   9  17  30  51  73 102 132 176 213 256 309
#     4   9  17  30  50  76  99 135 173 216 254 307
#     4  10  17  32  54  80 103 132 175 220 257 311
#     4  10  21  34  47  73 112 140 173 213 260 312
#     4  10  20  31  49  75 101 140 175 209 254 309
#
# _framework density 21.555264000000001
#
# number of rings (size 3 to 8) (size 9 to 14) (size 15 to 20)
#    0.000    2.154    3.077    1.385    4.308    0.000 
#    2.769    3.077    0.000    0.000    0.000    2.154 
#    0.000    0.000    0.000    0.000    0.000    0.000 
#
# Total GULP energy -144773.758326 kJ/mol
# GULP energy per Si atom -5568.221474 kJ/mol
# Density = 2.150620 g / cm^3
# Si number density = 21.555264 Si / 1000 Ang^3
#
#
#
# Elastic Constant Matrix: (Units=GPa)
#
#
# Indices 1 2 3 4 5 6 
#
# 1 173.5754 -2.7618 68.8491 -0.0003 -11.6411 0.0005
# 2 -2.7618 22.6382 0.4459 0.0212 1.4090 -0.0003
# 3 68.8491 0.4459 73.8807 -0.0067 4.3471 -0.0010
# 4 -0.0003 0.0212 -0.0067 -4.6163 0.0059 4.3869
# 5 -11.6411 1.4090 4.3471 0.0059 38.0872 0.0019
# 6 0.0005 -0.0003 -0.0010 4.3869 0.0019 12.3464
#
#
#
# Elastic Compliance Matrix: (Units=1/GPa)
#
#
# Indices 1 2 3 4 5 6 
#
# 1 0.009746 0.001124 -0.009325 0.000016 0.004001 -0.000007
# 2 0.001124 0.044407 -0.001247 0.000153 -0.001157 -0.000053
# 3 -0.009325 -0.001247 0.022549 -0.000031 -0.005377 0.000014
# 4 0.000016 0.000153 -0.000031 -0.161940 0.000025 0.057541
# 5 0.004001 -0.001157 -0.005377 0.000025 0.028135 -0.000014
# 6 -0.000007 -0.000053 0.000014 0.057541 -0.000014 0.060550
#
#
# Mechanical properties :
#
#
# Convention : Reuss Voigt Hill
#
# Bulk Modulus (GPa) = 17.29936 44.79564 31.04750
# Shear Modulus (GPa) = 120.16285 22.73420 71.44852
#
# Velocity S-wave (km/s) = 7.47445 3.25113 5.76356
# Velocity P-wave (km/s) = 9.08476 5.90931 7.66332
#
# Compressibility (1/GPa) = 0.05780560
#
# Stress axis : x y z
#
# Youngs Moduli (GPa) = 102.60599 22.51918 44.34838
#
# Poissons Ratio (x) = -0.02530 0.41353
# Poissons Ratio (y) = -0.11528 0.05530
# Poissons Ratio (z) = 0.95675 0.02808
#
# Static dielectric constant tensor:
#      x y z
#    x 1.865210 0.000000 -0.200940 
#    y 0.000000 1.846410 0.000000 
#    z -0.200940 0.000000 3.216880 
# 
# From -- ./inp_files/245004.got.cif
#   From: 2010.05.17/outbox.cif.g08.bks.cpg/sg15_123_cif.got.tgz:245004.got - 2010.06.03 18:47:42.
