data_PCOD9255631
_publ_section_title
;
Structure prediction by ZEFSAII (Michael W. Deem and Ramdas Pophale) SiO2 
 PCOD9255631
Probable space group: C 2/C
;
_chemical_formula_sum "Si O2"
_cell_formula_units_Z 56
_cell_length_a 11.436378
_cell_length_b 26.513883
_cell_length_c 15.086177
_cell_angle_alpha 90.000000
_cell_angle_beta 143.747071
_cell_angle_gamma 90.000000
_cell_volume 2705.118400
_symmetry_space_group_name_H-M "C 2/C"
_symmetry_group_IT_number 15
_symmetry_cell_setting 'monoclinic'
loop_
_space_group_symop_operation_xyz
x,y,z
-x,y,1/2-z
-x,-y,-z
x,-y,1/2+z
1/2+x,1/2+y,z
1/2-x,1/2+y,1/2-z
1/2-x,1/2-y,-z
1/2+x,1/2-y,1/2+z
loop_
_atom_site_type_symbol
_atom_site_label
_atom_site_fract_x
_atom_site_fract_y
_atom_site_fract_z
Si Si1 0.595615 0.618102 0.072895
Si Si2 0.036639 0.215509 0.128166
Si Si3 0.252831 0.972754 0.335942
Si Si4 0.220562 0.087984 0.342127
Si Si5 0.307210 0.053708 0.672392
Si Si6 0.792471 0.953784 0.005351
Si Si7 0.321887 0.811112 0.965501
O O1 0.574736 0.678201 0.069351
O O2 0.702602 0.601606 0.228343
O O3 0.384010 0.589400 0.947771
O O4 0.707563 0.594752 0.057626
O O5 0.829395 0.197068 0.045490
O O6 0.200123 0.207020 0.303951
O O7 0.006077 0.274189 0.089122
O O8 0.344117 0.961178 0.296675
O O9 0.308465 0.944307 0.460925
O O10 0.020289 0.965204 0.170783
O O11 0.279834 0.030394 0.381369
O O12 0.354082 0.129691 0.471409
O O13 0.000000 0.093090 0.250000
O O14 0.500000 0.079273 0.750000
O O15 0.272011 0.002651 0.592113
#
# Coordination Sequence:
#
# PCOD9255631 Si02
#       7
#     8   8   8   8   8   8   8
#     4  10  17  32  49  69  98 137 180 202 244 312
#     4   9  17  30  45  70 100 134 169 218 258 313
#     4  10  18  31  54  69 100 133 181 213 234 300
#     4  11  14  27  49  73  87 132 177 210 238 304
#     4  11  21  32  44  75 112 136 161 210 268 305
#     4  10  18  31  52  72  94 137 184 210 236 303
#     4   9  17  27  45  69  99 129 170 206 267 308
#
# _framework density 20.701497
#
# number of rings (size 3 to 8) (size 9 to 14) (size 15 to 20)
#    0.000    2.000    7.143    0.857    0.000    0.571 
#    5.143    0.000    0.000    0.000    0.000    0.000 
#    8.571   42.286    0.000    0.000    0.000    0.000 
#
# Total GULP energy -156338.734867 kJ/mol
# GULP energy per Si atom -5583.526245 kJ/mol
# Density = 2.065438 g / cm^3
# Si number density = 20.701497 Si / 1000 Ang^3
#
#
#
# Elastic Constant Matrix: (Units=GPa)
#
#
# Indices 1 2 3 4 5 6 
#
# 1 87.7291 17.5708 28.5097 0.0000 -37.9983 0.0000
# 2 17.5708 80.0334 18.2077 0.0000 -19.0714 0.0000
# 3 28.5097 18.2077 52.5354 0.0000 -20.8279 0.0000
# 4 0.0000 0.0000 0.0000 29.9609 0.0000 -9.5544
# 5 -37.9983 -19.0714 -20.8279 0.0000 32.9697 0.0000
# 6 0.0000 0.0000 0.0000 -9.5544 0.0000 14.5262
#
#
#
# Elastic Compliance Matrix: (Units=1/GPa)
#
#
# Indices 1 2 3 4 5 6 
#
# 1 0.023237 0.001747 -0.002932 0.000000 0.025939 0.000000
# 2 0.001747 0.014829 -0.002519 0.000000 0.008999 0.000000
# 3 -0.002932 -0.002519 0.026124 0.000000 0.011667 0.000000
# 4 0.000000 0.000000 0.000000 0.042236 0.000000 0.027780
# 5 0.025939 0.008999 0.011667 0.000000 0.072802 0.000000
# 6 0.000000 0.000000 0.000000 0.027780 0.000000 0.087113
#
#
# Mechanical properties :
#
#
# Convention : Reuss Voigt Hill
#
# Bulk Modulus (GPa) = 17.61151 38.76379 28.18765
# Shear Modulus (GPa) = 17.08365 25.89203 21.48784
#
# Velocity S-wave (km/s) = 2.87581 3.54041 3.22527
# Velocity P-wave (km/s) = 4.42186 5.95637 5.24554
#
# Compressibility (1/GPa) = 0.05678105
#
# Stress axis : x y z
#
# Youngs Moduli (GPa) = 43.03541 67.43560 38.27831
#
# Poissons Ratio (x) = -0.11778 0.11222
# Poissons Ratio (y) = -0.07517 0.09644
# Poissons Ratio (z) = 0.12616 0.16990
#
# Static dielectric constant tensor:
#      x y z
#    x 1.792390 0.000000 0.012610 
#    y 0.000000 1.758220 0.000000 
#    z 0.012610 0.000000 1.770540 
# 
# From -- ./inp_files/148582.got.cif
#   From: 2010.05.17/outbox.cif.g08.bks.cpg/sg15_75_cif.got.tgz:148582.got - 2010.06.03 18:47:42.
