data_PCOD9255899
_publ_section_title
;
Structure prediction by ZEFSAII (Michael W. Deem and Ramdas Pophale) SiO2 
 PCOD9255899
Probable space group: C 2/C
;
_chemical_formula_sum "Si O2"
_cell_formula_units_Z 64
_cell_length_a 30.802731
_cell_length_b 19.938149
_cell_length_c 19.681903
_cell_angle_alpha 90.000000
_cell_angle_beta 163.341208
_cell_angle_gamma 90.000000
_cell_volume 3465.179727
_symmetry_space_group_name_H-M "C 2/C"
_symmetry_group_IT_number 15
_symmetry_cell_setting 'monoclinic'
loop_
_space_group_symop_operation_xyz
x,y,z
-x,y,1/2-z
-x,-y,-z
x,-y,1/2+z
1/2+x,1/2+y,z
1/2-x,1/2+y,1/2-z
1/2-x,1/2-y,-z
1/2+x,1/2-y,1/2+z
loop_
_atom_site_type_symbol
_atom_site_label
_atom_site_fract_x
_atom_site_fract_y
_atom_site_fract_z
Si Si1 0.012565 0.137751 0.612982
Si Si2 0.377550 0.156955 0.844620
Si Si3 0.523272 0.284458 0.996079
Si Si4 0.791225 0.617722 0.114138
Si Si5 0.151763 0.785884 0.515621
Si Si6 0.550948 0.351595 0.903231
Si Si7 0.565247 0.493718 0.423485
Si Si8 0.329298 0.016839 0.730552
O O1 0.001409 0.156184 0.517919
O O2 0.908507 0.188053 0.502012
O O3 0.188315 0.146206 0.899616
O O4 0.967492 0.063525 0.571325
O O5 0.232169 0.161675 0.674685
O O6 0.327396 0.096460 0.718515
O O7 0.422115 0.222950 0.870778
O O8 0.532472 0.137413 0.116997
O O9 0.700108 0.260691 0.261901
O O10 0.481814 0.307089 0.858584
O O11 0.778099 0.536823 0.097678
O O12 0.710478 0.649656 0.059851
O O13 0.000000 0.759555 0.250000
O O14 0.500000 0.336933 0.750000
O O15 0.516560 0.430141 0.866198
O O16 0.500000 0.477852 0.250000
O O17 0.741283 0.500885 0.668292
O O18 0.500000 0.000000 0.000000
#
# Coordination Sequence:
#
# PCOD9255899 Si02
#       8
#     8   8   8   8   8   8   8   8
#     4  11  19  31  57  83 118 145 174 228 276 341
#     4   9  20  35  54  81 110 141 186 227 265 336
#     4  11  23  35  51  85 114 147 183 219 291 344
#     4   9  16  30  54  87 111 142 181 218 273 326
#     4   9  18  32  52  81 121 152 173 210 269 348
#     4  10  23  40  58  73 102 144 193 245 274 319
#     4  10  17  33  56  79 104 139 188 226 266 314
#     4   9  15  28  52  80 104 140 191 227 243 303
#
# _framework density 18.469460999999999
#
# number of rings (size 3 to 8) (size 9 to 14) (size 15 to 20)
#    0.000    2.250    2.500    1.125    0.000    6.500 
#    0.000    0.000    0.000    0.000    0.000    0.000 
#    0.000    0.000    0.000    0.000    0.000    0.000 
#
# Total GULP energy -178155.813047 kJ/mol
# GULP energy per Si atom -5567.369158 kJ/mol
# Density = 1.842742 g / cm^3
# Si number density = 18.469461 Si / 1000 Ang^3
#
#
#
# Elastic Constant Matrix: (Units=GPa)
#
#
# Indices 1 2 3 4 5 6 
#
# 1 78.2430 51.5847 18.3425 0.0000 -8.7988 0.0000
# 2 51.5847 104.6838 17.9470 0.0000 -4.3878 0.0000
# 3 18.3425 17.9470 58.9636 0.0000 15.5271 0.0000
# 4 0.0000 0.0000 0.0000 20.5597 0.0000 0.0660
# 5 -8.7988 -4.3878 15.5271 0.0000 16.2742 0.0000
# 6 0.0000 0.0000 0.0000 0.0660 0.0000 7.7950
#
#
#
# Elastic Compliance Matrix: (Units=1/GPa)
#
#
# Indices 1 2 3 4 5 6 
#
# 1 0.023032 -0.008925 -0.009474 0.000000 0.019085 0.000000
# 2 -0.008925 0.014281 -0.001754 0.000000 0.000698 0.000000
# 3 -0.009474 -0.001754 0.029267 0.000000 -0.033519 0.000000
# 4 0.000000 0.000000 0.000000 0.048640 0.000000 -0.000412
# 5 0.019085 0.000698 -0.033519 0.000000 0.103934 0.000000
# 6 0.000000 0.000000 0.000000 -0.000412 0.000000 0.128291
#
#
# Mechanical properties :
#
#
# Convention : Reuss Voigt Hill
#
# Bulk Modulus (GPa) = 38.06131 46.40429 42.23280
# Shear Modulus (GPa) = 12.61003 19.19353 15.90178
#
# Velocity S-wave (km/s) = 2.61578 3.22717 2.93742
# Velocity P-wave (km/s) = 5.45670 6.25024 5.86690
#
# Compressibility (1/GPa) = 0.02627340
#
# Stress axis : x y z
#
# Youngs Moduli (GPa) = 43.41726 70.02471 34.16785
#
# Poissons Ratio (x) = 0.62500 0.32371
# Poissons Ratio (y) = 0.38752 0.05993
# Poissons Ratio (z) = 0.41134 0.12282
#
# Static dielectric constant tensor:
#      x y z
#    x 1.608400 0.000000 0.019540 
#    y 0.000000 1.700730 0.000000 
#    z 0.019540 0.000000 1.697880 
# 
# From -- ./inp_files/223163.got.cif
#   From: 2010.05.17/outbox.cif.g08.bks.cpg/sg15_112_cif.got.tgz:223163.got - 2010.06.03 18:47:42.
