data_PCOD9255568
_publ_section_title
;
Structure prediction by ZEFSAII (Michael W. Deem and Ramdas Pophale) SiO2 
 PCOD9255568
Probable space group: C 2/C
;
_chemical_formula_sum "Si O2"
_cell_formula_units_Z 64
_cell_length_a 15.051241
_cell_length_b 25.390771
_cell_length_c 7.603874
_cell_angle_alpha 90.000000
_cell_angle_beta 95.164493
_cell_angle_gamma 90.000000
_cell_volume 2894.119426
_symmetry_space_group_name_H-M "C 2/C"
_symmetry_group_IT_number 15
_symmetry_cell_setting 'monoclinic'
loop_
_space_group_symop_operation_xyz
x,y,z
-x,y,1/2-z
-x,-y,-z
x,-y,1/2+z
1/2+x,1/2+y,z
1/2-x,1/2+y,1/2-z
1/2-x,1/2-y,-z
1/2+x,1/2-y,1/2+z
loop_
_atom_site_type_symbol
_atom_site_label
_atom_site_fract_x
_atom_site_fract_y
_atom_site_fract_z
Si Si1 0.368720 0.855098 0.012566
Si Si2 0.871002 0.859104 0.008938
Si Si3 0.516340 0.560947 0.462447
Si Si4 0.587275 0.256449 0.893602
Si Si5 0.488812 0.060837 0.958071
Si Si6 0.335191 0.132424 0.923676
Si Si7 0.161239 0.863666 0.914711
Si Si8 0.649653 0.245611 0.537726
O O1 0.407845 0.796264 0.992231
O O2 0.434919 0.900042 0.955053
O O3 0.358423 0.862305 0.221833
O O4 0.267268 0.860740 0.934649
O O5 0.862304 0.862111 0.795639
O O6 0.898198 0.797765 0.045214
O O7 0.945982 0.902756 0.056803
O O8 0.771624 0.869520 0.067391
O O9 0.500000 0.566049 0.250000
O O10 0.500000 0.500000 0.500000
O O11 0.615270 0.586091 0.499102
O O12 0.500000 0.258267 0.750000
O O13 0.613386 0.311441 0.985482
O O14 0.658696 0.249054 0.750907
O O15 0.500000 0.065163 0.750000
O O16 0.391963 0.082701 0.996952
O O17 0.500000 0.000000 0.000000
O O18 0.376325 0.186159 0.013686
O O19 0.750000 0.250000 0.500000
#
# Coordination Sequence:
#
# PCOD9255568 Si02
#       8
#     8   8   8   8   8   8   8   8
#     4  10  20  34  54  83 111 136 172 220 267 314
#     4   9  18  34  56  79 104 138 174 211 264 321
#     4  10  22  38  54  74 103 142 184 221 261 311
#     4  10  17  31  56  81 107 140 172 208 259 321
#     4  10  22  38  54  74 103 142 184 221 261 311
#     4   9  18  34  56  79 104 138 174 211 264 321
#     4  10  20  34  54  83 111 136 172 220 267 314
#     4   8  14  27  50  77 100 124 159 202 250 309
#
# _framework density 22.113807999999999
#
# number of rings (size 3 to 8) (size 9 to 14) (size 15 to 20)
#    0.000    2.500    0.000    4.125    0.000    3.000 
#    0.000    5.000    0.000    0.000    0.000   24.500 
#    0.000    0.000    0.000    0.000    0.000    0.000 
#
# Total GULP energy -178328.614139 kJ/mol
# GULP energy per Si atom -5572.769192 kJ/mol
# Density = 2.206348 g / cm^3
# Si number density = 22.113808 Si / 1000 Ang^3
#
#
#
# Elastic Constant Matrix: (Units=GPa)
#
#
# Indices 1 2 3 4 5 6 
#
# 1 68.3723 19.1741 -2.1428 0.0000 7.0277 0.0000
# 2 19.1741 128.6846 -3.7088 0.0000 12.1991 0.0000
# 3 -2.1428 -3.7088 22.2536 0.0000 -1.1574 0.0000
# 4 0.0000 0.0000 0.0000 20.9386 0.0000 -2.6079
# 5 7.0277 12.1991 -1.1574 0.0000 31.9182 0.0000
# 6 0.0000 0.0000 0.0000 -2.6079 0.0000 30.9207
#
#
#
# Elastic Compliance Matrix: (Units=1/GPa)
#
#
# Indices 1 2 3 4 5 6 
#
# 1 0.015495 -0.002033 0.001018 0.000000 -0.002598 0.000000
# 2 -0.002033 0.008361 0.001057 0.000000 -0.002710 0.000000
# 3 0.001018 0.001057 0.045263 0.000000 0.001013 0.000000
# 4 0.000000 0.000000 0.000000 0.048266 0.000000 0.004071
# 5 -0.002598 -0.002710 0.001013 0.000000 0.032974 0.000000
# 6 0.000000 0.000000 0.000000 0.004071 0.000000 0.032684
#
#
# Mechanical properties :
#
#
# Convention : Reuss Voigt Hill
#
# Bulk Modulus (GPa) = 14.45026 27.32840 20.88933
# Shear Modulus (GPa) = 24.26851 30.48802 27.37827
#
# Velocity S-wave (km/s) = 3.31635 3.71710 3.52243
# Velocity P-wave (km/s) = 4.60575 5.55043 5.10001
#
# Compressibility (1/GPa) = 0.06920293
#
# Stress axis : x y z
#
# Youngs Moduli (GPa) = 64.53739 119.59993 22.09286
#
# Poissons Ratio (x) = 0.24317 -0.02249
# Poissons Ratio (y) = 0.13121 -0.02335
# Poissons Ratio (z) = -0.06570 -0.12639
#
# Static dielectric constant tensor:
#      x y z
#    x 2.686300 0.000000 -0.242270 
#    y 0.000000 1.888520 0.000000 
#    z -0.242270 0.000000 1.958020 
# 
# From -- ./inp_files/43559.got.cif
#   From: 2010.05.17/outbox.cif.g08.bks.cpg/sg15_22_cif.got.tgz:43559.got - 2010.06.03 18:47:42.
