data_PCOD9255338
_publ_section_title
;
Structure prediction by ZEFSAII (Michael W. Deem and Ramdas Pophale) SiO2 
 PCOD9255338
Probable space group: C 2/C
;
_chemical_formula_sum "Si O2"
_cell_formula_units_Z 48
_cell_length_a 15.059432
_cell_length_b 25.926085
_cell_length_c 5.541631
_cell_angle_alpha 90.000000
_cell_angle_beta 111.560069
_cell_angle_gamma 90.000000
_cell_volume 2012.247559
_symmetry_space_group_name_H-M "C 2/C"
_symmetry_group_IT_number 15
_symmetry_cell_setting 'monoclinic'
loop_
_space_group_symop_operation_xyz
x,y,z
-x,y,1/2-z
-x,-y,-z
x,-y,1/2+z
1/2+x,1/2+y,z
1/2-x,1/2+y,1/2-z
1/2-x,1/2-y,-z
1/2+x,1/2-y,1/2+z
loop_
_atom_site_type_symbol
_atom_site_label
_atom_site_fract_x
_atom_site_fract_y
_atom_site_fract_z
Si Si1 0.652393 0.635529 0.652756
Si Si2 0.665858 0.334280 0.666172
Si Si3 0.029948 0.573561 0.529884
Si Si4 0.382618 0.832629 0.882650
Si Si5 0.163806 0.287430 0.163713
Si Si6 0.763551 0.533597 0.763802
O O1 0.611358 0.648998 0.351349
O O2 0.743184 0.675914 0.743450
O O3 0.679123 0.575296 0.679419
O O4 0.611337 0.648965 0.872207
O O5 0.774855 0.357800 0.775048
O O6 0.685045 0.273057 0.685127
O O7 0.143537 0.571304 0.643349
O O8 0.000000 0.549418 0.750000
O O9 0.965505 0.625223 0.465454
O O10 0.000000 0.549391 0.250000
O O11 0.387418 0.800672 0.639507
O O12 0.387427 0.800692 0.135425
O O13 0.764613 0.499999 0.514866
#
# Coordination Sequence:
#
# PCOD9255338 Si02
#       6
#     8   8   8   8   8   8
#     4  10  18  32  49  67  88 112 147 198 252 294
#     4  10  17  30  51  71  87 104 130 180 262 323
#     4  12  23  37  49  62  84 121 167 211 251 281
#     4  10  18  29  45  64  87 108 136 182 239 295
#     4  10  18  30  49  71  88 104 130 181 262 321
#     4  12  26  40  51  65  90 131 182 224 254 278
#
# _framework density 23.853922000000001
#
# number of rings (size 3 to 8) (size 9 to 14) (size 15 to 20)
#    0.000    1.333    0.000   12.000    0.000    2.000 
#    0.000    0.000    0.000    0.000    0.000    0.000 
#    0.000    0.000    0.000    0.000    0.000    0.000 
#
# Total GULP energy -134027.847186 kJ/mol
# GULP energy per Si atom -5584.493633 kJ/mol
# Density = 2.379963 g / cm^3
# Si number density = 23.853922 Si / 1000 Ang^3
#
#
#
# Elastic Constant Matrix: (Units=GPa)
#
#
# Indices 1 2 3 4 5 6 
#
# 1 52.8510 41.1774 53.3143 0.0000 -2.2754 0.0000
# 2 41.1774 133.1448 64.8341 0.0000 -8.5214 0.0000
# 3 53.3143 64.8341 249.8218 0.0000 -69.2097 0.0000
# 4 0.0000 0.0000 0.0000 106.3939 0.0000 -26.3598
# 5 -2.2754 -8.5214 -69.2097 0.0000 27.6742 0.0000
# 6 0.0000 0.0000 0.0000 -26.3598 0.0000 34.4706
#
#
#
# Elastic Compliance Matrix: (Units=1/GPa)
#
#
# Indices 1 2 3 4 5 6 
#
# 1 0.046741 -0.005947 -0.025635 0.000000 -0.062098 0.000000
# 2 -0.005947 0.010205 -0.002097 0.000000 -0.002592 0.000000
# 3 -0.025635 -0.002097 0.030131 0.000000 0.072599 0.000000
# 4 0.000000 0.000000 0.000000 0.011596 0.000000 0.008868
# 5 -0.062098 -0.002592 0.072599 0.000000 0.211793 0.000000
# 6 0.000000 0.000000 0.000000 0.008868 0.000000 0.035791
#
#
# Mechanical properties :
#
#
# Convention : Reuss Voigt Hill
#
# Bulk Modulus (GPa) = 50.71535 83.82991 67.27263
# Shear Modulus (GPa) = 11.89943 52.14054 32.01998
#
# Velocity S-wave (km/s) = 2.23591 4.68035 3.66777
# Velocity P-wave (km/s) = 5.28892 8.02664 6.79704
#
# Compressibility (1/GPa) = 0.01971790
#
# Stress axis : x y z
#
# Youngs Moduli (GPa) = 21.39461 97.98887 33.18887
#
# Poissons Ratio (x) = 0.58273 0.85080
# Poissons Ratio (y) = 0.12723 0.06961
# Poissons Ratio (z) = 0.54845 0.20552
#
# Static dielectric constant tensor:
#      x y z
#    x 1.953280 0.000000 -0.022060 
#    y 0.000000 1.889580 0.000000 
#    z -0.022060 0.000000 2.013460 
# 
# From -- ./inp_files/13576.got.cif
#   From: 2010.05.17/outbox.cif.g08.bks.cpg/sg15_7_cif.got.tgz:13576.got - 2010.06.03 18:47:42.
