data_PCOD9255885
_publ_section_title
;
Structure prediction by ZEFSAII (Michael W. Deem and Ramdas Pophale) SiO2 
 PCOD9255885
Probable space group: C 2/C
;
_chemical_formula_sum "Si O2"
_cell_formula_units_Z 40
_cell_length_a 11.911344
_cell_length_b 25.038969
_cell_length_c 12.014338
_cell_angle_alpha 90.000000
_cell_angle_beta 26.876087
_cell_angle_gamma 90.000000
_cell_volume 1619.852640
_symmetry_space_group_name_H-M "C 2/C"
_symmetry_group_IT_number 15
_symmetry_cell_setting 'monoclinic'
loop_
_space_group_symop_operation_xyz
x,y,z
-x,y,1/2-z
-x,-y,-z
x,-y,1/2+z
1/2+x,1/2+y,z
1/2-x,1/2+y,1/2-z
1/2-x,1/2-y,-z
1/2+x,1/2-y,1/2+z
loop_
_atom_site_type_symbol
_atom_site_label
_atom_site_fract_x
_atom_site_fract_y
_atom_site_fract_z
Si Si1 0.329845 0.871072 0.812904
Si Si2 0.112852 0.269118 0.871431
Si Si3 0.500000 0.925290 0.250000
Si Si4 0.000000 0.202722 0.750000
Si Si5 0.317137 0.493295 0.324622
Si Si6 0.135676 0.076781 0.900582
O O1 0.500000 0.905811 0.750000
O O2 0.428051 0.831118 0.627633
O O3 0.216617 0.832965 0.008742
O O4 0.092386 0.896460 0.961783
O O5 0.402900 0.255063 0.638692
O O6 0.084997 0.236857 0.779578
O O7 0.360721 0.965798 0.456426
O O8 0.691595 0.894210 0.160989
O O9 0.500000 0.464885 0.250000
O O10 0.203667 0.450507 0.340432
O O11 0.504832 0.530735 0.088926
#
# Coordination Sequence:
#
# PCOD9255885 Si02
#       6
#     8   8   4   4   8   8
#     4  11  20  33  52  87 123 152 191 248 294 365
#     4  10  17  33  55  78 125 170 193 230 312 383
#     4  10  20  42  66  73 114 164 200 245 302 368
#     4  10  18  32  52  83 128 164 190 229 318 376
#     4   9  20  41  59  83 111 153 197 251 313 361
#     4  10  22  37  59  89 114 150 205 246 304 357
#
# _framework density 24.693604000000001
#
# number of rings (size 3 to 8) (size 9 to 14) (size 15 to 20)
#    0.000    2.000    3.000    1.800    1.400    1.600 
#   16.200    0.000    0.000    0.000    0.000    5.600 
#    0.000    0.000    0.000    0.000    0.000    0.000 
#
# Total GULP energy -111481.490736 kJ/mol
# GULP energy per Si atom -5574.074537 kJ/mol
# Density = 2.463740 g / cm^3
# Si number density = 24.693604 Si / 1000 Ang^3
#
#
#
# Elastic Constant Matrix: (Units=GPa)
#
#
# Indices 1 2 3 4 5 6 
#
# 1 154.0903 28.6003 29.0665 0.0000 -35.3063 -0.0005
# 2 28.6003 32.0105 -8.9831 0.0000 -9.5726 0.0001
# 3 29.0665 -8.9831 80.4591 0.0007 -6.2575 -0.0001
# 4 0.0000 0.0000 0.0007 25.0628 -0.0002 -15.5201
# 5 -35.3063 -9.5726 -6.2575 -0.0002 35.2764 0.0002
# 6 -0.0005 0.0001 -0.0001 -15.5201 0.0002 6.5616
#
#
#
# Elastic Compliance Matrix: (Units=1/GPa)
#
#
# Indices 1 2 3 4 5 6 
#
# 1 0.010553 -0.008333 -0.004154 -0.000001 0.007564 -0.000002
# 2 -0.008333 0.042326 0.008092 0.000002 0.004581 0.000004
# 3 -0.004154 0.008092 0.014886 0.000001 0.000678 0.000003
# 4 -0.000001 0.000002 0.000001 -0.085862 0.000000 -0.203089
# 5 0.007564 0.004581 0.000678 0.000000 0.037281 0.000000
# 6 -0.000002 0.000004 0.000003 -0.203089 0.000000 -0.327960
#
#
# Mechanical properties :
#
#
# Convention : Reuss Voigt Hill
#
# Bulk Modulus (GPa) = 16.95656 40.43639 28.69647
# Shear Modulus (GPa) = -17.83622 27.90525 5.03451
#
# Velocity S-wave (km/s) = -2.69048 3.36528 1.42941
# Velocity P-wave (km/s) = 1.66430 5.61346 3.79085
#
# Compressibility (1/GPa) = 0.05897423
#
# Stress axis : x y z
#
# Youngs Moduli (GPa) = 94.75895 23.62637 67.17839
#
# Poissons Ratio (x) = 0.19687 0.27909
# Poissons Ratio (y) = 0.78960 -0.54362
# Poissons Ratio (z) = 0.39367 -0.19119
#
# Static dielectric constant tensor:
#      x y z
#    x 2.075610 0.000000 -0.162570 
#    y 0.000000 2.011110 0.000000 
#    z -0.162570 0.000000 2.170650 
# 
# From -- ./inp_files/5531.got.cif
#   From: 2010.05.17/outbox.cif.g08.bks.cpg/sg15_3_cif.got.tgz:5531.got - 2010.06.03 18:47:42.
