data_PCOD9255307
_publ_section_title
;
Structure prediction by ZEFSAII (Michael W. Deem and Ramdas Pophale) SiO2 
 PCOD9255307
Probable space group: C 2/C
;
_chemical_formula_sum "Si O2"
_cell_formula_units_Z 64
_cell_length_a 16.514325
_cell_length_b 13.255548
_cell_length_c 16.718878
_cell_angle_alpha 90.000000
_cell_angle_beta 81.106478
_cell_angle_gamma 90.000000
_cell_volume 3615.868529
_symmetry_space_group_name_H-M "C 2/C"
_symmetry_group_IT_number 15
_symmetry_cell_setting 'monoclinic'
loop_
_space_group_symop_operation_xyz
x,y,z
-x,y,1/2-z
-x,-y,-z
x,-y,1/2+z
1/2+x,1/2+y,z
1/2-x,1/2+y,1/2-z
1/2-x,1/2-y,-z
1/2+x,1/2-y,1/2+z
loop_
_atom_site_type_symbol
_atom_site_label
_atom_site_fract_x
_atom_site_fract_y
_atom_site_fract_z
Si Si1 0.860756 0.126320 0.624300
Si Si2 0.754302 0.109427 0.485152
Si Si3 0.796958 0.067745 0.870065
Si Si4 0.647058 0.773711 0.110926
Si Si5 0.000677 0.873564 0.898711
Si Si6 0.268511 0.784134 0.244884
Si Si7 0.952032 0.896591 0.433646
Si Si8 0.154078 0.074073 0.282923
O O1 0.823919 0.131492 0.541513
O O2 0.816392 0.198499 0.694153
O O3 0.958401 0.137229 0.610425
O O4 0.834864 0.013709 0.654182
O O5 0.670731 0.141474 0.542306
O O6 0.781472 0.189191 0.413520
O O7 0.757363 0.999087 0.446688
O O8 0.737134 0.140238 0.829098
O O9 0.872620 0.131189 0.894917
O O10 0.834242 0.985964 0.801518
O O11 0.562697 0.715717 0.108811
O O12 0.662251 0.811013 0.198900
O O13 0.062683 0.887058 0.815666
O O14 0.051422 0.861386 0.973765
O O15 0.955902 0.980794 0.923738
O O16 0.286488 0.669130 0.219195
#
# Coordination Sequence:
#
# PCOD9255307 Si02
#       8
#     8   8   8   8   8   8   8   8
#     4   9  19  32  52  74 103 132 170 205 250 313
#     4  10  17  32  52  74  99 136 173 206 239 296
#     4  11  20  32  50  75 111 136 160 211 263 307
#     4  10  18  31  53  74 100 135 178 204 236 304
#     4  10  18  30  52  76 103 129 164 213 256 307
#     4  10  21  32  45  75 106 140 166 201 253 308
#     4  10  17  30  48  78 104 130 158 203 271 313
#     4  10  20  32  47  75 107 134 165 207 263 309
#
# _framework density 17.699759
#
# number of rings (size 3 to 8) (size 9 to 14) (size 15 to 20)
#    0.000    2.000    3.750    1.500    0.000    7.000 
#    0.000    2.500    0.000    0.750    0.000   24.500 
#    0.000    0.000    0.000    0.000    0.000    0.000 
#
# Total GULP energy -178206.205810 kJ/mol
# GULP energy per Si atom -5568.943932 kJ/mol
# Density = 1.765947 g / cm^3
# Si number density = 17.699759 Si / 1000 Ang^3
#
#
#
# Elastic Constant Matrix: (Units=GPa)
#
#
# Indices 1 2 3 4 5 6 
#
# 1 71.0446 44.5423 28.9056 0.0000 10.5265 0.0000
# 2 44.5423 53.2724 29.7182 0.0000 6.8073 0.0000
# 3 28.9056 29.7182 39.9143 0.0000 16.0833 0.0000
# 4 0.0000 0.0000 0.0000 32.3438 0.0000 0.5142
# 5 10.5265 6.8073 16.0833 0.0000 27.6670 0.0000
# 6 0.0000 0.0000 0.0000 0.5142 0.0000 27.3142
#
#
#
# Elastic Compliance Matrix: (Units=1/GPa)
#
#
# Indices 1 2 3 4 5 6 
#
# 1 0.030546 -0.023250 -0.003176 0.000000 -0.004055 0.000000
# 2 -0.023250 0.051158 -0.025785 0.000000 0.011248 0.000000
# 3 -0.003176 -0.025785 0.056817 0.000000 -0.025476 0.000000
# 4 0.000000 0.000000 0.000000 0.030927 0.000000 -0.000582
# 5 -0.004055 0.011248 -0.025476 0.000000 0.049729 0.000000
# 6 0.000000 0.000000 0.000000 -0.000582 0.000000 0.036622
#
#
# Mechanical properties :
#
#
# Convention : Reuss Voigt Hill
#
# Bulk Modulus (GPa) = 29.32600 41.17372 35.24986
# Shear Modulus (GPa) = 13.45579 21.53600 17.49589
#
# Velocity S-wave (km/s) = 2.76021 3.49196 3.14742
# Velocity P-wave (km/s) = 5.17329 6.29057 5.75908
#
# Compressibility (1/GPa) = 0.03409943
#
# Stress axis : x y z
#
# Youngs Moduli (GPa) = 32.73801 19.54729 17.60022
#
# Poissons Ratio (x) = 0.45447 0.05590
# Poissons Ratio (y) = 0.76115 0.45382
# Poissons Ratio (z) = 0.10398 0.50402
#
# Static dielectric constant tensor:
#      x y z
#    x 1.635560 0.000000 0.003230 
#    y 0.000000 1.618510 0.000000 
#    z 0.003230 0.000000 1.686270 
# 
# From -- ./inp_files/210291.got.cif
#   From: 2010.05.17/outbox.cif.g08.bks.cpg/sg15_106_cif.got.tgz:210291.got - 2010.06.03 18:47:42.
