data_PCOD9255356
_publ_section_title
;
Structure prediction by ZEFSAII (Michael W. Deem and Ramdas Pophale) SiO2 
 PCOD9255356
Probable space group: C 2/C
;
_chemical_formula_sum "Si O2"
_cell_formula_units_Z 60
_cell_length_a 6.373798
_cell_length_b 30.795632
_cell_length_c 22.961430
_cell_angle_alpha 90.000000
_cell_angle_beta 126.704723
_cell_angle_gamma 90.000000
_cell_volume 3613.370723
_symmetry_space_group_name_H-M "C 2/C"
_symmetry_group_IT_number 15
_symmetry_cell_setting 'monoclinic'
loop_
_space_group_symop_operation_xyz
x,y,z
-x,y,1/2-z
-x,-y,-z
x,-y,1/2+z
1/2+x,1/2+y,z
1/2-x,1/2+y,1/2-z
1/2-x,1/2-y,-z
1/2+x,1/2-y,1/2+z
loop_
_atom_site_type_symbol
_atom_site_label
_atom_site_fract_x
_atom_site_fract_y
_atom_site_fract_z
Si Si1 0.501769 0.280926 0.970692
Si Si2 0.427477 0.975366 0.400603
Si Si3 0.646819 0.411439 0.059098
Si Si4 0.710120 0.362924 0.191592
Si Si5 0.000000 0.070324 0.750000
Si Si6 0.838591 0.202191 0.574619
Si Si7 0.444110 0.933556 0.532410
Si Si8 0.689073 0.854593 0.520608
O O1 0.249518 0.250300 0.920467
O O2 0.561895 0.322355 0.939889
O O3 0.750000 0.250000 0.000000
O O4 0.483448 0.294699 0.035897
O O5 0.700813 0.956812 0.421048
O O6 0.198560 0.958417 0.320904
O O7 0.395633 0.953739 0.459487
O O8 0.445153 0.026856 0.411666
O O9 0.681752 0.390367 0.127662
O O10 0.340642 0.417255 0.994536
O O11 0.786753 0.379599 0.036662
O O12 0.650816 0.397025 0.232329
O O13 0.508661 0.323583 0.149761
O O14 0.000000 0.345681 0.250000
O O15 0.573844 0.174257 0.521174
O O16 0.642542 0.893167 0.558839
#
# Coordination Sequence:
#
# PCOD9255356 Si02
#       8
#     8   8   8   8   4   8   8   8
#     4   9  18  30  53  74 103 132 163 228 269 314
#     4  10  21  32  48  73 102 147 180 225 274 313
#     4  11  18  33  49  72 104 140 183 219 270 326
#     4  12  22  31  50  73 109 153 176 208 270 350
#     4  12  22  36  50  72 114 150 178 220 274 346
#     4  10  19  33  47  76 110 131 174 215 268 327
#     4  10  19  32  50  72 106 136 185 234 266 318
#     4  10  17  30  52  73 103 132 172 226 279 312
#
# _framework density 16.604994000000001
#
# number of rings (size 3 to 8) (size 9 to 14) (size 15 to 20)
#    0.000    1.600    5.333    1.200    0.000    0.000 
#    0.000    0.000    0.000    0.000    0.000    0.000 
#   64.000    0.000    0.000    0.000    0.000    0.000 
#
# Total GULP energy -167132.126143 kJ/mol
# GULP energy per Si atom -5571.070871 kJ/mol
# Density = 1.656720 g / cm^3
# Si number density = 16.604994 Si / 1000 Ang^3
#
#
#
# Elastic Constant Matrix: (Units=GPa)
#
#
# Indices 1 2 3 4 5 6 
#
# 1 75.1991 33.0753 13.3539 0.0000 3.2445 0.0000
# 2 33.0753 115.0330 30.1901 0.0000 7.8784 0.0000
# 3 13.3539 30.1901 52.0050 0.0000 8.0686 0.0000
# 4 0.0000 0.0000 0.0000 11.6760 0.0000 3.2073
# 5 3.2445 7.8784 8.0686 0.0000 15.2543 0.0000
# 6 0.0000 0.0000 0.0000 3.2073 0.0000 36.0484
#
#
#
# Elastic Compliance Matrix: (Units=1/GPa)
#
#
# Indices 1 2 3 4 5 6 
#
# 1 0.015341 -0.003972 -0.001575 0.000000 -0.000379 0.000000
# 2 -0.003972 0.011361 -0.005225 0.000000 -0.002259 0.000000
# 3 -0.001575 -0.005225 0.024180 0.000000 -0.009756 0.000000
# 4 0.000000 0.000000 0.000000 0.087791 0.000000 -0.007811
# 5 -0.000379 -0.002259 -0.009756 0.000000 0.071963 0.000000
# 6 0.000000 0.000000 0.000000 -0.007811 0.000000 0.028435
#
#
# Mechanical properties :
#
#
# Convention : Reuss Voigt Hill
#
# Bulk Modulus (GPa) = 34.08407 43.94174 39.01291
# Shear Modulus (GPa) = 18.49145 23.63694 21.06420
#
# Velocity S-wave (km/s) = 3.34070 3.77700 3.56553
# Velocity P-wave (km/s) = 5.95410 6.74844 6.36367
#
# Compressibility (1/GPa) = 0.02933922
#
# Stress axis : x y z
#
# Youngs Moduli (GPa) = 65.18512 88.01910 41.35599
#
# Poissons Ratio (x) = 0.34959 0.06513
# Poissons Ratio (y) = 0.25890 0.21609
# Poissons Ratio (z) = 0.10265 0.45990
#
# Static dielectric constant tensor:
#      x y z
#    x 1.601620 0.000000 -0.005110 
#    y 0.000000 1.601340 0.000000 
#    z -0.005110 0.000000 1.520190 
# 
# From -- ./inp_files/228825.got.cif
#   From: 2010.05.17/outbox.cif.g08.bks.cpg/sg15_115_cif.got.tgz:228825.got - 2010.06.03 18:47:42.
