data_PCOD9255245
_publ_section_title
;
Structure prediction by ZEFSAII (Michael W. Deem and Ramdas Pophale) SiO2 
 PCOD9255245
Probable space group: C 2/C
;
_chemical_formula_sum "Si O2"
_cell_formula_units_Z 48
_cell_length_a 6.990004
_cell_length_b 16.712711
_cell_length_c 18.683665
_cell_angle_alpha 90.000000
_cell_angle_beta 57.819888
_cell_angle_gamma 90.000000
_cell_volume 1847.356903
_symmetry_space_group_name_H-M "C 2/C"
_symmetry_group_IT_number 15
_symmetry_cell_setting 'monoclinic'
loop_
_space_group_symop_operation_xyz
x,y,z
-x,y,1/2-z
-x,-y,-z
x,-y,1/2+z
1/2+x,1/2+y,z
1/2-x,1/2+y,1/2-z
1/2-x,1/2-y,-z
1/2+x,1/2-y,1/2+z
loop_
_atom_site_type_symbol
_atom_site_label
_atom_site_fract_x
_atom_site_fract_y
_atom_site_fract_z
Si Si1 0.109448 0.077842 0.441531
Si Si2 0.038821 0.503724 0.407105
Si Si3 0.546639 0.181400 0.899527
Si Si4 0.234510 0.008007 0.275579
Si Si5 0.268678 0.323574 0.220198
Si Si6 0.077861 0.237031 0.948837
O O1 0.005844 0.155525 0.497356
O O2 0.367010 0.069375 0.413195
O O3 0.103327 0.065780 0.356902
O O4 0.000000 0.000000 0.500000
O O5 0.985621 0.411118 0.396989
O O6 0.000000 0.500000 0.500000
O O7 0.255112 0.520640 0.312589
O O8 0.755392 0.197947 0.806320
O O9 0.343811 0.239112 0.915543
O O10 0.559571 0.195524 0.981626
O O11 0.500000 0.010094 0.250000
O O12 0.157351 0.916078 0.303721
O O13 0.414083 0.269977 0.137710
O O14 0.000000 0.320607 0.250000
#
# Coordination Sequence:
#
# PCOD9255245 Si02
#       6
#     8   8   8   8   8   8
#     4  11  17  31  57  83  98 132 190 226 248 307
#     4  10  20  36  53  75 109 144 171 213 277 327
#     4   9  18  31  49  75 109 141 170 211 274 322
#     4   8  15  29  51  72  99 136 176 207 253 320
#     4   8  13  26  46  69  97 139 168 201 260 318
#     4  10  17  29  53  79 103 131 182 228 252 306
#
# _framework density 25.983067999999999
#
# number of rings (size 3 to 8) (size 9 to 14) (size 15 to 20)
#    0.000    2.667    3.333    2.000    0.000    0.000 
#    3.000    1.667    0.000    0.000    0.000    0.000 
#    0.000    0.000    0.000    0.000    0.000    0.000 
#
# Total GULP energy -133964.235236 kJ/mol
# GULP energy per Si atom -5581.843135 kJ/mol
# Density = 2.592393 g / cm^3
# Si number density = 25.983068 Si / 1000 Ang^3
#
#
#
# Elastic Constant Matrix: (Units=GPa)
#
#
# Indices 1 2 3 4 5 6 
#
# 1 56.5668 8.6318 41.9665 0.0000 14.1593 0.0000
# 2 8.6318 62.1686 44.5896 0.0000 -0.2491 0.0000
# 3 41.9665 44.5896 267.4943 0.0000 32.9154 0.0000
# 4 0.0000 0.0000 0.0000 47.3906 0.0000 3.9230
# 5 14.1593 -0.2491 32.9154 0.0000 49.3661 0.0000
# 6 0.0000 0.0000 0.0000 3.9230 0.0000 17.9744
#
#
#
# Elastic Compliance Matrix: (Units=1/GPa)
#
#
# Indices 1 2 3 4 5 6 
#
# 1 0.020810 -0.001069 -0.002562 0.000000 -0.004266 0.000000
# 2 -0.001069 0.018570 -0.003243 0.000000 0.002563 0.000000
# 3 -0.002562 -0.003243 0.005003 0.000000 -0.002617 0.000000
# 4 0.000000 0.000000 0.000000 0.021489 0.000000 -0.004690
# 5 -0.004266 0.002563 -0.002617 0.000000 0.023239 0.000000
# 6 0.000000 0.000000 0.000000 -0.004690 0.000000 0.056658
#
#
# Mechanical properties :
#
#
# Convention : Reuss Voigt Hill
#
# Bulk Modulus (GPa) = 32.64247 64.06729 48.35488
# Shear Modulus (GPa) = 29.45883 42.34901 35.90392
#
# Velocity S-wave (km/s) = 3.37080 4.04154 3.72132
# Velocity P-wave (km/s) = 5.26688 6.81833 6.09219
#
# Compressibility (1/GPa) = 0.03063494
#
# Stress axis : x y z
#
# Youngs Moduli (GPa) = 48.05466 53.85003 199.88143
#
# Poissons Ratio (x) = 0.05757 0.51202
# Poissons Ratio (y) = 0.05138 0.64824
# Poissons Ratio (z) = 0.12310 0.17464
#
# Static dielectric constant tensor:
#      x y z
#    x 2.246430 0.000000 0.018960 
#    y 0.000000 1.959920 0.000000 
#    z 0.018960 0.000000 2.129150 
# 
# From -- ./inp_files/191954.got.cif
#   From: 2010.05.17/outbox.cif.g08.bks.cpg/sg15_96_cif.got.tgz:191954.got - 2010.06.03 18:47:42.
