data_PCOD9255161
_publ_section_title
;
Structure prediction by ZEFSAII (Michael W. Deem and Ramdas Pophale) SiO2 
 PCOD9255161
Probable space group: C 2/C
;
_chemical_formula_sum "Si O2"
_cell_formula_units_Z 48
_cell_length_a 15.105797
_cell_length_b 21.650114
_cell_length_c 14.035145
_cell_angle_alpha 90.000000
_cell_angle_beta 139.999892
_cell_angle_gamma 90.000000
_cell_volume 2950.456444
_symmetry_space_group_name_H-M "C 2/C"
_symmetry_group_IT_number 15
_symmetry_cell_setting 'monoclinic'
loop_
_space_group_symop_operation_xyz
x,y,z
-x,y,1/2-z
-x,-y,-z
x,-y,1/2+z
1/2+x,1/2+y,z
1/2-x,1/2+y,1/2-z
1/2-x,1/2-y,-z
1/2+x,1/2-y,1/2+z
loop_
_atom_site_type_symbol
_atom_site_label
_atom_site_fract_x
_atom_site_fract_y
_atom_site_fract_z
Si Si1 0.784960 0.955311 0.811283
Si Si2 0.332797 0.616412 0.017370
Si Si3 0.901742 0.249405 0.080674
Si Si4 0.658980 0.869678 0.567035
Si Si5 0.418988 0.944199 0.281894
Si Si6 0.003021 0.011711 0.859908
O O1 0.735215 0.891412 0.724673
O O2 0.657443 0.994507 0.746529
O O3 0.901410 0.949947 0.988762
O O4 0.856569 0.997425 0.787762
O O5 0.419487 0.677951 0.066856
O O6 0.423961 0.555430 0.086121
O O7 0.266654 0.621031 0.068311
O O8 0.202056 0.605350 0.840752
O O9 0.899333 0.300613 0.996362
O O10 0.000000 0.266577 0.250000
O O11 0.750000 0.250000 0.000000
O O12 0.531467 0.915982 0.445069
O O13 0.500000 0.955194 0.250000
O O14 0.000000 0.036533 0.750000
#
# Coordination Sequence:
#
# PCOD9255161 Si02
#       6
#     8   8   8   8   8   8
#     4  10  20  29  48  70  93 135 169 199 246 298
#     4   9  17  29  48  68 100 141 153 191 246 295
#     4  10  19  28  45  71 101 142 167 184 240 311
#     4  10  17  29  43  67 100 131 164 196 231 301
#     4   9  18  32  46  67 100 135 167 200 245 286
#     4  10  18  32  47  69 100 129 163 205 248 291
#
# _framework density 16.268668999999999
#
# number of rings (size 3 to 8) (size 9 to 14) (size 15 to 20)
#    0.000    2.333    1.667    3.500    2.333    0.000 
#    0.000    0.000    0.000    0.000    0.000    0.000 
#    0.000   25.333    0.000    0.000    0.000    0.000 
#
# Total GULP energy -133725.688406 kJ/mol
# GULP energy per Si atom -5571.903684 kJ/mol
# Density = 1.623164 g / cm^3
# Si number density = 16.268669 Si / 1000 Ang^3
#
#
#
# Elastic Constant Matrix: (Units=GPa)
#
#
# Indices 1 2 3 4 5 6 
#
# 1 36.8990 2.2241 20.5327 0.0000 -0.7491 0.0000
# 2 2.2241 67.6994 36.3472 0.0000 -9.4415 0.0000
# 3 20.5327 36.3472 91.8277 0.0000 -12.3841 0.0000
# 4 0.0000 0.0000 0.0000 23.9307 0.0000 -2.7716
# 5 -0.7491 -9.4415 -12.3841 0.0000 28.5235 0.0000
# 6 0.0000 0.0000 0.0000 -2.7716 0.0000 7.8456
#
#
#
# Elastic Compliance Matrix: (Units=1/GPa)
#
#
# Indices 1 2 3 4 5 6 
#
# 1 0.031678 0.003353 -0.008655 0.000000 -0.001816 0.000000
# 2 0.003353 0.019386 -0.008015 0.000000 0.003025 0.000000
# 3 -0.008655 -0.008015 0.016580 0.000000 0.004318 0.000000
# 4 0.000000 0.000000 0.000000 0.043570 0.000000 0.015392
# 5 -0.001816 0.003025 0.004318 0.000000 0.037887 0.000000
# 6 0.000000 0.000000 0.000000 0.015392 0.000000 0.132897
#
#
# Mechanical properties :
#
#
# Convention : Reuss Voigt Hill
#
# Bulk Modulus (GPa) = 24.38454 34.95934 29.67194
# Shear Modulus (GPa) = 15.51331 21.21477 18.36404
#
# Velocity S-wave (km/s) = 3.09134 3.61505 3.36340
# Velocity P-wave (km/s) = 5.26907 6.24181 5.77595
#
# Compressibility (1/GPa) = 0.04100959
#
# Stress axis : x y z
#
# Youngs Moduli (GPa) = 31.56732 51.58312 60.31278
#
# Poissons Ratio (x) = -0.17296 0.52203
# Poissons Ratio (y) = -0.10584 0.48342
# Poissons Ratio (z) = 0.27323 0.41345
#
# Static dielectric constant tensor:
#      x y z
#    x 1.542140 0.000000 0.007740 
#    y 0.000000 1.587700 0.000000 
#    z 0.007740 0.000000 1.601520 
# 
# From -- ./inp_files/155956.got.cif
#   From: 2010.05.17/outbox.cif.g08.bks.cpg/sg15_78_cif.got.tgz:155956.got - 2010.06.03 18:47:42.
