data_PCOD9255612
_publ_section_title
;
Structure prediction by ZEFSAII (Michael W. Deem and Ramdas Pophale) SiO2 
 PCOD9255612
Probable space group: C 2/C
;
_chemical_formula_sum "Si O2"
_cell_formula_units_Z 60
_cell_length_a 10.625090
_cell_length_b 16.526473
_cell_length_c 19.214946
_cell_angle_alpha 90.000000
_cell_angle_beta 63.383934
_cell_angle_gamma 90.000000
_cell_volume 3016.500486
_symmetry_space_group_name_H-M "C 2/C"
_symmetry_group_IT_number 15
_symmetry_cell_setting 'monoclinic'
loop_
_space_group_symop_operation_xyz
x,y,z
-x,y,1/2-z
-x,-y,-z
x,-y,1/2+z
1/2+x,1/2+y,z
1/2-x,1/2+y,1/2-z
1/2-x,1/2-y,-z
1/2+x,1/2-y,1/2+z
loop_
_atom_site_type_symbol
_atom_site_label
_atom_site_fract_x
_atom_site_fract_y
_atom_site_fract_z
Si Si1 0.497750 0.269878 0.167545
Si Si2 0.950439 0.359562 0.189730
Si Si3 0.792790 0.468791 0.426875
Si Si4 0.325462 0.428054 0.183928
Si Si5 0.518720 0.884402 0.581130
Si Si6 0.759022 0.968759 0.902062
Si Si7 0.704855 0.840615 0.407930
Si Si8 0.000000 0.966391 0.750000
O O1 0.500000 0.273778 0.250000
O O2 0.391894 0.338465 0.166580
O O3 0.461518 0.182199 0.147823
O O4 0.658480 0.289498 0.106990
O O5 0.833616 0.423104 0.247094
O O6 0.867176 0.315896 0.147542
O O7 0.000000 0.317452 0.250000
O O8 0.083575 0.404123 0.121652
O O9 0.683505 0.463126 0.391101
O O10 0.867435 0.556108 0.412564
O O11 0.727803 0.453863 0.518956
O O12 0.419041 0.479787 0.212913
O O13 0.393752 0.939143 0.583033
O O14 0.591528 0.841327 0.497263
O O15 0.877575 0.925872 0.825904
O O16 0.759057 0.065853 0.888928
#
# Coordination Sequence:
#
# PCOD9255612 Si02
#       8
#     8   8   8   8   8   8   8   4
#     4  12  23  38  59  89 123 158 194 248 300 353
#     4  10  17  31  65  91 107 149 218 240 274 351
#     4  10  21  37  64  94 114 153 206 254 291 352
#     4  11  20  37  61  87 118 159 206 237 287 370
#     4  11  23  38  62  93 123 148 194 262 306 336
#     4  11  20  38  63  88 122 158 200 249 300 356
#     4  11  18  40  63  86 117 164 206 234 292 373
#     4  12  20  36  64  84 118 166 210 232 302 364
#
# _framework density 19.890598000000001
#
# number of rings (size 3 to 8) (size 9 to 14) (size 15 to 20)
#    0.000    1.067    7.333    1.200    0.000    3.200 
#    0.000    0.667    7.333    0.000    0.000    0.000 
#    0.000    0.000    0.000    0.000    0.000    0.000 
#
# Total GULP energy -167435.067271 kJ/mol
# GULP energy per Si atom -5581.168909 kJ/mol
# Density = 1.984533 g / cm^3
# Si number density = 19.890598 Si / 1000 Ang^3
#
#
#
# Elastic Constant Matrix: (Units=GPa)
#
#
# Indices 1 2 3 4 5 6 
#
# 1 83.7265 4.1184 49.7919 0.0000 25.7528 0.0000
# 2 4.1184 20.5954 21.7131 0.0000 16.4204 0.0000
# 3 49.7919 21.7131 106.7506 0.0000 18.9183 0.0000
# 4 0.0000 0.0000 0.0000 15.4944 0.0000 4.5074
# 5 25.7528 16.4204 18.9183 0.0000 46.1070 0.0000
# 6 0.0000 0.0000 0.0000 4.5074 0.0000 11.0995
#
#
#
# Elastic Compliance Matrix: (Units=1/GPa)
#
#
# Indices 1 2 3 4 5 6 
#
# 1 0.022662 0.019948 -0.011998 0.000000 -0.014839 0.000000
# 2 0.019948 0.097676 -0.022682 0.000000 -0.036621 0.000000
# 3 -0.011998 -0.022682 0.018288 0.000000 0.007275 0.000000
# 4 0.000000 0.000000 0.000000 0.073185 0.000000 -0.029720
# 5 -0.014839 -0.036621 0.007275 0.000000 0.040034 0.000000
# 6 0.000000 0.000000 0.000000 -0.029720 0.000000 0.102163
#
#
# Mechanical properties :
#
#
# Convention : Reuss Voigt Hill
#
# Bulk Modulus (GPa) = 9.16062 40.25770 24.70916
# Shear Modulus (GPa) = 11.90877 23.57011 17.73944
#
# Velocity S-wave (km/s) = 2.44952 3.44610 2.98963
# Velocity P-wave (km/s) = 3.55186 6.00979 4.93626
#
# Compressibility (1/GPa) = 0.10916297
#
# Stress axis : x y z
#
# Youngs Moduli (GPa) = 44.12715 10.23793 54.68071
#
# Poissons Ratio (x) = -0.20423 0.65605
# Poissons Ratio (y) = -0.88026 1.24026
# Poissons Ratio (z) = 0.52943 0.23221
#
# Static dielectric constant tensor:
#      x y z
#    x 1.708890 0.000000 -0.016240 
#    y 0.000000 1.666100 0.000000 
#    z -0.016240 0.000000 1.750180 
# 
# From -- ./inp_files/199512.got.cif
#   From: 2010.05.17/outbox.cif.g08.bks.cpg/sg15_100_cif.got.tgz:199512.got - 2010.06.03 18:47:42.
