data_PCOD9255281
_publ_section_title
;
Structure prediction by ZEFSAII (Michael W. Deem and Ramdas Pophale) SiO2 
 PCOD9255281
Probable space group: C 2/C
;
_chemical_formula_sum "Si O2"
_cell_formula_units_Z 52
_cell_length_a 12.218426
_cell_length_b 31.912453
_cell_length_c 5.648613
_cell_angle_alpha 90.000000
_cell_angle_beta 103.046647
_cell_angle_gamma 90.000000
_cell_volume 2145.652681
_symmetry_space_group_name_H-M "C 2/C"
_symmetry_group_IT_number 15
_symmetry_cell_setting 'monoclinic'
loop_
_space_group_symop_operation_xyz
x,y,z
-x,y,1/2-z
-x,-y,-z
x,-y,1/2+z
1/2+x,1/2+y,z
1/2-x,1/2+y,1/2-z
1/2-x,1/2-y,-z
1/2+x,1/2-y,1/2+z
loop_
_atom_site_type_symbol
_atom_site_label
_atom_site_fract_x
_atom_site_fract_y
_atom_site_fract_z
Si Si1 0.500000 0.541717 0.250000
Si Si2 0.677614 0.161713 0.719366
Si Si3 0.644127 0.270929 0.208718
Si Si4 0.616206 0.598560 0.696819
Si Si5 0.783891 0.987027 0.173956
Si Si6 0.852830 0.671019 0.291264
Si Si7 0.900250 0.813206 0.812416
O O1 0.566885 0.571939 0.457429
O O2 0.401429 0.510999 0.287982
O O3 0.729690 0.209053 0.728389
O O4 0.791265 0.134017 0.789881
O O5 0.611004 0.153641 0.444697
O O6 0.613347 0.156508 0.932955
O O7 0.634097 0.221223 0.212845
O O8 0.593138 0.289918 0.430010
O O9 0.606240 0.283450 0.924170
O O10 0.500000 0.616140 0.750000
O O11 0.684155 0.561302 0.864530
O O12 0.728291 0.992844 0.409814
O O13 0.717495 0.663204 0.223999
O O14 0.000000 0.841404 0.750000
#
# Coordination Sequence:
#
# PCOD9255281 Si02
#       7
#     4   8   8   8   8   8   8
#     4  10  18  32  44  54  82 124 152 154 226 302
#     4  10  21  28  44  64  76 100 144 188 217 248
#     4  10  19  36  48  58  82 124 146 161 221 311
#     4  11  20  29  42  61  89 106 137 190 241 269
#     4  10  17  30  45  56  72 116 155 161 198 295
#     4  10  20  36  48  57  82 123 148 160 223 310
#     4  10  18  28  48  68  84  96 138 188 219 247
#
# _framework density 24.235049
#
# number of rings (size 3 to 8) (size 9 to 14) (size 15 to 20)
#    0.000    1.846    2.308    6.000    2.154    4.923 
#    1.385    0.000    0.000    0.000    0.000    0.000 
#    0.000    0.000    0.000    0.000    0.000    0.000 
#
# Total GULP energy -144939.636910 kJ/mol
# GULP energy per Si atom -5574.601420 kJ/mol
# Density = 2.417989 g / cm^3
# Si number density = 24.235049 Si / 1000 Ang^3
#
#
#
# Elastic Constant Matrix: (Units=GPa)
#
#
# Indices 1 2 3 4 5 6 
#
# 1 61.2951 10.9627 47.4569 0.0000 -23.3064 0.0000
# 2 10.9627 92.0025 27.4953 0.0000 -7.2957 0.0000
# 3 47.4569 27.4953 253.1254 0.0000 -18.0370 0.0000
# 4 0.0000 0.0000 0.0000 29.9606 0.0000 -1.4539
# 5 -23.3064 -7.2957 -18.0370 0.0000 40.3928 0.0000
# 6 0.0000 0.0000 0.0000 -1.4539 0.0000 22.6473
#
#
#
# Elastic Compliance Matrix: (Units=1/GPa)
#
#
# Indices 1 2 3 4 5 6 
#
# 1 0.023731 -0.000830 -0.003506 0.000000 0.011978 0.000000
# 2 -0.000830 0.011356 -0.000998 0.000000 0.001127 0.000000
# 3 -0.003506 -0.000998 0.004709 0.000000 -0.000100 0.000000
# 4 0.000000 0.000000 0.000000 0.033481 0.000000 0.002149
# 5 0.011978 0.001127 -0.000100 0.000000 0.031827 0.000000
# 6 0.000000 0.000000 0.000000 0.002149 0.000000 0.044293
#
#
# Mechanical properties :
#
#
# Convention : Reuss Voigt Hill
#
# Bulk Modulus (GPa) = 34.32967 64.25032 49.28999
# Shear Modulus (GPa) = 29.45089 39.96736 34.70912
#
# Velocity S-wave (km/s) = 3.48978 4.06538 3.78853
# Velocity P-wave (km/s) = 5.51671 6.97175 6.28647
#
# Compressibility (1/GPa) = 0.02912933
#
# Stress axis : x y z
#
# Youngs Moduli (GPa) = 42.13825 88.06179 212.35584
#
# Poissons Ratio (x) = 0.07312 0.74443
# Poissons Ratio (y) = 0.03499 0.21184
# Poissons Ratio (z) = 0.14772 0.08785
#
# Static dielectric constant tensor:
#      x y z
#    x 2.219400 0.000000 0.028690 
#    y 0.000000 1.964210 0.000000 
#    z 0.028690 0.000000 2.152110 
# 
# From -- ./inp_files/11834.got.cif
#   From: 2010.05.17/outbox.cif.g08.bks.cpg/sg15_6_cif.got.tgz:11834.got - 2010.06.03 18:47:42.
