data_PCOD9255279
_publ_section_title
;
Structure prediction by ZEFSAII (Michael W. Deem and Ramdas Pophale) SiO2 
 PCOD9255279
Probable space group: C 2/C
;
_chemical_formula_sum "Si O2"
_cell_formula_units_Z 64
_cell_length_a 27.088180
_cell_length_b 19.736213
_cell_length_c 5.528824
_cell_angle_alpha 90.000000
_cell_angle_beta 100.760348
_cell_angle_gamma 90.000000
_cell_volume 2903.836429
_symmetry_space_group_name_H-M "C 2/C"
_symmetry_group_IT_number 15
_symmetry_cell_setting 'monoclinic'
loop_
_space_group_symop_operation_xyz
x,y,z
-x,y,1/2-z
-x,-y,-z
x,-y,1/2+z
1/2+x,1/2+y,z
1/2-x,1/2+y,1/2-z
1/2-x,1/2-y,-z
1/2+x,1/2-y,1/2+z
loop_
_atom_site_type_symbol
_atom_site_label
_atom_site_fract_x
_atom_site_fract_y
_atom_site_fract_z
Si Si1 0.836382 0.074575 0.102227
Si Si2 0.680213 0.162425 0.849119
Si Si3 0.280716 0.344282 0.176628
Si Si4 0.945468 0.154035 0.725777
Si Si5 0.352380 0.288573 0.914946
Si Si6 0.768078 0.438046 0.763099
Si Si7 0.055796 0.068314 0.273920
Si Si8 0.138896 0.471170 0.171640
O O1 0.845027 0.137833 0.289433
O O2 0.782801 0.043516 0.133280
O O3 0.888774 0.033694 0.154910
O O4 0.824685 0.111776 0.840552
O O5 0.737735 0.177113 0.821712
O O6 0.651655 0.232945 0.797161
O O7 0.647068 0.109241 0.661642
O O8 0.692307 0.116953 0.091873
O O9 0.305996 0.282776 0.057850
O O10 0.253098 0.396807 0.979555
O O11 0.902287 0.206978 0.618682
O O12 0.945107 0.101140 0.496388
O O13 0.000000 0.186944 0.750000
O O14 0.941611 0.119816 0.989840
O O15 0.803466 0.501371 0.744736
O O16 0.000000 0.035257 0.250000
O O17 0.116192 0.496920 0.406320
#
# Coordination Sequence:
#
# PCOD9255279 Si02
#       8
#     8   8   8   8   8   8   8   8
#     4   9  18  29  44  67  96 128 159 194 233 289
#     4  10  20  30  45  66  93 129 161 198 237 275
#     4  10  17  30  44  64  95 128 156 190 234 285
#     4   9  17  30  46  64  93 129 159 191 230 280
#     4  10  19  29  43  69  99 126 160 192 234 291
#     4   9  19  31  46  63  90 127 165 200 237 275
#     4   9  16  29  46  66  92 126 159 192 231 278
#     4  10  19  36  50  64  88 122 166 204 233 272
#
# _framework density 22.039809999999999
#
# number of rings (size 3 to 8) (size 9 to 14) (size 15 to 20)
#    0.000    2.500    2.500    0.375    0.000    5.500 
#    0.000    0.000    0.000    0.000    0.000    0.000 
#    0.000   14.000    0.000    1.250    0.000    1.000 
#
# Total GULP energy -178283.439483 kJ/mol
# GULP energy per Si atom -5571.357484 kJ/mol
# Density = 2.198965 g / cm^3
# Si number density = 22.039810 Si / 1000 Ang^3
#
#
#
# Elastic Constant Matrix: (Units=GPa)
#
#
# Indices 1 2 3 4 5 6 
#
# 1 29.9145 14.5019 13.5613 0.0000 11.5467 0.0000
# 2 14.5019 48.0847 11.2643 0.0000 10.6641 0.0000
# 3 13.5613 11.2643 92.4655 0.0000 3.5341 0.0000
# 4 0.0000 0.0000 0.0000 13.7394 0.0000 -3.2759
# 5 11.5467 10.6641 3.5341 0.0000 24.7505 0.0000
# 6 0.0000 0.0000 0.0000 -3.2759 0.0000 8.4271
#
#
#
# Elastic Compliance Matrix: (Units=1/GPa)
#
#
# Indices 1 2 3 4 5 6 
#
# 1 0.046782 -0.009107 -0.005095 0.000000 -0.017174 0.000000
# 2 -0.009107 0.025325 -0.001503 0.000000 -0.006449 0.000000
# 3 -0.005095 -0.001503 0.011693 0.000000 0.001355 0.000000
# 4 0.000000 0.000000 0.000000 0.080219 0.000000 0.031184
# 5 -0.017174 -0.006449 0.001355 0.000000 0.051000 0.000000
# 6 0.000000 0.000000 0.000000 0.031184 0.000000 0.130787
#
#
# Mechanical properties :
#
#
# Convention : Reuss Voigt Hill
#
# Bulk Modulus (GPa) = 19.08739 27.67996 23.38368
# Shear Modulus (GPa) = 12.66845 18.12587 15.39716
#
# Velocity S-wave (km/s) = 2.40010 2.87089 2.64598
# Velocity P-wave (km/s) = 4.04473 4.85548 4.46853
#
# Compressibility (1/GPa) = 0.05239060
#
# Stress axis : x y z
#
# Youngs Moduli (GPa) = 21.37563 39.48605 85.51773
#
# Poissons Ratio (x) = 0.35959 0.43575
# Poissons Ratio (y) = 0.19466 0.12854
# Poissons Ratio (z) = 0.10892 0.05935
#
# Static dielectric constant tensor:
#      x y z
#    x 1.874320 0.000000 -0.085560 
#    y 0.000000 1.821140 0.000000 
#    z -0.085560 0.000000 1.972350 
# 
# From -- ./inp_files/18607.got.cif
#   From: 2010.05.17/outbox.cif.g08.bks.cpg/sg15_10_cif.got.tgz:18607.got - 2010.06.03 18:47:42.
