data_PCOD9255274
_publ_section_title
;
Structure prediction by ZEFSAII (Michael W. Deem and Ramdas Pophale) SiO2 
 PCOD9255274
Probable space group: C 2/C
;
_chemical_formula_sum "Si O2"
_cell_formula_units_Z 40
_cell_length_a 16.043582
_cell_length_b 9.436729
_cell_length_c 12.056958
_cell_angle_alpha 90.000000
_cell_angle_beta 120.807321
_cell_angle_gamma 90.000000
_cell_volume 1567.835064
_symmetry_space_group_name_H-M "C 2/C"
_symmetry_group_IT_number 15
_symmetry_cell_setting 'monoclinic'
loop_
_space_group_symop_operation_xyz
x,y,z
-x,y,1/2-z
-x,-y,-z
x,-y,1/2+z
1/2+x,1/2+y,z
1/2-x,1/2+y,1/2-z
1/2-x,1/2-y,-z
1/2+x,1/2-y,1/2+z
loop_
_atom_site_type_symbol
_atom_site_label
_atom_site_fract_x
_atom_site_fract_y
_atom_site_fract_z
Si Si1 0.841627 0.778320 0.426593
Si Si2 0.487500 0.698620 0.614047
Si Si3 0.222270 0.517640 0.990482
Si Si4 0.684736 0.790995 0.131607
Si Si5 0.431332 0.990698 0.290003
O O1 0.930665 0.844378 0.419128
O O2 0.848576 0.626661 0.491252
O O3 0.806608 0.885748 0.497941
O O4 0.756317 0.747188 0.278586
O O5 0.500000 0.645619 0.750000
O O6 0.381009 0.685825 0.486749
O O7 0.512044 0.867903 0.638575
O O8 0.244043 0.391693 0.088705
O O9 0.163200 0.460898 0.844315
O O10 0.605767 0.888463 0.141164
O O11 0.500000 0.910653 0.250000
#
# Coordination Sequence:
#
# PCOD9255274 Si02
#       5
#     8   8   8   8   8
#     4  10  23  35  58  91 125 158 201 250 301 368
#     4  11  20  35  57  93 122 151 195 254 304 350
#     4  10  19  37  54  88 124 157 195 247 306 355
#     4  11  20  35  61  86 124 159 200 250 305 351
#     4  10  17  29  57  87 116 149 185 254 303 340
#
# _framework density 25.512888
#
# number of rings (size 3 to 8) (size 9 to 14) (size 15 to 20)
#    0.000    1.600    6.000    1.800    0.000    0.800 
#    0.000    0.000    0.000    4.800    0.000    0.000 
#    0.000    0.000    0.000    0.000    0.000    0.000 
#
# Total GULP energy -111857.297411 kJ/mol
# GULP energy per Si atom -5592.864871 kJ/mol
# Density = 2.545482 g / cm^3
# Si number density = 25.512888 Si / 1000 Ang^3
#
#
#
# Elastic Constant Matrix: (Units=GPa)
#
#
# Indices 1 2 3 4 5 6 
#
# 1 131.2038 3.8040 9.4382 0.0000 -39.3712 0.0000
# 2 3.8040 47.2571 13.4636 0.0000 -8.6338 0.0000
# 3 9.4382 13.4636 141.1835 0.0000 -0.5575 0.0000
# 4 0.0000 0.0000 0.0000 32.5658 0.0000 -15.4027
# 5 -39.3712 -8.6338 -0.5575 0.0000 51.4267 0.0000
# 6 0.0000 0.0000 0.0000 -15.4027 0.0000 33.4853
#
#
#
# Elastic Compliance Matrix: (Units=1/GPa)
#
#
# Indices 1 2 3 4 5 6 
#
# 1 0.009981 0.000820 -0.000715 0.000000 0.007771 0.000000
# 2 0.000820 0.022518 -0.002185 0.000000 0.004385 0.000000
# 3 -0.000715 -0.002185 0.007336 0.000000 -0.000835 0.000000
# 4 0.000000 0.000000 0.000000 0.039245 0.000000 0.018052
# 5 0.007771 0.004385 -0.000835 0.000000 0.026122 0.000000
# 6 0.000000 0.000000 0.000000 0.018052 0.000000 0.038168
#
#
# Mechanical properties :
#
#
# Convention : Reuss Voigt Hill
#
# Bulk Modulus (GPa) = 28.02981 41.45066 34.74024
# Shear Modulus (GPa) = 31.36337 43.02480 37.19409
#
# Velocity S-wave (km/s) = 3.50996 4.11103 3.82233
# Velocity P-wave (km/s) = 5.23802 6.23027 5.75557
#
# Compressibility (1/GPa) = 0.03567630
#
# Stress axis : x y z
#
# Youngs Moduli (GPa) = 100.18624 44.40813 136.31732
#
# Poissons Ratio (x) = -0.03642 0.09744
# Poissons Ratio (y) = -0.08215 0.29784
# Poissons Ratio (z) = 0.07161 0.09703
#
# Static dielectric constant tensor:
#      x y z
#    x 2.127880 0.000000 -0.034840 
#    y 0.000000 2.019260 0.000000 
#    z -0.034840 0.000000 2.032710 
# 
# From -- ./inp_files/96006.got.cif
#   From: 2010.05.17/outbox.cif.g08.bks.cpg/sg15_49_cif.got.tgz:96006.got - 2010.06.03 18:47:42.
