data_PCOD9255369
_publ_section_title
;
Structure prediction by ZEFSAII (Michael W. Deem and Ramdas Pophale) SiO2 
 PCOD9255369
Probable space group: C 2/C
;
_chemical_formula_sum "Si O2"
_cell_formula_units_Z 48
_cell_length_a 6.597961
_cell_length_b 19.096104
_cell_length_c 24.015991
_cell_angle_alpha 90.000000
_cell_angle_beta 56.712192
_cell_angle_gamma 90.000000
_cell_volume 2529.425601
_symmetry_space_group_name_H-M "C 2/C"
_symmetry_group_IT_number 15
_symmetry_cell_setting 'monoclinic'
loop_
_space_group_symop_operation_xyz
x,y,z
-x,y,1/2-z
-x,-y,-z
x,-y,1/2+z
1/2+x,1/2+y,z
1/2-x,1/2+y,1/2-z
1/2-x,1/2-y,-z
1/2+x,1/2-y,1/2+z
loop_
_atom_site_type_symbol
_atom_site_label
_atom_site_fract_x
_atom_site_fract_y
_atom_site_fract_z
Si Si1 0.769651 0.986005 0.358016
Si Si2 0.037607 0.076270 0.563253
Si Si3 0.259221 0.174540 0.814003
Si Si4 0.728869 0.414246 0.799787
Si Si5 0.500000 0.692246 0.250000
Si Si6 0.273514 0.063657 0.414642
Si Si7 0.000000 0.876834 0.250000
O O1 0.793530 0.928068 0.306277
O O2 0.770658 0.947696 0.417965
O O3 0.550445 0.039155 0.381556
O O4 0.023652 0.027823 0.320250
O O5 0.861405 0.133668 0.617311
O O6 0.171041 0.097347 0.486415
O O7 0.873753 0.008673 0.573609
O O8 0.500000 0.140038 0.750000
O O9 0.340087 0.254257 0.811309
O O10 0.076534 0.170187 0.789987
O O11 0.665118 0.353894 0.765572
O O12 0.727931 0.393188 0.865072
O O13 0.000000 0.442163 0.750000
#
# Coordination Sequence:
#
# PCOD9255369 Si02
#       7
#     8   8   8   8   4   8   4
#     4  10  19  32  56  86 114 141 175 227 282 336
#     4   9  19  34  54  87 117 145 173 222 281 341
#     4   9  20  34  53  76 108 139 184 224 270 318
#     4  11  22  37  56  79 108 145 190 230 272 322
#     4  10  23  36  54  76 105 148 194 232 266 308
#     4  10  19  33  57  83 116 145 177 220 282 337
#     4  10  17  30  52  82 103 136 176 224 282 324
#
# _framework density 18.976641999999998
#
# number of rings (size 3 to 8) (size 9 to 14) (size 15 to 20)
#    0.500    1.667    0.000    4.000    1.167    4.667 
#    0.000    0.833    0.000    4.000    0.000    0.000 
#    0.000    0.000    0.000    0.000    0.000    0.000 
#
# Total GULP energy -133719.090410 kJ/mol
# GULP energy per Si atom -5571.628767 kJ/mol
# Density = 1.893345 g / cm^3
# Si number density = 18.976642 Si / 1000 Ang^3
#
#
#
# Elastic Constant Matrix: (Units=GPa)
#
#
# Indices 1 2 3 4 5 6 
#
# 1 84.8882 13.0671 31.3194 0.0000 2.3426 0.0000
# 2 13.0671 27.0838 8.6267 0.0000 6.5557 0.0000
# 3 31.3194 8.6267 92.4860 0.0000 15.6232 0.0000
# 4 0.0000 0.0000 0.0000 14.0856 0.0000 -3.0826
# 5 2.3426 6.5557 15.6232 0.0000 25.8277 0.0000
# 6 0.0000 0.0000 0.0000 -3.0826 0.0000 17.8118
#
#
#
# Elastic Compliance Matrix: (Units=1/GPa)
#
#
# Indices 1 2 3 4 5 6 
#
# 1 0.014435 -0.006193 -0.004851 0.000000 0.003197 0.000000
# 2 -0.006193 0.042406 -0.000150 0.000000 -0.010111 0.000000
# 3 -0.004851 -0.000150 0.013798 0.000000 -0.007869 0.000000
# 4 0.000000 0.000000 0.000000 0.073789 0.000000 0.012770
# 5 0.003197 -0.010111 -0.007869 0.000000 0.045754 0.000000
# 6 0.000000 0.000000 0.000000 0.012770 0.000000 0.058353
#
#
# Mechanical properties :
#
#
# Convention : Reuss Voigt Hill
#
# Bulk Modulus (GPa) = 20.72501 34.49829 27.61165
# Shear Modulus (GPa) = 17.42121 21.64134 19.53127
#
# Velocity S-wave (km/s) = 3.03320 3.38067 3.21164
# Velocity P-wave (km/s) = 4.81789 5.78424 5.32304
#
# Compressibility (1/GPa) = 0.04825089
#
# Stress axis : x y z
#
# Youngs Moduli (GPa) = 69.27636 23.58176 72.47293
#
# Poissons Ratio (x) = 0.14605 0.35154
# Poissons Ratio (y) = 0.42904 0.01088
# Poissons Ratio (z) = 0.33603 0.00354
#
# Static dielectric constant tensor:
#      x y z
#    x 1.687960 0.000000 0.000760 
#    y 0.000000 1.653910 0.000000 
#    z 0.000760 0.000000 1.701140 
# 
# From -- ./inp_files/261005.got.cif
#   From: 2010.05.17/outbox.cif.g08.bks.cpg/sg15_131_cif.got.tgz:261005.got - 2010.06.03 18:47:42.
