data_PCOD9255437
_publ_section_title
;
Structure prediction by ZEFSAII (Michael W. Deem and Ramdas Pophale) SiO2 
 PCOD9255437
Probable space group: C 2/C
;
_chemical_formula_sum "Si O2"
_cell_formula_units_Z 56
_cell_length_a 9.210121
_cell_length_b 17.916843
_cell_length_c 27.898657
_cell_angle_alpha 90.000000
_cell_angle_beta 143.313325
_cell_angle_gamma 90.000000
_cell_volume 2750.448059
_symmetry_space_group_name_H-M "C 2/C"
_symmetry_group_IT_number 15
_symmetry_cell_setting 'monoclinic'
loop_
_space_group_symop_operation_xyz
x,y,z
-x,y,1/2-z
-x,-y,-z
x,-y,1/2+z
1/2+x,1/2+y,z
1/2-x,1/2+y,1/2-z
1/2-x,1/2-y,-z
1/2+x,1/2-y,1/2+z
loop_
_atom_site_type_symbol
_atom_site_label
_atom_site_fract_x
_atom_site_fract_y
_atom_site_fract_z
Si Si1 0.685208 0.264177 0.611353
Si Si2 0.056954 0.859878 0.201409
Si Si3 0.479966 0.182222 0.466711
Si Si4 0.260663 0.793155 0.161627
Si Si5 0.609788 0.399304 0.941266
Si Si6 0.251316 0.455178 0.060198
Si Si7 0.038351 0.358306 0.382217
O O1 0.592278 0.241025 0.534121
O O2 0.624197 0.349701 0.606491
O O3 0.517585 0.217919 0.603939
O O4 0.943996 0.221771 0.683789
O O5 0.162841 0.847785 0.176327
O O6 0.269917 0.884167 0.293504
O O7 0.846366 0.919820 0.135204
O O8 0.405743 0.225655 0.399818
O O9 0.256937 0.143212 0.437066
O O10 0.674405 0.116888 0.509030
O O11 0.500000 0.759827 0.250000
O O12 0.326443 0.838008 0.131024
O O13 0.566847 0.483882 0.913132
O O14 0.792457 0.402062 0.035609
O O15 0.000000 0.500000 0.000000
#
# Coordination Sequence:
#
# PCOD9255437 Si02
#       7
#     8   8   8   8   8   8   8
#     4  10  17  30  58  85 103 135 191 243 267 314
#     4  10  22  34  55  86 113 144 189 236 284 331
#     4   9  16  33  53  79 105 140 184 225 272 331
#     4  10  19  33  55  80 111 145 180 233 290 329
#     4  10  17  33  59  81 109 146 190 229 280 326
#     4   9  20  34  52  79 110 147 181 221 282 345
#     4  10  18  35  58  81 107 144 191 235 275 332
#
# _framework density 20.360319
#
# number of rings (size 3 to 8) (size 9 to 14) (size 15 to 20)
#    0.000    2.286    2.857    2.143    0.000    2.286 
#    0.000    3.571    0.000    3.429    0.000    0.000 
#    0.000    0.000    0.000    0.000    0.000    0.000 
#
# Total GULP energy -155960.934972 kJ/mol
# GULP energy per Si atom -5570.033392 kJ/mol
# Density = 2.031398 g / cm^3
# Si number density = 20.360319 Si / 1000 Ang^3
#
#
#
# Elastic Constant Matrix: (Units=GPa)
#
#
# Indices 1 2 3 4 5 6 
#
# 1 65.0263 16.0780 15.0149 0.0001 -16.9076 0.0001
# 2 16.0780 89.4211 25.9435 0.0001 -5.7222 0.0000
# 3 15.0149 25.9435 98.8332 0.0004 -16.8692 -0.0001
# 4 0.0001 0.0001 0.0004 18.9725 0.0001 3.1373
# 5 -16.9076 -5.7222 -16.8692 0.0001 31.5889 0.0000
# 6 0.0001 0.0000 -0.0001 3.1373 0.0000 26.6067
#
#
#
# Elastic Compliance Matrix: (Units=1/GPa)
#
#
# Indices 1 2 3 4 5 6 
#
# 1 0.018526 -0.002579 -0.000578 0.000000 0.009140 0.000000
# 2 -0.002579 0.012472 -0.003006 0.000000 -0.000726 0.000000
# 3 -0.000578 -0.003006 0.011937 0.000000 0.005521 0.000000
# 4 0.000000 0.000000 0.000000 0.053756 0.000000 -0.006339
# 5 0.009140 -0.000726 0.005521 0.000000 0.039366 0.000000
# 6 0.000000 0.000000 0.000000 -0.006339 0.000000 0.038332
#
#
# Mechanical properties :
#
#
# Convention : Reuss Voigt Hill
#
# Bulk Modulus (GPa) = 32.66795 40.81706 36.74250
# Shear Modulus (GPa) = 25.39135 28.51656 26.95395
#
# Velocity S-wave (km/s) = 3.53526 3.74651 3.64242
# Velocity P-wave (km/s) = 5.72222 6.22945 5.98121
#
# Compressibility (1/GPa) = 0.03061105
#
# Stress axis : x y z
#
# Youngs Moduli (GPa) = 53.97860 80.17722 83.77122
#
# Poissons Ratio (x) = 0.20674 0.04838
# Poissons Ratio (y) = 0.13918 0.25183
# Poissons Ratio (z) = 0.03117 0.24103
#
# Static dielectric constant tensor:
#      x y z
#    x 1.817750 0.000000 0.068060 
#    y 0.000000 1.740710 0.000000 
#    z 0.068060 0.000000 1.798790 
# 
# From -- ./inp_files/289781.got.cif
#   From: 2010.05.17/outbox.cif.g08.bks.cpg/sg15_145_cif.got.tgz:289781.got - 2010.06.03 18:47:42.
