data_PCOD9255608
_publ_section_title
;
Structure prediction by ZEFSAII (Michael W. Deem and Ramdas Pophale) SiO2 
 PCOD9255608
Probable space group: C 2/C
;
_chemical_formula_sum "Si O2"
_cell_formula_units_Z 56
_cell_length_a 22.230901
_cell_length_b 15.768964
_cell_length_c 10.424654
_cell_angle_alpha 90.000000
_cell_angle_beta 131.994378
_cell_angle_gamma 90.000000
_cell_volume 2716.024605
_symmetry_space_group_name_H-M "C 2/C"
_symmetry_group_IT_number 15
_symmetry_cell_setting 'monoclinic'
loop_
_space_group_symop_operation_xyz
x,y,z
-x,y,1/2-z
-x,-y,-z
x,-y,1/2+z
1/2+x,1/2+y,z
1/2-x,1/2+y,1/2-z
1/2-x,1/2-y,-z
1/2+x,1/2-y,1/2+z
loop_
_atom_site_type_symbol
_atom_site_label
_atom_site_fract_x
_atom_site_fract_y
_atom_site_fract_z
Si Si1 0.593391 0.827871 0.830633
Si Si2 0.000000 0.056968 0.750000
Si Si3 0.583555 0.007518 0.691536
Si Si4 0.121993 0.091970 0.471186
Si Si5 0.698065 0.865593 0.222280
Si Si6 0.967321 0.812790 0.429187
Si Si7 0.885404 0.246647 0.207150
Si Si8 0.500000 0.142809 0.750000
O O1 0.500000 0.829873 0.750000
O O2 0.594551 0.749475 0.733440
O O3 0.608224 0.916869 0.780452
O O4 0.657492 0.825018 0.038000
O O5 0.002937 0.118678 0.631929
O O6 0.920918 0.996280 0.626646
O O7 0.646629 0.052063 0.688604
O O8 0.557265 0.075060 0.759757
O O9 0.500000 0.000000 0.500000
O O10 0.211158 0.100526 0.658602
O O11 0.065055 0.134395 0.496984
O O12 0.129075 0.150484 0.354283
O O13 0.684487 0.798071 0.319613
O O14 0.039852 0.753300 0.585214
O O15 0.924661 0.289572 0.135290
#
# Coordination Sequence:
#
# PCOD9255608 Si02
#       8
#     8   4   8   8   8   8   8   4
#     4  12  21  41  69  97 130 170 215 269 335 390
#     4  12  25  45  72  94 126 182 224 279 335 386
#     4  11  20  35  64  94 131 170 212 260 325 399
#     4  12  26  43  65  96 134 173 224 277 331 391
#     4  11  25  41  64 101 137 169 220 274 327 398
#     4  12  23  44  75  94 126 177 230 272 330 401
#     4  11  20  41  67  97 127 173 219 271 329 390
#     4  10  17  31  62  92 118 166 214 247 315 388
#
# _framework density 20.618369000000001
#
# number of rings (size 3 to 8) (size 9 to 14) (size 15 to 20)
#    0.000    0.571    7.143    1.714    0.000    1.714 
#    0.000    1.429    0.000    0.000    0.000    0.000 
#    0.000    0.000    0.000    0.000    0.000    0.000 
#
# Total GULP energy -155921.106069 kJ/mol
# GULP energy per Si atom -5568.610931 kJ/mol
# Density = 2.057144 g / cm^3
# Si number density = 20.618369 Si / 1000 Ang^3
#
#
#
# Elastic Constant Matrix: (Units=GPa)
#
#
# Indices 1 2 3 4 5 6 
#
# 1 27.7979 3.9499 5.4872 0.0000 3.1662 0.0000
# 2 3.9499 85.1344 10.7939 0.0000 -10.2393 0.0000
# 3 5.4872 10.7939 80.6473 0.0000 7.5780 0.0000
# 4 0.0000 0.0000 0.0000 -9.6306 0.0000 6.5998
# 5 3.1662 -10.2393 7.5780 0.0000 31.1246 0.0000
# 6 0.0000 0.0000 0.0000 6.5998 0.0000 7.8433
#
#
#
# Elastic Compliance Matrix: (Units=1/GPa)
#
#
# Indices 1 2 3 4 5 6 
#
# 1 0.037075 -0.001956 -0.001889 0.000000 -0.003955 0.000000
# 2 -0.001956 0.012678 -0.002021 0.000000 0.004862 0.000000
# 3 -0.001889 -0.002021 0.013144 0.000000 -0.003673 0.000000
# 4 0.000000 0.000000 0.000000 -0.065859 0.000000 0.055417
# 5 -0.003955 0.004862 -0.003673 0.000000 0.035025 0.000000
# 6 0.000000 0.000000 0.000000 0.055417 0.000000 0.080866
#
#
# Mechanical properties :
#
#
# Convention : Reuss Voigt Hill
#
# Bulk Modulus (GPa) = 19.54463 26.00459 22.77461
# Shear Modulus (GPa) = 35.28185 17.42404 26.35294
#
# Velocity S-wave (km/s) = 4.14114 2.91017 3.57897
# Velocity P-wave (km/s) = 5.68904 4.89202 5.30551
#
# Compressibility (1/GPa) = 0.05116496
#
# Stress axis : x y z
#
# Youngs Moduli (GPa) = 26.97215 78.87799 76.08187
#
# Poissons Ratio (x) = 0.15431 0.14373
# Poissons Ratio (y) = 0.05277 0.15373
# Poissons Ratio (z) = 0.05095 0.15937
#
# Static dielectric constant tensor:
#      x y z
#    x 1.728060 0.000000 -0.023010 
#    y 0.000000 1.733750 0.000000 
#    z -0.023010 0.000000 1.787450 
# 
# From -- ./inp_files/123361.got.cif
#   From: 2010.05.17/outbox.cif.g08.bks.cpg/sg15_62_cif.got.tgz:123361.got - 2010.06.03 18:47:42.
