data_PCOD9255398
_publ_section_title
;
Structure prediction by ZEFSAII (Michael W. Deem and Ramdas Pophale) SiO2 
 PCOD9255398
Probable space group: C 2/C
;
_chemical_formula_sum "Si O2"
_cell_formula_units_Z 48
_cell_length_a 15.475503
_cell_length_b 9.469472
_cell_length_c 16.389855
_cell_angle_alpha 90.000000
_cell_angle_beta 64.190386
_cell_angle_gamma 90.000000
_cell_volume 2162.254049
_symmetry_space_group_name_H-M "C 2/C"
_symmetry_group_IT_number 15
_symmetry_cell_setting 'monoclinic'
loop_
_space_group_symop_operation_xyz
x,y,z
-x,y,1/2-z
-x,-y,-z
x,-y,1/2+z
1/2+x,1/2+y,z
1/2-x,1/2+y,1/2-z
1/2-x,1/2-y,-z
1/2+x,1/2-y,1/2+z
loop_
_atom_site_type_symbol
_atom_site_label
_atom_site_fract_x
_atom_site_fract_y
_atom_site_fract_z
Si Si1 0.732990 0.651006 0.824583
Si Si2 0.086278 0.777654 0.068171
Si Si3 0.889498 0.552206 0.303038
Si Si4 0.535778 0.519896 0.392483
Si Si5 0.393465 0.883716 0.615144
Si Si6 0.630536 0.207374 0.882646
O O1 0.810830 0.568205 0.846192
O O2 0.640658 0.552745 0.841954
O O3 0.691274 0.789345 0.886195
O O4 0.786607 0.690471 0.718421
O O5 0.116226 0.673301 0.127296
O O6 0.046159 0.927018 0.118582
O O7 0.991157 0.703257 0.068703
O O8 0.154824 0.778333 0.960601
O O9 0.871603 0.613634 0.220732
O O10 0.000000 0.499314 0.250000
O O11 0.500000 0.500000 0.500000
O O12 0.552808 0.686331 0.373670
O O13 0.399342 0.045588 0.587893
#
# Coordination Sequence:
#
# PCOD9255398 Si02
#       6
#     8   8   8   8   8   8
#     4  10  19  34  56  81 112 158 203 237 292 368
#     4   9  18  33  54  80 111 150 196 248 301 349
#     4   9  18  34  57  83 115 154 197 252 305 351
#     4   9  19  35  56  84 117 157 201 244 294 363
#     4   9  18  32  54  77 107 154 196 233 289 364
#     4  10  17  30  54  83 111 147 195 242 291 355
#
# _framework density 22.199057
#
# number of rings (size 3 to 8) (size 9 to 14) (size 15 to 20)
#    0.000    2.667    0.000    2.500    0.000    0.000 
#    0.000    8.333    0.000   58.000    0.000    0.000 
#    0.000    0.000    0.000    0.000    0.000    0.000 
#
# Total GULP energy -133711.570294 kJ/mol
# GULP energy per Si atom -5571.315429 kJ/mol
# Density = 2.214853 g / cm^3
# Si number density = 22.199057 Si / 1000 Ang^3
#
#
#
# Elastic Constant Matrix: (Units=GPa)
#
#
# Indices 1 2 3 4 5 6 
#
# 1 71.8838 47.8991 15.3303 0.0000 -10.5445 0.0000
# 2 47.8991 148.0792 23.2275 0.0000 -11.4408 0.0000
# 3 15.3303 23.2275 71.6577 0.0000 -5.9470 0.0000
# 4 0.0000 0.0000 0.0000 23.9420 0.0000 -15.5366
# 5 -10.5445 -11.4408 -5.9470 0.0000 23.0127 0.0000
# 6 0.0000 0.0000 0.0000 -15.5366 0.0000 37.4197
#
#
#
# Elastic Compliance Matrix: (Units=1/GPa)
#
#
# Indices 1 2 3 4 5 6 
#
# 1 0.018643 -0.005327 -0.001811 0.000000 0.005426 0.000000
# 2 -0.005327 0.008847 -0.001600 0.000000 0.001544 0.000000
# 3 -0.001811 -0.001600 0.015049 0.000000 0.002264 0.000000
# 4 0.000000 0.000000 0.000000 0.057171 0.000000 0.023737
# 5 0.005426 0.001544 0.002264 0.000000 0.047293 0.000000
# 6 0.000000 0.000000 0.000000 0.023737 0.000000 0.036580
#
#
# Mechanical properties :
#
#
# Convention : Reuss Voigt Hill
#
# Bulk Modulus (GPa) = 39.90059 51.61496 45.75777
# Shear Modulus (GPa) = 23.87617 30.55245 27.21431
#
# Velocity S-wave (km/s) = 3.28311 3.71387 3.50512
# Velocity P-wave (km/s) = 5.69076 6.45693 6.08591
#
# Compressibility (1/GPa) = 0.02506229
#
# Stress axis : x y z
#
# Youngs Moduli (GPa) = 53.63852 113.03858 66.44873
#
# Poissons Ratio (x) = 0.60218 0.12037
# Poissons Ratio (y) = 0.28574 0.10630
# Poissons Ratio (z) = 0.09716 0.18083
#
# Static dielectric constant tensor:
#      x y z
#    x 1.901330 0.000000 -0.047300 
#    y 0.000000 1.948150 0.000000 
#    z -0.047300 0.000000 1.889550 
# 
# From -- ./inp_files/208945.got.cif
#   From: 2010.05.17/outbox.cif.g08.bks.cpg/sg15_105_cif.got.tgz:208945.got - 2010.06.03 18:47:42.
