data_PCOD9255412
_publ_section_title
;
Structure prediction by ZEFSAII (Michael W. Deem and Ramdas Pophale) SiO2 
 PCOD9255412
Probable space group: C 2/C
;
_chemical_formula_sum "Si O2"
_cell_formula_units_Z 56
_cell_length_a 25.369953
_cell_length_b 7.122050
_cell_length_c 17.668880
_cell_angle_alpha 90.000000
_cell_angle_beta 135.547279
_cell_angle_gamma 90.000000
_cell_volume 2235.787495
_symmetry_space_group_name_H-M "C 2/C"
_symmetry_group_IT_number 15
_symmetry_cell_setting 'monoclinic'
loop_
_space_group_symop_operation_xyz
x,y,z
-x,y,1/2-z
-x,-y,-z
x,-y,1/2+z
1/2+x,1/2+y,z
1/2-x,1/2+y,1/2-z
1/2-x,1/2-y,-z
1/2+x,1/2-y,1/2+z
loop_
_atom_site_type_symbol
_atom_site_label
_atom_site_fract_x
_atom_site_fract_y
_atom_site_fract_z
Si Si1 0.553852 0.673015 0.035875
Si Si2 0.327237 0.119303 0.426921
Si Si3 0.842282 0.385179 0.177561
Si Si4 0.694188 0.434175 0.966384
Si Si5 0.287498 0.800074 0.287503
Si Si6 0.954272 0.907961 0.133591
Si Si7 0.497922 0.835236 0.126763
O O1 0.534608 0.710383 0.929894
O O2 0.500000 0.500000 0.000000
O O3 0.644566 0.648213 0.132967
O O4 0.531570 0.818471 0.076834
O O5 0.308931 0.259380 0.476895
O O6 0.294892 0.229994 0.320119
O O7 0.414960 0.086765 0.529301
O O8 0.289554 0.921283 0.366206
O O9 0.833000 0.166326 0.138943
O O10 0.815864 0.400223 0.237954
O O11 0.930787 0.423671 0.256209
O O12 0.780580 0.497654 0.064578
O O13 0.632375 0.577092 0.931253
O O14 0.982332 0.123184 0.143897
O O15 0.000000 0.832990 0.250000
#
# Coordination Sequence:
#
# PCOD9255412 Si02
#       7
#     8   8   8   8   8   8   8
#     4   9  20  33  56  81 115 145 183 235 283 332
#     4  10  22  35  59  84 113 148 188 237 284 338
#     4   9  17  32  53  82 109 146 193 237 268 329
#     4   9  18  32  53  83 111 146 194 240 273 325
#     4  10  22  37  58  85 114 150 189 233 285 341
#     4  10  17  30  55  82 109 145 189 229 277 339
#     4   9  18  34  53  81 109 143 190 235 275 330
#
# _framework density 25.047101999999999
#
# number of rings (size 3 to 8) (size 9 to 14) (size 15 to 20)
#    0.000    2.571    1.429    0.000    8.000    2.286 
#    0.000    0.000    6.286    0.857    0.000    0.000 
#    0.000    0.000    0.000    0.000    0.000    0.000 
#
# Total GULP energy -155899.312917 kJ/mol
# GULP energy per Si atom -5567.832604 kJ/mol
# Density = 2.499009 g / cm^3
# Si number density = 25.047102 Si / 1000 Ang^3
#
#
#
# Elastic Constant Matrix: (Units=GPa)
#
#
# Indices 1 2 3 4 5 6 
#
# 1 35.1875 2.6902 31.4356 0.0000 11.5068 0.0000
# 2 2.6902 43.8255 10.6200 0.0001 4.9594 0.0001
# 3 31.4356 10.6200 144.2755 0.0000 26.9624 0.0000
# 4 0.0000 0.0001 0.0000 15.9511 0.0000 7.3574
# 5 11.5068 4.9594 26.9624 0.0000 57.1314 0.0000
# 6 0.0000 0.0001 0.0000 7.3574 0.0000 11.1099
#
#
#
# Elastic Compliance Matrix: (Units=1/GPa)
#
#
# Indices 1 2 3 4 5 6 
#
# 1 0.036063 -0.000046 -0.007126 0.000000 -0.003896 0.000000
# 2 -0.000046 0.023324 -0.001459 0.000000 -0.001327 0.000000
# 3 -0.007126 -0.001459 0.009102 0.000000 -0.002734 0.000000
# 4 0.000000 0.000000 0.000000 0.090262 0.000000 -0.059775
# 5 -0.003896 -0.001327 -0.002734 0.000000 0.019694 0.000000
# 6 0.000000 0.000000 0.000000 -0.059775 0.000000 0.129595
#
#
# Mechanical properties :
#
#
# Convention : Reuss Voigt Hill
#
# Bulk Modulus (GPa) = 19.52069 34.75334 27.13702
# Shear Modulus (GPa) = 14.60374 28.74133 21.67254
#
# Velocity S-wave (km/s) = 2.41727 3.39114 2.94474
# Velocity P-wave (km/s) = 3.94986 5.40726 4.73497
#
# Compressibility (1/GPa) = 0.05122770
#
# Stress axis : x y z
#
# Youngs Moduli (GPa) = 27.72909 42.87382 109.86436
#
# Poissons Ratio (x) = 0.00197 0.78291
# Poissons Ratio (y) = 0.00127 0.16028
# Poissons Ratio (z) = 0.19760 0.06255
#
# Static dielectric constant tensor:
#      x y z
#    x 2.083990 0.000000 0.018720 
#    y 0.000000 2.075810 0.000000 
#    z 0.018720 0.000000 2.070960 
# 
# From -- ./inp_files/224450.got.cif
#   From: 2010.05.17/outbox.cif.g08.bks.cpg/sg15_113_cif.got.tgz:224450.got - 2010.06.03 18:47:42.
