data_PCOD9255056
_publ_section_title
;
Structure prediction by ZEFSAII (Michael W. Deem and Ramdas Pophale) SiO2 
 PCOD9255056
Probable space group: C 2/C
;
_chemical_formula_sum "Si O2"
_cell_formula_units_Z 32
_cell_length_a 26.679340
_cell_length_b 11.165304
_cell_length_c 5.568276
_cell_angle_alpha 90.000000
_cell_angle_beta 103.248660
_cell_angle_gamma 90.000000
_cell_volume 1614.547650
_symmetry_space_group_name_H-M "C 2/C"
_symmetry_group_IT_number 15
_symmetry_cell_setting 'monoclinic'
loop_
_space_group_symop_operation_xyz
x,y,z
-x,y,1/2-z
-x,-y,-z
x,-y,1/2+z
1/2+x,1/2+y,z
1/2-x,1/2+y,1/2-z
1/2-x,1/2-y,-z
1/2+x,1/2-y,1/2+z
loop_
_atom_site_type_symbol
_atom_site_label
_atom_site_fract_x
_atom_site_fract_y
_atom_site_fract_z
Si Si1 0.439323 0.072045 0.181534
Si Si2 0.346328 0.756739 0.546676
Si Si3 0.723838 0.992077 0.056168
Si Si4 0.188927 0.747777 0.987271
O O1 0.500000 0.101870 0.250000
O O2 0.402347 0.186697 0.141834
O O3 0.429396 0.997908 0.417966
O O4 0.340285 0.700473 0.275843
O O5 0.306321 0.868116 0.477435
O O6 0.327820 0.698356 0.775616
O O7 0.753248 0.004586 0.337817
O O8 0.682589 0.101945 0.005173
O O9 0.250000 0.750000 0.000000
#
# Coordination Sequence:
#
# PCOD9255056 Si02
#       4
#     8   8   8   8
#     4  10  18  27  41  60  78 100 136 174 197 221
#     4  10  17  28  40  53  76 104 130 159 196 228
#     4   8  14  23  36  48  65  93 122 147 180 217
#     4  10  18  26  38  55  73  97 133 164 189 228
#
# _framework density 19.819794000000002
#
# number of rings (size 3 to 8) (size 9 to 14) (size 15 to 20)
#    0.000    2.500    0.000    6.750    0.000    0.000 
#    0.000    0.000    0.000    0.000    0.000    0.000 
#    0.000    0.000    0.000    0.000    0.000  225.000 
#
# Total GULP energy -89084.503039 kJ/mol
# GULP energy per Si atom -5567.781440 kJ/mol
# Density = 1.977468 g / cm^3
# Si number density = 19.819794 Si / 1000 Ang^3
#
#
#
# Elastic Constant Matrix: (Units=GPa)
#
#
# Indices 1 2 3 4 5 6 
#
# 1 88.5537 1.8822 46.0342 0.0000 -6.1675 0.0000
# 2 1.8822 9.4982 -4.7311 0.0000 -2.0023 0.0000
# 3 46.0342 -4.7311 221.3093 0.0000 -42.2760 0.0000
# 4 0.0000 0.0000 0.0000 8.4847 0.0000 -1.3401
# 5 -6.1675 -2.0023 -42.2760 0.0000 36.0533 0.0000
# 6 0.0000 0.0000 0.0000 -1.3401 0.0000 30.3526
#
#
#
# Elastic Compliance Matrix: (Units=1/GPa)
#
#
# Indices 1 2 3 4 5 6 
#
# 1 0.012879 -0.004445 -0.003093 0.000000 -0.001671 0.000000
# 2 -0.004445 0.111482 0.005600 0.000000 0.011997 0.000000
# 3 -0.003093 0.005600 0.006753 0.000000 0.007700 0.000000
# 4 0.000000 0.000000 0.000000 0.118687 0.000000 0.005240
# 5 -0.001671 0.011997 0.007700 0.000000 0.037146 0.000000
# 6 0.000000 0.000000 0.000000 0.005240 0.000000 0.033177
#
#
# Mechanical properties :
#
#
# Convention : Reuss Voigt Hill
#
# Bulk Modulus (GPa) = 7.85939 45.08132 26.47036
# Shear Modulus (GPa) = 13.64583 33.38984 23.51784
#
# Velocity S-wave (km/s) = 2.62677 4.10893 3.44842
# Velocity P-wave (km/s) = 3.62959 6.73098 5.40740
#
# Compressibility (1/GPa) = 0.12723640
#
# Stress axis : x y z
#
# Youngs Moduli (GPa) = 77.64820 8.97006 148.09284
#
# Poissons Ratio (x) = 0.03987 0.45805
# Poissons Ratio (y) = 0.34514 -0.82925
# Poissons Ratio (z) = 0.24017 -0.05023
#
# Static dielectric constant tensor:
#      x y z
#    x 1.688260 0.000000 -0.062440 
#    y 0.000000 1.797110 0.000000 
#    z -0.062440 0.000000 1.857030 
# 
# From -- ./inp_files/6407.got.cif
#   From: 2010.05.17/outbox.cif.g08.bks.cpg/sg15_4_cif.got.tgz:6407.got - 2010.06.03 18:47:42.
