data_PCOD9255676
_publ_section_title
;
Structure prediction by ZEFSAII (Michael W. Deem and Ramdas Pophale) SiO2 
 PCOD9255676
Probable space group: C 2/C
;
_chemical_formula_sum "Si O2"
_cell_formula_units_Z 64
_cell_length_a 13.625291
_cell_length_b 20.649019
_cell_length_c 17.189133
_cell_angle_alpha 90.000000
_cell_angle_beta 149.651658
_cell_angle_gamma 90.000000
_cell_volume 2443.490125
_symmetry_space_group_name_H-M "C 2/C"
_symmetry_group_IT_number 15
_symmetry_cell_setting 'monoclinic'
loop_
_space_group_symop_operation_xyz
x,y,z
-x,y,1/2-z
-x,-y,-z
x,-y,1/2+z
1/2+x,1/2+y,z
1/2-x,1/2+y,1/2-z
1/2-x,1/2-y,-z
1/2+x,1/2-y,1/2+z
loop_
_atom_site_type_symbol
_atom_site_label
_atom_site_fract_x
_atom_site_fract_y
_atom_site_fract_z
Si Si1 0.783148 0.289964 0.388930
Si Si2 0.603563 0.166055 0.984286
Si Si3 0.121614 0.174031 0.123581
Si Si4 0.900947 0.141045 0.606398
Si Si5 0.794636 0.517158 0.438256
Si Si6 0.729486 0.029799 0.244923
Si Si7 0.197011 0.725205 0.817026
Si Si8 0.765991 0.477824 0.586026
O O1 0.500000 0.396190 0.250000
O O2 0.959189 0.317750 0.458240
O O3 0.769156 0.319820 0.465420
O O4 0.581825 0.312915 0.211652
O O5 0.479612 0.177341 0.821447
O O6 0.665623 0.093531 0.039912
O O7 0.774132 0.219337 0.098387
O O8 0.198462 0.103349 0.195579
O O9 0.181073 0.224613 0.232788
O O10 0.208796 0.212634 0.109133
O O11 0.889479 0.181250 0.956130
O O12 0.830179 0.091915 0.494085
O O13 0.703831 0.500514 0.291827
O O14 0.712819 0.512801 0.469477
O O15 0.994924 0.475906 0.578838
O O16 0.786729 0.994800 0.365058
O O17 0.000000 0.471768 0.750000
#
# Coordination Sequence:
#
# PCOD9255676 Si02
#       8
#     8   8   8   8   8   8   8   8
#     4   7  18  30  55  79 118 162 187 222 310 345
#     4  10  17  35  59  83 119 158 191 246 305 364
#     4  10  17  32  52  87 120 155 204 234 283 369
#     4   8  18  35  54  77 122 171 188 234 295 335
#     4  10  22  38  56  85 120 163 202 247 310 345
#     4  10  22  34  60  81 118 162 205 249 286 353
#     4   8  18  29  56  87 119 147 195 243 301 361
#     4  10  22  37  58  84 113 158 218 249 280 359
#
# _framework density 26.192043999999999
#
# number of rings (size 3 to 8) (size 9 to 14) (size 15 to 20)
#    0.750    2.250    1.250    0.000    8.750    0.000 
#    6.750    1.250    5.500    0.000    0.000    7.875 
#    0.000    0.000    0.000    0.000    0.000    0.250 
#
# Total GULP energy -178545.347022 kJ/mol
# GULP energy per Si atom -5579.542094 kJ/mol
# Density = 2.613243 g / cm^3
# Si number density = 26.192044 Si / 1000 Ang^3
#
#
#
# Elastic Constant Matrix: (Units=GPa)
#
#
# Indices 1 2 3 4 5 6 
#
# 1 94.3375 26.9409 76.8195 -0.0036 -24.4805 -0.0007
# 2 26.9409 68.1958 4.7761 -0.0165 -14.1132 -0.0130
# 3 76.8195 4.7761 127.1138 -0.0245 -29.9105 -0.0216
# 4 -0.0036 -0.0165 -0.0245 38.5224 -0.0139 -13.7220
# 5 -24.4805 -14.1132 -29.9105 -0.0139 62.9789 -0.0098
# 6 -0.0007 -0.0130 -0.0216 -13.7220 -0.0098 15.3804
#
#
#
# Elastic Compliance Matrix: (Units=1/GPa)
#
#
# Indices 1 2 3 4 5 6 
#
# 1 0.025417 -0.008824 -0.014826 -0.000029 0.000861 -0.000053
# 2 -0.008824 0.018448 0.005410 0.000030 0.003273 0.000052
# 3 -0.014826 0.005410 0.017510 0.000036 0.003765 0.000063
# 4 -0.000029 0.000030 0.000036 0.038052 0.000026 0.033949
# 5 0.000861 0.003273 0.003765 0.000026 0.018735 0.000043
# 6 -0.000053 0.000052 0.000063 0.033949 0.000043 0.095306
#
#
# Mechanical properties :
#
#
# Convention : Reuss Voigt Hill
#
# Bulk Modulus (GPa) = 40.17096 56.30223 48.23659
# Shear Modulus (GPa) = 19.36137 35.45037 27.40587
#
# Velocity S-wave (km/s) = 2.72179 3.68296 3.23823
# Velocity P-wave (km/s) = 5.02473 6.29509 5.69544
#
# Compressibility (1/GPa) = 0.02489361
#
# Stress axis : x y z
#
# Youngs Moduli (GPa) = 39.34416 54.20540 57.11135
#
# Poissons Ratio (x) = 0.47833 0.84674
# Poissons Ratio (y) = 0.34719 -0.30897
# Poissons Ratio (z) = 0.58332 -0.29325
#
# Static dielectric constant tensor:
#      x y z
#    x 2.232770 0.000000 -0.090630 
#    y 0.000000 2.022710 0.000000 
#    z -0.090630 0.000000 2.151070 
# 
# From -- ./inp_files/212174.got.cif
#   From: 2010.05.17/outbox.cif.g08.bks.cpg/sg15_107_cif.got.tgz:212174.got - 2010.06.03 18:47:42.
