data_PCOD9255559
_publ_section_title
;
Structure prediction by ZEFSAII (Michael W. Deem and Ramdas Pophale) SiO2 
 PCOD9255559
Probable space group: C 2/C
;
_chemical_formula_sum "Si O2"
_cell_formula_units_Z 60
_cell_length_a 24.361403
_cell_length_b 14.776433
_cell_length_c 18.490281
_cell_angle_alpha 90.000000
_cell_angle_beta 153.686129
_cell_angle_gamma 90.000000
_cell_volume 2950.540630
_symmetry_space_group_name_H-M "C 2/C"
_symmetry_group_IT_number 15
_symmetry_cell_setting 'monoclinic'
loop_
_space_group_symop_operation_xyz
x,y,z
-x,y,1/2-z
-x,-y,-z
x,-y,1/2+z
1/2+x,1/2+y,z
1/2-x,1/2+y,1/2-z
1/2-x,1/2-y,-z
1/2+x,1/2-y,1/2+z
loop_
_atom_site_type_symbol
_atom_site_label
_atom_site_fract_x
_atom_site_fract_y
_atom_site_fract_z
Si Si1 0.990740 0.524159 0.158387
Si Si2 0.000000 0.861491 0.250000
Si Si3 0.766525 0.034349 0.218793
Si Si4 0.785946 0.245145 0.262332
Si Si5 0.393081 0.391890 0.271956
Si Si6 0.546046 0.764110 0.545121
Si Si7 0.644935 0.795106 0.991120
Si Si8 0.125390 0.461863 0.683855
O O1 0.000000 0.488803 0.250000
O O2 0.110626 0.512046 0.249704
O O3 0.867295 0.483087 0.976336
O O4 0.965399 0.632266 0.132500
O O5 0.962741 0.911877 0.279634
O O6 0.107861 0.792778 0.403216
O O7 0.864550 0.975634 0.290696
O O8 0.795103 0.139713 0.253278
O O9 0.741331 0.006559 0.272771
O O10 0.638123 0.265867 0.088805
O O11 0.817388 0.270652 0.382625
O O12 0.903121 0.287857 0.358283
O O13 0.454950 0.313912 0.394635
O O14 0.259946 0.349246 0.093965
O O15 0.610096 0.853932 0.653983
O O16 0.000000 0.500000 0.500000
#
# Coordination Sequence:
#
# PCOD9255559 Si02
#       8
#     8   4   8   8   8   8   8   8
#     4  10  17  31  55  85 120 147 188 238 294 342
#     4  12  18  32  48  76 114 162 186 228 292 366
#     4   9  21  35  49  78 116 161 188 244 274 351
#     4  10  19  36  55  79 117 149 201 231 283 343
#     4  10  21  33  49  77 118 151 197 225 288 352
#     4  10  19  33  54  80 110 153 193 233 282 346
#     4  10  19  31  51  82 116 154 186 230 286 358
#     4   9  17  32  54  78 113 147 192 234 278 335
#
# _framework density 20.335256000000001
#
# number of rings (size 3 to 8) (size 9 to 14) (size 15 to 20)
#    0.000    2.133    3.333    0.400    1.867    0.533 
#    7.200    0.000    0.000    0.000    0.000    8.400 
#    8.000    0.133    0.000    0.000    0.000    0.000 
#
# Total GULP energy -167123.779578 kJ/mol
# GULP energy per Si atom -5570.792653 kJ/mol
# Density = 2.028897 g / cm^3
# Si number density = 20.335256 Si / 1000 Ang^3
#
#
#
# Elastic Constant Matrix: (Units=GPa)
#
#
# Indices 1 2 3 4 5 6 
#
# 1 158.4104 31.7919 29.0887 0.0000 8.8272 0.0000
# 2 31.7919 43.6459 3.3095 0.0000 -9.9709 0.0000
# 3 29.0887 3.3095 24.2349 0.0000 0.9453 0.0000
# 4 0.0000 0.0000 0.0000 14.7380 0.0000 0.2013
# 5 8.8272 -9.9709 0.9453 0.0000 29.4611 0.0000
# 6 0.0000 0.0000 0.0000 0.2013 0.0000 23.1242
#
#
#
# Elastic Compliance Matrix: (Units=1/GPa)
#
#
# Indices 1 2 3 4 5 6 
#
# 1 0.010191 -0.007813 -0.010956 0.000000 -0.005346 0.000000
# 2 -0.007813 0.031163 0.004626 0.000000 0.012739 0.000000
# 3 -0.010956 0.004626 0.053660 0.000000 0.003127 0.000000
# 4 0.000000 0.000000 0.000000 0.067860 0.000000 -0.000591
# 5 -0.005346 0.012739 0.003127 0.000000 0.039756 0.000000
# 6 0.000000 0.000000 0.000000 -0.000591 0.000000 0.043250
#
#
# Mechanical properties :
#
#
# Convention : Reuss Voigt Hill
#
# Bulk Modulus (GPa) = 14.98676 39.40792 27.19734
# Shear Modulus (GPa) = 16.86867 24.27140 20.57003
#
# Velocity S-wave (km/s) = 2.88328 3.45855 3.18393
# Velocity P-wave (km/s) = 4.29770 5.94726 5.18845
#
# Compressibility (1/GPa) = 0.06672557
#
# Stress axis : x y z
#
# Youngs Moduli (GPa) = 98.12982 32.08978 18.63603
#
# Poissons Ratio (x) = 0.25073 0.20418
# Poissons Ratio (y) = 0.76673 -0.08621
# Poissons Ratio (z) = 1.07511 -0.14845
#
# Static dielectric constant tensor:
#      x y z
#    x 1.835680 0.000000 0.058920 
#    y 0.000000 1.750590 0.000000 
#    z 0.058920 0.000000 1.783150 
# 
# From -- ./inp_files/168880.got.cif
#   From: 2010.05.17/outbox.cif.g08.bks.cpg/sg15_85_cif.got.tgz:168880.got - 2010.06.03 18:47:42.
