data_PCOD9255813
_publ_section_title
;
Structure prediction by ZEFSAII (Michael W. Deem and Ramdas Pophale) SiO2 
 PCOD9255813
Probable space group: C 2/C
;
_chemical_formula_sum "Si O2"
_cell_formula_units_Z 40
_cell_length_a 11.846505
_cell_length_b 8.262176
_cell_length_c 20.743241
_cell_angle_alpha 90.000000
_cell_angle_beta 51.895956
_cell_angle_gamma 90.000000
_cell_volume 1597.629732
_symmetry_space_group_name_H-M "C 2/C"
_symmetry_group_IT_number 15
_symmetry_cell_setting 'monoclinic'
loop_
_space_group_symop_operation_xyz
x,y,z
-x,y,1/2-z
-x,-y,-z
x,-y,1/2+z
1/2+x,1/2+y,z
1/2-x,1/2+y,1/2-z
1/2-x,1/2-y,-z
1/2+x,1/2-y,1/2+z
loop_
_atom_site_type_symbol
_atom_site_label
_atom_site_fract_x
_atom_site_fract_y
_atom_site_fract_z
Si Si1 0.327289 0.868919 0.524897
Si Si2 0.088377 0.377838 0.344395
Si Si3 0.841852 0.360565 0.785080
Si Si4 0.532813 0.457531 0.664464
Si Si5 0.113251 0.919972 0.410995
O O1 0.250000 0.750000 0.500000
O O2 0.199853 0.988184 0.589051
O O3 0.237145 0.483252 0.637705
O O4 0.474448 0.922888 0.439896
O O5 0.009875 0.232316 0.332128
O O6 0.134880 0.531461 0.286913
O O7 0.137651 0.739519 0.425395
O O8 0.730722 0.215107 0.817258
O O9 0.000000 0.315735 0.750000
O O10 0.944686 0.054623 0.640905
O O11 0.500000 0.486035 0.750000
O O12 0.000000 0.000000 0.500000
#
# Coordination Sequence:
#
# PCOD9255813 Si02
#       5
#     8   8   8   8   8
#     4  10  17  32  60  98 133 170 225 280 335 405
#     4  10  21  36  61 100 135 173 227 280 332 409
#     4  11  22  38  66  98 131 176 227 271 343 399
#     4  10  20  34  60  99 132 173 226 281 338 401
#     4  11  19  35  62  99 131 173 231 279 331 416
#
# _framework density 25.037091
#
# number of rings (size 3 to 8) (size 9 to 14) (size 15 to 20)
#    0.000    1.600    6.000    4.200    0.000    0.000 
#    0.000    5.000    0.000   12.000    0.000    0.000 
#    0.000    0.000    0.000    0.000    0.000    0.000 
#
# Total GULP energy -112055.564994 kJ/mol
# GULP energy per Si atom -5602.778250 kJ/mol
# Density = 2.498011 g / cm^3
# Si number density = 25.037091 Si / 1000 Ang^3
#
#
#
# Elastic Constant Matrix: (Units=GPa)
#
#
# Indices 1 2 3 4 5 6 
#
# 1 142.3226 52.3597 89.4972 0.0000 -23.4935 0.0000
# 2 52.3597 59.0349 23.6911 0.0000 0.7749 0.0000
# 3 89.4972 23.6911 200.7169 0.0000 -26.5649 0.0000
# 4 0.0000 0.0000 0.0000 23.6908 0.0000 4.5825
# 5 -23.4935 0.7749 -26.5649 0.0000 68.3521 0.0000
# 6 0.0000 0.0000 0.0000 4.5825 0.0000 38.9646
#
#
#
# Elastic Compliance Matrix: (Units=1/GPa)
#
#
# Indices 1 2 3 4 5 6 
#
# 1 0.014690 -0.011148 -0.004796 0.000000 0.003312 0.000000
# 2 -0.011148 0.026316 0.001389 0.000000 -0.003590 0.000000
# 3 -0.004796 0.001389 0.007102 0.000000 0.001096 0.000000
# 4 0.000000 0.000000 0.000000 0.043193 0.000000 -0.005080
# 5 0.003312 -0.003590 0.001096 0.000000 0.016235 0.000000
# 6 0.000000 0.000000 0.000000 -0.005080 0.000000 0.026262
#
#
# Mechanical properties :
#
#
# Convention : Reuss Voigt Hill
#
# Bulk Modulus (GPa) = 52.63481 81.46339 67.04910
# Shear Modulus (GPa) = 29.54396 41.96993 35.75694
#
# Velocity S-wave (km/s) = 3.43885 4.09872 3.78320
# Velocity P-wave (km/s) = 6.06926 7.41667 6.77654
#
# Compressibility (1/GPa) = 0.01899883
#
# Stress axis : x y z
#
# Youngs Moduli (GPa) = 68.07314 37.99970 140.81187
#
# Poissons Ratio (x) = 0.42361 0.67534
# Poissons Ratio (y) = 0.75887 -0.19565
# Poissons Ratio (z) = 0.32648 -0.05280
#
# Static dielectric constant tensor:
#      x y z
#    x 2.000020 0.000000 0.066790 
#    y 0.000000 2.008080 0.000000 
#    z 0.066790 0.000000 1.837680 
# 
# From -- ./inp_files/272223.got.cif
#   From: 2010.05.17/outbox.cif.g08.bks.cpg/sg15_137_cif.got.tgz:272223.got - 2010.06.03 18:47:42.
