data_PCOD9255819
_publ_section_title
;
Structure prediction by ZEFSAII (Michael W. Deem and Ramdas Pophale) SiO2 
 PCOD9255819
Probable space group: C 2/C
;
_chemical_formula_sum "Si O2"
_cell_formula_units_Z 52
_cell_length_a 27.812291
_cell_length_b 19.948454
_cell_length_c 13.648014
_cell_angle_alpha 90.000000
_cell_angle_beta 163.032166
_cell_angle_gamma 90.000000
_cell_volume 2209.797746
_symmetry_space_group_name_H-M "C 2/C"
_symmetry_group_IT_number 15
_symmetry_cell_setting 'monoclinic'
loop_
_space_group_symop_operation_xyz
x,y,z
-x,y,1/2-z
-x,-y,-z
x,-y,1/2+z
1/2+x,1/2+y,z
1/2-x,1/2+y,1/2-z
1/2-x,1/2-y,-z
1/2+x,1/2-y,1/2+z
loop_
_atom_site_type_symbol
_atom_site_label
_atom_site_fract_x
_atom_site_fract_y
_atom_site_fract_z
Si Si1 0.258686 0.472533 0.040004
Si Si2 0.909567 0.602470 0.873973
Si Si3 0.609745 0.596059 0.866573
Si Si4 0.000000 0.343666 0.750000
Si Si5 0.252593 0.732971 0.312138
Si Si6 0.111023 0.316924 0.346641
Si Si7 0.831916 0.535426 0.446778
O O1 0.207944 0.542105 0.889202
O O2 0.408364 0.435346 0.275970
O O3 0.276287 0.492643 0.188840
O O4 0.097089 0.424043 0.720015
O O5 0.867894 0.667509 0.726252
O O6 0.901664 0.620236 0.971769
O O7 0.649595 0.674026 0.942015
O O8 0.764124 0.555492 0.209815
O O9 0.500000 0.587468 0.750000
O O10 0.859114 0.299281 0.530179
O O11 0.241679 0.718462 0.173091
O O12 0.063338 0.721158 0.977087
O O13 0.121072 0.393640 0.409364
O O14 0.000000 0.498981 0.750000
#
# Coordination Sequence:
#
# PCOD9255819 Si02
#       7
#     8   8   8   4   8   8   8
#     4  10  21  36  60  87 118 152 204 249 293 354
#     4  10  21  37  59  92 116 151 205 252 293 344
#     4  11  20  35  59  85 120 158 193 245 305 355
#     4  12  26  34  58  96 124 148 190 256 302 336
#     4  10  19  37  57  87 116 153 203 239 285 358
#     4   9  17  37  63  79 110 161 203 228 292 357
#     4  10  17  32  61  89 108 152 201 246 286 349
#
# _framework density 23.531566000000002
#
# number of rings (size 3 to 8) (size 9 to 14) (size 15 to 20)
#    0.000    1.846    5.385    1.846    3.231    1.846 
#    0.000    0.000    3.385    0.000    0.000    0.000 
#    0.000    0.000    0.000    0.000    0.000    0.000 
#
# Total GULP energy -144911.066219 kJ/mol
# GULP energy per Si atom -5573.502547 kJ/mol
# Density = 2.347801 g / cm^3
# Si number density = 23.531566 Si / 1000 Ang^3
#
#
#
# Elastic Constant Matrix: (Units=GPa)
#
#
# Indices 1 2 3 4 5 6 
#
# 1 88.2025 18.0950 -14.2664 0.0000 -6.7772 0.0000
# 2 18.0950 42.2340 -0.2843 0.0000 -8.2467 0.0000
# 3 -14.2664 -0.2843 21.3797 0.0000 3.0194 0.0000
# 4 0.0000 0.0000 0.0000 9.0265 0.0000 -0.8351
# 5 -6.7772 -8.2467 3.0194 0.0000 37.0057 0.0000
# 6 0.0000 0.0000 0.0000 -0.8351 0.0000 23.3404
#
#
#
# Elastic Compliance Matrix: (Units=1/GPa)
#
#
# Indices 1 2 3 4 5 6 
#
# 1 0.014076 -0.005868 0.009242 0.000000 0.000516 0.000000
# 2 -0.005868 0.027205 -0.004308 0.000000 0.005340 0.000000
# 3 0.009242 -0.004308 0.053395 0.000000 -0.003624 0.000000
# 4 0.000000 0.000000 0.000000 0.111153 0.000000 0.003977
# 5 0.000516 0.005340 -0.003624 0.000000 0.028603 0.000000
# 6 0.000000 0.000000 0.000000 0.003977 0.000000 0.042986
#
#
# Mechanical properties :
#
#
# Convention : Reuss Voigt Hill
#
# Bulk Modulus (GPa) = 10.77494 17.65609 14.21551
# Shear Modulus (GPa) = 16.11749 23.75932 19.93840
#
# Velocity S-wave (km/s) = 2.61996 3.18099 2.91401
# Velocity P-wave (km/s) = 3.70690 4.58378 4.16846
#
# Compressibility (1/GPa) = 0.09280797
#
# Stress axis : x y z
#
# Youngs Moduli (GPa) = 71.04406 36.75764 18.72849
#
# Poissons Ratio (x) = 0.21568 -0.17308
# Poissons Ratio (y) = 0.41687 0.08068
# Poissons Ratio (z) = -0.65656 0.15834
#
# Static dielectric constant tensor:
#      x y z
#    x 2.120490 0.000000 0.178550 
#    y 0.000000 1.914750 0.000000 
#    z 0.178550 0.000000 2.182810 
# 
# From -- ./inp_files/183030.got.cif
#   From: 2010.05.17/outbox.cif.g08.bks.cpg/sg15_92_cif.got.tgz:183030.got - 2010.06.03 18:47:42.
