data_PCOD9255931
_publ_section_title
;
Structure prediction by ZEFSAII (Michael W. Deem and Ramdas Pophale) SiO2 
 PCOD9255931
Probable space group: C 2/C
;
_chemical_formula_sum "Si O2"
_cell_formula_units_Z 52
_cell_length_a 21.254154
_cell_length_b 10.128950
_cell_length_c 14.515819
_cell_angle_alpha 90.000000
_cell_angle_beta 119.033893
_cell_angle_gamma 90.000000
_cell_volume 2732.288470
_symmetry_space_group_name_H-M "C 2/C"
_symmetry_group_IT_number 15
_symmetry_cell_setting 'monoclinic'
loop_
_space_group_symop_operation_xyz
x,y,z
-x,y,1/2-z
-x,-y,-z
x,-y,1/2+z
1/2+x,1/2+y,z
1/2-x,1/2+y,1/2-z
1/2-x,1/2-y,-z
1/2+x,1/2-y,1/2+z
loop_
_atom_site_type_symbol
_atom_site_label
_atom_site_fract_x
_atom_site_fract_y
_atom_site_fract_z
Si Si1 0.123503 0.258580 0.890853
Si Si2 0.156242 0.718916 0.618185
Si Si3 0.031321 0.490337 0.364050
Si Si4 0.681418 0.293215 0.229946
Si Si5 0.000000 0.938989 0.250000
Si Si6 0.910095 0.569479 0.412609
Si Si7 0.431441 0.473960 0.883823
O O1 0.090565 0.406093 0.869934
O O2 0.165211 0.227254 0.827025
O O3 0.056772 0.156951 0.841310
O O4 0.165720 0.247066 0.016527
O O5 0.233305 0.694466 0.719591
O O6 0.113029 0.582529 0.596386
O O7 0.108714 0.837481 0.624023
O O8 0.060433 0.395971 0.464914
O O9 0.000000 0.425469 0.250000
O O10 0.971155 0.575466 0.377275
O O11 0.654745 0.161762 0.160731
O O12 0.629696 0.410514 0.156549
O O13 0.038956 0.021679 0.199110
O O14 0.500000 0.500000 0.000000
#
# Coordination Sequence:
#
# PCOD9255931 Si02
#       7
#     8   8   8   8   4   8   8
#     4  10  18  34  63  89 113 152 210 248 292 353
#     4  11  23  39  59  91 125 158 196 245 313 364
#     4  10  17  33  57  89 112 142 195 255 282 335
#     4  11  22  40  62  87 123 160 198 252 299 362
#     4  10  18  36  60  92 116 158 204 252 298 354
#     4  10  22  34  61  88 116 153 198 241 301 350
#     4  11  23  39  65  89 123 160 205 254 298 361
#
# _framework density 19.031665
#
# number of rings (size 3 to 8) (size 9 to 14) (size 15 to 20)
#    0.000    1.538    3.846    2.308    4.308    0.000 
#    1.385    0.000    0.000    1.846    0.000    0.000 
#    0.000    0.000    0.000    0.000    0.000    0.000 
#
# Total GULP energy -145065.015316 kJ/mol
# GULP energy per Si atom -5579.423666 kJ/mol
# Density = 1.898835 g / cm^3
# Si number density = 19.031665 Si / 1000 Ang^3
#
#
#
# Elastic Constant Matrix: (Units=GPa)
#
#
# Indices 1 2 3 4 5 6 
#
# 1 63.2621 25.4790 33.0289 0.0000 19.1373 0.0000
# 2 25.4790 80.5130 36.5118 0.0000 3.3554 0.0000
# 3 33.0289 36.5118 117.9487 0.0000 13.1845 0.0000
# 4 0.0000 0.0000 0.0000 24.6425 0.0000 5.8435
# 5 19.1373 3.3554 13.1845 0.0000 35.8824 0.0000
# 6 0.0000 0.0000 0.0000 5.8435 0.0000 17.2960
#
#
#
# Elastic Compliance Matrix: (Units=1/GPa)
#
#
# Indices 1 2 3 4 5 6 
#
# 1 0.022951 -0.005168 -0.003663 0.000000 -0.010411 0.000000
# 2 -0.005168 0.015615 -0.003683 0.000000 0.002649 0.000000
# 3 -0.003663 -0.003683 0.010832 0.000000 -0.001682 0.000000
# 4 0.000000 0.000000 0.000000 0.044115 0.000000 -0.014904
# 5 -0.010411 0.002649 -0.001682 0.000000 0.033792 0.000000
# 6 0.000000 0.000000 0.000000 -0.014904 0.000000 0.062852
#
#
# Mechanical properties :
#
#
# Convention : Reuss Voigt Hill
#
# Bulk Modulus (GPa) = 41.03351 50.19591 45.61471
# Shear Modulus (GPa) = 22.39059 26.67780 24.53420
#
# Velocity S-wave (km/s) = 3.43372 3.74807 3.59433
# Velocity P-wave (km/s) = 6.10967 6.72033 6.42226
#
# Compressibility (1/GPa) = 0.02437033
#
# Stress axis : x y z
#
# Youngs Moduli (GPa) = 43.57187 64.03904 92.31757
#
# Poissons Ratio (x) = 0.33094 0.33819
# Poissons Ratio (y) = 0.22517 0.34000
# Poissons Ratio (z) = 0.15962 0.23585
#
# Static dielectric constant tensor:
#      x y z
#    x 1.678050 0.000000 0.023550 
#    y 0.000000 1.633830 0.000000 
#    z 0.023550 0.000000 1.697970 
# 
# From -- ./inp_files/111508.got.cif
#   From: 2010.05.17/outbox.cif.g08.bks.cpg/sg15_56_cif.got.tgz:111508.got - 2010.06.03 18:47:42.
