data_PCOD9255292
_publ_section_title
;
Structure prediction by ZEFSAII (Michael W. Deem and Ramdas Pophale) SiO2 
 PCOD9255292
Probable space group: C 2/C
;
_chemical_formula_sum "Si O2"
_cell_formula_units_Z 60
_cell_length_a 18.972889
_cell_length_b 24.842395
_cell_length_c 8.488147
_cell_angle_alpha 90.000000
_cell_angle_beta 116.311173
_cell_angle_gamma 90.000000
_cell_volume 3586.259194
_symmetry_space_group_name_H-M "C 2/C"
_symmetry_group_IT_number 15
_symmetry_cell_setting 'monoclinic'
loop_
_space_group_symop_operation_xyz
x,y,z
-x,y,1/2-z
-x,-y,-z
x,-y,1/2+z
1/2+x,1/2+y,z
1/2-x,1/2+y,1/2-z
1/2-x,1/2-y,-z
1/2+x,1/2-y,1/2+z
loop_
_atom_site_type_symbol
_atom_site_label
_atom_site_fract_x
_atom_site_fract_y
_atom_site_fract_z
Si Si1 0.500000 0.002416 0.250000
Si Si2 0.618030 0.685230 0.978237
Si Si3 0.305035 0.738994 0.904806
Si Si4 0.957936 0.207516 0.931147
Si Si5 0.416140 0.926886 0.928793
Si Si6 0.712649 0.148120 0.292778
Si Si7 0.172373 0.691995 0.584173
Si Si8 0.013484 0.319275 0.080185
O O1 0.561573 0.964278 0.402186
O O2 0.550678 0.039700 0.185071
O O3 0.543180 0.679095 0.021175
O O4 0.584065 0.684260 0.766734
O O5 0.692793 0.648519 0.093650
O O6 0.651517 0.746011 0.024261
O O7 0.391918 0.712978 0.002287
O O8 0.310049 0.797601 0.826667
O O9 0.256275 0.697616 0.749002
O O10 0.250000 0.750000 0.000000
O O11 0.984019 0.270224 0.941685
O O12 0.327994 0.904264 0.821813
O O13 0.467044 0.872775 0.995173
O O14 0.676928 0.157507 0.431286
O O15 0.105258 0.672488 0.635823
O O16 0.000000 0.305459 0.250000
#
# Coordination Sequence:
#
# PCOD9255292 Si02
#       8
#     4   8   8   8   8   8   8   8
#     4  10  24  38  54  80  92 134 162 234 300 330
#     4   9  17  29  47  69  96 142 181 218 233 283
#     4  11  19  28  44  73 109 147 179 216 245 277
#     4  10  17  30  47  70 109 142 181 205 242 283
#     4  11  21  38  56  71 106 127 175 223 277 338
#     4  11  19  34  50  72  96 142 183 214 254 314
#     4  10  18  28  45  67 104 137 188 211 233 295
#     4  11  20  30  47  74  99 145 181 211 255 311
#
# _framework density 16.730526000000001
#
# number of rings (size 3 to 8) (size 9 to 14) (size 15 to 20)
#    0.000    1.600    4.667    2.400    0.000    1.067 
#    0.000    0.000    0.000    0.000    0.000    0.000 
#    0.000    4.267    0.000    0.133    0.000    0.000 
#
# Total GULP energy -167119.096324 kJ/mol
# GULP energy per Si atom -5570.636544 kJ/mol
# Density = 1.669245 g / cm^3
# Si number density = 16.730526 Si / 1000 Ang^3
#
#
#
# Elastic Constant Matrix: (Units=GPa)
#
#
# Indices 1 2 3 4 5 6 
#
# 1 137.2709 12.5417 38.6922 0.0000 12.2209 0.0000
# 2 12.5417 35.4433 32.8609 0.0000 13.0786 0.0000
# 3 38.6922 32.8609 67.4303 0.0000 4.1605 0.0000
# 4 0.0000 0.0000 0.0000 22.1378 0.0000 15.9141
# 5 12.2209 13.0786 4.1605 0.0000 33.4891 0.0000
# 6 0.0000 0.0000 0.0000 15.9141 0.0000 19.1082
#
#
#
# Elastic Compliance Matrix: (Units=1/GPa)
#
#
# Indices 1 2 3 4 5 6 
#
# 1 0.009405 0.005722 -0.007896 0.000000 -0.004686 0.000000
# 2 0.005722 0.066956 -0.034434 0.000000 -0.023958 0.000000
# 3 -0.007896 -0.034434 0.035406 0.000000 0.011931 0.000000
# 4 0.000000 0.000000 0.000000 0.112565 0.000000 -0.093749
# 5 -0.004686 -0.023958 0.011931 0.000000 0.039445 0.000000
# 6 0.000000 0.000000 0.000000 -0.093749 0.000000 0.130411
#
#
# Mechanical properties :
#
#
# Convention : Reuss Voigt Hill
#
# Bulk Modulus (GPa) = 25.94112 45.37044 35.65578
# Shear Modulus (GPa) = 10.41116 25.35034 17.88075
#
# Velocity S-wave (km/s) = 2.49727 3.89680 3.27272
# Velocity P-wave (km/s) = 4.88406 6.88651 5.96984
#
# Compressibility (1/GPa) = 0.03854883
#
# Stress axis : x y z
#
# Youngs Moduli (GPa) = 106.32849 14.93526 28.24409
#
# Poissons Ratio (x) = -0.08545 0.22301
# Poissons Ratio (y) = -0.60836 0.97257
# Poissons Ratio (z) = 0.83954 0.51429
#
# Static dielectric constant tensor:
#      x y z
#    x 1.661300 0.000000 -0.002770 
#    y 0.000000 1.511540 0.000000 
#    z -0.002770 0.000000 1.642090 
# 
# From -- ./inp_files/51914.got.cif
#   From: 2010.05.17/outbox.cif.g08.bks.cpg/sg15_26_cif.got.tgz:51914.got - 2010.06.03 18:47:42.
