data_PCOD9255448
_publ_section_title
;
Structure prediction by ZEFSAII (Michael W. Deem and Ramdas Pophale) SiO2 
 PCOD9255448
Probable space group: C 2/C
;
_chemical_formula_sum "Si O2"
_cell_formula_units_Z 48
_cell_length_a 11.915837
_cell_length_b 25.881013
_cell_length_c 8.735987
_cell_angle_alpha 90.000000
_cell_angle_beta 130.312134
_cell_angle_gamma 90.000000
_cell_volume 2054.355030
_symmetry_space_group_name_H-M "C 2/C"
_symmetry_group_IT_number 15
_symmetry_cell_setting 'monoclinic'
loop_
_space_group_symop_operation_xyz
x,y,z
-x,y,1/2-z
-x,-y,-z
x,-y,1/2+z
1/2+x,1/2+y,z
1/2-x,1/2+y,1/2-z
1/2-x,1/2-y,-z
1/2+x,1/2-y,1/2+z
loop_
_atom_site_type_symbol
_atom_site_label
_atom_site_fract_x
_atom_site_fract_y
_atom_site_fract_z
Si Si1 0.045183 0.366093 0.444656
Si Si2 0.772106 0.694139 0.590017
Si Si3 0.749755 0.004465 0.336424
Si Si4 0.029246 0.066469 0.121539
Si Si5 0.099421 0.147700 0.708628
Si Si6 0.133001 0.575387 0.497517
O O1 0.202522 0.343381 0.535621
O O2 0.000000 0.398025 0.250000
O O3 0.923796 0.319285 0.318609
O O4 0.013363 0.393950 0.576036
O O5 0.750000 0.750000 0.500000
O O6 0.648689 0.680678 0.605513
O O7 0.665476 0.959354 0.176013
O O8 0.904060 0.978564 0.527702
O O9 0.809358 0.044167 0.260831
O O10 0.660632 0.034850 0.386074
O O11 0.000000 0.097638 0.250000
O O12 0.991970 0.099677 0.940705
O O13 0.243554 0.119874 0.905064
O O14 0.000000 0.173923 0.750000
#
# Coordination Sequence:
#
# PCOD9255448 Si02
#       6
#     8   8   8   8   8   8
#     4   7  17  32  54  73 101 131 177 206 263 323
#     4   8  16  34  57  76  94 126 171 216 264 329
#     4  10  18  25  46  69 108 141 185 208 242 290
#     4  10  18  27  39  74 109 138 173 220 251 285
#     4  10  18  29  53  76 104 132 170 217 270 305
#     4  10  17  31  47  74 105 148 175 214 244 298
#
# _framework density 23.364999000000001
#
# number of rings (size 3 to 8) (size 9 to 14) (size 15 to 20)
#    1.000    1.667    3.333    0.000    0.000    0.000 
#    3.000    0.833    0.000   11.000    0.000    0.000 
#    0.000    0.000    0.000    0.000    0.000    0.000 
#
# Total GULP energy -133625.721968 kJ/mol
# GULP energy per Si atom -5567.738415 kJ/mol
# Density = 2.331182 g / cm^3
# Si number density = 23.364999 Si / 1000 Ang^3
#
#
#
# Elastic Constant Matrix: (Units=GPa)
#
#
# Indices 1 2 3 4 5 6 
#
# 1 206.5355 72.5000 34.1692 0.0000 -51.4250 0.0000
# 2 72.5000 72.5019 18.4995 0.0000 -11.2779 0.0000
# 3 34.1692 18.4995 31.4839 0.0000 -9.6981 0.0000
# 4 0.0000 0.0000 0.0000 27.3404 0.0000 -9.2995
# 5 -51.4250 -11.2779 -9.6981 0.0000 35.5746 0.0000
# 6 0.0000 0.0000 0.0000 -9.2995 0.0000 25.4210
#
#
#
# Elastic Compliance Matrix: (Units=1/GPa)
#
#
# Indices 1 2 3 4 5 6 
#
# 1 0.011888 -0.008899 -0.003546 0.000000 0.013397 0.000000
# 2 -0.008899 0.023142 -0.006160 0.000000 -0.007206 0.000000
# 3 -0.003546 -0.006160 0.040446 0.000000 0.003947 0.000000
# 4 0.000000 0.000000 0.000000 0.041774 0.000000 0.015282
# 5 0.013397 -0.007206 0.003947 0.000000 0.046267 0.000000
# 6 0.000000 0.000000 0.000000 0.015282 0.000000 0.044928
#
#
# Mechanical properties :
#
#
# Convention : Reuss Voigt Hill
#
# Bulk Modulus (GPa) = 26.13282 62.31764 44.22523
# Shear Modulus (GPa) = 19.34906 30.02403 24.68655
#
# Velocity S-wave (km/s) = 2.88083 3.58858 3.25400
# Velocity P-wave (km/s) = 4.71958 6.62569 5.75214
#
# Compressibility (1/GPa) = 0.03826606
#
# Stress axis : x y z
#
# Youngs Moduli (GPa) = 84.11956 43.21138 24.72406
#
# Poissons Ratio (x) = 0.38453 0.08768
# Poissons Ratio (y) = 0.74856 0.15230
# Poissons Ratio (z) = 0.29832 0.26618
#
# Static dielectric constant tensor:
#      x y z
#    x 1.927960 0.000000 0.017650 
#    y 0.000000 1.871750 0.000000 
#    z 0.017650 0.000000 2.046750 
# 
# From -- ./inp_files/32622.got.cif
#   From: 2010.05.17/outbox.cif.g08.bks.cpg/sg15_17_cif.got.tgz:32622.got - 2010.06.03 18:47:42.
