data_PCOD9255278
_publ_section_title
;
Structure prediction by ZEFSAII (Michael W. Deem and Ramdas Pophale) SiO2 
 PCOD9255278
Probable space group: C 2/C
;
_chemical_formula_sum "Si O2"
_cell_formula_units_Z 64
_cell_length_a 22.702175
_cell_length_b 19.238159
_cell_length_c 8.734137
_cell_angle_alpha 90.000000
_cell_angle_beta 78.335986
_cell_angle_gamma 90.000000
_cell_volume 3735.845410
_symmetry_space_group_name_H-M "C 2/C"
_symmetry_group_IT_number 15
_symmetry_cell_setting 'monoclinic'
loop_
_space_group_symop_operation_xyz
x,y,z
-x,y,1/2-z
-x,-y,-z
x,-y,1/2+z
1/2+x,1/2+y,z
1/2-x,1/2+y,1/2-z
1/2-x,1/2-y,-z
1/2+x,1/2-y,1/2+z
loop_
_atom_site_type_symbol
_atom_site_label
_atom_site_fract_x
_atom_site_fract_y
_atom_site_fract_z
Si Si1 0.725586 0.579019 0.970753
Si Si2 0.888941 0.185234 0.454891
Si Si3 0.299929 0.199488 0.050374
Si Si4 0.591323 0.369022 0.226790
Si Si5 0.746152 0.317244 0.896863
Si Si6 0.955476 0.981468 0.658281
Si Si7 0.891240 0.149808 0.116301
Si Si8 0.722304 0.568781 0.624552
O O1 0.665924 0.627795 0.013994
O O2 0.781199 0.623068 0.006897
O O3 0.712116 0.507363 0.063170
O O4 0.742544 0.562950 0.787489
O O5 0.861687 0.262528 0.479950
O O6 0.920837 0.168115 0.602559
O O7 0.914410 0.178952 0.267890
O O8 0.290619 0.198010 0.235650
O O9 0.250000 0.250000 0.000000
O O10 0.565152 0.446664 0.256199
O O11 0.662248 0.384286 0.171767
O O12 0.576954 0.335652 0.066634
O O13 0.678879 0.328826 0.862097
O O14 0.750000 0.250000 0.000000
O O15 0.761455 0.385510 0.987434
O O16 0.901091 0.933411 0.631974
O O17 0.000000 0.941899 0.750000
O O18 0.000000 0.000000 0.500000
#
# Coordination Sequence:
#
# PCOD9255278 Si02
#       8
#     8   8   8   8   8   8   8   8
#     4  10  18  29  40  63  90 117 154 198 254 292
#     4  10  20  32  49  68  90 124 164 211 265 308
#     4  10  17  30  44  62  92 116 151 209 253 307
#     4  10  22  33  48  69  88 124 171 218 262 305
#     4  11  20  32  48  70  92 123 166 213 264 314
#     4  12  23  37  51  70 100 133 180 232 275 305
#     4  11  21  34  52  65  93 126 162 216 268 307
#     4  10  21  28  47  66  90 122 163 210 251 310
#
# _framework density 17.131329999999998
#
# number of rings (size 3 to 8) (size 9 to 14) (size 15 to 20)
#    0.000    1.500    3.750    5.250    8.750    0.000 
#    0.000    0.000    0.000    0.000    0.000    0.000 
#    0.000    0.000    0.000    0.000    0.000    6.250 
#
# Total GULP energy -178155.716349 kJ/mol
# GULP energy per Si atom -5567.366136 kJ/mol
# Density = 1.709234 g / cm^3
# Si number density = 17.131330 Si / 1000 Ang^3
#
#
#
# Elastic Constant Matrix: (Units=GPa)
#
#
# Indices 1 2 3 4 5 6 
#
# 1 23.9996 7.4678 8.3344 0.0000 5.4255 0.0000
# 2 7.4678 39.3961 20.3965 0.0000 4.0788 0.0000
# 3 8.3344 20.3965 158.0472 0.0000 6.0962 0.0000
# 4 0.0000 0.0000 0.0000 29.9004 0.0000 -2.7263
# 5 5.4255 4.0788 6.0962 0.0000 16.3623 0.0000
# 6 0.0000 0.0000 0.0000 -2.7263 0.0000 16.6666
#
#
#
# Elastic Compliance Matrix: (Units=1/GPa)
#
#
# Indices 1 2 3 4 5 6 
#
# 1 0.047278 -0.007009 -0.001067 0.000000 -0.013532 0.000000
# 2 -0.007009 0.028746 -0.003199 0.000000 -0.003650 0.000000
# 3 -0.001067 -0.003199 0.006850 0.000000 -0.001401 0.000000
# 4 0.000000 0.000000 0.000000 0.033951 0.000000 0.005554
# 5 -0.013532 -0.003650 -0.001401 0.000000 0.067035 0.000000
# 6 0.000000 0.000000 0.000000 0.005554 0.000000 0.060909
#
#
# Mechanical properties :
#
#
# Convention : Reuss Voigt Hill
#
# Bulk Modulus (GPa) = 16.57690 32.64893 24.61291
# Shear Modulus (GPa) = 17.39576 24.93547 21.16561
#
# Velocity S-wave (km/s) = 3.19005 3.81930 3.51877
# Velocity P-wave (km/s) = 4.82347 6.20877 5.55944
#
# Compressibility (1/GPa) = 0.06032493
#
# Stress axis : x y z
#
# Youngs Moduli (GPa) = 21.15161 34.78738 145.97666
#
# Poissons Ratio (x) = 0.24381 0.15571
# Poissons Ratio (y) = 0.14824 0.46704
# Poissons Ratio (z) = 0.02256 0.11130
#
# Static dielectric constant tensor:
#      x y z
#    x 1.617330 0.000000 0.005010 
#    y 0.000000 1.553620 0.000000 
#    z 0.005010 0.000000 1.680130 
# 
# From -- ./inp_files/62487.got.cif
#   From: 2010.05.17/outbox.cif.g08.bks.cpg/sg15_32_cif.got.tgz:62487.got - 2010.06.03 18:47:42.
