data_PCOD9255039
_publ_section_title
;
Structure prediction by ZEFSAII (Michael W. Deem and Ramdas Pophale) SiO2 
 PCOD9255039
Probable space group: C 2/C
;
_chemical_formula_sum "Si O2"
_cell_formula_units_Z 40
_cell_length_a 6.578949
_cell_length_b 26.941939
_cell_length_c 10.084477
_cell_angle_alpha 90.000000
_cell_angle_beta 50.281305
_cell_angle_gamma 90.000000
_cell_volume 1374.905957
_symmetry_space_group_name_H-M "C 2/C"
_symmetry_group_IT_number 15
_symmetry_cell_setting 'monoclinic'
loop_
_space_group_symop_operation_xyz
x,y,z
-x,y,1/2-z
-x,-y,-z
x,-y,1/2+z
1/2+x,1/2+y,z
1/2-x,1/2+y,1/2-z
1/2-x,1/2-y,-z
1/2+x,1/2-y,1/2+z
loop_
_atom_site_type_symbol
_atom_site_label
_atom_site_fract_x
_atom_site_fract_y
_atom_site_fract_z
Si Si1 0.349265 0.328787 0.601060
Si Si2 0.147312 0.929076 0.046806
Si Si3 0.579509 0.863654 0.068003
Si Si4 0.557457 0.769353 0.959243
Si Si5 0.779276 0.037845 0.457103
O O1 0.250246 0.377688 0.564128
O O2 0.613186 0.348266 0.563253
O O3 0.427551 0.282654 0.474798
O O4 0.184094 0.298808 0.782028
O O5 0.000000 0.919380 0.250000
O O6 0.308263 0.981416 0.981980
O O7 0.914795 0.945096 0.038427
O O8 0.500000 0.870724 0.250000
O O9 0.418374 0.815923 0.088245
O O10 0.575503 0.917750 0.005542
O O11 0.750000 0.750000 0.000000
O O12 0.000000 0.036283 0.250000
#
# Coordination Sequence:
#
# PCOD9255039 Si02
#       5
#     8   8   8   8   8
#     4  10  19  31  49  74 105 139 174 215 267 320
#     4   9  18  33  54  76 105 144 181 213 260 326
#     4  10  17  27  48  80 110 131 165 223 276 307
#     4  10  17  29  49  76 105 131 170 220 265 305
#     4   9  17  32  56  81 101 135 185 226 259 306
#
# _framework density 29.092897000000001
#
# number of rings (size 3 to 8) (size 9 to 14) (size 15 to 20)
#    0.000    2.400    0.000    7.200    0.000    0.000 
#    0.000    1.000    0.000   48.000    0.000    0.000 
#    0.000    0.000    0.000    0.000    0.000    0.000 
#
# Total GULP energy -111809.776353 kJ/mol
# GULP energy per Si atom -5590.488818 kJ/mol
# Density = 2.902668 g / cm^3
# Si number density = 29.092897 Si / 1000 Ang^3
#
#
#
# Elastic Constant Matrix: (Units=GPa)
#
#
# Indices 1 2 3 4 5 6 
#
# 1 63.1458 71.8295 16.8876 0.0000 36.8386 0.0000
# 2 71.8295 400.7074 98.3971 0.0000 18.3318 0.0000
# 3 16.8876 98.3971 194.5747 0.0000 16.7083 0.0000
# 4 0.0000 0.0000 0.0000 48.7404 0.0000 11.5615
# 5 36.8386 18.3318 16.7083 0.0000 41.6431 0.0000
# 6 0.0000 0.0000 0.0000 11.5615 0.0000 97.5106
#
#
#
# Elastic Compliance Matrix: (Units=1/GPa)
#
#
# Indices 1 2 3 4 5 6 
#
# 1 0.045491 -0.007126 0.002943 0.000000 -0.038286 0.000000
# 2 -0.007126 0.003985 -0.001851 0.000000 0.005292 0.000000
# 3 0.002943 -0.001851 0.006187 0.000000 -0.004271 0.000000
# 4 0.000000 0.000000 0.000000 0.021111 0.000000 -0.002503
# 5 -0.038286 0.005292 -0.004271 0.000000 0.057267 0.000000
# 6 0.000000 0.000000 0.000000 -0.002503 0.000000 0.010552
#
#
# Mechanical properties :
#
#
# Convention : Reuss Voigt Hill
#
# Bulk Modulus (GPa) = 22.93853 114.73961 68.83907
# Shear Modulus (GPa) = 29.20692 68.99973 49.10332
#
# Velocity S-wave (km/s) = 3.17191 4.87530 4.11276
# Velocity P-wave (km/s) = 4.61696 8.43896 6.80193
#
# Compressibility (1/GPa) = 0.04359478
#
# Stress axis : x y z
#
# Youngs Moduli (GPa) = 21.98253 250.91365 161.62939
#
# Poissons Ratio (x) = 1.78791 -0.47565
# Poissons Ratio (y) = 0.15664 0.29924
# Poissons Ratio (z) = -0.06469 0.46455
#
# Static dielectric constant tensor:
#      x y z
#    x 3.758350 0.000000 0.642120 
#    y 0.000000 2.246570 0.000000 
#    z 0.642120 0.000000 2.653610 
# 
# From -- ./inp_files/33172.got.cif
#   From: 2010.05.17/outbox.cif.g08.bks.cpg/sg15_17_cif.got.tgz:33172.got - 2010.06.03 18:47:42.
