data_PCOD9255616
_publ_section_title
;
Structure prediction by ZEFSAII (Michael W. Deem and Ramdas Pophale) SiO2 
 PCOD9255616
Probable space group: C 2/C
;
_chemical_formula_sum "Si O2"
_cell_formula_units_Z 60
_cell_length_a 22.445023
_cell_length_b 31.125159
_cell_length_c 9.299323
_cell_angle_alpha 90.000000
_cell_angle_beta 147.003470
_cell_angle_gamma 90.000000
_cell_volume 3537.946214
_symmetry_space_group_name_H-M "C 2/C"
_symmetry_group_IT_number 15
_symmetry_cell_setting 'monoclinic'
loop_
_space_group_symop_operation_xyz
x,y,z
-x,y,1/2-z
-x,-y,-z
x,-y,1/2+z
1/2+x,1/2+y,z
1/2-x,1/2+y,1/2-z
1/2-x,1/2-y,-z
1/2+x,1/2-y,1/2+z
loop_
_atom_site_type_symbol
_atom_site_label
_atom_site_fract_x
_atom_site_fract_y
_atom_site_fract_z
Si Si1 0.865545 0.051268 0.491464
Si Si2 0.000000 0.097920 0.250000
Si Si3 0.369494 0.351993 0.971175
Si Si4 0.848016 0.832002 0.597264
Si Si5 0.292735 0.730367 0.436800
Si Si6 0.410582 0.763894 0.183370
Si Si7 0.608231 0.476708 0.156183
Si Si8 0.894185 0.303677 0.467349
O O1 0.826559 0.099480 0.389747
O O2 0.829830 0.037991 0.577664
O O3 0.000000 0.052784 0.750000
O O4 0.833622 0.013039 0.320066
O O5 0.917676 0.128617 0.172561
O O6 0.068842 0.065043 0.488955
O O7 0.339016 0.336281 0.750475
O O8 0.332398 0.318739 0.019566
O O9 0.500000 0.353464 0.250000
O O10 0.914530 0.787605 0.710386
O O11 0.725621 0.826736 0.281908
O O12 0.250000 0.750000 0.500000
O O13 0.380497 0.762956 0.547241
O O14 0.201298 0.729490 0.128334
O O15 0.500000 0.778822 0.250000
O O16 0.413673 0.786876 0.343811
O O17 0.500000 0.500000 0.000000
O O18 0.000000 0.327471 0.750000
#
# Coordination Sequence:
#
# PCOD9255616 Si02
#       8
#     8   4   8   8   8   8   8   8
#     4   9  18  29  47  68 104 142 172 208 264 335
#     4  12  20  30  60  80 118 146 184 226 282 356
#     4  11  21  33  52  76 112 144 185 227 276 329
#     4  11  22  35  52  83 108 146 191 238 283 334
#     4  11  22  34  54  78 107 146 192 232 287 342
#     4  11  21  37  53  76 106 142 196 241 286 337
#     4  10  17  32  46  75 108 150 171 205 273 342
#     4  11  22  40  55  73 109 150 195 248 282 324
#
# _framework density 16.958991000000001
#
# number of rings (size 3 to 8) (size 9 to 14) (size 15 to 20)
#    0.000    1.333    5.333    4.400    1.867    2.133 
#    0.000    0.000    0.000    0.000    0.000    0.000 
#    0.000    5.333    0.000    0.000    0.000    0.000 
#
# Total GULP energy -167109.976181 kJ/mol
# GULP energy per Si atom -5570.332539 kJ/mol
# Density = 1.692039 g / cm^3
# Si number density = 16.958991 Si / 1000 Ang^3
#
#
#
# Elastic Constant Matrix: (Units=GPa)
#
#
# Indices 1 2 3 4 5 6 
#
# 1 107.2581 53.7844 21.9264 0.0000 -22.9859 0.0000
# 2 53.7844 110.2382 15.2409 0.0000 -10.4544 0.0000
# 3 21.9264 15.2409 59.7766 0.0000 -11.8056 0.0000
# 4 0.0000 0.0000 0.0000 9.9243 0.0000 -1.4430
# 5 -22.9859 -10.4544 -11.8056 0.0000 25.3569 0.0000
# 6 0.0000 0.0000 0.0000 -1.4430 0.0000 21.3379
#
#
#
# Elastic Compliance Matrix: (Units=1/GPa)
#
#
# Indices 1 2 3 4 5 6 
#
# 1 0.014926 -0.006054 -0.001930 0.000000 0.010136 0.000000
# 2 -0.006054 0.012076 -0.001056 0.000000 -0.001001 0.000000
# 3 -0.001930 -0.001056 0.019024 0.000000 0.006673 0.000000
# 4 0.000000 0.000000 0.000000 0.101764 0.000000 0.006882
# 5 0.010136 -0.001001 0.006673 0.000000 0.051319 0.000000
# 6 0.000000 0.000000 0.000000 0.006882 0.000000 0.047330
#
#
# Mechanical properties :
#
#
# Convention : Reuss Voigt Hill
#
# Bulk Modulus (GPa) = 35.78283 51.01959 43.40121
# Shear Modulus (GPa) = 18.25929 23.74522 21.00226
#
# Velocity S-wave (km/s) = 3.28483 3.74592 3.52293
# Velocity P-wave (km/s) = 5.96089 6.98990 6.49580
#
# Compressibility (1/GPa) = 0.02794637
#
# Stress axis : x y z
#
# Youngs Moduli (GPa) = 66.99838 82.80801 52.56596
#
# Poissons Ratio (x) = 0.50133 0.10143
# Poissons Ratio (y) = 0.40562 0.05551
# Poissons Ratio (z) = 0.12927 0.08744
#
# Static dielectric constant tensor:
#      x y z
#    x 1.755030 0.000000 0.198100 
#    y 0.000000 1.651130 0.000000 
#    z 0.198100 0.000000 1.860650 
# 
# From -- ./inp_files/59275.got.cif
#   From: 2010.05.17/outbox.cif.g08.bks.cpg/sg15_30_cif.got.tgz:59275.got - 2010.06.03 18:47:42.
