data_PCOD9255463
_publ_section_title
;
Structure prediction by ZEFSAII (Michael W. Deem and Ramdas Pophale) SiO2 
 PCOD9255463
Probable space group: C 2/C
;
_chemical_formula_sum "Si O2"
_cell_formula_units_Z 64
_cell_length_a 20.812850
_cell_length_b 7.811536
_cell_length_c 14.533810
_cell_angle_alpha 90.000000
_cell_angle_beta 103.621111
_cell_angle_gamma 90.000000
_cell_volume 2296.453029
_symmetry_space_group_name_H-M "C 2/C"
_symmetry_group_IT_number 15
_symmetry_cell_setting 'monoclinic'
loop_
_space_group_symop_operation_xyz
x,y,z
-x,y,1/2-z
-x,-y,-z
x,-y,1/2+z
1/2+x,1/2+y,z
1/2-x,1/2+y,1/2-z
1/2-x,1/2-y,-z
1/2+x,1/2-y,1/2+z
loop_
_atom_site_type_symbol
_atom_site_label
_atom_site_fract_x
_atom_site_fract_y
_atom_site_fract_z
Si Si1 0.450700 0.297552 0.048099
Si Si2 0.563345 0.371144 0.206734
Si Si3 0.868060 0.339140 0.375410
Si Si4 0.654515 0.837114 0.856816
Si Si5 0.280596 0.505964 0.843110
Si Si6 0.756413 0.022751 0.616412
Si Si7 0.424287 0.762570 0.216593
Si Si8 0.359452 0.359317 0.527810
O O1 0.526742 0.337319 0.097727
O O2 0.409597 0.166870 0.099776
O O3 0.409330 0.474646 0.044464
O O4 0.436526 0.216530 0.944709
O O5 0.500000 0.335455 0.250000
O O6 0.622218 0.244994 0.253157
O O7 0.581926 0.565929 0.243495
O O8 0.820564 0.172505 0.362864
O O9 0.822719 0.470886 0.416765
O O10 0.884246 0.375981 0.275519
O O11 0.709462 0.982605 0.866268
O O12 0.703648 0.685820 0.908535
O O13 0.267435 0.527479 0.730469
O O14 0.326197 0.637010 0.915695
O O15 0.796403 0.879956 0.575950
O O16 0.500000 0.809135 0.250000
O O17 0.402031 0.770340 0.103673
#
# Coordination Sequence:
#
# PCOD9255463 Si02
#       8
#     8   8   8   8   8   8   8   8
#     4   9  16  29  48  76  96 118 162 203 251 290
#     4   9  14  27  46  68  99 120 149 199 243 282
#     4  10  20  30  50  73  94 133 164 198 248 296
#     4   9  16  29  49  71  99 124 152 206 251 286
#     4  10  19  30  51  73  93 130 164 197 254 289
#     4  10  18  33  48  69 105 123 164 209 234 296
#     4  11  18  33  46  69 107 136 153 198 245 298
#     4  10  17  31  49  74  99 125 159 205 247 287
#
# _framework density 27.869064000000002
#
# number of rings (size 3 to 8) (size 9 to 14) (size 15 to 20)
#    0.000    2.250    6.250    0.750    0.000    3.500 
#    2.250    0.625    0.000    3.000    0.000    0.000 
#    0.000    0.000    0.000    0.000    0.000    0.000 
#
# Total GULP energy -178753.501650 kJ/mol
# GULP energy per Si atom -5586.046927 kJ/mol
# Density = 2.780563 g / cm^3
# Si number density = 27.869064 Si / 1000 Ang^3
#
#
#
# Elastic Constant Matrix: (Units=GPa)
#
#
# Indices 1 2 3 4 5 6 
#
# 1 133.8430 30.3120 32.3575 0.0000 16.7769 0.0000
# 2 30.3120 79.7606 2.6761 0.0000 15.5402 0.0000
# 3 32.3575 2.6761 141.3361 0.0000 14.6667 0.0000
# 4 0.0000 0.0000 0.0000 9.1757 0.0000 10.1742
# 5 16.7769 15.5402 14.6667 0.0000 47.9343 0.0000
# 6 0.0000 0.0000 0.0000 10.1742 0.0000 23.2759
#
#
#
# Elastic Compliance Matrix: (Units=1/GPa)
#
#
# Indices 1 2 3 4 5 6 
#
# 1 0.008772 -0.002970 -0.001790 0.000000 -0.001560 0.000000
# 2 -0.002970 0.014394 0.000809 0.000000 -0.003875 0.000000
# 3 -0.001790 0.000809 0.007676 0.000000 -0.001984 0.000000
# 4 0.000000 0.000000 0.000000 0.211485 0.000000 -0.092443
# 5 -0.001560 -0.003875 -0.001984 0.000000 0.023271 0.000000
# 6 0.000000 0.000000 0.000000 -0.092443 0.000000 0.083370
#
#
# Mechanical properties :
#
#
# Convention : Reuss Voigt Hill
#
# Bulk Modulus (GPa) = 43.59046 53.95896 48.77471
# Shear Modulus (GPa) = 13.71677 35.38345 24.55011
#
# Velocity S-wave (km/s) = 2.22093 3.56706 2.97123
# Velocity P-wave (km/s) = 4.71719 6.03066 5.41390
#
# Compressibility (1/GPa) = 0.02294080
#
# Stress axis : x y z
#
# Youngs Moduli (GPa) = 113.99456 69.47365 130.27957
#
# Poissons Ratio (x) = 0.20633 0.23323
# Poissons Ratio (y) = 0.33855 -0.10546
# Poissons Ratio (z) = 0.20408 -0.05624
#
# Static dielectric constant tensor:
#      x y z
#    x 2.091940 0.000000 0.008350 
#    y 0.000000 2.255670 0.000000 
#    z 0.008350 0.000000 2.340090 
# 
# From -- ./inp_files/167647.got.cif
#   From: 2010.05.17/outbox.cif.g08.bks.cpg/sg15_84_cif.got.tgz:167647.got - 2010.06.03 18:47:42.
