data_PCOD9255116
_publ_section_title
;
Structure prediction by ZEFSAII (Michael W. Deem and Ramdas Pophale) SiO2 
 PCOD9255116
Probable space group: C 2/C
;
_chemical_formula_sum "Si O2"
_cell_formula_units_Z 56
_cell_length_a 21.122511
_cell_length_b 16.774692
_cell_length_c 26.288529
_cell_angle_alpha 90.000000
_cell_angle_beta 23.035514
_cell_angle_gamma 90.000000
_cell_volume 3644.836288
_symmetry_space_group_name_H-M "C 2/C"
_symmetry_group_IT_number 15
_symmetry_cell_setting 'monoclinic'
loop_
_space_group_symop_operation_xyz
x,y,z
-x,y,1/2-z
-x,-y,-z
x,-y,1/2+z
1/2+x,1/2+y,z
1/2-x,1/2+y,1/2-z
1/2-x,1/2-y,-z
1/2+x,1/2-y,1/2+z
loop_
_atom_site_type_symbol
_atom_site_label
_atom_site_fract_x
_atom_site_fract_y
_atom_site_fract_z
Si Si1 0.524676 0.142479 0.596279
Si Si2 0.765634 0.967797 0.204765
Si Si3 0.442599 0.625394 0.064959
Si Si4 0.508467 0.202354 0.490482
Si Si5 0.337121 0.951648 0.105814
Si Si6 0.613446 0.307310 0.786881
Si Si7 0.157879 0.930533 0.663777
O O1 0.400691 0.069415 0.692699
O O2 0.514486 0.170795 0.544552
O O3 0.464304 0.221954 0.668781
O O4 0.704991 0.111899 0.472082
O O5 0.765372 0.952079 0.265905
O O6 0.797214 0.061429 0.172207
O O7 0.907364 0.919501 0.071904
O O8 0.428472 0.710832 0.048145
O O9 0.471482 0.650085 0.102390
O O10 0.401038 0.135347 0.543009
O O11 0.698125 0.206025 0.335594
O O12 0.243799 0.998182 0.130951
O O13 0.500000 0.000000 0.000000
O O14 0.611076 0.365466 0.740956
O O15 0.000000 0.955042 0.750000
#
# Coordination Sequence:
#
# PCOD9255116 Si02
#       7
#     8   8   8   8   8   8   8
#     4   9  18  30  48  71  99 131 166 201 245 300
#     4  10  17  28  48  77 104 123 163 205 253 300
#     4  10  18  26  46  80 104 128 155 210 261 299
#     4   9  17  27  48  74  99 126 162 208 252 290
#     4  11  17  33  51  73  97 131 166 216 249 290
#     4  10  17  32  48  69 107 130 162 207 247 297
#     4  11  22  34  51  72  99 140 177 205 246 299
#
# _framework density 15.364202000000001
#
# number of rings (size 3 to 8) (size 9 to 14) (size 15 to 20)
#    0.000    2.000    7.143    0.000    0.000    0.571 
#    0.000    0.000    0.000    0.000    0.000    4.000 
#    0.000    0.000    0.000    0.000    0.000    0.000 
#
# Total GULP energy -155888.989105 kJ/mol
# GULP energy per Si atom -5567.463897 kJ/mol
# Density = 1.532923 g / cm^3
# Si number density = 15.364202 Si / 1000 Ang^3
#
#
#
# Elastic Constant Matrix: (Units=GPa)
#
#
# Indices 1 2 3 4 5 6 
#
# 1 36.8927 26.3432 27.4677 -0.0006 -14.3892 -0.0001
# 2 26.3432 111.2998 40.3609 0.0072 -16.0430 0.0030
# 3 27.4677 40.3609 82.6389 -0.0021 -3.6251 0.0033
# 4 -0.0006 0.0072 -0.0021 26.9130 0.0015 3.7878
# 5 -14.3892 -16.0430 -3.6251 0.0015 24.3264 -0.0003
# 6 -0.0001 0.0030 0.0033 3.7878 -0.0003 12.5002
#
#
#
# Elastic Compliance Matrix: (Units=1/GPa)
#
#
# Indices 1 2 3 4 5 6 
#
# 1 0.049377 -0.003053 -0.013818 -0.000001 0.025134 0.000006
# 2 -0.003053 0.012214 -0.004707 -0.000004 0.005548 0.000000
# 3 -0.013818 -0.004707 0.018620 0.000004 -0.008503 -0.000005
# 4 -0.000001 -0.000004 0.000004 0.038812 -0.000005 -0.011761
# 5 0.025134 0.005548 -0.008503 -0.000005 0.058366 0.000004
# 6 0.000006 0.000000 -0.000005 -0.011761 0.000004 0.083562
#
#
# Mechanical properties :
#
#
# Convention : Reuss Voigt Hill
#
# Bulk Modulus (GPa) = 26.98800 46.57501 36.78150
# Shear Modulus (GPa) = 15.79982 21.85857 18.82920
#
# Velocity S-wave (km/s) = 3.21027 3.77595 3.50455
# Velocity P-wave (km/s) = 5.59864 7.02782 6.35354
#
# Compressibility (1/GPa) = 0.03705350
#
# Stress axis : x y z
#
# Youngs Moduli (GPa) = 20.25242 81.87343 53.70620
#
# Poissons Ratio (x) = 0.24996 0.74213
# Poissons Ratio (y) = 0.06183 0.25281
# Poissons Ratio (z) = 0.27986 0.38539
#
# Static dielectric constant tensor:
#      x y z
#    x 1.480850 0.000000 0.029330 
#    y 0.000000 1.553700 0.000000 
#    z 0.029330 0.000000 1.559290 
# 
# From -- ./inp_files/118936.got.cif
#   From: 2010.05.17/outbox.cif.g08.bks.cpg/sg15_60_cif.got.tgz:118936.got - 2010.06.03 18:47:42.
