data_PCOD9255848
_publ_section_title
;
Structure prediction by ZEFSAII (Michael W. Deem and Ramdas Pophale) SiO2 
 PCOD9255848
Probable space group: C 2/C
;
_chemical_formula_sum "Si O2"
_cell_formula_units_Z 52
_cell_length_a 13.177134
_cell_length_b 26.157409
_cell_length_c 8.793569
_cell_angle_alpha 90.000000
_cell_angle_beta 93.736456
_cell_angle_gamma 90.000000
_cell_volume 3024.521827
_symmetry_space_group_name_H-M "C 2/C"
_symmetry_group_IT_number 15
_symmetry_cell_setting 'monoclinic'
loop_
_space_group_symop_operation_xyz
x,y,z
-x,y,1/2-z
-x,-y,-z
x,-y,1/2+z
1/2+x,1/2+y,z
1/2-x,1/2+y,1/2-z
1/2-x,1/2-y,-z
1/2+x,1/2-y,1/2+z
loop_
_atom_site_type_symbol
_atom_site_label
_atom_site_fract_x
_atom_site_fract_y
_atom_site_fract_z
Si Si1 0.000000 0.796743 0.750000
Si Si2 0.310131 0.330407 0.556101
Si Si3 0.435014 0.228893 0.015330
Si Si4 0.171175 0.426884 0.533867
Si Si5 0.462196 0.882026 0.421251
Si Si6 0.156258 0.750460 0.183672
Si Si7 0.381771 0.021025 0.780960
O O1 0.079282 0.828811 0.856961
O O2 0.062122 0.760517 0.639986
O O3 0.258862 0.385356 0.552282
O O4 0.239275 0.291010 0.642841
O O5 0.315763 0.304720 0.389209
O O6 0.549944 0.233629 0.093640
O O7 0.362282 0.250769 0.138601
O O8 0.414131 0.169455 0.979949
O O9 0.169260 0.470697 0.659639
O O10 0.170699 0.455958 0.372395
O O11 0.063014 0.396996 0.524462
O O12 0.500000 0.872440 0.250000
O O13 0.392142 0.932349 0.402949
O O14 0.500000 0.009449 0.750000
#
# Coordination Sequence:
#
# PCOD9255848 Si02
#       7
#     4   8   8   8   8   8   8
#     4  10  22  34  54  76 110 140 190 228 250 312
#     4  10  20  36  51  72 107 148 183 224 266 303
#     4  10  17  33  51  81 110 140 172 215 267 323
#     4  10  19  34  51  73 107 141 175 218 267 318
#     4   9  16  28  51  78 111 144 159 202 271 334
#     4   9  20  31  52  77 104 144 183 211 260 333
#     4   9  19  31  50  79 108 134 170 218 268 334
#
# _framework density 17.192799999999998
#
# number of rings (size 3 to 8) (size 9 to 14) (size 15 to 20)
#    0.000    2.769    2.308    1.846    0.000    3.077 
#    0.000    1.538    0.000    0.923    0.000    0.000 
#    0.000    0.000    0.000    0.000    0.000    0.000 
#
# Total GULP energy -145014.008164 kJ/mol
# GULP energy per Si atom -5577.461852 kJ/mol
# Density = 1.715367 g / cm^3
# Si number density = 17.192800 Si / 1000 Ang^3
#
#
#
# Elastic Constant Matrix: (Units=GPa)
#
#
# Indices 1 2 3 4 5 6 
#
# 1 47.0771 47.6515 27.9161 0.0000 -3.3396 0.0000
# 2 47.6515 145.9136 58.5609 0.0000 -3.7078 0.0000
# 3 27.9161 58.5609 81.3916 0.0000 -11.9208 0.0000
# 4 0.0000 0.0000 0.0000 12.0480 0.0000 -14.0156
# 5 -3.3396 -3.7078 -11.9208 0.0000 20.2037 0.0000
# 6 0.0000 0.0000 0.0000 -14.0156 0.0000 24.4216
#
#
#
# Elastic Compliance Matrix: (Units=1/GPa)
#
#
# Indices 1 2 3 4 5 6 
#
# 1 0.033152 -0.008852 -0.004856 0.000000 0.000990 0.000000
# 2 -0.008852 0.012120 -0.006100 0.000000 -0.002838 0.000000
# 3 -0.004856 -0.006100 0.019768 0.000000 0.009741 0.000000
# 4 0.000000 0.000000 0.000000 0.249726 0.000000 0.143318
# 5 0.000990 -0.002838 0.009741 0.000000 0.054886 0.000000
# 6 0.000000 0.000000 0.000000 0.143318 0.000000 0.123198
#
#
# Mechanical properties :
#
#
# Convention : Reuss Voigt Hill
#
# Bulk Modulus (GPa) = 39.33526 60.29326 49.81426
# Shear Modulus (GPa) = 9.24313 20.68491 14.96402
#
# Velocity S-wave (km/s) = 2.32117 3.47236 2.95340
# Velocity P-wave (km/s) = 5.48747 7.15691 6.37706
#
# Compressibility (1/GPa) = 0.02542248
#
# Stress axis : x y z
#
# Youngs Moduli (GPa) = 30.16390 82.50570 50.58781
#
# Poissons Ratio (x) = 0.73037 0.24568
# Poissons Ratio (y) = 0.26702 0.30859
# Poissons Ratio (z) = 0.14649 0.50328
#
# Static dielectric constant tensor:
#      x y z
#    x 1.587600 0.000000 0.004310 
#    y 0.000000 1.570300 0.000000 
#    z 0.004310 0.000000 1.624810 
# 
# From -- ./inp_files/41747.got.cif
#   From: 2010.05.17/outbox.cif.g08.bks.cpg/sg15_21_cif.got.tgz:41747.got - 2010.06.03 18:47:42.
