data_PCOD9255702
_publ_section_title
;
Structure prediction by ZEFSAII (Michael W. Deem and Ramdas Pophale) SiO2 
 PCOD9255702
Probable space group: C 2/C
;
_chemical_formula_sum "Si O2"
_cell_formula_units_Z 40
_cell_length_a 12.693584
_cell_length_b 22.521767
_cell_length_c 5.427041
_cell_angle_alpha 90.000000
_cell_angle_beta 89.767563
_cell_angle_gamma 90.000000
_cell_volume 1551.480249
_symmetry_space_group_name_H-M "C 2/C"
_symmetry_group_IT_number 15
_symmetry_cell_setting 'monoclinic'
loop_
_space_group_symop_operation_xyz
x,y,z
-x,y,1/2-z
-x,-y,-z
x,-y,1/2+z
1/2+x,1/2+y,z
1/2-x,1/2+y,1/2-z
1/2-x,1/2-y,-z
1/2+x,1/2-y,1/2+z
loop_
_atom_site_type_symbol
_atom_site_label
_atom_site_fract_x
_atom_site_fract_y
_atom_site_fract_z
Si Si1 0.202036 0.698649 0.250412
Si Si2 0.500000 0.714334 0.750000
Si Si3 0.871011 0.697595 0.748867
Si Si4 0.400126 0.035333 0.171182
Si Si5 0.000000 0.858789 0.750000
Si Si6 0.659052 0.536626 0.225461
O O1 0.104271 0.745672 0.250768
O O2 0.177321 0.667223 0.508042
O O3 0.309992 0.737385 0.250659
O O4 0.178827 0.667337 0.992261
O O5 0.501956 0.676872 0.502675
O O6 0.000000 0.698984 0.750000
O O7 0.500000 0.075494 0.250000
O O8 0.281335 0.052184 0.217369
O O9 0.409815 0.983957 0.386152
O O10 0.901316 0.902212 0.760833
O O11 0.634407 0.498620 0.472184
#
# Coordination Sequence:
#
# PCOD9255702 Si02
#       6
#     8   4   8   8   4   8
#     4  10  20  31  52  76 104 135 161 214 250 296
#     4  12  22  37  48  72 110 136 170 202 260 318
#     4  10  17  32  54  80 101 126 174 208 255 288
#     4   8  14  25  45  70  92 113 142 197 258 291
#     4  12  24  33  52  70 100 144 170 200 260 326
#     4  10  19  34  52  73  98 124 173 224 253 291
#
# _framework density 25.781831
#
# number of rings (size 3 to 8) (size 9 to 14) (size 15 to 20)
#    0.000    2.000    2.000    3.000    0.000    0.000 
#    0.000    0.000    0.000    2.400    0.000    0.000 
#    0.000    0.000    0.000    0.000    0.000    0.000 
#
# Total GULP energy -111854.497118 kJ/mol
# GULP energy per Si atom -5592.724856 kJ/mol
# Density = 2.572315 g / cm^3
# Si number density = 25.781831 Si / 1000 Ang^3
#
#
#
# Elastic Constant Matrix: (Units=GPa)
#
#
# Indices 1 2 3 4 5 6 
#
# 1 142.5058 -2.8866 30.4832 0.0000 -10.1511 0.0000
# 2 -2.8866 61.2640 49.5399 0.0000 -3.7118 0.0000
# 3 30.4832 49.5399 265.4359 0.0000 -5.1348 0.0000
# 4 0.0000 0.0000 0.0000 27.8873 0.0000 -1.9156
# 5 -10.1511 -3.7118 -5.1348 0.0000 36.0099 0.0000
# 6 0.0000 0.0000 0.0000 -1.9156 0.0000 93.7608
#
#
#
# Elastic Compliance Matrix: (Units=1/GPa)
#
#
# Indices 1 2 3 4 5 6 
#
# 1 0.007419 0.001333 -0.001061 0.000000 0.002078 0.000000
# 2 0.001333 0.019542 -0.003764 0.000000 0.001853 0.000000
# 3 -0.001061 -0.003764 0.004591 0.000000 -0.000032 0.000000
# 4 0.000000 0.000000 0.000000 0.035909 0.000000 0.000734
# 5 0.002078 0.001853 -0.000032 0.000000 0.028542 0.000000
# 6 0.000000 0.000000 0.000000 0.000734 0.000000 0.010680
#
#
# Mechanical properties :
#
#
# Convention : Reuss Voigt Hill
#
# Bulk Modulus (GPa) = 40.70294 69.27542 54.98918
# Shear Modulus (GPa) = 41.03158 57.66954 49.35056
#
# Velocity S-wave (km/s) = 3.99368 4.73464 4.37986
# Velocity P-wave (km/s) = 6.08997 7.53773 6.85219
#
# Compressibility (1/GPa) = 0.02456825
#
# Stress axis : x y z
#
# Youngs Moduli (GPa) = 134.78654 51.17188 217.81002
#
# Poissons Ratio (x) = -0.06822 0.23102
# Poissons Ratio (y) = -0.17969 0.81994
# Poissons Ratio (z) = 0.14296 0.19264
#
# Static dielectric constant tensor:
#      x y z
#    x 2.191280 0.000000 0.004140 
#    y 0.000000 2.043070 0.000000 
#    z 0.004140 0.000000 2.144340 
# 
# From -- ./inp_files/7364.got.cif
#   From: 2010.05.17/outbox.cif.g08.bks.cpg/sg15_4_cif.got.tgz:7364.got - 2010.06.03 18:47:42.
