data_PCOD9255408
_publ_section_title
;
Structure prediction by ZEFSAII (Michael W. Deem and Ramdas Pophale) SiO2 
 PCOD9255408
Probable space group: C 2/C
;
_chemical_formula_sum "Si O2"
_cell_formula_units_Z 64
_cell_length_a 9.703493
_cell_length_b 28.374225
_cell_length_c 17.217257
_cell_angle_alpha 90.000000
_cell_angle_beta 56.054944
_cell_angle_gamma 90.000000
_cell_volume 3932.519654
_symmetry_space_group_name_H-M "C 2/C"
_symmetry_group_IT_number 15
_symmetry_cell_setting 'monoclinic'
loop_
_space_group_symop_operation_xyz
x,y,z
-x,y,1/2-z
-x,-y,-z
x,-y,1/2+z
1/2+x,1/2+y,z
1/2-x,1/2+y,1/2-z
1/2-x,1/2-y,-z
1/2+x,1/2-y,1/2+z
loop_
_atom_site_type_symbol
_atom_site_label
_atom_site_fract_x
_atom_site_fract_y
_atom_site_fract_z
Si Si1 0.085337 0.941224 0.378215
Si Si2 0.364482 0.315701 0.005912
Si Si3 0.519636 0.336101 0.117299
Si Si4 0.231093 0.326445 0.332679
Si Si5 0.357350 0.064646 0.663883
Si Si6 0.138086 0.988580 0.641956
Si Si7 0.257604 0.921444 0.478919
Si Si8 0.956073 0.743827 0.854202
O O1 0.993800 0.892954 0.381183
O O2 0.258842 0.941922 0.275842
O O3 0.131429 0.940539 0.453370
O O4 0.967284 0.982732 0.388479
O O5 0.447438 0.292423 0.904551
O O6 0.491380 0.321176 0.037697
O O7 0.275238 0.365334 0.014657
O O8 0.223085 0.280547 0.081549
O O9 0.366267 0.321207 0.221019
O O10 0.680972 0.318203 0.112108
O O11 0.180841 0.381499 0.349011
O O12 0.083288 0.291615 0.357148
O O13 0.556092 0.063316 0.603243
O O14 0.273196 0.024929 0.635535
O O15 0.219204 0.944129 0.574303
O O16 0.000000 0.975988 0.750000
O O17 0.000000 0.749028 0.750000
#
# Coordination Sequence:
#
# PCOD9255408 Si02
#       8
#     8   8   8   8   8   8   8   8
#     4   9  18  31  51  76 105 129 164 214 255 299
#     4  10  22  34  51  78 103 132 178 209 253 315
#     4   9  17  31  52  80 100 129 167 208 263 313
#     4  10  17  30  55  75 103 132 162 217 267 298
#     4  10  18  31  50  79 103 130 165 213 260 296
#     4  10  20  34  49  73 107 139 169 206 249 304
#     4  11  20  32  52  76 103 135 174 205 253 307
#     4  11  21  36  53  75 105 134 166 221 263 300
#
# _framework density 16.274553000000001
#
# number of rings (size 3 to 8) (size 9 to 14) (size 15 to 20)
#    0.000    2.000    3.750    1.125    0.000    1.000 
#    0.000    0.000    0.000    0.000    0.000    0.000 
#    0.000    0.000    0.000    0.000    0.000    0.000 
#
# Total GULP energy -178266.946289 kJ/mol
# GULP energy per Si atom -5570.842072 kJ/mol
# Density = 1.623751 g / cm^3
# Si number density = 16.274553 Si / 1000 Ang^3
#
#
#
# Elastic Constant Matrix: (Units=GPa)
#
#
# Indices 1 2 3 4 5 6 
#
# 1 66.0473 11.7099 25.7027 0.0000 14.6492 0.0000
# 2 11.7099 41.6415 34.4835 0.0000 18.4147 0.0000
# 3 25.7027 34.4835 66.0998 0.0000 20.0698 0.0000
# 4 0.0000 0.0000 0.0000 27.6214 0.0000 3.2903
# 5 14.6492 18.4147 20.0698 0.0000 15.8682 0.0000
# 6 0.0000 0.0000 0.0000 3.2903 0.0000 18.1406
#
#
#
# Elastic Compliance Matrix: (Units=1/GPa)
#
#
# Indices 1 2 3 4 5 6 
#
# 1 0.020750 0.008764 -0.006066 0.000000 -0.021655 0.000000
# 2 0.008764 0.061860 -0.018550 0.000000 -0.056416 0.000000
# 3 -0.006066 -0.018550 0.030729 0.000000 -0.011738 0.000000
# 4 0.000000 0.000000 0.000000 0.037003 0.000000 -0.006712
# 5 -0.021655 -0.056416 -0.011738 0.000000 0.163327 0.000000
# 6 0.000000 0.000000 0.000000 -0.006712 0.000000 0.056342
#
#
# Mechanical properties :
#
#
# Convention : Reuss Voigt Hill
#
# Bulk Modulus (GPa) = 12.24948 35.28676 23.76812
# Shear Modulus (GPa) = 11.65701 19.11886 15.38793
#
# Velocity S-wave (km/s) = 2.67923 3.43121 3.07827
# Velocity P-wave (km/s) = 4.13692 6.11775 5.22212
#
# Compressibility (1/GPa) = 0.08163612
#
# Stress axis : x y z
#
# Youngs Moduli (GPa) = 48.19167 16.16559 32.54280
#
# Poissons Ratio (x) = -0.14168 0.19740
# Poissons Ratio (y) = -0.42237 0.60367
# Poissons Ratio (z) = 0.29233 0.29987
#
# Static dielectric constant tensor:
#      x y z
#    x 1.548970 0.000000 0.005310 
#    y 0.000000 1.535510 0.000000 
#    z 0.005310 0.000000 1.537500 
# 
# From -- ./inp_files/82622.got.cif
#   From: 2010.05.17/outbox.cif.g08.bks.cpg/sg15_42_cif.got.tgz:82622.got - 2010.06.03 18:47:42.
