data_PCOD9255320
_publ_section_title
;
Structure prediction by ZEFSAII (Michael W. Deem and Ramdas Pophale) SiO2 
 PCOD9255320
Probable space group: C 2/C
;
_chemical_formula_sum "Si O2"
_cell_formula_units_Z 40
_cell_length_a 16.225110
_cell_length_b 23.801501
_cell_length_c 4.988353
_cell_angle_alpha 90.000000
_cell_angle_beta 73.237943
_cell_angle_gamma 90.000000
_cell_volume 1844.560088
_symmetry_space_group_name_H-M "C 2/C"
_symmetry_group_IT_number 15
_symmetry_cell_setting 'monoclinic'
loop_
_space_group_symop_operation_xyz
x,y,z
-x,y,1/2-z
-x,-y,-z
x,-y,1/2+z
1/2+x,1/2+y,z
1/2-x,1/2+y,1/2-z
1/2-x,1/2-y,-z
1/2+x,1/2-y,1/2+z
loop_
_atom_site_type_symbol
_atom_site_label
_atom_site_fract_x
_atom_site_fract_y
_atom_site_fract_z
Si Si1 0.364769 0.640090 0.456042
Si Si2 0.264672 0.603527 0.016450
Si Si3 0.099089 0.665626 0.118900
Si Si4 0.352382 0.761350 0.427417
Si Si5 0.596065 0.534322 0.816289
O O1 0.302622 0.649766 0.772298
O O2 0.396284 0.700738 0.339185
O O3 0.428641 0.593643 0.525810
O O4 0.311324 0.612929 0.258806
O O5 0.301575 0.547839 0.834043
O O6 0.164156 0.614301 0.117347
O O7 0.125256 0.714052 0.304574
O O8 0.000000 0.650704 0.250000
O O9 0.115832 0.692479 0.813171
O O10 0.250000 0.750000 0.500000
O O11 0.573876 0.515370 0.539342
#
# Coordination Sequence:
#
# PCOD9255320 Si02
#       5
#     8   8   8   8   8
#     4  10  19  29  53  78  99 139 179 216 265 311
#     4  10  18  32  49  77 100 147 172 216 265 311
#     4  12  24  36  53  81 116 148 182 223 266 318
#     4  12  20  36  57  78 108 146 187 218 268 329
#     4  10  17  30  49  77 106 131 172 232 279 297
#
# _framework density 21.685388
#
# number of rings (size 3 to 8) (size 9 to 14) (size 15 to 20)
#    1.200    0.000    6.000    2.400    0.000    0.000 
#    0.000    0.000    0.000    1.200    0.000    0.000 
#    0.000   16.000    0.000    0.000    0.000    0.000 
#
# Total GULP energy -111413.436965 kJ/mol
# GULP energy per Si atom -5570.671848 kJ/mol
# Density = 2.163603 g / cm^3
# Si number density = 21.685388 Si / 1000 Ang^3
#
#
#
# Elastic Constant Matrix: (Units=GPa)
#
#
# Indices 1 2 3 4 5 6 
#
# 1 96.1280 31.6579 29.7829 0.0000 -13.9714 0.0000
# 2 31.6579 55.3306 14.3756 0.0000 5.3081 0.0000
# 3 29.7829 14.3756 91.3794 0.0000 10.0722 0.0000
# 4 0.0000 0.0000 0.0000 23.6458 0.0000 8.1482
# 5 -13.9714 5.3081 10.0722 0.0000 38.2383 0.0000
# 6 0.0000 0.0000 0.0000 8.1482 0.0000 26.7202
#
#
#
# Elastic Compliance Matrix: (Units=1/GPa)
#
#
# Indices 1 2 3 4 5 6 
#
# 1 0.015932 -0.008678 -0.004739 0.000000 0.008274 0.000000
# 2 -0.008678 0.023704 -0.000194 0.000000 -0.006410 0.000000
# 3 -0.004739 -0.000194 0.013086 0.000000 -0.005152 0.000000
# 4 0.000000 0.000000 0.000000 0.047257 0.000000 -0.014411
# 5 0.008274 -0.006410 -0.005152 0.000000 0.031422 0.000000
# 6 0.000000 0.000000 0.000000 -0.014411 0.000000 0.041819
#
#
# Mechanical properties :
#
#
# Convention : Reuss Voigt Hill
#
# Bulk Modulus (GPa) = 39.21710 43.83010 41.52360
# Shear Modulus (GPa) = 23.93013 28.85564 26.39289
#
# Velocity S-wave (km/s) = 3.32552 3.65176 3.49245
# Velocity P-wave (km/s) = 5.73318 6.16735 5.95422
#
# Compressibility (1/GPa) = 0.02549908
#
# Stress axis : x y z
#
# Youngs Moduli (GPa) = 62.76832 42.18758 76.41494
#
# Poissons Ratio (x) = 0.36610 0.36216
# Poissons Ratio (y) = 0.54469 0.01483
# Poissons Ratio (z) = 0.29748 0.00819
#
# Static dielectric constant tensor:
#      x y z
#    x 1.917080 0.000000 -0.058540 
#    y 0.000000 1.814280 0.000000 
#    z -0.058540 0.000000 1.798530 
# 
# From -- ./inp_files/8474.got.cif
#   From: 2010.05.17/outbox.cif.g08.bks.cpg/sg15_5_cif.got.tgz:8474.got - 2010.06.03 18:47:42.
