data_PCOD9255325
_publ_section_title
;
Structure prediction by ZEFSAII (Michael W. Deem and Ramdas Pophale) SiO2 
 PCOD9255325
Probable space group: C 2/C
;
_chemical_formula_sum "Si O2"
_cell_formula_units_Z 56
_cell_length_a 29.469607
_cell_length_b 15.361910
_cell_length_c 9.683136
_cell_angle_alpha 90.000000
_cell_angle_beta 122.739556
_cell_angle_gamma 90.000000
_cell_volume 3687.250505
_symmetry_space_group_name_H-M "C 2/C"
_symmetry_group_IT_number 15
_symmetry_cell_setting 'monoclinic'
loop_
_space_group_symop_operation_xyz
x,y,z
-x,y,1/2-z
-x,-y,-z
x,-y,1/2+z
1/2+x,1/2+y,z
1/2-x,1/2+y,1/2-z
1/2-x,1/2-y,-z
1/2+x,1/2-y,1/2+z
loop_
_atom_site_type_symbol
_atom_site_label
_atom_site_fract_x
_atom_site_fract_y
_atom_site_fract_z
Si Si1 0.122789 0.123751 0.210831
Si Si2 0.629990 0.637301 0.528109
Si Si3 0.161709 0.245971 0.841181
Si Si4 0.556002 0.547514 0.612432
Si Si5 0.247097 0.395017 0.953938
Si Si6 0.561125 0.302739 0.346654
Si Si7 0.713910 0.514719 0.237683
O O1 0.125602 0.168964 0.364153
O O2 0.179970 0.096927 0.239697
O O3 0.098504 0.028855 0.205836
O O4 0.085052 0.170338 0.035347
O O5 0.648661 0.711463 0.665721
O O6 0.575384 0.599694 0.508379
O O7 0.672162 0.556151 0.603571
O O8 0.195978 0.333707 0.894049
O O9 0.107423 0.250996 0.842557
O O10 0.200668 0.169457 0.964370
O O11 0.500000 0.500000 0.500000
O O12 0.555932 0.610692 0.743238
O O13 0.246502 0.448982 0.812584
O O14 0.257115 0.462497 0.093453
O O15 0.500000 0.266097 0.250000
#
# Coordination Sequence:
#
# PCOD9255325 Si02
#       7
#     8   8   8   8   8   8   8
#     4  11  18  27  43  66  97 126 168 200 224 268
#     4   9  19  29  43  64  99 128 160 202 234 278
#     4   9  20  35  46  68 101 137 157 193 256 295
#     4  10  18  27  39  61  93 131 174 192 216 264
#     4  10  18  33  54  69  97 127 162 206 249 290
#     4  11  20  31  44  67  99 138 166 193 230 290
#     4  10  17  30  50  71  89 124 164 206 240 278
#
# _framework density 15.187468000000001
#
# number of rings (size 3 to 8) (size 9 to 14) (size 15 to 20)
#    0.000    2.000    4.286    2.571    0.000    0.000 
#    0.000    2.143    0.000    0.000    0.000    1.000 
#    0.000    0.000    0.000    0.000    0.000    0.000 
#
# Total GULP energy -156039.867268 kJ/mol
# GULP energy per Si atom -5572.852402 kJ/mol
# Density = 1.515290 g / cm^3
# Si number density = 15.187468 Si / 1000 Ang^3
#
#
#
# Elastic Constant Matrix: (Units=GPa)
#
#
# Indices 1 2 3 4 5 6 
#
# 1 96.2174 34.0648 52.4580 0.0000 -0.4609 0.0000
# 2 34.0648 32.2094 26.0432 0.0000 1.0103 0.0000
# 3 52.4580 26.0432 94.5374 0.0000 -14.9483 0.0000
# 4 0.0000 0.0000 0.0000 8.0517 0.0000 4.7491
# 5 -0.4609 1.0103 -14.9483 0.0000 21.5400 0.0000
# 6 0.0000 0.0000 0.0000 4.7491 0.0000 16.7040
#
#
#
# Elastic Compliance Matrix: (Units=1/GPa)
#
#
# Indices 1 2 3 4 5 6 
#
# 1 0.019631 -0.014533 -0.007543 0.000000 -0.004133 0.000000
# 2 -0.014533 0.053018 -0.007844 0.000000 -0.008241 0.000000
# 3 -0.007543 -0.007844 0.019047 0.000000 0.013425 0.000000
# 4 0.000000 0.000000 0.000000 0.149221 0.000000 -0.042425
# 5 -0.004133 -0.008241 0.013425 0.000000 0.056040 0.000000
# 6 0.000000 0.000000 0.000000 -0.042425 0.000000 0.071928
#
#
# Mechanical properties :
#
#
# Convention : Reuss Voigt Hill
#
# Bulk Modulus (GPa) = 31.39188 49.78848 40.59018
# Shear Modulus (GPa) = 11.38058 16.61903 13.99981
#
# Velocity S-wave (km/s) = 2.74038 3.31155 3.03941
# Velocity P-wave (km/s) = 5.54323 6.89025 6.25312
#
# Compressibility (1/GPa) = 0.03185537
#
# Stress axis : x y z
#
# Youngs Moduli (GPa) = 50.93925 18.86138 52.50163
#
# Poissons Ratio (x) = 0.27412 0.39602
# Poissons Ratio (y) = 0.74032 0.41183
# Poissons Ratio (z) = 0.38424 0.14795
#
# Static dielectric constant tensor:
#      x y z
#    x 1.560290 0.000000 0.000190 
#    y 0.000000 1.476120 0.000000 
#    z 0.000190 0.000000 1.530900 
# 
# From -- ./inp_files/62199.got.cif
#   From: 2010.05.17/outbox.cif.g08.bks.cpg/sg15_32_cif.got.tgz:62199.got - 2010.06.03 18:47:42.
