data_PCOD9255115
_publ_section_title
;
Structure prediction by ZEFSAII (Michael W. Deem and Ramdas Pophale) SiO2 
 PCOD9255115
Probable space group: C 2/C
;
_chemical_formula_sum "Si O2"
_cell_formula_units_Z 64
_cell_length_a 9.040536
_cell_length_b 22.411548
_cell_length_c 21.036392
_cell_angle_alpha 90.000000
_cell_angle_beta 33.827665
_cell_angle_gamma 90.000000
_cell_volume 2372.771980
_symmetry_space_group_name_H-M "C 2/C"
_symmetry_group_IT_number 15
_symmetry_cell_setting 'monoclinic'
loop_
_space_group_symop_operation_xyz
x,y,z
-x,y,1/2-z
-x,-y,-z
x,-y,1/2+z
1/2+x,1/2+y,z
1/2-x,1/2+y,1/2-z
1/2-x,1/2-y,-z
1/2+x,1/2-y,1/2+z
loop_
_atom_site_type_symbol
_atom_site_label
_atom_site_fract_x
_atom_site_fract_y
_atom_site_fract_z
Si Si1 0.633373 0.747164 0.445505
Si Si2 0.306614 0.029747 0.656180
Si Si3 0.869925 0.373670 0.034694
Si Si4 0.259795 0.378021 0.207652
Si Si5 0.036258 0.848664 0.873715
Si Si6 0.065031 0.071207 0.984363
Si Si7 0.005422 0.407764 0.859431
Si Si8 0.210356 0.745449 0.302126
O O1 0.598820 0.815343 0.434097
O O2 0.551569 0.701362 0.421760
O O3 0.444022 0.745029 0.575018
O O4 0.945652 0.736855 0.351657
O O5 0.401893 0.065543 0.560689
O O6 0.313381 0.074339 0.713002
O O7 0.000000 0.012013 0.750000
O O8 0.469546 0.973702 0.621531
O O9 0.575384 0.371110 0.111604
O O10 0.047161 0.369632 0.908667
O O11 0.158833 0.310892 0.253715
O O12 0.253157 0.404794 0.138482
O O13 0.858643 0.899804 0.974462
O O14 0.276642 0.892458 0.769245
O O15 0.069565 0.803838 0.799257
O O16 0.779143 0.100135 0.069711
O O17 0.000000 0.000000 0.000000
#
# Coordination Sequence:
#
# PCOD9255115 Si02
#       8
#     8   8   8   8   8   8   8   8
#     4  10  17  28  48  76 108 136 170 223 279 319
#     4  10  20  35  54  77 107 142 178 226 271 312
#     4   9  18  32  50  75 106 136 173 226 276 315
#     4   9  18  32  49  75 109 137 173 222 273 323
#     4  12  21  32  53  80 113 146 176 222 280 329
#     4  11  22  35  51  77 115 149 180 221 266 324
#     4  11  21  34  53  79 108 144 186 219 263 327
#     4  10  17  28  48  76 107 138 173 219 278 326
#
# _framework density 26.972673
#
# number of rings (size 3 to 8) (size 9 to 14) (size 15 to 20)
#    0.000    1.750    2.500    4.125    0.000    2.000 
#    0.000    0.000    0.000    0.000    0.000   11.375 
#    0.000    0.000    0.000    0.000    0.000    0.000 
#
# Total GULP energy -178762.672571 kJ/mol
# GULP energy per Si atom -5586.333518 kJ/mol
# Density = 2.691128 g / cm^3
# Si number density = 26.972673 Si / 1000 Ang^3
#
#
#
# Elastic Constant Matrix: (Units=GPa)
#
#
# Indices 1 2 3 4 5 6 
#
# 1 77.1162 11.5545 24.1722 0.0020 -3.9657 -0.0166
# 2 11.5545 127.1316 30.6398 0.0002 11.8619 -0.0045
# 3 24.1722 30.6398 150.8053 -0.0008 26.0059 -0.0054
# 4 0.0020 0.0002 -0.0008 42.6745 -0.0001 4.6000
# 5 -3.9657 11.8619 26.0059 -0.0001 27.1936 0.0043
# 6 -0.0166 -0.0045 -0.0054 4.6000 0.0043 25.1903
#
#
#
# Elastic Compliance Matrix: (Units=1/GPa)
#
#
# Indices 1 2 3 4 5 6 
#
# 1 0.014358 -0.001086 -0.003022 -0.000002 0.005457 0.000008
# 2 -0.001086 0.008485 -0.001059 0.000000 -0.002847 0.000001
# 3 -0.003022 -0.001059 0.008774 0.000000 -0.008369 0.000001
# 4 -0.000002 0.000000 0.000000 0.023904 0.000000 -0.004365
# 5 0.005457 -0.002847 -0.008369 0.000000 0.046815 -0.000007
# 6 0.000008 0.000001 0.000001 -0.004365 -0.000007 0.040495
#
#
# Mechanical properties :
#
#
# Convention : Reuss Voigt Hill
#
# Bulk Modulus (GPa) = 46.98417 54.19845 50.59131
# Shear Modulus (GPa) = 31.19948 38.25746 34.72847
#
# Velocity S-wave (km/s) = 3.40473 3.77022 3.59213
# Velocity P-wave (km/s) = 5.73701 6.25222 6.00014
#
# Compressibility (1/GPa) = 0.02128376
#
# Stress axis : x y z
#
# Youngs Moduli (GPa) = 69.64753 117.84923 113.97454
#
# Poissons Ratio (x) = 0.12797 0.34442
# Poissons Ratio (y) = 0.07563 0.12070
# Poissons Ratio (z) = 0.21047 0.12481
#
# Static dielectric constant tensor:
#      x y z
#    x 2.179400 0.000000 -0.029250 
#    y 0.000000 2.152510 0.000000 
#    z -0.029250 0.000000 2.046370 
# 
# From -- ./inp_files/240403.got.cif
#   From: 2010.05.17/outbox.cif.g08.bks.cpg/sg15_121_cif.got.tgz:240403.got - 2010.06.03 18:47:42.
