data_PCOD9255590
_publ_section_title
;
Structure prediction by ZEFSAII (Michael W. Deem and Ramdas Pophale) SiO2 
 PCOD9255590
Probable space group: C 2/C
;
_chemical_formula_sum "Si O2"
_cell_formula_units_Z 48
_cell_length_a 31.298184
_cell_length_b 19.822589
_cell_length_c 17.074952
_cell_angle_alpha 90.000000
_cell_angle_beta 167.637173
_cell_angle_gamma 90.000000
_cell_volume 2268.083150
_symmetry_space_group_name_H-M "C 2/C"
_symmetry_group_IT_number 15
_symmetry_cell_setting 'monoclinic'
loop_
_space_group_symop_operation_xyz
x,y,z
-x,y,1/2-z
-x,-y,-z
x,-y,1/2+z
1/2+x,1/2+y,z
1/2-x,1/2+y,1/2-z
1/2-x,1/2-y,-z
1/2+x,1/2-y,1/2+z
loop_
_atom_site_type_symbol
_atom_site_label
_atom_site_fract_x
_atom_site_fract_y
_atom_site_fract_z
Si Si1 0.222382 0.112244 0.691627
Si Si2 0.697080 0.686103 0.351187
Si Si3 0.020074 0.059004 0.470901
Si Si4 0.157620 0.516244 0.715080
Si Si5 0.238379 0.262991 0.698829
Si Si6 0.586782 0.887429 0.492111
O O1 0.282320 0.189852 0.810356
O O2 0.204065 0.072056 0.740786
O O3 0.372051 0.077603 0.898255
O O4 0.000000 0.113165 0.250000
O O5 0.750000 0.750000 0.500000
O O6 0.535897 0.632807 0.094435
O O7 0.651342 0.716978 0.183789
O O8 0.896781 0.640898 0.699321
O O9 0.000000 0.000000 0.500000
O O10 0.852478 0.035337 0.110793
O O11 0.177832 0.451118 0.697132
O O12 0.000000 0.500000 0.500000
O O13 0.244033 0.326645 0.765960
O O14 0.000000 0.261010 0.250000
O O15 0.500000 0.904342 0.250000
#
# Coordination Sequence:
#
# PCOD9255590 Si02
#       6
#     8   8   8   8   8   8
#     4   9  19  35  52  81 117 147 190 236 289 336
#     4  10  17  31  58  84 111 143 199 242 279 344
#     4  11  23  36  56  90 121 154 189 243 301 344
#     4  11  21  35  57  86 116 152 192 238 287 347
#     4   8  16  30  52  80 108 145 187 240 278 325
#     4   9  19  32  55  84 110 144 196 235 282 334
#
# _framework density 21.163245
#
# number of rings (size 3 to 8) (size 9 to 14) (size 15 to 20)
#    0.000    2.667    1.667    4.000    4.667    0.000 
#    0.000    0.000    0.000    4.000    8.667    0.000 
#    0.000    0.000    0.000    0.000    0.000    0.000 
#
# Total GULP energy -133723.896258 kJ/mol
# GULP energy per Si atom -5571.829011 kJ/mol
# Density = 2.111508 g / cm^3
# Si number density = 21.163245 Si / 1000 Ang^3
#
#
#
# Elastic Constant Matrix: (Units=GPa)
#
#
# Indices 1 2 3 4 5 6 
#
# 1 120.8671 66.0248 14.6322 0.0001 5.6646 0.0000
# 2 66.0248 135.2238 3.2610 0.0001 0.8197 0.0000
# 3 14.6322 3.2610 22.7048 0.0000 -2.2472 -0.0001
# 4 0.0001 0.0001 0.0000 10.8632 0.0001 -0.6885
# 5 5.6646 0.8197 -2.2472 0.0001 11.4801 0.0000
# 6 0.0000 0.0000 -0.0001 -0.6885 0.0000 35.8049
#
#
#
# Elastic Compliance Matrix: (Units=1/GPa)
#
#
# Indices 1 2 3 4 5 6 
#
# 1 0.012941 -0.006075 -0.008215 0.000000 -0.007560 0.000000
# 2 -0.006075 0.010279 0.002715 0.000000 0.002795 0.000000
# 3 -0.008215 0.002715 0.050305 0.000000 0.013707 0.000000
# 4 0.000000 0.000000 0.000000 0.092167 -0.000001 0.001772
# 5 -0.007560 0.002795 0.013707 -0.000001 0.093321 0.000000
# 6 0.000000 0.000000 0.000000 0.001772 0.000000 0.027963
#
#
# Mechanical properties :
#
#
# Convention : Reuss Voigt Hill
#
# Bulk Modulus (GPa) = 19.85143 49.62578 34.73860
# Shear Modulus (GPa) = 15.29444 24.62148 19.95796
#
# Velocity S-wave (km/s) = 2.69120 3.41458 3.07424
# Velocity P-wave (km/s) = 4.36546 6.24866 5.38994
#
# Compressibility (1/GPa) = 0.05037421
#
# Stress axis : x y z
#
# Youngs Moduli (GPa) = 77.27576 97.28871 19.87890
#
# Poissons Ratio (x) = 0.59098 0.16331
# Poissons Ratio (y) = 0.46941 -0.05397
# Poissons Ratio (z) = 0.63485 -0.26414
#
# Static dielectric constant tensor:
#      x y z
#    x 1.854070 0.000000 0.046550 
#    y 0.000000 1.805700 0.000000 
#    z 0.046550 0.000000 1.813680 
# 
# From -- ./inp_files/178961.got.cif
#   From: 2010.05.17/outbox.cif.g08.bks.cpg/sg15_90_cif.got.tgz:178961.got - 2010.06.03 18:47:42.
