data_PCOD9255002
_publ_section_title
;
Structure prediction by ZEFSAII (Michael W. Deem and Ramdas Pophale) SiO2 
 PCOD9255002
Probable space group: C 2/C
;
_chemical_formula_sum "Si O2"
_cell_formula_units_Z 40
_cell_length_a 27.601852
_cell_length_b 7.247432
_cell_length_c 8.005670
_cell_angle_alpha 90.000000
_cell_angle_beta 100.157915
_cell_angle_gamma 90.000000
_cell_volume 1576.372155
_symmetry_space_group_name_H-M "C 2/C"
_symmetry_group_IT_number 15
_symmetry_cell_setting 'monoclinic'
loop_
_space_group_symop_operation_xyz
x,y,z
-x,y,1/2-z
-x,-y,-z
x,-y,1/2+z
1/2+x,1/2+y,z
1/2-x,1/2+y,1/2-z
1/2-x,1/2-y,-z
1/2+x,1/2-y,1/2+z
loop_
_atom_site_type_symbol
_atom_site_label
_atom_site_fract_x
_atom_site_fract_y
_atom_site_fract_z
Si Si1 0.246920 0.882091 0.155672
Si Si2 0.148543 0.276808 0.196845
Si Si3 0.035378 0.122557 0.640267
Si Si4 0.443084 0.754931 0.178486
Si Si5 0.178424 0.899134 0.403058
O O1 0.301623 0.896192 0.262084
O O2 0.205010 0.815911 0.258751
O O3 0.250000 0.750000 0.000000
O O4 0.222689 0.062994 0.061206
O O5 0.099283 0.360481 0.247266
O O6 0.159651 0.096197 0.321237
O O7 0.141464 0.212676 0.999628
O O8 0.000000 0.224958 0.750000
O O9 0.064699 0.244375 0.525932
O O10 0.938518 0.957325 0.744984
O O11 0.000000 0.000000 0.500000
O O12 0.500000 0.810556 0.250000
#
# Coordination Sequence:
#
# PCOD9255002 Si02
#       5
#     8   8   8   8   8
#     4   9  18  31  46  65  86 112 144 178 217 261
#     4  10  17  27  44  65  88 120 146 172 214 255
#     4   7  12  21  32  47  75 112 140 165 201 242
#     4   9  15  23  35  56  84 112 142 172 201 248
#     4   9  18  30  44  63  91 114 141 181 215 252
#
# _framework density 25.37472
#
# number of rings (size 3 to 8) (size 9 to 14) (size 15 to 20)
#    0.000    3.600    0.000    1.800    0.000    0.000 
#    0.000    0.000    0.000    0.000    0.000    1.400 
#    0.000    0.000    0.000    0.400    0.000    0.000 
#
# Total GULP energy -111457.206870 kJ/mol
# GULP energy per Si atom -5572.860343 kJ/mol
# Density = 2.531697 g / cm^3
# Si number density = 25.374720 Si / 1000 Ang^3
#
#
#
# Elastic Constant Matrix: (Units=GPa)
#
#
# Indices 1 2 3 4 5 6 
#
# 1 130.8050 11.8469 40.4523 0.0000 -32.7524 0.0000
# 2 11.8469 45.3369 12.7861 0.0000 0.5325 0.0000
# 3 40.4523 12.7861 165.0623 0.0000 -50.0713 0.0000
# 4 0.0000 0.0000 0.0000 15.6340 0.0000 6.7240
# 5 -32.7524 0.5325 -50.0713 0.0000 42.6936 0.0000
# 6 0.0000 0.0000 0.0000 6.7240 0.0000 10.3097
#
#
#
# Elastic Compliance Matrix: (Units=1/GPa)
#
#
# Indices 1 2 3 4 5 6 
#
# 1 0.009771 -0.002687 0.000151 0.000000 0.007707 0.000000
# 2 -0.002687 0.023654 -0.002932 0.000000 -0.005794 0.000000
# 3 0.000151 -0.002932 0.009771 0.000000 0.011612 0.000000
# 4 0.000000 0.000000 0.000000 0.088900 0.000000 -0.057980
# 5 0.007707 -0.005794 0.011612 0.000000 0.043026 0.000000
# 6 0.000000 0.000000 0.000000 -0.057980 0.000000 0.134810
#
#
# Mechanical properties :
#
#
# Convention : Reuss Voigt Hill
#
# Bulk Modulus (GPa) = 30.99572 52.37497 41.68535
# Shear Modulus (GPa) = 15.07753 32.13538 23.60646
#
# Velocity S-wave (km/s) = 2.44026 3.56256 3.05341
# Velocity P-wave (km/s) = 4.49238 6.13252 5.37538
#
# Compressibility (1/GPa) = 0.03226251
#
# Stress axis : x y z
#
# Youngs Moduli (GPa) = 102.34105 42.27629 102.34640
#
# Poissons Ratio (x) = 0.11358 -0.01549
# Poissons Ratio (y) = 0.27494 0.30003
# Poissons Ratio (z) = -0.01549 0.12393
#
# Static dielectric constant tensor:
#      x y z
#    x 2.174520 0.000000 -0.071490 
#    y 0.000000 2.062350 0.000000 
#    z -0.071490 0.000000 2.077430 
# 
# From -- ./inp_files/64753.got.cif
#   From: 2010.05.17/outbox.cif.g08.bks.cpg/sg15_33_cif.got.tgz:64753.got - 2010.06.03 18:47:42.
