data_PCOD9255621
_publ_section_title
;
Structure prediction by ZEFSAII (Michael W. Deem and Ramdas Pophale) SiO2 
 PCOD9255621
Probable space group: C 2/C
;
_chemical_formula_sum "Si O2"
_cell_formula_units_Z 56
_cell_length_a 14.433634
_cell_length_b 28.476396
_cell_length_c 8.920618
_cell_angle_alpha 90.000000
_cell_angle_beta 89.383115
_cell_angle_gamma 90.000000
_cell_volume 3666.320964
_symmetry_space_group_name_H-M "C 2/C"
_symmetry_group_IT_number 15
_symmetry_cell_setting 'monoclinic'
loop_
_space_group_symop_operation_xyz
x,y,z
-x,y,1/2-z
-x,-y,-z
x,-y,1/2+z
1/2+x,1/2+y,z
1/2-x,1/2+y,1/2-z
1/2-x,1/2-y,-z
1/2+x,1/2-y,1/2+z
loop_
_atom_site_type_symbol
_atom_site_label
_atom_site_fract_x
_atom_site_fract_y
_atom_site_fract_z
Si Si1 0.158985 0.159197 0.401030
Si Si2 0.677998 0.220950 0.105114
Si Si3 0.600162 0.443072 0.825201
Si Si4 0.603251 0.465464 0.179806
Si Si5 0.524439 0.252652 0.904772
Si Si6 0.162999 0.225945 0.916696
Si Si7 0.886235 0.137594 0.754359
O O1 0.263190 0.174818 0.363438
O O2 0.140465 0.109237 0.326328
O O3 0.086412 0.200971 0.362915
O O4 0.144898 0.153969 0.580106
O O5 0.656892 0.247761 0.257941
O O6 0.750000 0.250000 0.000000
O O7 0.585382 0.219865 0.010392
O O8 0.500000 0.437335 0.750000
O O9 0.647853 0.485485 0.731660
O O10 0.596491 0.458967 0.000446
O O11 0.500000 0.467929 0.250000
O O12 0.640935 0.417239 0.251002
O O13 0.500000 0.228364 0.750000
O O14 0.430393 0.266691 0.988336
O O15 0.160735 0.170881 0.868961
O O16 0.250000 0.250000 0.000000
O O17 0.000000 0.141571 0.750000
#
# Coordination Sequence:
#
# PCOD9255621 Si02
#       7
#     8   8   8   8   8   8   8
#     4  10  19  31  50  67  97 128 164 196 237 282
#     4  10  19  34  47  68  96 124 161 205 234 280
#     4  10  18  30  44  67  94 126 164 197 231 284
#     4   9  18  29  44  63  91 127 161 196 234 274
#     4  11  21  33  49  69  93 131 165 197 241 290
#     4  12  21  32  49  70  96 130 164 201 243 290
#     4  10  17  32  48  65  93 136 160 195 238 282
#
# _framework density 15.274167
#
# number of rings (size 3 to 8) (size 9 to 14) (size 15 to 20)
#    0.000    1.714    4.286    4.286    0.000    0.000 
#    5.143    0.000    0.000    0.000    0.000    0.000 
#    0.000    1.143    1.143    0.286    0.000    0.000 
#
# Total GULP energy -155874.512992 kJ/mol
# GULP energy per Si atom -5566.946893 kJ/mol
# Density = 1.523940 g / cm^3
# Si number density = 15.274167 Si / 1000 Ang^3
#
#
#
# Elastic Constant Matrix: (Units=GPa)
#
#
# Indices 1 2 3 4 5 6 
#
# 1 55.7251 39.7523 29.8806 0.0000 12.8839 0.0000
# 2 39.7523 111.1169 36.8479 0.0000 18.1542 0.0000
# 3 29.8806 36.8479 83.9666 0.0000 11.1278 0.0000
# 4 0.0000 0.0000 0.0000 24.0118 0.0000 6.0046
# 5 12.8839 18.1542 11.1278 0.0000 24.2125 0.0000
# 6 0.0000 0.0000 0.0000 6.0046 0.0000 20.1253
#
#
#
# Elastic Compliance Matrix: (Units=1/GPa)
#
#
# Indices 1 2 3 4 5 6 
#
# 1 0.027531 -0.006766 -0.005919 0.000000 -0.006856 0.000000
# 2 -0.006766 0.013131 -0.002691 0.000000 -0.005008 0.000000
# 3 -0.005919 -0.002691 0.015453 0.000000 -0.001935 0.000000
# 4 0.000000 0.000000 0.000000 0.045004 0.000000 -0.013427
# 5 -0.006856 -0.005008 -0.001935 0.000000 0.049593 0.000000
# 6 0.000000 0.000000 0.000000 -0.013427 0.000000 0.053695
#
#
# Mechanical properties :
#
#
# Convention : Reuss Voigt Hill
#
# Bulk Modulus (GPa) = 39.42850 51.53003 45.47927
# Shear Modulus (GPa) = 20.52425 23.29178 21.90802
#
# Velocity S-wave (km/s) = 3.66966 3.90925 3.79135
# Velocity P-wave (km/s) = 6.62005 7.36113 7.00041
#
# Compressibility (1/GPa) = 0.02536237
#
# Stress axis : x y z
#
# Youngs Moduli (GPa) = 36.32233 76.15753 64.71150
#
# Poissons Ratio (x) = 0.51530 0.38306
# Poissons Ratio (y) = 0.24577 0.17412
# Poissons Ratio (z) = 0.21501 0.20492
#
# Static dielectric constant tensor:
#      x y z
#    x 1.527800 0.000000 0.013170 
#    y 0.000000 1.582290 0.000000 
#    z 0.013170 0.000000 1.536380 
# 
# From -- ./inp_files/44129.got.cif
#   From: 2010.05.17/outbox.cif.g08.bks.cpg/sg15_23_cif.got.tgz:44129.got - 2010.06.03 18:47:42.
