data_PCOD9255234
_publ_section_title
;
Structure prediction by ZEFSAII (Michael W. Deem and Ramdas Pophale) SiO2 
 PCOD9255234
Probable space group: C 2/C
;
_chemical_formula_sum "Si O2"
_cell_formula_units_Z 60
_cell_length_a 26.633576
_cell_length_b 11.487052
_cell_length_c 9.893959
_cell_angle_alpha 90.000000
_cell_angle_beta 65.528966
_cell_angle_gamma 90.000000
_cell_volume 2755.060087
_symmetry_space_group_name_H-M "C 2/C"
_symmetry_group_IT_number 15
_symmetry_cell_setting 'monoclinic'
loop_
_space_group_symop_operation_xyz
x,y,z
-x,y,1/2-z
-x,-y,-z
x,-y,1/2+z
1/2+x,1/2+y,z
1/2-x,1/2+y,1/2-z
1/2-x,1/2-y,-z
1/2+x,1/2-y,1/2+z
loop_
_atom_site_type_symbol
_atom_site_label
_atom_site_fract_x
_atom_site_fract_y
_atom_site_fract_z
Si Si1 0.097910 0.775158 0.312372
Si Si2 0.424450 0.479881 0.530454
Si Si3 0.174433 0.074642 0.554260
Si Si4 0.000000 0.827818 0.250000
Si Si5 0.289219 0.004175 0.450399
Si Si6 0.687363 0.776445 0.910836
Si Si7 0.299339 0.151831 0.693298
Si Si8 0.646059 0.645366 0.222133
O O1 0.144685 0.818715 0.156315
O O2 0.135554 0.698007 0.369931
O O3 0.044809 0.748516 0.279080
O O4 0.074462 0.886949 0.423326
O O5 0.367834 0.471868 0.508738
O O6 0.469036 0.416666 0.387417
O O7 0.415168 0.398373 0.672949
O O8 0.237351 0.073713 0.442699
O O9 0.176616 0.977328 0.670609
O O10 0.284424 0.889021 0.552825
O O11 0.315414 0.943677 0.289319
O O12 0.310426 0.098002 0.534854
O O13 0.735506 0.693548 0.793366
O O14 0.659623 0.709927 0.068358
O O15 0.333858 0.267759 0.684519
#
# Coordination Sequence:
#
# PCOD9255234 Si02
#       8
#     8   8   8   4   8   8   8   8
#     4  10  19  33  51  76 110 142 182 224 273 327
#     4  10  20  34  55  78 110 145 185 225 279 336
#     4  10  17  29  52  76 105 149 182 211 262 324
#     4  10  22  36  50  78 110 140 180 240 282 326
#     4  11  21  33  52  80 113 153 191 224 264 327
#     4  11  19  34  55  75 111 154 187 218 273 333
#     4  11  21  35  52  79 116 152 190 226 266 331
#     4  10  19  34  52  76 111 154 177 219 276 338
#
# _framework density 21.778109000000001
#
# number of rings (size 3 to 8) (size 9 to 14) (size 15 to 20)
#    0.000    1.600    5.333    1.200    1.867    0.000 
#    4.800    1.333    0.000    0.000    0.000    0.933 
#    0.000    0.000    0.000    0.000    0.000    0.000 
#
# Total GULP energy -167085.658473 kJ/mol
# GULP energy per Si atom -5569.521949 kJ/mol
# Density = 2.172854 g / cm^3
# Si number density = 21.778109 Si / 1000 Ang^3
#
#
#
# Elastic Constant Matrix: (Units=GPa)
#
#
# Indices 1 2 3 4 5 6 
#
# 1 106.5849 29.2530 17.1112 0.0000 16.5259 0.0000
# 2 29.2530 59.5123 27.6596 0.0000 4.3152 0.0000
# 3 17.1112 27.6596 57.4800 0.0000 1.7905 0.0000
# 4 0.0000 0.0000 0.0000 29.1829 0.0000 14.3300
# 5 16.5259 4.3152 1.7905 0.0000 22.8860 0.0000
# 6 0.0000 0.0000 0.0000 14.3300 0.0000 20.9596
#
#
#
# Elastic Compliance Matrix: (Units=1/GPa)
#
#
# Indices 1 2 3 4 5 6 
#
# 1 0.012090 -0.004923 -0.000990 0.000000 -0.007724 0.000000
# 2 -0.004923 0.023896 -0.010028 0.000000 -0.000166 0.000000
# 3 -0.000990 -0.010028 0.022491 0.000000 0.000846 0.000000
# 4 0.000000 0.000000 0.000000 0.051585 0.000000 -0.035268
# 5 -0.007724 -0.000166 0.000846 0.000000 0.049238 0.000000
# 6 0.000000 0.000000 0.000000 -0.035268 0.000000 0.071824
#
#
# Mechanical properties :
#
#
# Convention : Reuss Voigt Hill
#
# Bulk Modulus (GPa) = 37.59963 41.29164 39.44563
# Shear Modulus (GPa) = 18.39119 24.57592 21.48356
#
# Velocity S-wave (km/s) = 2.90915 3.36291 3.14423
# Velocity P-wave (km/s) = 5.34664 5.83783 5.59762
#
# Compressibility (1/GPa) = 0.02659600
#
# Stress axis : x y z
#
# Youngs Moduli (GPa) = 82.71445 41.84842 44.46195
#
# Poissons Ratio (x) = 0.20601 0.04400
# Poissons Ratio (y) = 0.40717 0.44587
# Poissons Ratio (z) = 0.08185 0.41966
#
# Static dielectric constant tensor:
#      x y z
#    x 1.878040 0.000000 0.001390 
#    y 0.000000 1.820310 0.000000 
#    z 0.001390 0.000000 1.979750 
# 
# From -- ./inp_files/122426.got.cif
#   From: 2010.05.17/outbox.cif.g08.bks.cpg/sg15_62_cif.got.tgz:122426.got - 2010.06.03 18:47:42.
