data_PCOD9255829
_publ_section_title
;
Structure prediction by ZEFSAII (Michael W. Deem and Ramdas Pophale) SiO2 
 PCOD9255829
Probable space group: C 2/C
;
_chemical_formula_sum "Si O2"
_cell_formula_units_Z 48
_cell_length_a 11.554645
_cell_length_b 13.724468
_cell_length_c 14.916183
_cell_angle_alpha 90.000000
_cell_angle_beta 108.969124
_cell_angle_gamma 90.000000
_cell_volume 2236.971282
_symmetry_space_group_name_H-M "C 2/C"
_symmetry_group_IT_number 15
_symmetry_cell_setting 'monoclinic'
loop_
_space_group_symop_operation_xyz
x,y,z
-x,y,1/2-z
-x,-y,-z
x,-y,1/2+z
1/2+x,1/2+y,z
1/2-x,1/2+y,1/2-z
1/2-x,1/2-y,-z
1/2+x,1/2-y,1/2+z
loop_
_atom_site_type_symbol
_atom_site_label
_atom_site_fract_x
_atom_site_fract_y
_atom_site_fract_z
Si Si1 0.295294 0.514409 0.458063
Si Si2 0.000000 0.384971 0.250000
Si Si3 0.000000 0.101926 0.750000
Si Si4 0.387028 0.255746 0.574541
Si Si5 0.370449 0.926883 0.743477
Si Si6 0.803136 0.942066 0.644874
Si Si7 0.474981 0.350474 0.437333
O O1 0.207751 0.566235 0.366436
O O2 0.237686 0.482051 0.538374
O O3 0.358158 0.420020 0.428318
O O4 0.406733 0.585518 0.509579
O O5 0.929764 0.323319 0.157074
O O6 0.907364 0.460347 0.274403
O O7 0.020594 0.165349 0.666873
O O8 0.115419 0.028669 0.792982
O O9 0.250000 0.250000 0.500000
O O10 0.393267 0.358930 0.628782
O O11 0.468802 0.262549 0.505731
O O12 0.500000 0.879813 0.750000
O O13 0.287585 0.894775 0.805570
#
# Coordination Sequence:
#
# PCOD9255829 Si02
#       7
#     8   4   4   8   8   8   8
#     4   9  17  33  54  90 113 144 206 252 287 349
#     4  10  23  38  58  91 126 162 200 252 317 358
#     4  10  17  32  64  93 110 144 206 266 295 334
#     4  11  23  38  60  91 125 164 200 257 315 370
#     4  10  22  37  58  84 123 160 202 250 292 371
#     4  10  20  34  63  87 114 157 204 251 295 360
#     4   9  18  31  60  88 120 147 199 255 304 358
#
# _framework density 21.457584000000001
#
# number of rings (size 3 to 8) (size 9 to 14) (size 15 to 20)
#    0.500    1.667    1.667    3.500    2.333    0.667 
#    0.000    0.000    1.833    4.000    0.000    0.000 
#    0.000    0.000    0.000    0.000    0.000    0.000 
#
# Total GULP energy -133851.134830 kJ/mol
# GULP energy per Si atom -5577.130618 kJ/mol
# Density = 2.140875 g / cm^3
# Si number density = 21.457584 Si / 1000 Ang^3
#
#
#
# Elastic Constant Matrix: (Units=GPa)
#
#
# Indices 1 2 3 4 5 6 
#
# 1 68.7322 -8.2214 45.4777 0.0000 -14.2294 0.0000
# 2 -8.2214 42.0584 13.3545 0.0000 -3.5432 0.0000
# 3 45.4777 13.3545 127.6830 0.0000 -10.0094 0.0000
# 4 0.0000 0.0000 0.0000 6.7992 0.0000 -2.2304
# 5 -14.2294 -3.5432 -10.0094 0.0000 37.4056 0.0000
# 6 0.0000 0.0000 0.0000 -2.2304 0.0000 11.8752
#
#
#
# Elastic Compliance Matrix: (Units=1/GPa)
#
#
# Indices 1 2 3 4 5 6 
#
# 1 0.022326 0.007557 -0.008192 0.000000 0.007017 0.000000
# 2 0.007557 0.027254 -0.005224 0.000000 0.004058 0.000000
# 3 -0.008192 -0.005224 0.011249 0.000000 -0.000601 0.000000
# 4 0.000000 0.000000 0.000000 0.156732 0.000000 0.029437
# 5 0.007017 0.004058 -0.000601 0.000000 0.029627 0.000000
# 6 0.000000 0.000000 0.000000 0.029437 0.000000 0.089738
#
#
# Mechanical properties :
#
#
# Convention : Reuss Voigt Hill
#
# Bulk Modulus (GPa) = 20.36228 37.74392 29.05310
# Shear Modulus (GPa) = 13.69805 23.74018 18.71911
#
# Velocity S-wave (km/s) = 2.52935 3.32983 2.95681
# Velocity P-wave (km/s) = 4.24739 5.69315 5.02256
#
# Compressibility (1/GPa) = 0.04911042
#
# Stress axis : x y z
#
# Youngs Moduli (GPa) = 44.78993 36.69155 88.89585
#
# Poissons Ratio (x) = -0.27727 0.72828
# Poissons Ratio (y) = -0.33846 0.46439
# Poissons Ratio (z) = 0.36694 0.19167
#
# Static dielectric constant tensor:
#      x y z
#    x 1.804580 0.000000 -0.016620 
#    y 0.000000 1.805360 0.000000 
#    z -0.016620 0.000000 1.780080 
# 
# From -- ./inp_files/143843.got.cif
#   From: 2010.05.17/outbox.cif.g08.bks.cpg/sg15_72_cif.got.tgz:143843.got - 2010.06.03 18:47:42.
