data_PCOD9255737
_publ_section_title
;
Structure prediction by ZEFSAII (Michael W. Deem and Ramdas Pophale) SiO2 
 PCOD9255737
Probable space group: C 2/C
;
_chemical_formula_sum "Si O2"
_cell_formula_units_Z 48
_cell_length_a 16.086306
_cell_length_b 16.986033
_cell_length_c 23.120477
_cell_angle_alpha 90.000000
_cell_angle_beta 20.449617
_cell_angle_gamma 90.000000
_cell_volume 2207.229920
_symmetry_space_group_name_H-M "C 2/C"
_symmetry_group_IT_number 15
_symmetry_cell_setting 'monoclinic'
loop_
_space_group_symop_operation_xyz
x,y,z
-x,y,1/2-z
-x,-y,-z
x,-y,1/2+z
1/2+x,1/2+y,z
1/2-x,1/2+y,1/2-z
1/2-x,1/2-y,-z
1/2+x,1/2-y,1/2+z
loop_
_atom_site_type_symbol
_atom_site_label
_atom_site_fract_x
_atom_site_fract_y
_atom_site_fract_z
Si Si1 0.766890 0.399615 0.584654
Si Si2 0.585854 0.148425 0.091852
Si Si3 0.500000 0.265660 0.250000
Si Si4 0.216310 0.095385 0.245382
Si Si5 0.754842 0.991704 0.013237
Si Si6 0.400328 0.259146 0.960505
Si Si7 0.000000 0.631945 0.750000
O O1 0.500000 0.362524 0.750000
O O2 0.821655 0.423237 0.613936
O O3 0.738341 0.471635 0.559332
O O4 0.942457 0.328362 0.454863
O O5 0.468431 0.211345 0.212672
O O6 0.389621 0.097313 0.185988
O O7 0.719575 0.083642 0.043834
O O8 0.769628 0.184635 0.923885
O O9 0.987363 0.038966 0.395477
O O10 0.122918 0.185653 0.303337
O O11 0.556327 0.929390 0.162671
O O12 0.225154 0.311915 0.114553
O O13 0.250000 0.250000 0.000000
#
# Coordination Sequence:
#
# PCOD9255737 Si02
#       7
#     8   8   4   8   8   8   4
#     4  10  18  32  54  93 132 171 201 263 329 376
#     4  11  25  51  71  97 132 174 240 273 342 412
#     4  10  27  52  75  88 130 188 218 300 329 386
#     4  10  23  36  66 100 124 175 226 263 335 396
#     4  10  22  39  63  94 142 173 216 281 336 394
#     4  11  16  32  55  91 141 171 208 261 324 401
#     4  10  17  32  55  88 128 188 202 256 341 380
#
# _framework density 21.746714999999998
#
# number of rings (size 3 to 8) (size 9 to 14) (size 15 to 20)
#    0.000    1.667    5.833    0.500    5.833    0.667 
#    0.000    7.500    0.000    0.000    0.000    0.000 
#    0.000    0.000    0.000    0.000    0.000    0.000 
#
# Total GULP energy -133630.605742 kJ/mol
# GULP energy per Si atom -5567.941906 kJ/mol
# Density = 2.169722 g / cm^3
# Si number density = 21.746715 Si / 1000 Ang^3
#
#
#
# Elastic Constant Matrix: (Units=GPa)
#
#
# Indices 1 2 3 4 5 6 
#
# 1 63.5675 2.6159 26.4338 0.0340 -4.6428 0.0014
# 2 2.6159 83.6168 28.8911 -0.0110 -4.8711 0.0106
# 3 26.4338 28.8911 49.8654 -0.0110 11.6630 0.0493
# 4 0.0340 -0.0110 -0.0110 21.8770 0.0071 -4.2020
# 5 -4.6428 -4.8711 11.6630 0.0071 26.1767 0.0040
# 6 0.0014 0.0106 0.0493 -4.2020 0.0040 20.9511
#
#
#
# Elastic Compliance Matrix: (Units=1/GPa)
#
#
# Indices 1 2 3 4 5 6 
#
# 1 0.025500 0.007539 -0.021514 -0.000045 0.015511 0.000033
# 2 0.007539 0.018593 -0.017739 -0.000010 0.012701 0.000027
# 3 -0.021514 -0.017739 0.048450 0.000041 -0.028703 -0.000090
# 4 -0.000045 -0.000010 0.000041 0.047542 -0.000043 0.009535
# 5 0.015511 0.012701 -0.028703 -0.000043 0.056105 0.000041
# 6 0.000033 0.000027 -0.000090 0.009535 0.000041 0.049643
#
#
# Mechanical properties :
#
#
# Convention : Reuss Voigt Hill
#
# Bulk Modulus (GPa) = 34.34666 34.77014 34.55840
# Shear Modulus (GPa) = 15.67573 23.07489 19.37531
#
# Velocity S-wave (km/s) = 2.68774 3.26095 2.98812
# Velocity P-wave (km/s) = 5.04581 5.49561 5.27551
#
# Compressibility (1/GPa) = 0.02911491
#
# Stress axis : x y z
#
# Youngs Moduli (GPa) = 39.21543 53.78492 20.63996
#
# Poissons Ratio (x) = -0.40549 0.44404
# Poissons Ratio (y) = -0.29565 0.36614
# Poissons Ratio (z) = 0.84367 0.95411
#
# Static dielectric constant tensor:
#      x y z
#    x 1.837570 0.000010 0.076740 
#    y 0.000010 1.809500 0.000070 
#    z 0.076740 0.000070 1.934730 
# 
# From -- ./inp_files/168855.got.cif
#   From: 2010.05.17/outbox.cif.g08.bks.cpg/sg15_85_cif.got.tgz:168855.got - 2010.06.03 18:47:42.
