data_PCOD9255334
_publ_section_title
;
Structure prediction by ZEFSAII (Michael W. Deem and Ramdas Pophale) SiO2 
 PCOD9255334
Probable space group: C 2/C
;
_chemical_formula_sum "Si O2"
_cell_formula_units_Z 56
_cell_length_a 20.100707
_cell_length_b 7.822542
_cell_length_c 16.432860
_cell_angle_alpha 90.000000
_cell_angle_beta 98.779965
_cell_angle_gamma 90.000000
_cell_volume 2553.601924
_symmetry_space_group_name_H-M "C 2/C"
_symmetry_group_IT_number 15
_symmetry_cell_setting 'monoclinic'
loop_
_space_group_symop_operation_xyz
x,y,z
-x,y,1/2-z
-x,-y,-z
x,-y,1/2+z
1/2+x,1/2+y,z
1/2-x,1/2+y,1/2-z
1/2-x,1/2-y,-z
1/2+x,1/2-y,1/2+z
loop_
_atom_site_type_symbol
_atom_site_label
_atom_site_fract_x
_atom_site_fract_y
_atom_site_fract_z
Si Si1 0.151568 0.301832 0.542332
Si Si2 0.080282 0.456160 0.692233
Si Si3 0.358355 0.797616 0.644104
Si Si4 0.046984 0.479773 0.430385
Si Si5 0.249099 0.395333 0.069536
Si Si6 0.229645 0.949549 0.149701
Si Si7 0.680805 0.753275 0.219164
O O1 0.114346 0.371379 0.617658
O O2 0.097181 0.322712 0.460000
O O3 0.213809 0.430097 0.537449
O O4 0.183735 0.119182 0.568473
O O5 0.096725 0.322652 0.767256
O O6 0.116350 0.633118 0.725920
O O7 0.005045 0.510688 0.653655
O O8 0.324829 0.615734 0.618661
O O9 0.402024 0.863960 0.576428
O O10 0.294625 0.929388 0.644951
O O11 0.000000 0.500000 0.500000
O O12 0.204159 0.332067 0.136982
O O13 0.250000 0.250000 0.000000
O O14 0.261875 0.790400 0.203508
O O15 0.180943 0.054142 0.200856
#
# Coordination Sequence:
#
# PCOD9255334 Si02
#       7
#     8   8   8   8   8   8   8
#     4  10  19  33  53  82 112 139 172 228 286 325
#     4   9  19  34  55  74 106 146 187 223 258 332
#     4  10  19  33  54  81 103 143 189 224 276 321
#     4  10  20  34  51  75 109 147 187 223 265 326
#     4  10  17  30  50  78 111 135 173 225 273 321
#     4  10  19  33  56  81 109 135 177 232 285 341
#     4   9  18  32  51  79 104 141 178 220 283 326
#
# _framework density 21.929808000000001
#
# number of rings (size 3 to 8) (size 9 to 14) (size 15 to 20)
#    0.000    2.286    1.429    3.857    0.000    0.571 
#    0.000    0.714    0.000    3.429    0.000   18.000 
#    0.000    0.000    0.000    0.000    0.000    0.000 
#
# Total GULP energy -155983.902622 kJ/mol
# GULP energy per Si atom -5570.853665 kJ/mol
# Density = 2.187990 g / cm^3
# Si number density = 21.929808 Si / 1000 Ang^3
#
#
#
# Elastic Constant Matrix: (Units=GPa)
#
#
# Indices 1 2 3 4 5 6 
#
# 1 84.3139 27.2927 25.0494 0.0000 22.8042 0.0000
# 2 27.2927 36.1049 -6.2207 0.0000 17.3998 0.0000
# 3 25.0494 -6.2207 75.9270 0.0000 21.1111 0.0000
# 4 0.0000 0.0000 0.0000 31.6011 0.0000 2.6060
# 5 22.8042 17.3998 21.1111 0.0000 49.7046 0.0000
# 6 0.0000 0.0000 0.0000 2.6060 0.0000 17.2809
#
#
#
# Elastic Compliance Matrix: (Units=1/GPa)
#
#
# Indices 1 2 3 4 5 6 
#
# 1 0.019284 -0.015876 -0.007652 0.000000 -0.000040 0.000000
# 2 -0.015876 0.049772 0.013760 0.000000 -0.015984 0.000000
# 3 -0.007652 0.013760 0.019487 0.000000 -0.009583 0.000000
# 4 0.000000 0.000000 0.000000 0.032043 0.000000 -0.004832
# 5 -0.000040 -0.015984 -0.009583 0.000000 0.029802 0.000000
# 6 0.000000 0.000000 0.000000 -0.004832 0.000000 0.058596
#
#
# Mechanical properties :
#
#
# Convention : Reuss Voigt Hill
#
# Bulk Modulus (GPa) = 14.49148 32.06542 23.27845
# Shear Modulus (GPa) = 19.87892 29.73227 24.80560
#
# Velocity S-wave (km/s) = 3.01405 3.68610 3.36689
# Velocity P-wave (km/s) = 4.32841 5.72451 5.07470
#
# Compressibility (1/GPa) = 0.06900607
#
# Stress axis : x y z
#
# Youngs Moduli (GPa) = 51.85728 20.09158 51.31685
#
# Poissons Ratio (x) = 0.31898 0.39266
# Poissons Ratio (y) = 0.82331 -0.70611
# Poissons Ratio (z) = 0.39680 -0.27646
#
# Static dielectric constant tensor:
#      x y z
#    x 1.835010 0.000000 0.003660 
#    y 0.000000 1.856610 0.000000 
#    z 0.003660 0.000000 1.919830 
# 
# From -- ./inp_files/213462.got.cif
#   From: 2010.05.17/outbox.cif.g08.bks.cpg/sg15_107_cif.got.tgz:213462.got - 2010.06.03 18:47:42.
