data_PCOD9255080
_publ_section_title
;
Structure prediction by ZEFSAII (Michael W. Deem and Ramdas Pophale) SiO2 
 PCOD9255080
Probable space group: C 2/C
;
_chemical_formula_sum "Si O2"
_cell_formula_units_Z 56
_cell_length_a 20.080912
_cell_length_b 12.692556
_cell_length_c 21.978725
_cell_angle_alpha 90.000000
_cell_angle_beta 34.298748
_cell_angle_gamma 90.000000
_cell_volume 3156.713010
_symmetry_space_group_name_H-M "C 2/C"
_symmetry_group_IT_number 15
_symmetry_cell_setting 'monoclinic'
loop_
_space_group_symop_operation_xyz
x,y,z
-x,y,1/2-z
-x,-y,-z
x,-y,1/2+z
1/2+x,1/2+y,z
1/2-x,1/2+y,1/2-z
1/2-x,1/2-y,-z
1/2+x,1/2-y,1/2+z
loop_
_atom_site_type_symbol
_atom_site_label
_atom_site_fract_x
_atom_site_fract_y
_atom_site_fract_z
Si Si1 0.190616 0.052715 0.351028
Si Si2 0.024779 0.899898 0.633287
Si Si3 0.942849 0.692947 0.961514
Si Si4 0.823463 0.822129 0.869567
Si Si5 0.831840 0.638116 0.782174
Si Si6 0.487201 0.596972 0.590551
Si Si7 0.349183 0.784715 0.658411
O O1 0.276525 0.126184 0.247511
O O2 0.097681 0.114839 0.462521
O O3 0.268783 0.973582 0.332733
O O4 0.108945 0.979223 0.369792
O O5 0.037679 0.818381 0.567239
O O6 0.120148 0.858892 0.610118
O O7 0.898045 0.881563 0.760850
O O8 0.033796 0.021546 0.608858
O O9 0.815551 0.661108 0.030756
O O10 0.935031 0.674742 0.039609
O O11 0.046851 0.635657 0.846892
O O12 0.846823 0.699520 0.834520
O O13 0.744691 0.713396 0.808451
O O14 0.420845 0.707196 0.649131
#
# Coordination Sequence:
#
# PCOD9255080 Si02
#       7
#     8   8   8   8   8   8   8
#     4  10  19  32  48  71 102 135 168 203 254 310
#     4  10  18  30  49  73  99 132 170 205 248 301
#     4  10  17  28  45  70 104 132 159 205 258 301
#     4   9  18  30  47  74 101 127 164 210 249 297
#     4   9  18  30  47  71 102 134 163 205 258 307
#     4  10  18  31  51  70  98 138 169 202 252 306
#     4  10  19  30  46  71 102 135 169 205 245 305
#
# _framework density 17.739971000000001
#
# number of rings (size 3 to 8) (size 9 to 14) (size 15 to 20)
#    0.000    2.286    0.000    7.286    0.000    0.571 
#    0.000    1.429    0.000    0.000    0.000   17.000 
#    0.000    0.000    0.000    0.000    0.000    0.000 
#
# Total GULP energy -156106.719136 kJ/mol
# GULP energy per Si atom -5575.239969 kJ/mol
# Density = 1.769959 g / cm^3
# Si number density = 17.739971 Si / 1000 Ang^3
#
#
#
# Elastic Constant Matrix: (Units=GPa)
#
#
# Indices 1 2 3 4 5 6 
#
# 1 57.7985 30.6614 20.8611 0.0000 -1.1981 0.0000
# 2 30.6614 42.5812 26.9142 0.0000 1.0770 0.0000
# 3 20.8611 26.9142 97.7288 0.0000 -6.5767 0.0000
# 4 0.0000 0.0000 0.0000 21.5670 0.0000 -3.2065
# 5 -1.1981 1.0770 -6.5767 0.0000 24.6348 0.0000
# 6 0.0000 0.0000 0.0000 -3.2065 0.0000 29.9329
#
#
#
# Elastic Compliance Matrix: (Units=1/GPa)
#
#
# Indices 1 2 3 4 5 6 
#
# 1 0.028128 -0.020105 -0.000322 0.000000 0.002161 0.000000
# 2 -0.020105 0.043087 -0.007909 0.000000 -0.004973 0.000000
# 3 -0.000322 -0.007909 0.012730 0.000000 0.003729 0.000000
# 4 0.000000 0.000000 0.000000 0.047118 0.000000 0.005047
# 5 0.002161 -0.004973 0.003729 0.000000 0.041911 0.000000
# 6 0.000000 0.000000 0.000000 0.005047 0.000000 0.033949
#
#
# Mechanical properties :
#
#
# Convention : Reuss Voigt Hill
#
# Bulk Modulus (GPa) = 36.66689 39.44242 38.05466
# Shear Modulus (GPa) = 18.33617 23.20506 20.77062
#
# Velocity S-wave (km/s) = 3.21846 3.62064 3.42546
# Velocity P-wave (km/s) = 5.87582 6.30561 6.09450
#
# Compressibility (1/GPa) = 0.02727256
#
# Stress axis : x y z
#
# Youngs Moduli (GPa) = 35.55162 23.20910 78.55406
#
# Poissons Ratio (x) = 0.46663 0.02528
# Poissons Ratio (y) = 0.71478 0.62127
# Poissons Ratio (z) = 0.01144 0.18356
#
# Static dielectric constant tensor:
#      x y z
#    x 1.649310 0.000000 0.013130 
#    y 0.000000 1.611720 0.000000 
#    z 0.013130 0.000000 1.642490 
# 
# From -- ./inp_files/281886.got.cif
#   From: 2010.05.17/outbox.cif.g08.bks.cpg/sg15_141_cif.got.tgz:281886.got - 2010.06.03 18:47:42.
