data_PCOD9255485
_publ_section_title
;
Structure prediction by ZEFSAII (Michael W. Deem and Ramdas Pophale) SiO2 
 PCOD9255485
Probable space group: C 2/C
;
_chemical_formula_sum "Si O2"
_cell_formula_units_Z 44
_cell_length_a 6.670577
_cell_length_b 12.438029
_cell_length_c 27.946640
_cell_angle_alpha 90.000000
_cell_angle_beta 140.164979
_cell_angle_gamma 90.000000
_cell_volume 1485.310961
_symmetry_space_group_name_H-M "C 2/C"
_symmetry_group_IT_number 15
_symmetry_cell_setting 'monoclinic'
loop_
_space_group_symop_operation_xyz
x,y,z
-x,y,1/2-z
-x,-y,-z
x,-y,1/2+z
1/2+x,1/2+y,z
1/2-x,1/2+y,1/2-z
1/2-x,1/2-y,-z
1/2+x,1/2-y,1/2+z
loop_
_atom_site_type_symbol
_atom_site_label
_atom_site_fract_x
_atom_site_fract_y
_atom_site_fract_z
Si Si1 0.360922 0.602878 0.287911
Si Si2 0.000000 0.293416 0.250000
Si Si3 0.574594 0.829995 0.022726
Si Si4 0.634310 0.733630 0.125351
Si Si5 0.575144 0.961906 0.938139
Si Si6 0.018872 0.428871 0.337977
O O1 0.306080 0.710976 0.247071
O O2 0.264456 0.631044 0.324750
O O3 0.732952 0.582645 0.360448
O O4 0.222775 0.502659 0.235077
O O5 0.825004 0.366176 0.178174
O O6 0.241730 0.779553 0.947861
O O7 0.721907 0.873128 0.000492
O O8 0.739829 0.750255 0.090272
O O9 0.489884 0.934186 0.040145
O O10 0.661453 0.840652 0.162502
O O11 0.712616 0.002218 0.912653
#
# Coordination Sequence:
#
# PCOD9255485 Si02
#       6
#     8   4   8   8   8   8
#     4  10  17  31  51  75 110 139 174 228 271 314
#     4  10  20  32  50  72 108 144 174 212 280 314
#     4   8  14  26  45  79 107 133 182 220 254 316
#     4   8  16  27  46  76 107 137 180 218 259 323
#     4   9  15  26  50  77 105 140 177 221 267 313
#     4  10  18  29  49  75 107 144 175 221 274 312
#
# _framework density 29.623428000000001
#
# number of rings (size 3 to 8) (size 9 to 14) (size 15 to 20)
#    0.000    2.909    1.818    0.000    0.000    0.000 
#    0.000    0.000   24.000    0.000    0.000  160.364 
#    0.000    0.000    0.000    0.000    0.000    0.000 
#
# Total GULP energy -123273.513483 kJ/mol
# GULP energy per Si atom -5603.341522 kJ/mol
# Density = 2.955600 g / cm^3
# Si number density = 29.623428 Si / 1000 Ang^3
#
#
#
# Elastic Constant Matrix: (Units=GPa)
#
#
# Indices 1 2 3 4 5 6 
#
# 1 116.5529 37.1340 72.0261 0.0000 -36.2262 0.0000
# 2 37.1340 137.7181 106.6759 0.0000 -15.1860 0.0000
# 3 72.0261 106.6759 230.8016 0.0000 -36.6864 0.0000
# 4 0.0000 0.0000 0.0000 70.8712 0.0000 -24.3990
# 5 -36.2262 -15.1860 -36.6864 0.0000 53.6840 0.0000
# 6 0.0000 0.0000 0.0000 -24.3990 0.0000 57.2289
#
#
#
# Elastic Compliance Matrix: (Units=1/GPa)
#
#
# Indices 1 2 3 4 5 6 
#
# 1 0.012347 -0.000665 -0.002526 0.000000 0.006418 0.000000
# 2 -0.000665 0.011355 -0.005162 0.000000 -0.000765 0.000000
# 3 -0.002526 -0.005162 0.007857 0.000000 0.002205 0.000000
# 4 0.000000 0.000000 0.000000 0.016537 0.000000 0.007051
# 5 0.006418 -0.000765 0.002205 0.000000 0.024249 0.000000
# 6 0.000000 0.000000 0.000000 0.007051 0.000000 0.020480
#
#
# Mechanical properties :
#
#
# Convention : Reuss Voigt Hill
#
# Bulk Modulus (GPa) = 67.32448 101.86052 84.59250
# Shear Modulus (GPa) = 43.67487 54.30593 48.99040
#
# Velocity S-wave (km/s) = 3.84387 4.28624 4.07107
# Velocity P-wave (km/s) = 6.51741 7.67826 7.12152
#
# Compressibility (1/GPa) = 0.01485344
#
# Stress axis : x y z
#
# Youngs Moduli (GPa) = 80.98976 88.06832 127.27079
#
# Poissons Ratio (x) = 0.05859 0.32143
# Poissons Ratio (y) = 0.05388 0.65698
# Poissons Ratio (z) = 0.20454 0.45462
#
# Static dielectric constant tensor:
#      x y z
#    x 2.307530 0.000000 -0.000240 
#    y 0.000000 2.313230 0.000000 
#    z -0.000240 0.000000 2.243820 
# 
# From -- ./inp_files/236315.got.cif
#   From: 2010.05.17/outbox.cif.g08.bks.cpg/sg15_119_cif.got.tgz:236315.got - 2010.06.03 18:47:42.
