data_PCOD9255461
_publ_section_title
;
Structure prediction by ZEFSAII (Michael W. Deem and Ramdas Pophale) SiO2 
 PCOD9255461
Probable space group: C 2/C
;
_chemical_formula_sum "Si O2"
_cell_formula_units_Z 60
_cell_length_a 12.113551
_cell_length_b 27.499359
_cell_length_c 11.441970
_cell_angle_alpha 90.000000
_cell_angle_beta 103.484563
_cell_angle_gamma 90.000000
_cell_volume 3706.418359
_symmetry_space_group_name_H-M "C 2/C"
_symmetry_group_IT_number 15
_symmetry_cell_setting 'monoclinic'
loop_
_space_group_symop_operation_xyz
x,y,z
-x,y,1/2-z
-x,-y,-z
x,-y,1/2+z
1/2+x,1/2+y,z
1/2-x,1/2+y,1/2-z
1/2-x,1/2-y,-z
1/2+x,1/2-y,1/2+z
loop_
_atom_site_type_symbol
_atom_site_label
_atom_site_fract_x
_atom_site_fract_y
_atom_site_fract_z
Si Si1 0.500000 0.321157 0.750000
Si Si2 0.085237 0.967832 0.879920
Si Si3 0.374661 0.563252 0.478470
Si Si4 0.735223 0.765670 0.130880
Si Si5 0.991837 0.240351 0.031051
Si Si6 0.089064 0.159977 0.872199
Si Si7 0.210939 0.108564 0.265079
Si Si8 0.109500 0.691440 0.189536
O O1 0.554612 0.289610 0.869203
O O2 0.398061 0.354876 0.773747
O O3 0.174683 0.927746 0.859420
O O4 0.000000 0.980110 0.750000
O O5 0.999422 0.944996 0.953142
O O6 0.143538 0.015323 0.948594
O O7 0.377715 0.611503 0.554690
O O8 0.289516 0.575178 0.351191
O O9 0.601936 0.765905 0.115186
O O10 0.800596 0.815817 0.158202
O O11 0.800393 0.726458 0.224118
O O12 0.750000 0.750000 0.000000
O O13 0.925428 0.280520 0.938545
O O14 0.034056 0.199663 0.947481
O O15 0.000000 0.149649 0.750000
O O16 0.323515 0.140678 0.309592
O O17 0.000000 0.687668 0.250000
#
# Coordination Sequence:
#
# PCOD9255461 Si02
#       8
#     4   8   8   8   8   8   8   8
#     4  12  20  36  54  74 116 152 178 214 286 334
#     4   9  18  34  50  79 111 135 176 234 291 342
#     4  10  18  30  55  78 108 141 172 228 290 334
#     4  10  17  31  49  73 109 137 178 236 258 304
#     4  11  21  33  50  76 112 146 185 225 260 328
#     4  11  17  28  48  77 107 135 175 228 273 319
#     4  11  20  35  55  79 110 146 182 225 284 341
#     4  12  21  35  55  82 110 153 196 224 264 331
#
# _framework density 16.188134999999999
#
# number of rings (size 3 to 8) (size 9 to 14) (size 15 to 20)
#    0.000    1.333    8.667    1.200    0.000    0.533 
#    0.000    0.000    0.000    0.800    0.000    0.000 
#    0.000    0.000    0.000    0.000    0.000    0.000 
#
# Total GULP energy -167118.564764 kJ/mol
# GULP energy per Si atom -5570.618825 kJ/mol
# Density = 1.615129 g / cm^3
# Si number density = 16.188135 Si / 1000 Ang^3
#
#
#
# Elastic Constant Matrix: (Units=GPa)
#
#
# Indices 1 2 3 4 5 6 
#
# 1 35.2854 30.7603 23.0843 0.0000 8.1887 0.0000
# 2 30.7603 103.5970 25.5193 0.0000 -2.6734 0.0000
# 3 23.0843 25.5193 49.2632 0.0000 -0.1649 0.0000
# 4 0.0000 0.0000 0.0000 28.6966 0.0000 -5.2528
# 5 8.1887 -2.6734 -0.1649 0.0000 18.9234 0.0000
# 6 0.0000 0.0000 0.0000 -5.2528 0.0000 24.6741
#
#
#
# Elastic Compliance Matrix: (Units=1/GPa)
#
#
# Indices 1 2 3 4 5 6 
#
# 1 0.060812 -0.013465 -0.021616 0.000000 -0.028406 0.000000
# 2 -0.013465 0.014090 -0.000963 0.000000 0.007809 0.000000
# 3 -0.021616 -0.000963 0.030959 0.000000 0.009488 0.000000
# 4 0.000000 0.000000 0.000000 0.036260 0.000000 0.007719
# 5 -0.028406 0.007809 0.009488 0.000000 0.066323 0.000000
# 6 0.000000 0.000000 0.000000 0.007719 0.000000 0.042172
#
#
# Mechanical properties :
#
#
# Convention : Reuss Voigt Hill
#
# Bulk Modulus (GPa) = 29.60972 38.54149 34.07560
# Shear Modulus (GPa) = 14.97183 21.71093 18.34138
#
# Velocity S-wave (km/s) = 3.04446 3.66616 3.36968
# Velocity P-wave (km/s) = 5.53977 6.46383 6.01956
#
# Compressibility (1/GPa) = 0.03377270
#
# Stress axis : x y z
#
# Youngs Moduli (GPa) = 16.44407 70.97468 32.30093
#
# Poissons Ratio (x) = 0.95566 0.69822
# Poissons Ratio (y) = 0.22142 0.03111
# Poissons Ratio (z) = 0.35546 0.06835
#
# Static dielectric constant tensor:
#      x y z
#    x 1.406730 0.000000 -0.015930 
#    y 0.000000 1.558900 0.000000 
#    z -0.015930 0.000000 1.562630 
# 
# From -- ./inp_files/90872.got.cif
#   From: 2010.05.17/outbox.cif.g08.bks.cpg/sg15_46_cif.got.tgz:90872.got - 2010.06.03 18:47:42.
