data_PCOD9255423
_publ_section_title
;
Structure prediction by ZEFSAII (Michael W. Deem and Ramdas Pophale) SiO2 
 PCOD9255423
Probable space group: C 2/C
;
_chemical_formula_sum "Si O2"
_cell_formula_units_Z 64
_cell_length_a 15.669033
_cell_length_b 16.654978
_cell_length_c 11.815604
_cell_angle_alpha 90.000000
_cell_angle_beta 97.002520
_cell_angle_gamma 90.000000
_cell_volume 3060.487075
_symmetry_space_group_name_H-M "C 2/C"
_symmetry_group_IT_number 15
_symmetry_cell_setting 'monoclinic'
loop_
_space_group_symop_operation_xyz
x,y,z
-x,y,1/2-z
-x,-y,-z
x,-y,1/2+z
1/2+x,1/2+y,z
1/2-x,1/2+y,1/2-z
1/2-x,1/2-y,-z
1/2+x,1/2-y,1/2+z
loop_
_atom_site_type_symbol
_atom_site_label
_atom_site_fract_x
_atom_site_fract_y
_atom_site_fract_z
Si Si1 0.925476 0.394391 0.471131
Si Si2 0.300007 0.821750 0.072655
Si Si3 0.422405 0.490159 0.145703
Si Si4 0.398357 0.183881 0.203731
Si Si5 0.462998 0.616934 0.984740
Si Si6 0.169738 0.856221 0.239483
Si Si7 0.507728 0.759257 0.370277
Si Si8 0.121123 0.431898 0.588346
O O1 0.886056 0.354759 0.577677
O O2 0.877468 0.471909 0.414664
O O3 0.940731 0.330687 0.374320
O O4 0.023322 0.414709 0.528445
O O5 0.256979 0.846635 0.183364
O O6 0.396052 0.791012 0.106195
O O7 0.250000 0.750000 0.000000
O O8 0.311110 0.896345 0.989532
O O9 0.500000 0.498372 0.250000
O O10 0.412112 0.575341 0.080932
O O11 0.346681 0.436299 0.188151
O O12 0.460493 0.436747 0.050231
O O13 0.500000 0.196512 0.250000
O O14 0.352730 0.270712 0.206092
O O15 0.368647 0.118444 0.293811
O O16 0.504481 0.699210 0.030067
O O17 0.399662 0.634050 0.872274
O O18 0.500000 0.716356 0.250000
#
# Coordination Sequence:
#
# PCOD9255423 Si02
#       8
#     8   8   8   8   8   8   8   8
#     4   9  19  33  52  81 113 145 195 249 293 343
#     4  11  20  37  58  86 116 156 199 247 296 373
#     4   9  19  32  55  84 115 149 194 261 309 357
#     4  10  17  30  56  82 108 151 202 248 290 360
#     4  10  18  34  56  84 113 147 201 255 303 362
#     4  11  19  34  57  84 114 153 207 246 299 372
#     4  11  22  36  58  83 117 158 198 244 302 365
#     4   9  18  32  51  80 111 146 193 247 293 344
#
# _framework density 20.911705000000001
#
# number of rings (size 3 to 8) (size 9 to 14) (size 15 to 20)
#    0.000    2.000    2.500    3.750    0.000    3.500 
#    0.000    3.750    0.000    3.000    0.000    0.000 
#    0.000    0.000    0.000    0.000    0.000    0.000 
#
# Total GULP energy -178441.459866 kJ/mol
# GULP energy per Si atom -5576.295621 kJ/mol
# Density = 2.086411 g / cm^3
# Si number density = 20.911705 Si / 1000 Ang^3
#
#
#
# Elastic Constant Matrix: (Units=GPa)
#
#
# Indices 1 2 3 4 5 6 
#
# 1 39.0344 28.5526 18.6140 0.0000 -22.6806 0.0000
# 2 28.5526 99.5586 21.4235 0.0000 -16.0021 0.0000
# 3 18.6140 21.4235 58.9665 0.0000 -19.8473 0.0000
# 4 0.0000 0.0000 0.0000 35.4233 0.0000 -18.1353
# 5 -22.6806 -16.0021 -19.8473 0.0000 28.8718 0.0000
# 6 0.0000 0.0000 0.0000 -18.1353 0.0000 13.4460
#
#
#
# Elastic Compliance Matrix: (Units=1/GPa)
#
#
# Indices 1 2 3 4 5 6 
#
# 1 0.054440 -0.009426 -0.001463 0.000000 0.036536 0.000000
# 2 -0.009426 0.012958 -0.002351 0.000000 -0.001839 0.000000
# 3 -0.001463 -0.002351 0.022702 0.000000 0.013154 0.000000
# 4 0.000000 0.000000 0.000000 0.091215 0.000000 0.123026
# 5 0.036536 -0.001839 0.013154 0.000000 0.071360 0.000000
# 6 0.000000 0.000000 0.000000 0.123026 0.000000 0.240304
#
#
# Mechanical properties :
#
#
# Convention : Reuss Voigt Hill
#
# Bulk Modulus (GPa) = 15.71839 37.19329 26.45584
# Shear Modulus (GPa) = 9.24787 24.14616 16.69701
#
# Velocity S-wave (km/s) = 2.10522 3.40173 2.82876
# Velocity P-wave (km/s) = 3.66635 5.76659 4.83196
#
# Compressibility (1/GPa) = 0.06361976
#
# Stress axis : x y z
#
# Youngs Moduli (GPa) = 18.36898 77.17276 44.04845
#
# Poissons Ratio (x) = 0.72740 0.06444
# Poissons Ratio (y) = 0.17314 0.10358
# Poissons Ratio (z) = 0.02687 0.18146
#
# Static dielectric constant tensor:
#      x y z
#    x 1.756830 0.000000 -0.006870 
#    y 0.000000 1.838510 0.000000 
#    z -0.006870 0.000000 1.764850 
# 
# From -- ./inp_files/98793.got.cif
#   From: 2010.05.17/outbox.cif.g08.bks.cpg/sg15_50_cif.got.tgz:98793.got - 2010.06.03 18:47:42.
