data_PCOD9255008
_publ_section_title
;
Structure prediction by ZEFSAII (Michael W. Deem and Ramdas Pophale) SiO2 
 PCOD9255008
Probable space group: C 2/C
;
_chemical_formula_sum "Si O2"
_cell_formula_units_Z 64
_cell_length_a 7.407857
_cell_length_b 22.193050
_cell_length_c 18.181229
_cell_angle_alpha 90.000000
_cell_angle_beta 46.162007
_cell_angle_gamma 90.000000
_cell_volume 2156.003282
_symmetry_space_group_name_H-M "C 2/C"
_symmetry_group_IT_number 15
_symmetry_cell_setting 'monoclinic'
loop_
_space_group_symop_operation_xyz
x,y,z
-x,y,1/2-z
-x,-y,-z
x,-y,1/2+z
1/2+x,1/2+y,z
1/2-x,1/2+y,1/2-z
1/2-x,1/2-y,-z
1/2+x,1/2-y,1/2+z
loop_
_atom_site_type_symbol
_atom_site_label
_atom_site_fract_x
_atom_site_fract_y
_atom_site_fract_z
Si Si1 0.664182 0.337502 0.775429
Si Si2 0.098617 0.088822 0.803352
Si Si3 0.634749 0.536737 0.289181
Si Si4 0.545792 0.221455 0.999045
Si Si5 0.142174 0.598739 0.044269
Si Si6 0.589793 0.346290 0.504238
Si Si7 0.735985 0.470828 0.475268
Si Si8 0.353666 0.785840 0.211308
O O1 0.500000 0.343807 0.750000
O O2 0.796804 0.402085 0.745689
O O3 0.460076 0.330334 0.897678
O O4 0.811638 0.275631 0.738895
O O5 0.227918 0.152103 0.768640
O O6 0.000000 0.082676 0.750000
O O7 0.854972 0.089404 0.921989
O O8 0.248307 0.027544 0.778635
O O9 0.500000 0.534033 0.250000
O O10 0.393713 0.544358 0.410661
O O11 0.493267 0.155892 0.051840
O O12 0.365010 0.281134 0.045091
O O13 0.600335 0.208731 0.894357
O O14 0.750000 0.250000 0.000000
O O15 0.070856 0.527061 0.075727
O O16 0.319312 0.626650 0.057598
O O17 0.780237 0.401920 0.434316
O O18 0.500000 0.500000 0.500000
O O19 0.500000 0.775323 0.250000
#
# Coordination Sequence:
#
# PCOD9255008 Si02
#       8
#     8   8   8   8   8   8   8   8
#     4   8  14  26  42  60  86 118 150 186 228 275
#     4  10  17  27  44  68  93 117 148 192 237 280
#     4   8  14  23  39  62  85 111 143 187 229 265
#     4   9  16  27  44  65  92 125 158 195 235 290
#     4   9  15  24  40  64  91 115 150 196 233 274
#     4   8  14  23  38  61  89 117 147 188 236 275
#     4   8  13  21  34  57  89 112 141 185 233 267
#     4  10  19  30  46  68  95 125 156 192 242 291
#
# _framework density 29.684553999999999
#
# number of rings (size 3 to 8) (size 9 to 14) (size 15 to 20)
#    0.000    3.250    1.250    0.000    0.000    0.000 
#    0.000    0.000    0.000   12.750    0.000    0.000 
#    0.000   91.000    0.000    1.500    0.000    0.125 
#
# Total GULP energy -178294.788620 kJ/mol
# GULP energy per Si atom -5571.712144 kJ/mol
# Density = 2.961699 g / cm^3
# Si number density = 29.684554 Si / 1000 Ang^3
#
#
#
# Elastic Constant Matrix: (Units=GPa)
#
#
# Indices 1 2 3 4 5 6 
#
# 1 116.5873 36.6260 28.6858 0.0000 31.2371 0.0000
# 2 36.6260 375.6962 -3.8627 0.0000 -13.8361 0.0000
# 3 28.6858 -3.8627 79.0909 0.0000 14.1183 0.0000
# 4 0.0000 0.0000 0.0000 47.5075 0.0000 8.4917
# 5 31.2371 -13.8361 14.1183 0.0000 36.1054 -0.0001
# 6 0.0000 0.0000 0.0000 8.4917 -0.0001 20.5570
#
#
#
# Elastic Compliance Matrix: (Units=1/GPa)
#
#
# Indices 1 2 3 4 5 6 
#
# 1 0.012565 -0.001637 -0.002779 0.000000 -0.010411 0.000000
# 2 -0.001637 0.002913 0.000305 0.000000 0.002413 0.000000
# 3 -0.002779 0.000305 0.014208 0.000000 -0.003035 0.000000
# 4 0.000000 0.000000 0.000000 0.022727 0.000000 -0.009388
# 5 -0.010411 0.002413 -0.003035 0.000000 0.038816 0.000000
# 6 0.000000 0.000000 0.000000 -0.009388 0.000000 0.052523
#
#
# Mechanical properties :
#
#
# Convention : Reuss Voigt Hill
#
# Bulk Modulus (GPa) = 46.58643 77.14141 61.86392
# Shear Modulus (GPa) = 31.42118 54.82898 43.12508
#
# Velocity S-wave (km/s) = 3.25699 4.30240 3.81567
# Velocity P-wave (km/s) = 5.46552 7.12210 6.34808
#
# Compressibility (1/GPa) = 0.02146548
#
# Stress axis : x y z
#
# Youngs Moduli (GPa) = 79.58861 343.25135 70.38229
#
# Poissons Ratio (x) = 0.56187 0.19556
# Poissons Ratio (y) = 0.13028 -0.02148
# Poissons Ratio (z) = 0.22114 -0.10476
#
# Static dielectric constant tensor:
#      x y z
#    x 2.314670 0.000000 -0.064160 
#    y 0.000000 2.538310 0.000000 
#    z -0.064160 0.000000 2.474270 
# 
# From -- ./inp_files/233488.got.cif
#   From: 2010.05.17/outbox.cif.g08.bks.cpg/sg15_117_cif.got.tgz:233488.got - 2010.06.03 18:47:42.
