data_PCOD9255150
_publ_section_title
;
Structure prediction by ZEFSAII (Michael W. Deem and Ramdas Pophale) SiO2 
 PCOD9255150
Probable space group: C 2/C
;
_chemical_formula_sum "Si O2"
_cell_formula_units_Z 60
_cell_length_a 7.021575
_cell_length_b 21.982204
_cell_length_c 19.433447
_cell_angle_alpha 90.000000
_cell_angle_beta 50.544899
_cell_angle_gamma 90.000000
_cell_volume 2316.018318
_symmetry_space_group_name_H-M "C 2/C"
_symmetry_group_IT_number 15
_symmetry_cell_setting 'monoclinic'
loop_
_space_group_symop_operation_xyz
x,y,z
-x,y,1/2-z
-x,-y,-z
x,-y,1/2+z
1/2+x,1/2+y,z
1/2-x,1/2+y,1/2-z
1/2-x,1/2-y,-z
1/2+x,1/2-y,1/2+z
loop_
_atom_site_type_symbol
_atom_site_label
_atom_site_fract_x
_atom_site_fract_y
_atom_site_fract_z
Si Si1 0.504675 0.039174 0.928159
Si Si2 0.103112 0.753964 0.864829
Si Si3 0.270801 0.518441 0.247998
Si Si4 0.266883 0.150278 0.224341
Si Si5 0.509509 0.594003 0.862191
Si Si6 0.734350 0.160914 0.514963
Si Si7 0.500000 0.327967 0.250000
Si Si8 0.662644 0.179632 0.018770
O O1 0.755504 0.077367 0.880535
O O2 0.546812 0.000593 0.849835
O O3 0.288864 0.088936 0.969700
O O4 0.500000 0.000000 0.000000
O O5 0.233795 0.788434 0.773576
O O6 0.321078 0.710754 0.839041
O O7 0.988868 0.807503 0.936492
O O8 0.885188 0.705513 0.900443
O O9 0.500000 0.518526 0.250000
O O10 0.230131 0.587272 0.234218
O O11 0.341900 0.469553 0.172869
O O12 0.000000 0.146199 0.250000
O O13 0.502580 0.157371 0.121239
O O14 0.649783 0.634513 0.773089
O O15 0.396036 0.633867 0.950236
O O16 0.553243 0.173050 0.490393
O O17 0.750000 0.250000 0.000000
#
# Coordination Sequence:
#
# PCOD9255150 Si02
#       8
#     8   8   8   8   8   8   4   8
#     4  10  17  28  53  80 115 137 172 238 293 338
#     4  11  22  35  55  76 118 150 188 230 274 350
#     4   9  17  30  50  80 113 141 179 234 297 342
#     4  11  22  35  52  86 121 147 183 238 299 342
#     4  10  18  32  52  78 111 141 184 230 284 346
#     4  10  21  37  53  84 115 147 189 228 285 346
#     4  12  18  36  56  82 104 146 194 224 272 340
#     4  11  21  36  55  84 122 149 187 234 291 352
#
# _framework density 25.906531000000001
#
# number of rings (size 3 to 8) (size 9 to 14) (size 15 to 20)
#    0.000    1.600    6.000    2.400    3.733    0.000 
#    0.000    0.000    0.000    0.000    0.000    7.467 
#    0.000    0.000    0.000    0.000    0.000    0.000 
#
# Total GULP energy -167368.829159 kJ/mol
# GULP energy per Si atom -5578.960972 kJ/mol
# Density = 2.584757 g / cm^3
# Si number density = 25.906531 Si / 1000 Ang^3
#
#
#
# Elastic Constant Matrix: (Units=GPa)
#
#
# Indices 1 2 3 4 5 6 
#
# 1 63.5799 12.6040 5.1277 0.0000 -11.5869 0.0000
# 2 12.6040 158.0241 69.2011 0.0000 -1.2624 0.0000
# 3 5.1277 69.2011 167.5688 0.0000 -2.1845 0.0000
# 4 0.0000 0.0000 0.0000 90.4430 0.0000 5.2236
# 5 -11.5869 -1.2624 -2.1845 0.0000 19.6665 0.0000
# 6 0.0000 0.0000 0.0000 5.2236 0.0000 23.8702
#
#
#
# Elastic Compliance Matrix: (Units=1/GPa)
#
#
# Indices 1 2 3 4 5 6 
#
# 1 0.017905 -0.001421 0.000176 0.000000 0.010478 0.000000
# 2 -0.001421 0.007838 -0.003203 0.000000 -0.000690 0.000000
# 3 0.000176 -0.003203 0.007294 0.000000 0.000708 0.000000
# 4 0.000000 0.000000 0.000000 0.011198 0.000000 -0.002451
# 5 0.010478 -0.000690 0.000708 0.000000 0.057055 0.000000
# 6 0.000000 0.000000 0.000000 -0.002451 0.000000 0.042430
#
#
# Mechanical properties :
#
#
# Convention : Reuss Voigt Hill
#
# Bulk Modulus (GPa) = 41.42267 62.55983 51.99125
# Shear Modulus (GPa) = 31.12075 46.94527 39.03301
#
# Velocity S-wave (km/s) = 3.46970 4.26150 3.88582
# Velocity P-wave (km/s) = 5.66354 6.95805 6.34390
#
# Compressibility (1/GPa) = 0.02414137
#
# Stress axis : x y z
#
# Youngs Moduli (GPa) = 55.84938 127.57619 137.09676
#
# Poissons Ratio (x) = 0.18133 -0.02408
# Poissons Ratio (y) = 0.07938 0.43906
# Poissons Ratio (z) = -0.00981 0.40857
#
# Static dielectric constant tensor:
#      x y z
#    x 1.746500 0.000000 0.212140 
#    y 0.000000 2.146470 0.000000 
#    z 0.212140 0.000000 2.020250 
# 
# From -- ./inp_files/311734.got.cif
#   From: 2010.05.17/outbox.cif.g08.bks.cpg/sg15_156_cif.got.tgz:311734.got - 2010.06.03 18:47:42.
