data_PCOD9255778
_publ_section_title
;
Structure prediction by ZEFSAII (Michael W. Deem and Ramdas Pophale) SiO2 
 PCOD9255778
Probable space group: C 2/C
;
_chemical_formula_sum "Si O2"
_cell_formula_units_Z 64
_cell_length_a 12.427220
_cell_length_b 18.978650
_cell_length_c 19.703573
_cell_angle_alpha 90.000000
_cell_angle_beta 130.782497
_cell_angle_gamma 90.000000
_cell_volume 3518.777581
_symmetry_space_group_name_H-M "C 2/C"
_symmetry_group_IT_number 15
_symmetry_cell_setting 'monoclinic'
loop_
_space_group_symop_operation_xyz
x,y,z
-x,y,1/2-z
-x,-y,-z
x,-y,1/2+z
1/2+x,1/2+y,z
1/2-x,1/2+y,1/2-z
1/2-x,1/2-y,-z
1/2+x,1/2-y,1/2+z
loop_
_atom_site_type_symbol
_atom_site_label
_atom_site_fract_x
_atom_site_fract_y
_atom_site_fract_z
Si Si1 0.020683 0.420898 0.683904
Si Si2 0.403823 0.527614 0.646691
Si Si3 0.250226 0.797442 0.735194
Si Si4 0.874324 0.472473 0.903042
Si Si5 0.460108 0.366661 0.653843
Si Si6 0.637063 0.760960 0.058860
Si Si7 0.819602 0.691577 0.414555
Si Si8 0.768659 0.137136 0.498972
O O1 0.867968 0.401063 0.589883
O O2 0.000000 0.449439 0.750000
O O3 0.121032 0.351110 0.728999
O O4 0.094570 0.475329 0.663501
O O5 0.500000 0.548946 0.750000
O O6 0.256854 0.515438 0.624752
O O7 0.440530 0.449872 0.632024
O O8 0.380541 0.583484 0.577904
O O9 0.226544 0.741552 0.665546
O O10 0.277430 0.773330 0.824366
O O11 0.098410 0.837851 0.673161
O O12 0.850246 0.389859 0.907415
O O13 0.000000 0.500000 0.000000
O O14 0.500000 0.364697 0.750000
O O15 0.316691 0.318769 0.591714
O O16 0.702984 0.817552 0.033973
O O17 0.469218 0.776468 0.000802
O O18 0.661821 0.687622 0.028786
#
# Coordination Sequence:
#
# PCOD9255778 Si02
#       8
#     8   8   8   8   8   8   8   8
#     4  11  19  34  53  80 109 144 188 220 279 327
#     4  10  19  35  56  81 107 136 180 232 278 320
#     4  10  19  33  54  76 102 146 180 223 271 319
#     4  10  17  32  58  78 104 138 185 229 264 327
#     4   8  17  34  57  77 100 132 182 230 264 318
#     4  11  21  33  51  77 114 142 181 216 267 334
#     4   9  18  33  52  79 104 136 182 224 267 319
#     4  11  22  34  51  82 111 144 178 223 274 332
#
# _framework density 18.188134999999999
#
# number of rings (size 3 to 8) (size 9 to 14) (size 15 to 20)
#    0.000    2.000    5.000    2.250    0.000    1.500 
#    0.000    0.625    0.000    0.000    0.000    3.500 
#    0.000    0.000    0.000    0.000    0.000    0.000 
#
# Total GULP energy -178248.630385 kJ/mol
# GULP energy per Si atom -5570.269700 kJ/mol
# Density = 1.814674 g / cm^3
# Si number density = 18.188135 Si / 1000 Ang^3
#
#
#
# Elastic Constant Matrix: (Units=GPa)
#
#
# Indices 1 2 3 4 5 6 
#
# 1 26.0219 -6.1764 -2.2189 0.0000 7.4823 0.0000
# 2 -6.1764 15.5807 6.7588 0.0000 -2.2439 0.0000
# 3 -2.2189 6.7588 86.1582 0.0000 6.4898 0.0000
# 4 0.0000 0.0000 0.0000 30.8045 0.0000 3.0811
# 5 7.4823 -2.2439 6.4898 0.0000 34.7838 0.0000
# 6 0.0000 0.0000 0.0000 3.0811 0.0000 13.8007
#
#
#
# Elastic Compliance Matrix: (Units=1/GPa)
#
#
# Indices 1 2 3 4 5 6 
#
# 1 0.044842 0.016293 0.000532 0.000000 -0.008694 0.000000
# 2 0.016293 0.073353 -0.005504 0.000000 0.002254 0.000000
# 3 0.000532 -0.005504 0.012260 0.000000 -0.002757 0.000000
# 4 0.000000 0.000000 0.000000 0.033204 0.000000 -0.007413
# 5 -0.008694 0.002254 -0.002757 0.000000 0.031279 0.000000
# 6 0.000000 0.000000 0.000000 -0.007413 0.000000 0.074115
#
#
# Mechanical properties :
#
#
# Convention : Reuss Voigt Hill
#
# Bulk Modulus (GPa) = 6.53190 13.83198 10.18194
# Shear Modulus (GPa) = 16.80989 24.50430 20.65709
#
# Velocity S-wave (km/s) = 3.04340 3.67450 3.37374
# Velocity P-wave (km/s) = 3.99360 5.06202 4.55921
#
# Compressibility (1/GPa) = 0.15309479
#
# Stress axis : x y z
#
# Youngs Moduli (GPa) = 22.30075 13.63265 81.56806
#
# Poissons Ratio (x) = -0.22212 -0.04336
# Poissons Ratio (y) = -0.36335 0.44899
# Poissons Ratio (z) = -0.01185 0.07504
#
# Static dielectric constant tensor:
#      x y z
#    x 1.692270 0.000000 0.045870 
#    y 0.000000 1.636960 0.000000 
#    z 0.045870 0.000000 1.694830 
# 
# From -- ./inp_files/240263.got.cif
#   From: 2010.05.17/outbox.cif.g08.bks.cpg/sg15_121_cif.got.tgz:240263.got - 2010.06.03 18:47:42.
