data_PCOD9255777
_publ_section_title
;
Structure prediction by ZEFSAII (Michael W. Deem and Ramdas Pophale) SiO2 
 PCOD9255777
Probable space group: C 2/C
;
_chemical_formula_sum "Si O2"
_cell_formula_units_Z 60
_cell_length_a 17.519005
_cell_length_b 5.656782
_cell_length_c 29.263523
_cell_angle_alpha 90.000000
_cell_angle_beta 117.045805
_cell_angle_gamma 90.000000
_cell_volume 2582.910109
_symmetry_space_group_name_H-M "C 2/C"
_symmetry_group_IT_number 15
_symmetry_cell_setting 'monoclinic'
loop_
_space_group_symop_operation_xyz
x,y,z
-x,y,1/2-z
-x,-y,-z
x,-y,1/2+z
1/2+x,1/2+y,z
1/2-x,1/2+y,1/2-z
1/2-x,1/2-y,-z
1/2+x,1/2-y,1/2+z
loop_
_atom_site_type_symbol
_atom_site_label
_atom_site_fract_x
_atom_site_fract_y
_atom_site_fract_z
Si Si1 0.000000 0.959460 0.750000
Si Si2 0.840530 0.164073 0.154764
Si Si3 0.639676 0.847457 0.884997
Si Si4 0.572482 0.988433 0.457519
Si Si5 0.312169 0.024043 0.336458
Si Si6 0.575486 0.358305 0.612577
Si Si7 0.086710 0.241866 0.551028
Si Si8 0.946349 0.241068 0.815082
O O1 0.938463 0.824122 0.698698
O O2 0.939334 0.122649 0.764330
O O3 0.830591 0.917043 0.122646
O O4 0.781790 0.120769 0.183215
O O5 0.818402 0.413605 0.124585
O O6 0.634651 0.888714 0.938259
O O7 0.540050 0.855097 0.842076
O O8 0.503079 0.824350 0.411935
O O9 0.612541 0.825659 0.507984
O O10 0.511167 0.176983 0.465942
O O11 0.334194 0.749913 0.347173
O O12 0.357226 0.127766 0.394978
O O13 0.365573 0.103135 0.307029
O O14 0.589043 0.470964 0.566479
O O15 0.550188 0.550940 0.642922
#
# Coordination Sequence:
#
# PCOD9255777 Si02
#       8
#     4   8   8   8   8   8   8   8
#     4  10  24  46  64 100 118 162 212 268 312 392
#     4  11  27  44  66  92 131 171 209 264 327 386
#     4  11  22  42  66  93 131 170 211 260 325 374
#     4  10  17  32  57  97 119 168 215 266 299 371
#     4  10  22  41  62  90 127 175 205 260 326 380
#     4  10  17  35  62  88 126 166 210 260 316 367
#     4   9  19  31  60  91 128 158 223 257 307 368
#     4  10  21  41  66  91 126 163 212 266 318 384
#
# _framework density 23.229610000000001
#
# number of rings (size 3 to 8) (size 9 to 14) (size 15 to 20)
#    0.000    1.867    4.000    2.000    3.733    2.133 
#    2.400    1.333    0.000    0.000    0.000    0.000 
#    0.000    0.000    0.000    0.000    0.000    0.000 
#
# Total GULP energy -167339.782797 kJ/mol
# GULP energy per Si atom -5577.992760 kJ/mol
# Density = 2.317674 g / cm^3
# Si number density = 23.229610 Si / 1000 Ang^3
#
#
#
# Elastic Constant Matrix: (Units=GPa)
#
#
# Indices 1 2 3 4 5 6 
#
# 1 66.7035 19.1185 -6.6383 0.0001 -7.9218 0.0000
# 2 19.1185 99.6845 10.0826 0.0001 -7.9742 -0.0002
# 3 -6.6383 10.0826 49.1464 0.0001 -14.8752 -0.0001
# 4 0.0001 0.0001 0.0001 27.1692 -0.0001 -5.3521
# 5 -7.9218 -7.9742 -14.8752 -0.0001 20.1140 0.0001
# 6 0.0000 -0.0002 -0.0001 -5.3521 0.0001 23.9953
#
#
#
# Elastic Compliance Matrix: (Units=1/GPa)
#
#
# Indices 1 2 3 4 5 6 
#
# 1 0.017744 -0.003205 0.006165 0.000000 0.010277 0.000000
# 2 -0.003205 0.010988 -0.002256 0.000000 0.001426 0.000000
# 3 0.006165 -0.002256 0.028483 0.000000 0.022598 0.000000
# 4 0.000000 0.000000 0.000000 0.038498 0.000000 0.008587
# 5 0.010277 0.001426 0.022598 0.000000 0.071042 0.000000
# 6 0.000000 0.000000 0.000000 0.008587 0.000000 0.043590
#
#
# Mechanical properties :
#
#
# Convention : Reuss Voigt Hill
#
# Bulk Modulus (GPa) = 17.05768 28.96224 23.00996
# Shear Modulus (GPa) = 21.88399 27.12046 24.50222
#
# Velocity S-wave (km/s) = 3.07265 3.42057 3.25127
# Velocity P-wave (km/s) = 4.46624 5.30050 4.90115
#
# Compressibility (1/GPa) = 0.05862463
#
# Stress axis : x y z
#
# Youngs Moduli (GPa) = 56.35620 91.00436 35.10923
#
# Poissons Ratio (x) = 0.29163 -0.21644
# Poissons Ratio (y) = 0.18060 0.07919
# Poissons Ratio (z) = -0.34743 0.20526
#
# Static dielectric constant tensor:
#      x y z
#    x 1.919960 0.000000 0.019870 
#    y 0.000000 1.973980 0.000000 
#    z 0.019870 0.000000 1.895550 
# 
# From -- ./inp_files/314886.got.cif
#   From: 2010.05.17/outbox.cif.g08.bks.cpg/sg15_158_cif.got.tgz:314886.got - 2010.06.03 18:47:42.
