data_PCOD9255450
_publ_section_title
;
Structure prediction by ZEFSAII (Michael W. Deem and Ramdas Pophale) SiO2 
 PCOD9255450
Probable space group: C 2/C
;
_chemical_formula_sum "Si O2"
_cell_formula_units_Z 44
_cell_length_a 17.370559
_cell_length_b 16.542909
_cell_length_c 9.019741
_cell_angle_alpha 90.000000
_cell_angle_beta 105.140245
_cell_angle_gamma 90.000000
_cell_volume 2501.942274
_symmetry_space_group_name_H-M "C 2/C"
_symmetry_group_IT_number 15
_symmetry_cell_setting 'monoclinic'
loop_
_space_group_symop_operation_xyz
x,y,z
-x,y,1/2-z
-x,-y,-z
x,-y,1/2+z
1/2+x,1/2+y,z
1/2-x,1/2+y,1/2-z
1/2-x,1/2-y,-z
1/2+x,1/2-y,1/2+z
loop_
_atom_site_type_symbol
_atom_site_label
_atom_site_fract_x
_atom_site_fract_y
_atom_site_fract_z
Si Si1 0.377709 0.724366 0.573275
Si Si2 0.255322 0.486349 0.764342
Si Si3 0.640678 0.579009 0.436401
Si Si4 0.500000 0.468982 0.250000
Si Si5 0.550323 0.680779 0.586183
Si Si6 0.278115 0.116727 0.995212
O O1 0.459120 0.709544 0.522312
O O2 0.406748 0.729297 0.759758
O O3 0.333053 0.805332 0.503241
O O4 0.313105 0.651304 0.535135
O O5 0.304723 0.426314 0.681982
O O6 0.217991 0.553541 0.637533
O O7 0.310254 0.536358 0.906980
O O8 0.201751 0.431501 0.844323
O O9 0.565696 0.523756 0.357770
O O10 0.606157 0.664883 0.473660
O O11 0.460892 0.408493 0.348078
#
# Coordination Sequence:
#
# PCOD9255450 Si02
#       6
#     8   8   8   4   8   8
#     4   9  19  33  52  71 105 138 172 198 258 311
#     4  10  19  31  51  77 104 132 173 206 252 296
#     4  11  18  28  45  79 105 131 159 208 255 311
#     4  10  18  24  44  72 108 126 154 196 250 306
#     4  10  17  31  48  73  98 135 169 205 244 311
#     4  10  19  35  52  75 100 141 171 209 249 308
#
# _framework density 17.586335999999999
#
# number of rings (size 3 to 8) (size 9 to 14) (size 15 to 20)
#    0.000    2.182    3.636    3.818    2.545    0.000 
#    0.000    0.909    0.000    4.364    0.000    0.000 
#    0.000    0.000    0.000    0.000    0.000    0.000 
#
# Total GULP energy -122567.919294 kJ/mol
# GULP energy per Si atom -5571.269059 kJ/mol
# Density = 1.754631 g / cm^3
# Si number density = 17.586336 Si / 1000 Ang^3
#
#
#
# Elastic Constant Matrix: (Units=GPa)
#
#
# Indices 1 2 3 4 5 6 
#
# 1 30.6632 13.1597 19.1304 0.0000 2.8120 0.0000
# 2 13.1597 56.0511 26.5520 0.0000 1.1948 0.0000
# 3 19.1304 26.5520 72.7899 0.0000 -10.3608 0.0000
# 4 0.0000 0.0000 0.0000 13.1505 0.0000 6.9730
# 5 2.8120 1.1948 -10.3608 0.0000 16.9116 0.0000
# 6 0.0000 0.0000 0.0000 6.9730 0.0000 21.9970
#
#
#
# Elastic Compliance Matrix: (Units=1/GPa)
#
#
# Indices 1 2 3 4 5 6 
#
# 1 0.043069 -0.004231 -0.011780 0.000000 -0.014079 0.000000
# 2 -0.004231 0.022756 -0.008016 0.000000 -0.005815 0.000000
# 3 -0.011780 -0.008016 0.022040 0.000000 0.016027 0.000000
# 4 0.000000 0.000000 0.000000 0.091408 0.000000 -0.028976
# 5 -0.014079 -0.005815 0.016027 0.000000 0.071702 0.000000
# 6 0.000000 0.000000 0.000000 -0.028976 0.000000 0.054646
#
#
# Mechanical properties :
#
#
# Convention : Reuss Voigt Hill
#
# Bulk Modulus (GPa) = 25.11989 30.79870 27.95929
# Shear Modulus (GPa) = 13.62605 17.12262 15.37433
#
# Velocity S-wave (km/s) = 2.78656 3.12369 2.95993
# Velocity P-wave (km/s) = 4.96669 5.52818 5.25494
#
# Compressibility (1/GPa) = 0.03980910
#
# Stress axis : x y z
#
# Youngs Moduli (GPa) = 23.21871 43.94501 45.37301
#
# Poissons Ratio (x) = 0.18595 0.53448
# Poissons Ratio (y) = 0.09825 0.36373
# Poissons Ratio (z) = 0.27351 0.35228
#
# Static dielectric constant tensor:
#      x y z
#    x 1.640660 0.000000 -0.040830 
#    y 0.000000 1.590020 0.000000 
#    z -0.040830 0.000000 1.648310 
# 
# From -- ./inp_files/39282.got.cif
#   From: 2010.05.17/outbox.cif.g08.bks.cpg/sg15_20_cif.got.tgz:39282.got - 2010.06.03 18:47:42.
