data_PCOD9255734
_publ_section_title
;
Structure prediction by ZEFSAII (Michael W. Deem and Ramdas Pophale) SiO2 
 PCOD9255734
Probable space group: C 2/C
;
_chemical_formula_sum "Si O2"
_cell_formula_units_Z 48
_cell_length_a 15.010243
_cell_length_b 29.066115
_cell_length_c 10.034109
_cell_angle_alpha 90.000000
_cell_angle_beta 27.305551
_cell_angle_gamma 90.000000
_cell_volume 2008.241844
_symmetry_space_group_name_H-M "C 2/C"
_symmetry_group_IT_number 15
_symmetry_cell_setting 'monoclinic'
loop_
_space_group_symop_operation_xyz
x,y,z
-x,y,1/2-z
-x,-y,-z
x,-y,1/2+z
1/2+x,1/2+y,z
1/2-x,1/2+y,1/2-z
1/2-x,1/2-y,-z
1/2+x,1/2-y,1/2+z
loop_
_atom_site_type_symbol
_atom_site_label
_atom_site_fract_x
_atom_site_fract_y
_atom_site_fract_z
Si Si1 0.587576 0.082574 0.959392
Si Si2 0.467977 0.819613 0.068001
Si Si3 0.187212 0.948721 0.087615
Si Si4 0.688273 0.271472 0.728017
Si Si5 0.220694 0.548405 0.500534
Si Si6 0.365601 0.359672 0.804114
O O1 0.510991 0.134887 0.047265
O O2 0.739036 0.078757 0.879944
O O3 0.699291 0.064473 0.681580
O O4 0.390952 0.052626 0.234627
O O5 0.381138 0.775028 0.110040
O O6 0.330639 0.839790 0.368271
O O7 0.649922 0.796734 0.900013
O O8 0.000000 0.934055 0.250000
O O9 0.160191 0.001808 0.167269
O O10 0.750000 0.250000 0.500000
O O11 0.548459 0.314987 0.884298
O O12 0.310941 0.592846 0.305563
O O13 0.000000 0.540385 0.750000
O O14 0.500000 0.369785 0.750000
#
# Coordination Sequence:
#
# PCOD9255734 Si02
#       6
#     8   8   8   8   8   8
#     4  10  23  45  64  95 134 172 223 272 326 388
#     4  10  20  35  56  86 126 163 202 259 322 391
#     4  11  24  44  69  89 126 180 229 279 315 377
#     4  10  17  32  55  84 124 164 196 250 329 400
#     4  11  21  39  63  96 136 172 205 270 339 393
#     4  10  18  30  50  86 130 165 199 243 314 408
#
# _framework density 23.901503999999999
#
# number of rings (size 3 to 8) (size 9 to 14) (size 15 to 20)
#    0.000    1.667    1.667    7.000    0.000    0.667 
#   15.000    0.000    0.000    4.000    0.000    0.000 
#    0.000    0.000    0.000    0.000    0.000    0.000 
#
# Total GULP energy -133878.048125 kJ/mol
# GULP energy per Si atom -5578.252005 kJ/mol
# Density = 2.384710 g / cm^3
# Si number density = 23.901504 Si / 1000 Ang^3
#
#
#
# Elastic Constant Matrix: (Units=GPa)
#
#
# Indices 1 2 3 4 5 6 
#
# 1 125.2511 45.8363 39.3849 0.0000 -42.3396 0.0000
# 2 45.8363 185.2487 18.2850 0.0000 -11.5005 0.0000
# 3 39.3849 18.2850 57.5731 0.0001 -24.8327 0.0000
# 4 0.0000 0.0000 0.0001 24.9580 0.0000 -16.9236
# 5 -42.3396 -11.5005 -24.8327 0.0000 40.4978 0.0000
# 6 0.0000 0.0000 0.0000 -16.9236 0.0000 37.4582
#
#
#
# Elastic Compliance Matrix: (Units=1/GPa)
#
#
# Indices 1 2 3 4 5 6 
#
# 1 0.013963 -0.002360 -0.003800 0.000000 0.011598 0.000000
# 2 -0.002360 0.005985 -0.000840 0.000000 -0.001282 0.000000
# 3 -0.003800 -0.000840 0.025042 0.000000 0.011144 0.000000
# 4 0.000000 0.000000 0.000000 0.057764 0.000000 0.026098
# 5 0.011598 -0.001282 0.011144 0.000000 0.043287 0.000000
# 6 0.000000 0.000000 0.000000 0.026098 0.000000 0.038487
#
#
# Mechanical properties :
#
#
# Convention : Reuss Voigt Hill
#
# Bulk Modulus (GPa) = 32.26685 63.89835 48.08260
# Shear Modulus (GPa) = 23.93969 38.22059 31.08014
#
# Velocity S-wave (km/s) = 3.16824 4.00320 3.60994
# Velocity P-wave (km/s) = 5.18776 6.93971 6.12668
#
# Compressibility (1/GPa) = 0.03099156
#
# Stress axis : x y z
#
# Youngs Moduli (GPa) = 71.61857 167.07583 39.93247
#
# Poissons Ratio (x) = 0.39426 0.15174
# Poissons Ratio (y) = 0.16900 0.03353
# Poissons Ratio (z) = 0.27215 0.14030
#
# Static dielectric constant tensor:
#      x y z
#    x 1.973730 0.000000 0.004550 
#    y 0.000000 2.082620 0.000000 
#    z 0.004550 0.000000 2.002530 
# 
# From -- ./inp_files/101601.got.cif
#   From: 2010.05.17/outbox.cif.g08.bks.cpg/sg15_51_cif.got.tgz:101601.got - 2010.06.03 18:47:42.
