data_PCOD9255759
_publ_section_title
;
Structure prediction by ZEFSAII (Michael W. Deem and Ramdas Pophale) SiO2 
 PCOD9255759
Probable space group: C 2/C
;
_chemical_formula_sum "Si O2"
_cell_formula_units_Z 64
_cell_length_a 10.189065
_cell_length_b 16.579836
_cell_length_c 18.975036
_cell_angle_alpha 90.000000
_cell_angle_beta 99.143335
_cell_angle_gamma 90.000000
_cell_volume 3164.780740
_symmetry_space_group_name_H-M "C 2/C"
_symmetry_group_IT_number 15
_symmetry_cell_setting 'monoclinic'
loop_
_space_group_symop_operation_xyz
x,y,z
-x,y,1/2-z
-x,-y,-z
x,-y,1/2+z
1/2+x,1/2+y,z
1/2-x,1/2+y,1/2-z
1/2-x,1/2-y,-z
1/2+x,1/2-y,1/2+z
loop_
_atom_site_type_symbol
_atom_site_label
_atom_site_fract_x
_atom_site_fract_y
_atom_site_fract_z
Si Si1 0.568169 0.153897 0.684895
Si Si2 0.577234 0.143418 0.974749
Si Si3 0.874317 0.912642 0.045785
Si Si4 0.570694 0.968771 0.684447
Si Si5 0.249311 0.753924 0.391574
Si Si6 0.531517 0.684733 0.467894
Si Si7 0.710424 0.576739 0.404037
Si Si8 0.363179 0.905213 0.566828
O O1 0.500000 0.182014 0.750000
O O2 0.462505 0.150085 0.610685
O O3 0.690603 0.211341 0.675129
O O4 0.613584 0.061259 0.699372
O O5 0.604557 0.235625 0.000882
O O6 0.693298 0.091182 0.019634
O O7 0.444995 0.112357 0.002761
O O8 0.814951 0.832019 0.077068
O O9 0.859967 0.989746 0.094219
O O10 0.013921 0.884937 0.024788
O O11 0.781088 0.931808 0.970316
O O12 0.500000 0.938338 0.750000
O O13 0.692720 0.923044 0.655976
O O14 0.450630 0.966839 0.617935
O O15 0.383696 0.719950 0.440157
O O16 0.151383 0.678055 0.390136
O O17 0.600058 0.645767 0.405447
#
# Coordination Sequence:
#
# PCOD9255759 Si02
#       8
#     8   8   8   8   8   8   8   8
#     4  10  19  33  53  76 101 129 175 213 246 294
#     4  10  18  33  52  78 101 133 165 209 258 295
#     4  11  17  32  55  80  99 131 170 213 247 298
#     4  10  21  35  50  75 104 137 168 210 257 300
#     4  10  18  34  55  74 102 133 172 206 252 295
#     4  10  19  32  49  79 107 129 160 212 257 298
#     4  11  21  31  53  77 107 131 167 211 255 304
#     4  10  17  32  57  75  99 129 174 211 244 300
#
# _framework density 20.222570999999999
#
# number of rings (size 3 to 8) (size 9 to 14) (size 15 to 20)
#    0.000    1.750    5.000    2.250    0.000    2.000 
#    4.500    0.000    0.000    0.000    0.000    0.000 
#    0.000    0.000    0.000    0.000    0.000    0.000 
#
# Total GULP energy -178153.362325 kJ/mol
# GULP energy per Si atom -5567.292573 kJ/mol
# Density = 2.017654 g / cm^3
# Si number density = 20.222571 Si / 1000 Ang^3
#
#
#
# Elastic Constant Matrix: (Units=GPa)
#
#
# Indices 1 2 3 4 5 6 
#
# 1 28.8785 6.6995 14.0921 0.0000 -18.6562 0.0000
# 2 6.6995 84.4643 5.9493 0.0000 -16.7737 0.0000
# 3 14.0921 5.9493 104.1800 0.0000 -36.2815 0.0000
# 4 0.0000 0.0000 0.0000 19.5238 0.0000 -8.9644
# 5 -18.6562 -16.7737 -36.2815 0.0000 30.3798 0.0000
# 6 0.0000 0.0000 0.0000 -8.9644 0.0000 19.6228
#
#
#
# Elastic Compliance Matrix: (Units=1/GPa)
#
#
# Indices 1 2 3 4 5 6 
#
# 1 0.062893 0.004805 0.009575 0.000000 0.052711 0.000000
# 2 0.004805 0.014267 0.003948 0.000000 0.015543 0.000000
# 3 0.009575 0.003948 0.018636 0.000000 0.030317 0.000000
# 4 0.000000 0.000000 0.000000 0.064815 0.000000 0.029610
# 5 0.052711 0.015543 0.030317 0.000000 0.110074 0.000000
# 6 0.000000 0.000000 0.000000 0.029610 0.000000 0.064488
#
#
# Mechanical properties :
#
#
# Convention : Reuss Voigt Hill
#
# Bulk Modulus (GPa) = 7.54985 30.11161 18.83073
# Shear Modulus (GPa) = 14.59143 26.62408 20.60775
#
# Velocity S-wave (km/s) = 2.68907 3.63237 3.19571
# Velocity P-wave (km/s) = 3.65827 5.70215 4.79048
#
# Compressibility (1/GPa) = 0.13245300
#
# Stress axis : x y z
#
# Youngs Moduli (GPa) = 15.89999 70.09268 53.65936
#
# Poissons Ratio (x) = -0.33678 -0.51380
# Poissons Ratio (y) = -0.07640 -0.21187
# Poissons Ratio (z) = -0.15225 -0.27675
#
# Static dielectric constant tensor:
#      x y z
#    x 1.769210 0.000000 -0.029800 
#    y 0.000000 1.808310 0.000000 
#    z -0.029800 0.000000 1.744350 
# 
# From -- ./inp_files/239305.got.cif
#   From: 2010.05.17/outbox.cif.g08.bks.cpg/sg15_120_cif.got.tgz:239305.got - 2010.06.03 18:47:42.
