data_PCOD9255594
_publ_section_title
;
Structure prediction by ZEFSAII (Michael W. Deem and Ramdas Pophale) SiO2 
 PCOD9255594
Probable space group: C 2/C
;
_chemical_formula_sum "Si O2"
_cell_formula_units_Z 64
_cell_length_a 16.728563
_cell_length_b 15.350220
_cell_length_c 13.678148
_cell_angle_alpha 90.000000
_cell_angle_beta 80.102842
_cell_angle_gamma 90.000000
_cell_volume 3460.100623
_symmetry_space_group_name_H-M "C 2/C"
_symmetry_group_IT_number 15
_symmetry_cell_setting 'monoclinic'
loop_
_space_group_symop_operation_xyz
x,y,z
-x,y,1/2-z
-x,-y,-z
x,-y,1/2+z
1/2+x,1/2+y,z
1/2-x,1/2+y,1/2-z
1/2-x,1/2-y,-z
1/2+x,1/2-y,1/2+z
loop_
_atom_site_type_symbol
_atom_site_label
_atom_site_fract_x
_atom_site_fract_y
_atom_site_fract_z
Si Si1 0.750123 0.703079 0.603707
Si Si2 0.412998 0.032038 0.736156
Si Si3 0.077570 0.731874 0.838288
Si Si4 0.696316 0.100439 0.583078
Si Si5 0.732142 0.998992 0.877999
Si Si6 0.159414 0.856247 0.673171
Si Si7 0.088918 0.760077 0.521886
Si Si8 0.307920 0.274112 0.179045
O O1 0.750000 0.750000 0.500000
O O2 0.837055 0.730681 0.626659
O O3 0.750386 0.598763 0.600563
O O4 0.687118 0.726109 0.704687
O O5 0.500000 0.993204 0.750000
O O6 0.429205 0.133937 0.703898
O O7 0.358441 0.034919 0.843893
O O8 0.353239 0.994150 0.664481
O O9 0.092582 0.806685 0.753788
O O10 0.003400 0.748572 0.926368
O O11 0.725818 0.052794 0.480607
O O12 0.640343 0.180672 0.558549
O O13 0.762195 0.140202 0.644816
O O14 0.808740 0.952505 0.808509
O O15 0.124507 0.843891 0.571433
O O16 0.242826 0.800836 0.665585
O O17 0.112100 0.762532 0.403175
#
# Coordination Sequence:
#
# PCOD9255594 Si02
#       8
#     8   8   8   8   8   8   8   8
#     4  10  23  43  58  80 119 171 199 233 311 391
#     4  11  20  36  54  84 127 162 193 241 311 359
#     4  10  19  35  62  85 116 159 198 248 304 360
#     4  11  18  33  57  87 120 150 198 253 295 353
#     4  11  22  34  58  89 119 160 201 253 293 360
#     4  10  17  31  58  89 114 149 200 246 296 349
#     4  11  17  32  61  90 113 146 195 264 303 337
#     4  10  18  35  60  85 115 152 204 249 294 359
#
# _framework density 18.496573000000001
#
# number of rings (size 3 to 8) (size 9 to 14) (size 15 to 20)
#    0.000    1.500    8.750    1.125    0.000    2.500 
#    0.000    0.625    0.000    4.500    0.000    0.000 
#    0.000    0.000    0.000    0.000    0.000    0.000 
#
# Total GULP energy -178144.302774 kJ/mol
# GULP energy per Si atom -5567.009462 kJ/mol
# Density = 1.845447 g / cm^3
# Si number density = 18.496573 Si / 1000 Ang^3
#
#
#
# Elastic Constant Matrix: (Units=GPa)
#
#
# Indices 1 2 3 4 5 6 
#
# 1 55.1538 18.5433 34.1465 0.0000 -24.9724 0.0000
# 2 18.5433 51.5705 27.3209 0.0000 -2.9813 0.0000
# 3 34.1465 27.3209 117.6167 0.0000 -19.9327 0.0000
# 4 0.0000 0.0000 0.0000 21.3849 0.0000 1.0782
# 5 -24.9724 -2.9813 -19.9327 0.0000 39.2785 0.0000
# 6 0.0000 0.0000 0.0000 1.0782 0.0000 12.0044
#
#
#
# Elastic Compliance Matrix: (Units=1/GPa)
#
#
# Indices 1 2 3 4 5 6 
#
# 1 0.031190 -0.007939 -0.004324 0.000000 0.017033 0.000000
# 2 -0.007939 0.024170 -0.004217 0.000000 -0.005353 0.000000
# 3 -0.004324 -0.004217 0.011178 0.000000 0.002603 0.000000
# 4 0.000000 0.000000 0.000000 0.046975 0.000000 -0.004219
# 5 0.017033 -0.005353 0.002603 0.000000 0.037203 0.000000
# 6 0.000000 0.000000 0.000000 -0.004219 0.000000 0.083682
#
#
# Mechanical properties :
#
#
# Convention : Reuss Voigt Hill
#
# Bulk Modulus (GPa) = 29.78179 42.70696 36.24438
# Shear Modulus (GPa) = 17.95006 24.15556 21.05281
#
# Velocity S-wave (km/s) = 3.11859 3.61771 3.37738
# Velocity P-wave (km/s) = 5.39478 6.37100 5.90311
#
# Compressibility (1/GPa) = 0.03357756
#
# Stress axis : x y z
#
# Youngs Moduli (GPa) = 32.06206 41.37343 89.45932
#
# Poissons Ratio (x) = 0.32848 0.38684
# Poissons Ratio (y) = 0.25455 0.37722
# Poissons Ratio (z) = 0.13864 0.17446
#
# Static dielectric constant tensor:
#      x y z
#    x 1.659960 0.000000 -0.014980 
#    y 0.000000 1.700200 0.000000 
#    z -0.014980 0.000000 1.715110 
# 
# From -- ./inp_files/106422.got.cif
#   From: 2010.05.17/outbox.cif.g08.bks.cpg/sg15_54_cif.got.tgz:106422.got - 2010.06.03 18:47:42.
