data_PCOD9255849
_publ_section_title
;
Structure prediction by ZEFSAII (Michael W. Deem and Ramdas Pophale) SiO2 
 PCOD9255849
Probable space group: C 2/C
;
_chemical_formula_sum "Si O2"
_cell_formula_units_Z 48
_cell_length_a 21.125605
_cell_length_b 11.570678
_cell_length_c 14.177293
_cell_angle_alpha 90.000000
_cell_angle_beta 55.020903
_cell_angle_gamma 90.000000
_cell_volume 2839.466156
_symmetry_space_group_name_H-M "C 2/C"
_symmetry_group_IT_number 15
_symmetry_cell_setting 'monoclinic'
loop_
_space_group_symop_operation_xyz
x,y,z
-x,y,1/2-z
-x,-y,-z
x,-y,1/2+z
1/2+x,1/2+y,z
1/2-x,1/2+y,1/2-z
1/2-x,1/2-y,-z
1/2+x,1/2-y,1/2+z
loop_
_atom_site_type_symbol
_atom_site_label
_atom_site_fract_x
_atom_site_fract_y
_atom_site_fract_z
Si Si1 0.335871 0.037993 0.527412
Si Si2 0.185784 0.193683 0.984351
Si Si3 0.880828 0.321257 0.166312
Si Si4 0.244223 0.143838 0.216196
Si Si5 0.541235 0.159070 0.616873
Si Si6 0.215477 0.486027 0.634008
O O1 0.357589 0.138327 0.581179
O O2 0.317469 0.064851 0.434746
O O3 0.264381 0.966240 0.633962
O O4 0.406377 0.946433 0.463863
O O5 0.201800 0.253594 0.869648
O O6 0.208361 0.060883 0.956447
O O7 0.250000 0.250000 0.000000
O O8 0.100809 0.235429 0.084429
O O9 0.840114 0.198941 0.220971
O O10 0.843293 0.419034 0.268621
O O11 0.971871 0.315876 0.104659
O O12 0.265427 0.106962 0.303151
O O13 0.500000 0.128919 0.750000
#
# Coordination Sequence:
#
# PCOD9255849 Si02
#       6
#     8   8   8   8   8   8
#     4  10  19  32  51  74 102 129 160 211 247 288
#     4  10  17  33  52  73 100 128 166 205 242 290
#     4  10  20  32  48  76 103 127 165 201 250 299
#     4   9  19  32  51  74  98 130 166 201 243 296
#     4  11  18  29  51  77  99 126 163 208 250 287
#     4  10  18  33  52  73  99 128 168 203 240 293
#
# _framework density 16.904585999999998
#
# number of rings (size 3 to 8) (size 9 to 14) (size 15 to 20)
#    0.000    2.000    5.000    1.500    0.000    0.667 
#    0.000    0.833    0.000    0.000    0.000    0.000 
#    0.000    0.000    0.000    0.000    0.000    0.000 
#
# Total GULP energy -133686.955482 kJ/mol
# GULP energy per Si atom -5570.289812 kJ/mol
# Density = 1.686611 g / cm^3
# Si number density = 16.904586 Si / 1000 Ang^3
#
#
#
# Elastic Constant Matrix: (Units=GPa)
#
#
# Indices 1 2 3 4 5 6 
#
# 1 84.5231 34.8984 34.6945 0.0000 15.7445 0.0000
# 2 34.8984 31.8941 19.9924 0.0000 -0.9371 0.0000
# 3 34.6945 19.9924 65.9388 0.0000 9.9886 0.0000
# 4 0.0000 0.0000 0.0000 19.2629 0.0000 2.0945
# 5 15.7445 -0.9371 9.9886 0.0000 37.8296 0.0000
# 6 0.0000 0.0000 0.0000 2.0945 0.0000 16.2283
#
#
#
# Elastic Compliance Matrix: (Units=1/GPa)
#
#
# Indices 1 2 3 4 5 6 
#
# 1 0.026604 -0.026735 -0.004286 0.000000 -0.010603 0.000000
# 2 -0.026735 0.066237 -0.008281 0.000000 0.014954 0.000000
# 3 -0.004286 -0.008281 0.020513 0.000000 -0.003838 0.000000
# 4 0.000000 0.000000 0.000000 0.052652 0.000000 -0.006795
# 5 -0.010603 0.014954 -0.003838 0.000000 0.032231 0.000000
# 6 0.000000 0.000000 0.000000 -0.006795 0.000000 0.062498
#
#
# Mechanical properties :
#
#
# Convention : Reuss Voigt Hill
#
# Bulk Modulus (GPa) = 28.77709 40.16963 34.47336
# Shear Modulus (GPa) = 14.24821 20.84890 17.54855
#
# Velocity S-wave (km/s) = 2.90636 3.51569 3.22544
# Velocity P-wave (km/s) = 5.32191 6.34777 5.85734
#
# Compressibility (1/GPa) = 0.03474986
#
# Stress axis : x y z
#
# Youngs Moduli (GPa) = 37.58873 15.09731 48.74990
#
# Poissons Ratio (x) = 0.40362 0.20894
# Poissons Ratio (y) = 1.00492 0.40372
# Poissons Ratio (z) = 0.16110 0.12503
#
# Static dielectric constant tensor:
#      x y z
#    x 1.586300 0.000000 0.010510 
#    y 0.000000 1.573410 0.000000 
#    z 0.010510 0.000000 1.615300 
# 
# From -- ./inp_files/166991.got.cif
#   From: 2010.05.17/outbox.cif.g08.bks.cpg/sg15_84_cif.got.tgz:166991.got - 2010.06.03 18:47:42.
