data_PCOD9255806
_publ_section_title
;
Structure prediction by ZEFSAII (Michael W. Deem and Ramdas Pophale) SiO2 
 PCOD9255806
Probable space group: C 2/C
;
_chemical_formula_sum "Si O2"
_cell_formula_units_Z 56
_cell_length_a 16.367801
_cell_length_b 9.716864
_cell_length_c 27.451938
_cell_angle_alpha 90.000000
_cell_angle_beta 35.836617
_cell_angle_gamma 90.000000
_cell_volume 2556.221538
_symmetry_space_group_name_H-M "C 2/C"
_symmetry_group_IT_number 15
_symmetry_cell_setting 'monoclinic'
loop_
_space_group_symop_operation_xyz
x,y,z
-x,y,1/2-z
-x,-y,-z
x,-y,1/2+z
1/2+x,1/2+y,z
1/2-x,1/2+y,1/2-z
1/2-x,1/2-y,-z
1/2+x,1/2-y,1/2+z
loop_
_atom_site_type_symbol
_atom_site_label
_atom_site_fract_x
_atom_site_fract_y
_atom_site_fract_z
Si Si1 0.870056 0.726706 0.377179
Si Si2 0.333507 0.975345 0.019129
Si Si3 0.854467 0.324748 0.311813
Si Si4 0.346503 0.873137 0.778453
Si Si5 0.904197 0.656002 0.072454
Si Si6 0.752893 0.938766 0.033131
Si Si7 0.471314 0.383919 0.556032
O O1 0.794024 0.869123 0.424116
O O2 0.853862 0.699117 0.327529
O O3 0.785977 0.599105 0.440475
O O4 0.033731 0.703787 0.309911
O O5 0.336869 0.037812 0.071544
O O6 0.484454 0.900989 0.942995
O O7 0.313861 0.090818 0.987029
O O8 0.887081 0.466458 0.267327
O O9 0.726801 0.247339 0.347734
O O10 0.802156 0.364354 0.391508
O O11 0.000000 0.247186 0.250000
O O12 0.182463 0.877803 0.847246
O O13 0.994666 0.746000 0.990356
O O14 0.916991 0.914492 0.956295
O O15 0.500000 0.500000 0.500000
#
# Coordination Sequence:
#
# PCOD9255806 Si02
#       7
#     8   8   8   8   8   8   8
#     4  10  18  33  57  84 111 154 189 247 283 356
#     4  11  22  38  53  87 124 154 197 236 310 361
#     4  10  18  36  61  86 109 151 204 251 292 343
#     4  10  17  32  60  82 109 144 203 243 286 342
#     4  10  22  36  59  80 115 162 194 242 296 368
#     4  10  20  33  64  85 111 150 203 250 283 344
#     4  11  17  33  60  88 104 146 207 247 283 345
#
# _framework density 21.907335
#
# number of rings (size 3 to 8) (size 9 to 14) (size 15 to 20)
#    0.000    1.714    8.571    0.429    0.000    2.286 
#    2.571    0.000    9.429    0.000    0.000    0.000 
#    0.000    0.000    0.000    0.000    0.000    0.000 
#
# Total GULP energy -156142.763083 kJ/mol
# GULP energy per Si atom -5576.527253 kJ/mol
# Density = 2.185747 g / cm^3
# Si number density = 21.907335 Si / 1000 Ang^3
#
#
#
# Elastic Constant Matrix: (Units=GPa)
#
#
# Indices 1 2 3 4 5 6 
#
# 1 104.2699 10.0638 51.4371 0.0000 -29.7245 0.0000
# 2 10.0638 48.0210 26.6222 0.0000 -9.7611 0.0001
# 3 51.4371 26.6222 97.0117 0.0000 -53.5511 0.0000
# 4 0.0000 0.0000 0.0000 14.7567 0.0000 -12.7566
# 5 -29.7245 -9.7611 -53.5511 0.0000 49.0126 0.0000
# 6 0.0000 0.0001 0.0000 -12.7566 0.0000 24.0235
#
#
#
# Elastic Compliance Matrix: (Units=1/GPa)
#
#
# Indices 1 2 3 4 5 6 
#
# 1 0.013062 0.001229 -0.006942 0.000000 0.000582 0.000000
# 2 0.001229 0.025456 -0.011156 0.000000 -0.006373 0.000000
# 3 -0.006942 -0.011156 0.034015 0.000000 0.030733 0.000000
# 4 0.000000 0.000000 0.000000 0.125268 0.000000 0.066517
# 5 0.000582 -0.006373 0.030733 0.000000 0.053065 0.000000
# 6 0.000000 0.000000 0.000000 0.066517 0.000000 0.076947
#
#
# Mechanical properties :
#
#
# Convention : Reuss Voigt Hill
#
# Bulk Modulus (GPa) = 25.77571 47.28322 36.52946
# Shear Modulus (GPa) = 13.35180 28.30386 20.82783
#
# Velocity S-wave (km/s) = 2.47142 3.59831 3.08673
# Velocity P-wave (km/s) = 4.46489 6.23650 5.42352
#
# Compressibility (1/GPa) = 0.03879622
#
# Stress axis : x y z
#
# Youngs Moduli (GPa) = 76.55649 39.28411 29.39884
#
# Poissons Ratio (x) = -0.04829 0.20409
# Poissons Ratio (y) = -0.09412 0.32796
# Poissons Ratio (z) = 0.53146 0.43824
#
# Static dielectric constant tensor:
#      x y z
#    x 1.896810 0.000000 -0.036110 
#    y 0.000000 1.862110 0.000000 
#    z -0.036110 0.000000 1.864350 
# 
# From -- ./inp_files/313424.got.cif
#   From: 2010.05.17/outbox.cif.g08.bks.cpg/sg15_157_cif.got.tgz:313424.got - 2010.06.03 18:47:42.
