data_PCOD9255260
_publ_section_title
;
Structure prediction by ZEFSAII (Michael W. Deem and Ramdas Pophale) SiO2 
 PCOD9255260
Probable space group: C 2/C
;
_chemical_formula_sum "Si O2"
_cell_formula_units_Z 56
_cell_length_a 9.150353
_cell_length_b 17.911906
_cell_length_c 17.127491
_cell_angle_alpha 90.000000
_cell_angle_beta 46.150898
_cell_angle_gamma 90.000000
_cell_volume 2024.459646
_symmetry_space_group_name_H-M "C 2/C"
_symmetry_group_IT_number 15
_symmetry_cell_setting 'monoclinic'
loop_
_space_group_symop_operation_xyz
x,y,z
-x,y,1/2-z
-x,-y,-z
x,-y,1/2+z
1/2+x,1/2+y,z
1/2-x,1/2+y,1/2-z
1/2-x,1/2-y,-z
1/2+x,1/2-y,1/2+z
loop_
_atom_site_type_symbol
_atom_site_label
_atom_site_fract_x
_atom_site_fract_y
_atom_site_fract_z
Si Si1 0.755115 0.942618 0.838540
Si Si2 0.261623 0.611431 0.869213
Si Si3 0.731898 0.433659 0.384197
Si Si4 0.219346 0.333173 0.723101
Si Si5 0.355873 0.190909 0.729780
Si Si6 0.248619 0.593062 0.058290
Si Si7 0.788424 0.165187 0.464584
O O1 0.668225 0.906928 0.791954
O O2 0.711079 0.880767 0.919786
O O3 0.000000 0.948352 0.750000
O O4 0.689258 0.026602 0.878547
O O5 0.500000 0.617571 0.750000
O O6 0.138575 0.673699 0.866103
O O7 0.229844 0.615792 0.974636
O O8 0.798011 0.391952 0.281638
O O9 0.812909 0.513584 0.379772
O O10 0.490297 0.425039 0.471613
O O11 0.791061 0.378652 0.431403
O O12 0.188002 0.257654 0.784702
O O13 0.176686 0.343196 0.646416
O O14 0.467195 0.337540 0.631946
O O15 0.500000 0.217865 0.750000
O O16 0.750000 0.250000 0.500000
#
# Coordination Sequence:
#
# PCOD9255260 Si02
#       7
#     8   8   8   8   8   8   8
#     4   9  17  32  55  86 111 146 197 254 300 339
#     4  11  21  39  65  91 118 155 208 255 305 358
#     4  10  19  35  60  91 123 148 210 261 303 345
#     4  10  21  34  54  86 125 154 196 248 305 362
#     4  12  24  39  59  89 128 168 196 244 314 380
#     4  10  20  37  63  96 113 157 209 268 296 347
#     4  10  17  29  54  83 119 154 198 250 294 354
#
# _framework density 27.661702999999999
#
# number of rings (size 3 to 8) (size 9 to 14) (size 15 to 20)
#    0.000    1.714    2.857    3.857    4.000    0.571 
#    0.000    0.714    0.000    3.429    0.000    0.000 
#    0.000    0.000    0.000    0.000    0.000    0.000 
#
# Total GULP energy -156383.828844 kJ/mol
# GULP energy per Si atom -5585.136744 kJ/mol
# Density = 2.759874 g / cm^3
# Si number density = 27.661703 Si / 1000 Ang^3
#
#
#
# Elastic Constant Matrix: (Units=GPa)
#
#
# Indices 1 2 3 4 5 6 
#
# 1 124.3937 57.7488 31.0784 0.0000 50.3715 -0.0001
# 2 57.7488 146.4218 50.9176 0.0000 33.3737 -0.0001
# 3 31.0784 50.9176 150.8617 0.0000 35.6081 0.0000
# 4 0.0000 0.0000 0.0000 47.1628 0.0000 10.1044
# 5 50.3715 33.3737 35.6081 0.0000 64.4677 0.0000
# 6 -0.0001 -0.0001 0.0000 10.1044 0.0000 44.9561
#
#
#
# Elastic Compliance Matrix: (Units=1/GPa)
#
#
# Indices 1 2 3 4 5 6 
#
# 1 0.012972 -0.003306 0.000497 0.000000 -0.008698 0.000000
# 2 -0.003306 0.009100 -0.002171 0.000000 -0.000928 0.000000
# 3 0.000497 -0.002171 0.008148 0.000000 -0.003764 0.000000
# 4 0.000000 0.000000 0.000000 0.022276 0.000000 -0.005007
# 5 -0.008698 -0.000928 -0.003764 0.000000 0.024868 0.000000
# 6 0.000000 0.000000 0.000000 -0.005007 0.000000 0.023369
#
#
# Mechanical properties :
#
#
# Convention : Reuss Voigt Hill
#
# Bulk Modulus (GPa) = 49.36242 77.90743 63.63493
# Shear Modulus (GPa) = 42.57229 50.11283 46.34256
#
# Velocity S-wave (km/s) = 3.92731 4.26094 4.09752
# Velocity P-wave (km/s) = 6.20071 7.24107 6.74099
#
# Compressibility (1/GPa) = 0.02025833
#
# Stress axis : x y z
#
# Youngs Moduli (GPa) = 77.08825 109.88737 122.73610
#
# Poissons Ratio (x) = 0.36332 -0.06096
# Poissons Ratio (y) = 0.25488 0.26648
# Poissons Ratio (z) = -0.03829 0.23858
#
# Static dielectric constant tensor:
#      x y z
#    x 2.373770 0.000000 -0.211530 
#    y 0.000000 2.198140 0.000000 
#    z -0.211530 0.000000 2.366820 
# 
# From -- ./inp_files/199074.got.cif
#   From: 2010.05.17/outbox.cif.g08.bks.cpg/sg15_100_cif.got.tgz:199074.got - 2010.06.03 18:47:42.
