data_PCOD9255907
_publ_section_title
;
Structure prediction by ZEFSAII (Michael W. Deem and Ramdas Pophale) SiO2 
 PCOD9255907
Probable space group: C 2/C
;
_chemical_formula_sum "Si O2"
_cell_formula_units_Z 48
_cell_length_a 29.058322
_cell_length_b 7.190282
_cell_length_c 20.868244
_cell_angle_alpha 90.000000
_cell_angle_beta 28.710784
_cell_angle_gamma 90.000000
_cell_volume 2094.570768
_symmetry_space_group_name_H-M "C 2/C"
_symmetry_group_IT_number 15
_symmetry_cell_setting 'monoclinic'
loop_
_space_group_symop_operation_xyz
x,y,z
-x,y,1/2-z
-x,-y,-z
x,-y,1/2+z
1/2+x,1/2+y,z
1/2-x,1/2+y,1/2-z
1/2-x,1/2-y,-z
1/2+x,1/2-y,1/2+z
loop_
_atom_site_type_symbol
_atom_site_label
_atom_site_fract_x
_atom_site_fract_y
_atom_site_fract_z
Si Si1 0.707748 0.101489 0.971441
Si Si2 0.621393 0.355214 0.912928
Si Si3 0.478449 0.833261 0.075772
Si Si4 0.029177 0.850703 0.150145
Si Si5 0.173217 0.562638 0.388303
Si Si6 0.644183 0.094760 0.187154
O O1 0.791261 0.251818 0.854837
O O2 0.703057 0.934714 0.926553
O O3 0.611626 0.218658 0.077442
O O4 0.705760 0.042868 0.048412
O O5 0.564586 0.332116 0.915187
O O6 0.729050 0.421503 0.770319
O O7 0.635655 0.143865 0.919832
O O8 0.567637 0.446311 0.039000
O O9 0.399112 0.920845 0.221035
O O10 0.583694 0.809552 0.978413
O O11 0.500000 0.000000 0.000000
O O12 0.000000 0.964538 0.250000
O O13 0.945711 0.717027 0.226221
#
# Coordination Sequence:
#
# PCOD9255907 Si02
#       6
#     8   8   8   8   8   8
#     4   9  19  31  57  83 110 137 193 231 272 321
#     4  10  21  34  56  84 109 147 189 235 276 342
#     4  10  19  33  56  77 112 147 188 221 287 340
#     4   9  17  31  51  79 106 140 185 229 271 320
#     4  10  21  37  56  81 113 147 187 231 286 336
#     4  10  17  33  56  85 104 145 187 236 265 333
#
# _framework density 22.916388000000001
#
# number of rings (size 3 to 8) (size 9 to 14) (size 15 to 20)
#    0.000    2.333    5.000    0.000    9.333    0.000 
#    0.000    4.167    0.000    0.000    4.333    0.000 
#    0.000    0.000    0.000    0.000    0.000    0.000 
#
# Total GULP energy -133683.541891 kJ/mol
# GULP energy per Si atom -5570.147579 kJ/mol
# Density = 2.286423 g / cm^3
# Si number density = 22.916388 Si / 1000 Ang^3
#
#
#
# Elastic Constant Matrix: (Units=GPa)
#
#
# Indices 1 2 3 4 5 6 
#
# 1 128.7151 24.0195 66.0825 0.0034 8.5481 -0.0067
# 2 24.0195 26.3787 18.4011 0.0208 9.2884 -0.0064
# 3 66.0825 18.4011 139.1238 0.0114 17.7064 -0.0087
# 4 0.0034 0.0208 0.0114 17.2490 0.0000 -5.9892
# 5 8.5481 9.2884 17.7064 0.0000 52.7552 0.0045
# 6 -0.0067 -0.0064 -0.0087 -5.9892 0.0045 -7.1567
#
#
#
# Elastic Compliance Matrix: (Units=1/GPa)
#
#
# Indices 1 2 3 4 5 6 
#
# 1 0.011468 -0.007613 -0.004570 0.000008 0.001016 -0.000005
# 2 -0.007613 0.048551 -0.001958 -0.000054 -0.006658 0.000007
# 3 -0.004570 -0.001958 0.009902 -0.000005 -0.002238 -0.000004
# 4 0.000008 -0.000054 -0.000005 0.044921 0.000013 -0.037593
# 5 0.001016 -0.006658 -0.002238 0.000013 0.020714 0.000010
# 6 -0.000005 0.000007 -0.000004 -0.037593 0.000010 -0.108269
#
#
# Mechanical properties :
#
#
# Convention : Reuss Voigt Hill
#
# Bulk Modulus (GPa) = 24.01501 56.80264 40.40882
# Shear Modulus (GPa) = 71.99349 24.95047 48.47198
#
# Velocity S-wave (km/s) = 5.61105 3.30322 4.60408
# Velocity P-wave (km/s) = 7.24436 6.27607 6.77753
#
# Compressibility (1/GPa) = 0.04164063
#
# Stress axis : x y z
#
# Youngs Moduli (GPa) = 87.19666 20.59670 100.98635
#
# Poissons Ratio (x) = 0.15679 0.46148
# Poissons Ratio (y) = 0.66379 0.19777
# Poissons Ratio (z) = 0.39847 0.04034
#
# Static dielectric constant tensor:
#      x y z
#    x 2.062680 -0.000020 0.050220 
#    y -0.000020 1.827420 0.000030 
#    z 0.050220 0.000030 2.022780 
# 
# From -- ./inp_files/258691.got.cif
#   From: 2010.05.17/outbox.cif.g08.bks.cpg/sg15_130_cif.got.tgz:258691.got - 2010.06.03 18:47:42.
