data_PCOD9255170
_publ_section_title
;
Structure prediction by ZEFSAII (Michael W. Deem and Ramdas Pophale) SiO2 
 PCOD9255170
Probable space group: C 2/C
;
_chemical_formula_sum "Si O2"
_cell_formula_units_Z 48
_cell_length_a 27.878485
_cell_length_b 7.115205
_cell_length_c 28.968414
_cell_angle_alpha 90.000000
_cell_angle_beta 162.092597
_cell_angle_gamma 90.000000
_cell_volume 1766.841399
_symmetry_space_group_name_H-M "C 2/C"
_symmetry_group_IT_number 15
_symmetry_cell_setting 'monoclinic'
loop_
_space_group_symop_operation_xyz
x,y,z
-x,y,1/2-z
-x,-y,-z
x,-y,1/2+z
1/2+x,1/2+y,z
1/2-x,1/2+y,1/2-z
1/2-x,1/2-y,-z
1/2+x,1/2-y,1/2+z
loop_
_atom_site_type_symbol
_atom_site_label
_atom_site_fract_x
_atom_site_fract_y
_atom_site_fract_z
Si Si1 0.791611 0.453266 0.602065
Si Si2 0.208333 0.189994 0.157862
Si Si3 0.328306 0.481102 0.108850
Si Si4 0.448177 0.076658 0.590685
Si Si5 0.493454 0.354836 0.381874
Si Si6 0.064804 0.382908 0.104288
O O1 0.773625 0.485292 0.531275
O O2 0.842199 0.227915 0.645594
O O3 0.615341 0.471903 0.462332
O O4 0.915850 0.575138 0.745299
O O5 0.306614 0.349290 0.219459
O O6 0.165873 0.229754 0.171330
O O7 0.317854 0.013183 0.260372
O O8 0.054994 0.137192 0.990345
O O9 0.500000 0.538465 0.250000
O O10 0.223491 0.606381 0.046217
O O11 0.459861 0.853836 0.591117
O O12 0.461331 0.179650 0.552869
O O13 0.000000 0.500000 0.000000
#
# Coordination Sequence:
#
# PCOD9255170 Si02
#       6
#     8   8   8   8   8   8
#     4  10  17  29  44  75 108 153 178 223 290 363
#     4  11  21  37  57  81 115 161 196 240 292 341
#     4  10  19  26  47  74 107 147 186 222 290 363
#     4  10  19  32  48  70 113 151 181 235 288 336
#     4  10  18  31  52  77 111 152 186 229 288 342
#     4  11  22  39  57  82 118 160 198 246 293 341
#
# _framework density 27.167126
#
# number of rings (size 3 to 8) (size 9 to 14) (size 15 to 20)
#    0.000    1.667    6.667    3.500    2.333    0.667 
#    0.000    0.000    0.000    0.000    0.000    0.000 
#    0.000   18.667    0.000    0.333    0.000    0.000 
#
# Total GULP energy -133889.804013 kJ/mol
# GULP energy per Si atom -5578.741834 kJ/mol
# Density = 2.710529 g / cm^3
# Si number density = 27.167126 Si / 1000 Ang^3
#
#
#
# Elastic Constant Matrix: (Units=GPa)
#
#
# Indices 1 2 3 4 5 6 
#
# 1 226.1031 33.8313 56.9248 0.0003 35.0083 0.0002
# 2 33.8313 42.5016 22.4118 0.0010 7.9386 -0.0007
# 3 56.9248 22.4118 125.4201 -0.0037 -5.3509 -0.0020
# 4 0.0003 0.0010 -0.0037 13.7781 -0.0017 0.6736
# 5 35.0083 7.9386 -5.3509 -0.0017 51.4860 -0.0005
# 6 0.0002 -0.0007 -0.0020 0.6736 -0.0005 36.9524
#
#
#
# Elastic Compliance Matrix: (Units=1/GPa)
#
#
# Indices 1 2 3 4 5 6 
#
# 1 0.006062 -0.002816 -0.002416 -0.000001 -0.003939 0.000000
# 2 -0.002816 0.028369 -0.003914 -0.000003 -0.002866 0.000000
# 3 -0.002416 -0.003914 0.009909 0.000003 0.003276 0.000000
# 4 -0.000001 -0.000003 0.000003 0.072644 0.000004 -0.001324
# 5 -0.003939 -0.002866 0.003276 0.000004 0.022884 0.000000
# 6 0.000000 0.000000 0.000000 -0.001324 0.000000 0.027086
#
#
# Mechanical properties :
#
#
# Convention : Reuss Voigt Hill
#
# Bulk Modulus (GPa) = 38.38950 68.92897 53.65924
# Shear Modulus (GPa) = 25.78272 39.16710 32.47491
#
# Velocity S-wave (km/s) = 3.08399 3.80110 3.46117
# Velocity P-wave (km/s) = 5.18101 6.68519 5.98058
#
# Compressibility (1/GPa) = 0.02604879
#
# Stress axis : x y z
#
# Youngs Moduli (GPa) = 164.95264 35.24983 100.91725
#
# Poissons Ratio (x) = 0.09925 0.24386
# Poissons Ratio (y) = 0.46444 0.39496
# Poissons Ratio (z) = 0.39860 0.13796
#
# Static dielectric constant tensor:
#      x y z
#    x 2.315830 0.000000 0.135900 
#    y 0.000000 2.203540 0.000000 
#    z 0.135900 0.000000 2.182030 
# 
# From -- ./inp_files/64847.got.cif
#   From: 2010.05.17/outbox.cif.g08.bks.cpg/sg15_33_cif.got.tgz:64847.got - 2010.06.03 18:47:42.
