data_PCOD9255544
_publ_section_title
;
Structure prediction by ZEFSAII (Michael W. Deem and Ramdas Pophale) SiO2 
 PCOD9255544
Probable space group: C 2/C
;
_chemical_formula_sum "Si O2"
_cell_formula_units_Z 44
_cell_length_a 15.870022
_cell_length_b 7.754758
_cell_length_c 14.643421
_cell_angle_alpha 90.000000
_cell_angle_beta 85.955908
_cell_angle_gamma 90.000000
_cell_volume 1797.651979
_symmetry_space_group_name_H-M "C 2/C"
_symmetry_group_IT_number 15
_symmetry_cell_setting 'monoclinic'
loop_
_space_group_symop_operation_xyz
x,y,z
-x,y,1/2-z
-x,-y,-z
x,-y,1/2+z
1/2+x,1/2+y,z
1/2-x,1/2+y,1/2-z
1/2-x,1/2-y,-z
1/2+x,1/2-y,1/2+z
loop_
_atom_site_type_symbol
_atom_site_label
_atom_site_fract_x
_atom_site_fract_y
_atom_site_fract_z
Si Si1 0.663548 0.234187 0.329170
Si Si2 0.509126 0.587586 0.098155
Si Si3 0.500000 0.694040 0.750000
Si Si4 0.915726 0.605661 0.986760
Si Si5 0.754119 0.552562 0.573487
Si Si6 0.820224 0.095407 0.106581
O O1 0.588014 0.205280 0.262625
O O2 0.605458 0.223762 0.424795
O O3 0.699860 0.426844 0.332430
O O4 0.734288 0.094365 0.351132
O O5 0.526854 0.436894 0.167624
O O6 0.500000 0.500000 0.000000
O O7 0.568745 0.756047 0.093784
O O8 0.414028 0.652885 0.126352
O O9 0.835827 0.478593 0.999192
O O10 0.000000 0.500000 0.000000
O O11 0.761251 0.737763 0.619869
O O12 0.682670 0.547863 0.502060
#
# Coordination Sequence:
#
# PCOD9255544 Si02
#       6
#     8   8   4   8   8   8
#     4   9  19  33  52  80 114 142 187 233 289 335
#     4  11  18  34  57  85 108 152 196 238 292 345
#     4  10  20  32  56  88 110 150 194 246 290 350
#     4  10  18  32  53  84 116 142 194 236 284 344
#     4   9  19  30  52  86 111 144 191 228 288 354
#     4  10  17  31  54  84 109 148 186 233 281 355
#
# _framework density 24.476374
#
# number of rings (size 3 to 8) (size 9 to 14) (size 15 to 20)
#    1.091    1.091    5.455    0.545    0.000    0.000 
#    0.000    8.182    0.000    0.000   85.091    0.000 
#    0.000    0.000    0.000    0.000    0.000    1.091 
#
# Total GULP energy -122520.678145 kJ/mol
# GULP energy per Si atom -5569.121734 kJ/mol
# Density = 2.442066 g / cm^3
# Si number density = 24.476374 Si / 1000 Ang^3
#
#
#
# Elastic Constant Matrix: (Units=GPa)
#
#
# Indices 1 2 3 4 5 6 
#
# 1 61.4564 22.1726 4.4193 0.0000 17.6139 0.0000
# 2 22.1726 115.3515 12.7494 0.0000 8.5686 0.0000
# 3 4.4193 12.7494 50.8207 0.0000 10.6109 0.0000
# 4 0.0000 0.0000 0.0000 30.3109 0.0000 9.3190
# 5 17.6139 8.5686 10.6109 0.0000 39.4867 0.0000
# 6 0.0000 0.0000 0.0000 9.3190 0.0000 33.6673
#
#
#
# Elastic Compliance Matrix: (Units=1/GPa)
#
#
# Indices 1 2 3 4 5 6 
#
# 1 0.019784 -0.003276 0.000843 0.000000 -0.008340 0.000000
# 2 -0.003276 0.009534 -0.002098 0.000000 -0.000044 0.000000
# 3 0.000843 -0.002098 0.021309 0.000000 -0.005647 0.000000
# 4 0.000000 0.000000 0.000000 0.036060 0.000000 -0.009981
# 5 -0.008340 -0.000044 -0.005647 0.000000 0.030572 0.000000
# 6 0.000000 0.000000 0.000000 -0.009981 0.000000 0.032465
#
#
# Mechanical properties :
#
#
# Convention : Reuss Voigt Hill
#
# Bulk Modulus (GPa) = 24.05909 34.03457 29.04683
# Shear Modulus (GPa) = 28.96177 33.24548 31.10363
#
# Velocity S-wave (km/s) = 3.44358 3.68947 3.56864
# Velocity P-wave (km/s) = 5.06575 5.66435 5.37339
#
# Compressibility (1/GPa) = 0.04156434
#
# Stress axis : x y z
#
# Youngs Moduli (GPa) = 50.54695 104.88738 46.92849
#
# Poissons Ratio (x) = 0.34365 -0.03956
# Poissons Ratio (y) = 0.16561 0.09845
# Poissons Ratio (z) = -0.04261 0.22003
#
# Static dielectric constant tensor:
#      x y z
#    x 1.997200 0.000000 0.012680 
#    y 0.000000 1.973280 0.000000 
#    z 0.012680 0.000000 1.985940 
# 
# From -- ./inp_files/165821.got.cif
#   From: 2010.05.17/outbox.cif.g08.bks.cpg/sg15_83_cif.got.tgz:165821.got - 2010.06.03 18:47:42.
