data_PCOD9255915
_publ_section_title
;
Structure prediction by ZEFSAII (Michael W. Deem and Ramdas Pophale) SiO2 
 PCOD9255915
Probable space group: C 2/C
;
_chemical_formula_sum "Si O2"
_cell_formula_units_Z 52
_cell_length_a 9.684669
_cell_length_b 17.239014
_cell_length_c 16.707828
_cell_angle_alpha 90.000000
_cell_angle_beta 58.941647
_cell_angle_gamma 90.000000
_cell_volume 2389.553306
_symmetry_space_group_name_H-M "C 2/C"
_symmetry_group_IT_number 15
_symmetry_cell_setting 'monoclinic'
loop_
_space_group_symop_operation_xyz
x,y,z
-x,y,1/2-z
-x,-y,-z
x,-y,1/2+z
1/2+x,1/2+y,z
1/2-x,1/2+y,1/2-z
1/2-x,1/2-y,-z
1/2+x,1/2-y,1/2+z
loop_
_atom_site_type_symbol
_atom_site_label
_atom_site_fract_x
_atom_site_fract_y
_atom_site_fract_z
Si Si1 0.000000 0.478180 0.250000
Si Si2 0.850510 0.275788 0.859003
Si Si3 0.719855 0.563552 0.063179
Si Si4 0.126184 0.887096 0.837141
Si Si5 0.678387 0.440683 0.388587
Si Si6 0.904017 0.895363 0.362421
Si Si7 0.061434 0.399140 0.868312
O O1 0.841392 0.427518 0.290697
O O2 0.011032 0.533286 0.167945
O O3 0.692392 0.318838 0.873504
O O4 0.000000 0.275928 0.750000
O O5 0.817537 0.186744 0.886524
O O6 0.935904 0.329086 0.899884
O O7 0.557906 0.611268 0.137126
O O8 0.695365 0.473193 0.093010
O O9 0.884028 0.586261 0.057877
O O10 0.715722 0.572790 0.969293
O O11 0.263870 0.888177 0.727698
O O12 0.137759 0.968942 0.882027
O O13 0.534343 0.392178 0.394855
O O14 0.000000 0.906534 0.250000
#
# Coordination Sequence:
#
# PCOD9255915 Si02
#       7
#     4   8   8   8   8   8   8
#     4  10  18  36  60  74 108 150 200 228 280 336
#     4   9  17  33  58  78 110 152 193 219 264 331
#     4  11  21  32  56  87 114 139 186 238 282 325
#     4   9  16  34  55  79 110 150 186 223 270 332
#     4  10  20  35  54  82 112 145 184 238 281 330
#     4  10  19  34  58  85 112 145 187 232 274 319
#     4  10  17  33  57  81 104 150 193 221 266 341
#
# _framework density 21.761389999999999
#
# number of rings (size 3 to 8) (size 9 to 14) (size 15 to 20)
#    0.000    2.154    3.846    5.077    0.000    0.615 
#    0.000    3.846   13.538    0.000    0.000    0.000 
#    0.000    0.000    0.000    0.000    0.000    0.000 
#
# Total GULP energy -145087.222886 kJ/mol
# GULP energy per Si atom -5580.277803 kJ/mol
# Density = 2.171186 g / cm^3
# Si number density = 21.761390 Si / 1000 Ang^3
#
#
#
# Elastic Constant Matrix: (Units=GPa)
#
#
# Indices 1 2 3 4 5 6 
#
# 1 93.7985 31.4506 1.3804 0.0000 21.9934 0.0000
# 2 31.4506 73.7332 -2.8959 0.0000 5.2533 0.0000
# 3 1.3804 -2.8959 62.2067 0.0000 21.5304 0.0000
# 4 0.0000 0.0000 0.0000 4.8149 0.0000 9.0490
# 5 21.9934 5.2533 21.5304 0.0000 42.4751 0.0000
# 6 0.0000 0.0000 0.0000 9.0490 0.0000 8.2819
#
#
#
# Elastic Compliance Matrix: (Units=1/GPa)
#
#
# Indices 1 2 3 4 5 6 
#
# 1 0.014289 -0.005455 0.002130 0.000000 -0.007804 0.000000
# 2 -0.005455 0.015879 0.000682 0.000000 0.000515 0.000000
# 3 0.002130 0.000682 0.019975 0.000000 -0.011313 0.000000
# 4 0.000000 0.000000 0.000000 -0.197148 0.000000 0.215410
# 5 -0.007804 0.000515 -0.011313 0.000000 0.033254 0.000000
# 6 0.000000 0.000000 0.000000 0.215410 0.000000 -0.114618
#
#
# Mechanical properties :
#
#
# Convention : Reuss Voigt Hill
#
# Bulk Modulus (GPa) = 22.29311 32.17872 27.23591
# Shear Modulus (GPa) = -24.02355 24.43460 0.20553
#
# Velocity S-wave (km/s) = -3.32618 3.35452 0.30765
# Velocity P-wave (km/s) = 2.11772 5.46103 3.55936
#
# Compressibility (1/GPa) = 0.04485690
#
# Stress axis : x y z
#
# Youngs Moduli (GPa) = 69.98572 62.97480 50.06180
#
# Poissons Ratio (x) = 0.34353 -0.10662
# Poissons Ratio (y) = 0.38178 -0.03415
# Poissons Ratio (z) = -0.14906 -0.04295
#
# Static dielectric constant tensor:
#      x y z
#    x 1.796280 0.000000 -0.019590 
#    y 0.000000 1.775450 0.000000 
#    z -0.019590 0.000000 1.897200 
# 
# From -- ./inp_files/190396.got.cif
#   From: 2010.05.17/outbox.cif.g08.bks.cpg/sg15_96_cif.got.tgz:190396.got - 2010.06.03 18:47:42.
