data_PCOD9255304
_publ_section_title
;
Structure prediction by ZEFSAII (Michael W. Deem and Ramdas Pophale) SiO2 
 PCOD9255304
Probable space group: C 2/C
;
_chemical_formula_sum "Si O2"
_cell_formula_units_Z 48
_cell_length_a 13.974453
_cell_length_b 25.272524
_cell_length_c 14.438981
_cell_angle_alpha 90.000000
_cell_angle_beta 32.745288
_cell_angle_gamma 90.000000
_cell_volume 2758.298218
_symmetry_space_group_name_H-M "C 2/C"
_symmetry_group_IT_number 15
_symmetry_cell_setting 'monoclinic'
loop_
_space_group_symop_operation_xyz
x,y,z
-x,y,1/2-z
-x,-y,-z
x,-y,1/2+z
1/2+x,1/2+y,z
1/2-x,1/2+y,1/2-z
1/2-x,1/2-y,-z
1/2+x,1/2-y,1/2+z
loop_
_atom_site_type_symbol
_atom_site_label
_atom_site_fract_x
_atom_site_fract_y
_atom_site_fract_z
Si Si1 0.096614 0.621922 0.455207
Si Si2 0.744309 0.006561 0.385780
Si Si3 0.066334 0.569726 0.300987
Si Si4 0.617288 0.499934 0.516536
Si Si5 0.706943 0.309209 0.566132
Si Si6 0.665966 0.899326 0.176773
O O1 0.198865 0.567428 0.400129
O O2 0.076860 0.619371 0.361227
O O3 0.196408 0.671395 0.418999
O O4 0.913819 0.617394 0.660336
O O5 0.567948 0.970794 0.536419
O O6 0.822030 0.000974 0.425528
O O7 0.907694 0.990250 0.186495
O O8 0.257170 0.542229 0.135234
O O9 0.000000 0.579359 0.250000
O O10 0.680198 0.441632 0.435557
O O11 0.500000 0.315154 0.750000
O O12 0.750000 0.250000 0.500000
O O13 0.771723 0.349741 0.434261
O O14 0.500000 0.922941 0.250000
#
# Coordination Sequence:
#
# PCOD9255304 Si02
#       6
#     8   8   8   8   8   8
#     4  11  20  33  53  77 108 148 182 226 284 327
#     4  10  18  29  48  74 105 148 193 227 269 319
#     4  10  21  36  48  72 113 153 193 230 257 320
#     4  10  17  30  48  71 108 148 188 230 269 319
#     4  11  22  38  58  86 111 138 175 231 293 346
#     4  10  17  30  50  75 106 141 176 228 282 328
#
# _framework density 17.402034
#
# number of rings (size 3 to 8) (size 9 to 14) (size 15 to 20)
#    0.000    1.667    5.000    3.500    0.000    0.667 
#    3.000    0.000    0.000    0.000    0.000    4.667 
#    0.000    0.000    0.000    0.000    0.000    0.000 
#
# Total GULP energy -133889.459797 kJ/mol
# GULP energy per Si atom -5578.727492 kJ/mol
# Density = 1.736243 g / cm^3
# Si number density = 17.402034 Si / 1000 Ang^3
#
#
#
# Elastic Constant Matrix: (Units=GPa)
#
#
# Indices 1 2 3 4 5 6 
#
# 1 85.7181 32.2797 33.9485 0.0013 28.7322 -0.0006
# 2 32.2797 65.8971 33.7205 -0.0002 10.8736 -0.0002
# 3 33.9485 33.7205 146.5016 0.0022 -3.4959 0.0003
# 4 0.0013 -0.0002 0.0022 16.4187 -0.0022 9.6384
# 5 28.7322 10.8736 -3.4959 -0.0022 17.0326 0.0005
# 6 -0.0006 -0.0002 0.0003 9.6384 0.0005 17.5103
#
#
#
# Elastic Compliance Matrix: (Units=1/GPa)
#
#
# Indices 1 2 3 4 5 6 
#
# 1 0.038429 -0.003154 -0.009726 -0.000018 -0.064809 0.000013
# 2 -0.003154 0.020223 -0.004125 0.000000 -0.008437 0.000001
# 3 -0.009726 -0.004125 0.010535 0.000004 0.021202 -0.000003
# 4 -0.000018 0.000000 0.000004 0.089982 0.000045 -0.049530
# 5 -0.064809 -0.008437 0.021202 0.000045 0.177775 -0.000032
# 6 0.000013 0.000001 -0.000003 -0.049530 -0.000032 0.084373
#
#
# Mechanical properties :
#
#
# Convention : Reuss Voigt Hill
#
# Bulk Modulus (GPa) = 28.42685 55.33489 41.88087
# Shear Modulus (GPa) = 10.70544 23.40352 17.05448
#
# Velocity S-wave (km/s) = 2.48298 3.67123 3.13394
# Velocity P-wave (km/s) = 4.95894 7.05957 6.10035
#
# Compressibility (1/GPa) = 0.03517801
#
# Stress axis : x y z
#
# Youngs Moduli (GPa) = 26.02187 49.44803 94.92122
#
# Poissons Ratio (x) = 0.15594 0.92318
# Poissons Ratio (y) = 0.08206 0.39158
# Poissons Ratio (z) = 0.25308 0.20399
#
# Static dielectric constant tensor:
#      x y z
#    x 1.646260 0.000000 0.001630 
#    y 0.000000 1.574000 0.000000 
#    z 0.001630 0.000000 1.651600 
# 
# From -- ./inp_files/50043.got.cif
#   From: 2010.05.17/outbox.cif.g08.bks.cpg/sg15_26_cif.got.tgz:50043.got - 2010.06.03 18:47:42.
