data_PCOD9255998
_publ_section_title
;
Structure prediction by ZEFSAII (Michael W. Deem and Ramdas Pophale) SiO2 
 PCOD9255998
Probable space group: C 2/C
;
_chemical_formula_sum "Si O2"
_cell_formula_units_Z 40
_cell_length_a 17.446736
_cell_length_b 13.396351
_cell_length_c 14.816584
_cell_angle_alpha 90.000000
_cell_angle_beta 29.069019
_cell_angle_gamma 90.000000
_cell_volume 1682.528704
_symmetry_space_group_name_H-M "C 2/C"
_symmetry_group_IT_number 15
_symmetry_cell_setting 'monoclinic'
loop_
_space_group_symop_operation_xyz
x,y,z
-x,y,1/2-z
-x,-y,-z
x,-y,1/2+z
1/2+x,1/2+y,z
1/2-x,1/2+y,1/2-z
1/2-x,1/2-y,-z
1/2+x,1/2-y,1/2+z
loop_
_atom_site_type_symbol
_atom_site_label
_atom_site_fract_x
_atom_site_fract_y
_atom_site_fract_z
Si Si1 0.000000 0.483759 0.750000
Si Si2 0.775086 0.359980 0.507780
Si Si3 0.653680 0.895798 0.416053
Si Si4 0.656703 0.124579 0.360449
Si Si5 0.000000 0.999689 0.750000
Si Si6 0.514570 0.401479 0.048538
O O1 0.126511 0.564346 0.657257
O O2 0.093238 0.420953 0.579959
O O3 0.750000 0.250000 0.500000
O O4 0.852237 0.347118 0.525876
O O5 0.617286 0.423477 0.679293
O O6 0.501861 0.844126 0.527326
O O7 0.834794 0.857774 0.230740
O O8 0.662464 0.003271 0.356452
O O9 0.828236 0.155100 0.146591
O O10 0.946336 0.068074 0.888262
O O11 0.500000 0.500000 0.000000
#
# Coordination Sequence:
#
# PCOD9255998 Si02
#       6
#     4   8   8   8   4   8
#     4  10  17  34  48  78 110 145 192 238 288 340
#     4  11  22  34  49  75 115 164 195 223 276 357
#     4   9  17  30  51  74 100 143 187 238 293 333
#     4   9  18  33  50  71 104 149 189 239 283 334
#     4  12  19  34  52  78 114 147 190 240 292 344
#     4  10  18  33  52  78 104 144 187 240 296 340
#
# _framework density 23.77374
#
# number of rings (size 3 to 8) (size 9 to 14) (size 15 to 20)
#    0.000    2.000    6.000    1.800    0.000    1.600 
#    0.000    0.000    0.000    0.000    0.000    0.000 
#    0.000    3.200    0.400    0.200    0.000    0.000 
#
# Total GULP energy -111489.065499 kJ/mol
# GULP energy per Si atom -5574.453275 kJ/mol
# Density = 2.371963 g / cm^3
# Si number density = 23.773740 Si / 1000 Ang^3
#
#
#
# Elastic Constant Matrix: (Units=GPa)
#
#
# Indices 1 2 3 4 5 6 
#
# 1 139.3040 33.4428 75.5544 0.0001 -11.1750 0.0000
# 2 33.4428 50.5137 39.9366 0.0004 -17.2777 -0.0001
# 3 75.5544 39.9366 189.5976 0.0006 -23.6646 -0.0002
# 4 0.0001 0.0004 0.0006 2.1048 -0.0005 -8.9200
# 5 -11.1750 -17.2777 -23.6646 -0.0005 45.3802 0.0001
# 6 0.0000 -0.0001 -0.0002 -8.9200 0.0001 0.9989
#
#
#
# Elastic Compliance Matrix: (Units=1/GPa)
#
#
# Indices 1 2 3 4 5 6 
#
# 1 0.009842 -0.004347 -0.003113 0.000000 -0.000855 0.000000
# 2 -0.004347 0.027867 -0.003152 0.000000 0.007896 0.000000
# 3 -0.003113 -0.003152 0.007416 0.000000 0.001901 0.000000
# 4 0.000000 0.000000 0.000000 -0.012895 0.000000 -0.115151
# 5 -0.000855 0.007896 0.001901 0.000000 0.025823 -0.000001
# 6 0.000000 0.000000 0.000000 -0.115151 -0.000001 -0.027171
#
#
# Mechanical properties :
#
#
# Convention : Reuss Voigt Hill
#
# Bulk Modulus (GPa) = 41.83951 75.25365 58.54658
# Shear Modulus (GPa) = 83.23125 25.06219 54.14672
#
# Velocity S-wave (km/s) = 5.92332 3.25036 4.77758
# Velocity P-wave (km/s) = 8.02610 6.76826 7.42386
#
# Compressibility (1/GPa) = 0.02390085
#
# Stress axis : x y z
#
# Youngs Moduli (GPa) = 101.60516 35.88427 134.84251
#
# Poissons Ratio (x) = 0.15599 0.41977
# Poissons Ratio (y) = 0.44169 0.42504
# Poissons Ratio (z) = 0.31630 0.11311
#
# Static dielectric constant tensor:
#      x y z
#    x 2.508810 0.000060 0.483600 
#    y 0.000060 2.511200 0.000060 
#    z 0.483600 0.000060 2.629080 
# 
# From -- ./inp_files/70451.got.cif
#   From: 2010.05.17/outbox.cif.g08.bks.cpg/sg15_36_cif.got.tgz:70451.got - 2010.06.03 18:47:42.
