data_PCOD9255579
_publ_section_title
;
Structure prediction by ZEFSAII (Michael W. Deem and Ramdas Pophale) SiO2 
 PCOD9255579
Probable space group: C 2/C
;
_chemical_formula_sum "Si O2"
_cell_formula_units_Z 64
_cell_length_a 15.920906
_cell_length_b 11.737930
_cell_length_c 21.546604
_cell_angle_alpha 90.000000
_cell_angle_beta 55.666062
_cell_angle_gamma 90.000000
_cell_volume 3325.019956
_symmetry_space_group_name_H-M "C 2/C"
_symmetry_group_IT_number 15
_symmetry_cell_setting 'monoclinic'
loop_
_space_group_symop_operation_xyz
x,y,z
-x,y,1/2-z
-x,-y,-z
x,-y,1/2+z
1/2+x,1/2+y,z
1/2-x,1/2+y,1/2-z
1/2-x,1/2-y,-z
1/2+x,1/2-y,1/2+z
loop_
_atom_site_type_symbol
_atom_site_label
_atom_site_fract_x
_atom_site_fract_y
_atom_site_fract_z
Si Si1 0.248212 0.156917 0.646312
Si Si2 0.792143 0.124032 0.191024
Si Si3 0.249835 0.249972 0.836991
Si Si4 0.941667 0.250568 0.839901
Si Si5 0.505581 0.966246 0.598405
Si Si6 0.106334 0.458171 0.241529
Si Si7 0.855007 0.567823 0.051866
Si Si8 0.893735 0.904217 0.175516
O O1 0.314592 0.262502 0.643198
O O2 0.170779 0.212382 0.629659
O O3 0.304235 0.051088 0.593188
O O4 0.181733 0.115119 0.733669
O O5 0.763898 0.166325 0.271996
O O6 0.693880 0.056682 0.202865
O O7 0.882388 0.034011 0.160045
O O8 0.342347 0.160313 0.800550
O O9 0.223773 0.329502 0.905869
O O10 0.153450 0.172524 0.859085
O O11 0.000000 0.269226 0.750000
O O12 0.953832 0.362476 0.876643
O O13 0.999483 0.146134 0.848848
O O14 0.593967 0.046720 0.535584
O O15 0.426901 0.038104 0.672729
O O16 0.445212 0.915256 0.564794
O O17 0.000000 0.475679 0.250000
#
# Coordination Sequence:
#
# PCOD9255579 Si02
#       8
#     8   8   8   8   8   8   8   8
#     4  10  19  31  51  83 108 140 179 233 278 315
#     4  10  17  31  57  77 107 137 187 227 263 319
#     4  10  18  34  54  81 110 138 184 229 267 318
#     4  10  19  32  54  83 108 137 186 239 274 314
#     4  11  20  35  59  81 108 148 191 222 267 338
#     4  11  21  36  58  86 106 140 190 236 267 319
#     4  11  21  35  55  83 114 145 183 224 280 333
#     4   9  16  30  53  77 105 140 182 230 269 312
#
# _framework density 19.248004999999999
#
# number of rings (size 3 to 8) (size 9 to 14) (size 15 to 20)
#    0.000    1.750    3.750    4.125    0.000    0.500 
#    2.250    0.625    0.000    0.750    3.250    0.000 
#    0.000    0.000    0.000    0.000    0.000    0.000 
#
# Total GULP energy -178514.609025 kJ/mol
# GULP energy per Si atom -5578.581532 kJ/mol
# Density = 1.920420 g / cm^3
# Si number density = 19.248005 Si / 1000 Ang^3
#
#
#
# Elastic Constant Matrix: (Units=GPa)
#
#
# Indices 1 2 3 4 5 6 
#
# 1 51.8718 9.7053 -10.9022 0.0000 9.1106 0.0000
# 2 9.7053 95.8560 8.5546 0.0000 -6.0493 0.0000
# 3 -10.9022 8.5546 32.7145 0.0000 -5.5850 0.0000
# 4 0.0000 0.0000 0.0000 16.6224 0.0000 1.1964
# 5 9.1106 -6.0493 -5.5850 0.0000 13.1177 0.0000
# 6 0.0000 0.0000 0.0000 1.1964 0.0000 20.2583
#
#
#
# Elastic Compliance Matrix: (Units=1/GPa)
#
#
# Indices 1 2 3 4 5 6 
#
# 1 0.024170 -0.004022 0.006388 0.000000 -0.015922 0.000000
# 2 -0.004022 0.011552 -0.003208 0.000000 0.006755 0.000000
# 3 0.006388 -0.003208 0.035075 0.000000 0.009017 0.000000
# 4 0.000000 0.000000 0.000000 0.060416 0.000000 -0.003568
# 5 -0.015922 0.006755 0.009017 0.000000 0.094245 0.000000
# 6 0.000000 0.000000 0.000000 -0.003568 0.000000 0.049573
#
#
# Mechanical properties :
#
#
# Convention : Reuss Voigt Hill
#
# Bulk Modulus (GPa) = 14.46899 21.68419 18.07659
# Shear Modulus (GPa) = 16.68042 21.53867 19.10955
#
# Velocity S-wave (km/s) = 2.94701 3.34879 3.15430
# Velocity P-wave (km/s) = 4.37187 5.12276 4.76214
#
# Compressibility (1/GPa) = 0.06911334
#
# Stress axis : x y z
#
# Youngs Moduli (GPa) = 41.37367 86.56407 28.51061
#
# Poissons Ratio (x) = 0.34817 -0.18214
# Poissons Ratio (y) = 0.16641 0.09146
# Poissons Ratio (z) = -0.26431 0.27769
#
# Static dielectric constant tensor:
#      x y z
#    x 1.701540 0.000000 0.005610 
#    y 0.000000 1.696150 0.000000 
#    z 0.005610 0.000000 1.701470 
# 
# From -- ./inp_files/248355.got.cif
#   From: 2010.05.17/outbox.cif.g08.bks.cpg/sg15_125_cif.got.tgz:248355.got - 2010.06.03 18:47:42.
