data_PCOD9255877
_publ_section_title
;
Structure prediction by ZEFSAII (Michael W. Deem and Ramdas Pophale) SiO2 
 PCOD9255877
Probable space group: C 2/C
;
_chemical_formula_sum "Si O2"
_cell_formula_units_Z 52
_cell_length_a 18.559517
_cell_length_b 12.540068
_cell_length_c 21.178270
_cell_angle_alpha 90.000000
_cell_angle_beta 149.171169
_cell_angle_gamma 90.000000
_cell_volume 2525.979069
_symmetry_space_group_name_H-M "C 2/C"
_symmetry_group_IT_number 15
_symmetry_cell_setting 'monoclinic'
loop_
_space_group_symop_operation_xyz
x,y,z
-x,y,1/2-z
-x,-y,-z
x,-y,1/2+z
1/2+x,1/2+y,z
1/2-x,1/2+y,1/2-z
1/2-x,1/2-y,-z
1/2+x,1/2-y,1/2+z
loop_
_atom_site_type_symbol
_atom_site_label
_atom_site_fract_x
_atom_site_fract_y
_atom_site_fract_z
Si Si1 0.252360 0.153401 0.910769
Si Si2 0.931798 0.218788 0.955441
Si Si3 0.478443 0.569825 0.096195
Si Si4 0.736535 0.421330 0.257906
Si Si5 0.935955 0.583972 0.371023
Si Si6 0.500000 0.497832 0.250000
Si Si7 0.704995 0.623420 0.089573
O O1 0.222757 0.142473 0.812724
O O2 0.133839 0.081137 0.852738
O O3 0.251583 0.279621 0.924397
O O4 0.406488 0.102733 0.034418
O O5 0.803432 0.151463 0.830515
O O6 0.911808 0.334582 0.911018
O O7 0.950513 0.182748 0.041606
O O8 0.070081 0.172554 0.024349
O O9 0.620708 0.515829 0.174958
O O10 0.500060 0.568044 0.187101
O O11 0.354341 0.485143 0.985618
O O12 0.889118 0.470037 0.362352
O O13 0.829815 0.604535 0.232951
#
# Coordination Sequence:
#
# PCOD9255877 Si02
#       7
#     8   8   8   8   8   4   8
#     4  10  22  34  51  82 115 148 185 223 274 339
#     4  10  18  31  57  82 111 144 179 231 292 334
#     4  10  19  36  57  74 109 155 191 217 270 341
#     4  10  17  33  54  82 111 139 178 242 288 327
#     4  11  19  31  56  90 113 136 178 242 295 324
#     4  10  24  40  54  74 114 166 196 212 260 346
#     4  10  18  33  55  85 110 138 179 233 292 329
#
# _framework density 20.586078000000001
#
# number of rings (size 3 to 8) (size 9 to 14) (size 15 to 20)
#    0.000    1.846    4.615    1.385    2.154    0.615 
#    0.000    0.000    0.000    3.692    0.000    0.000 
#    0.000    0.000    0.000    0.000    0.000    0.000 
#
# Total GULP energy -145114.035315 kJ/mol
# GULP energy per Si atom -5581.309051 kJ/mol
# Density = 2.053922 g / cm^3
# Si number density = 20.586078 Si / 1000 Ang^3
#
#
#
# Elastic Constant Matrix: (Units=GPa)
#
#
# Indices 1 2 3 4 5 6 
#
# 1 41.9563 15.7473 20.9467 0.0001 -1.3864 0.0000
# 2 15.7473 31.5121 29.2302 0.0002 3.1313 0.0002
# 3 20.9467 29.2302 113.0814 0.0003 1.5197 0.0002
# 4 0.0001 0.0002 0.0003 30.2881 0.0002 -0.7719
# 5 -1.3864 3.1313 1.5197 0.0002 25.8193 0.0001
# 6 0.0000 0.0002 0.0002 -0.7719 0.0001 16.3714
#
#
#
# Elastic Compliance Matrix: (Units=1/GPa)
#
#
# Indices 1 2 3 4 5 6 
#
# 1 0.030029 -0.013336 -0.002160 0.000000 0.003357 0.000000
# 2 -0.013336 0.048178 -0.009903 0.000000 -0.005976 0.000000
# 3 -0.002160 -0.009903 0.011798 0.000000 0.000391 0.000000
# 4 0.000000 0.000000 0.000000 0.033056 0.000000 0.001558
# 5 0.003357 -0.005976 0.000391 0.000000 0.039613 0.000000
# 6 0.000000 0.000000 0.000000 0.001558 0.000000 0.061156
#
#
# Mechanical properties :
#
#
# Convention : Reuss Voigt Hill
#
# Bulk Modulus (GPa) = 25.50596 35.37759 30.44177
# Shear Modulus (GPa) = 17.37947 22.53747 19.95847
#
# Velocity S-wave (km/s) = 2.90872 3.31235 3.11708
# Velocity P-wave (km/s) = 4.86803 5.64371 5.27016
#
# Compressibility (1/GPa) = 0.03920653
#
# Stress axis : x y z
#
# Youngs Moduli (GPa) = 33.30097 20.75653 84.76106
#
# Poissons Ratio (x) = 0.27681 0.18312
# Poissons Ratio (y) = 0.44410 0.83937
# Poissons Ratio (z) = 0.07194 0.20555
#
# Static dielectric constant tensor:
#      x y z
#    x 1.733460 0.000000 -0.014730 
#    y 0.000000 1.783230 0.000000 
#    z -0.014730 0.000000 1.772110 
# 
# From -- ./inp_files/104951.got.cif
#   From: 2010.05.17/outbox.cif.g08.bks.cpg/sg15_53_cif.got.tgz:104951.got - 2010.06.03 18:47:42.
