data_PCOD9255937
_publ_section_title
;
Structure prediction by ZEFSAII (Michael W. Deem and Ramdas Pophale) SiO2 
 PCOD9255937
Probable space group: C 2/C
;
_chemical_formula_sum "Si O2"
_cell_formula_units_Z 56
_cell_length_a 20.239391
_cell_length_b 10.521514
_cell_length_c 24.050048
_cell_angle_alpha 90.000000
_cell_angle_beta 30.660298
_cell_angle_gamma 90.000000
_cell_volume 2611.660059
_symmetry_space_group_name_H-M "C 2/C"
_symmetry_group_IT_number 15
_symmetry_cell_setting 'monoclinic'
loop_
_space_group_symop_operation_xyz
x,y,z
-x,y,1/2-z
-x,-y,-z
x,-y,1/2+z
1/2+x,1/2+y,z
1/2-x,1/2+y,1/2-z
1/2-x,1/2-y,-z
1/2+x,1/2-y,1/2+z
loop_
_atom_site_type_symbol
_atom_site_label
_atom_site_fract_x
_atom_site_fract_y
_atom_site_fract_z
Si Si1 0.089557 0.341138 0.969191
Si Si2 0.024191 0.910315 0.929178
Si Si3 0.148241 0.382180 0.632909
Si Si4 0.225590 0.700651 0.194999
Si Si5 0.021433 0.407720 0.566834
Si Si6 0.843027 0.993088 0.273346
Si Si7 0.296215 0.601792 0.921712
O O1 0.003871 0.351685 0.975683
O O2 0.227860 0.403094 0.854285
O O3 0.085680 0.197976 0.992694
O O4 0.025982 0.439875 0.058326
O O5 0.158047 0.840251 0.849614
O O6 0.049525 0.972733 0.850519
O O7 0.000000 0.000000 0.000000
O O8 0.227106 0.363594 0.632936
O O9 0.242143 0.449511 0.519745
O O10 0.131770 0.235913 0.622521
O O11 0.000000 0.430813 0.750000
O O12 0.093529 0.643359 0.313986
O O13 0.206784 0.852479 0.207289
O O14 0.158263 0.369037 0.492120
O O15 0.868532 0.978956 0.321380
#
# Coordination Sequence:
#
# PCOD9255937 Si02
#       7
#     8   8   8   8   8   8   8
#     4  10  20  35  54  78 118 156 192 235 301 351
#     4  12  25  37  58  87 117 156 205 251 297 368
#     4  10  18  32  54  86 118 154 189 242 295 365
#     4  11  21  35  57  89 126 149 197 240 303 367
#     4  10  17  33  58  80 117 160 184 234 300 357
#     4  10  22  37  56  83 120 157 189 247 303 363
#     4   9  19  33  51  79 116 154 187 234 300 349
#
# _framework density 21.442298999999998
#
# number of rings (size 3 to 8) (size 9 to 14) (size 15 to 20)
#    0.000    1.714    2.857    4.286    0.000    0.000 
#    2.571    0.000    0.000    0.000    0.000   13.000 
#    0.000    0.000    0.000    0.000    0.000    0.000 
#
# Total GULP energy -156101.592712 kJ/mol
# GULP energy per Si atom -5575.056883 kJ/mol
# Density = 2.139350 g / cm^3
# Si number density = 21.442299 Si / 1000 Ang^3
#
#
#
# Elastic Constant Matrix: (Units=GPa)
#
#
# Indices 1 2 3 4 5 6 
#
# 1 66.0062 9.2892 34.2647 0.0000 10.0609 0.0000
# 2 9.2892 74.3151 57.4935 -0.0001 27.1583 0.0000
# 3 34.2647 57.4935 128.4901 -0.0001 37.7469 0.0000
# 4 0.0000 -0.0001 -0.0001 34.5102 0.0000 2.7356
# 5 10.0609 27.1583 37.7469 0.0000 37.8782 0.0000
# 6 0.0000 0.0000 0.0000 2.7356 0.0000 17.1436
#
#
#
# Elastic Compliance Matrix: (Units=1/GPa)
#
#
# Indices 1 2 3 4 5 6 
#
# 1 0.017841 0.002413 -0.005567 0.000000 -0.000922 0.000000
# 2 0.002413 0.022721 -0.008252 0.000000 -0.008708 0.000000
# 3 -0.005567 -0.008252 0.015252 0.000000 -0.007804 0.000000
# 4 0.000000 0.000000 0.000000 0.029348 0.000000 -0.004683
# 5 -0.000922 -0.008708 -0.007804 0.000000 0.040666 0.000000
# 6 0.000000 0.000000 0.000000 -0.004683 0.000000 0.059078
#
#
# Mechanical properties :
#
#
# Convention : Reuss Voigt Hill
#
# Bulk Modulus (GPa) = 30.29978 52.32292 41.31135
# Shear Modulus (GPa) = 22.86046 29.09067 25.97557
#
# Velocity S-wave (km/s) = 3.26872 3.68733 3.48432
# Velocity P-wave (km/s) = 5.32987 6.52558 5.95780
#
# Compressibility (1/GPa) = 0.03300354
#
# Stress axis : x y z
#
# Youngs Moduli (GPa) = 56.05158 44.01194 65.56402
#
# Poissons Ratio (x) = -0.10622 0.36498
# Poissons Ratio (y) = -0.13528 0.54103
# Poissons Ratio (z) = 0.31203 0.36318
#
# Static dielectric constant tensor:
#      x y z
#    x 1.819660 0.000000 0.041340 
#    y 0.000000 1.782530 0.000000 
#    z 0.041340 0.000000 1.870650 
# 
# From -- ./inp_files/279976.got.cif
#   From: 2010.05.17/outbox.cif.g08.bks.cpg/sg15_140_cif.got.tgz:279976.got - 2010.06.03 18:47:42.
