data_PCOD9255724
_publ_section_title
;
Structure prediction by ZEFSAII (Michael W. Deem and Ramdas Pophale) SiO2 
 PCOD9255724
Probable space group: C 2/C
;
_chemical_formula_sum "Si O2"
_cell_formula_units_Z 56
_cell_length_a 16.966719
_cell_length_b 9.716510
_cell_length_c 22.131102
_cell_angle_alpha 90.000000
_cell_angle_beta 124.804429
_cell_angle_gamma 90.000000
_cell_volume 2995.780250
_symmetry_space_group_name_H-M "C 2/C"
_symmetry_group_IT_number 15
_symmetry_cell_setting 'monoclinic'
loop_
_space_group_symop_operation_xyz
x,y,z
-x,y,1/2-z
-x,-y,-z
x,-y,1/2+z
1/2+x,1/2+y,z
1/2-x,1/2+y,1/2-z
1/2-x,1/2-y,-z
1/2+x,1/2-y,1/2+z
loop_
_atom_site_type_symbol
_atom_site_label
_atom_site_fract_x
_atom_site_fract_y
_atom_site_fract_z
Si Si1 0.527858 0.173929 0.625582
Si Si2 0.274430 0.159606 0.173037
Si Si3 0.712444 0.044101 0.641914
Si Si4 0.566879 0.135936 0.032232
Si Si5 0.443432 0.742006 0.838628
Si Si6 0.122216 0.058894 0.199089
Si Si7 0.070898 0.541371 0.336467
O O1 0.624530 0.087118 0.649642
O O2 0.474894 0.223235 0.541202
O O3 0.561730 0.302189 0.680247
O O4 0.452713 0.073736 0.624986
O O5 0.243847 0.306531 0.131823
O O6 0.352034 0.200394 0.259719
O O7 0.184979 0.087787 0.166255
O O8 0.325538 0.062532 0.147053
O O9 0.799235 0.973914 0.715440
O O10 0.671107 0.935132 0.576242
O O11 0.561620 0.211076 0.094130
O O12 0.500000 0.000000 0.000000
O O13 0.440441 0.578156 0.833402
O O14 0.534878 0.813745 0.848222
O O15 0.000000 0.509172 0.250000
#
# Coordination Sequence:
#
# PCOD9255724 Si02
#       7
#     8   8   8   8   8   8   8
#     4  10  20  33  55  81 107 144 181 215 270 331
#     4   9  18  31  55  82 108 133 182 227 269 307
#     4   9  16  32  53  81 105 141 181 226 257 314
#     4  10  17  32  55  80 108 141 185 213 262 327
#     4  10  18  32  56  79 104 142 179 223 261 316
#     4  10  19  33  56  84 106 132 188 230 261 300
#     4  10  18  34  52  79 107 140 177 220 268 324
#
# _framework density 18.692959999999999
#
# number of rings (size 3 to 8) (size 9 to 14) (size 15 to 20)
#    0.000    2.286    4.286    0.857    0.000    0.571 
#    0.000    4.286    0.000    0.857    0.000    0.000 
#    0.000    0.000    0.000    0.000    0.000    0.000 
#
# Total GULP energy -155929.839878 kJ/mol
# GULP energy per Si atom -5568.922853 kJ/mol
# Density = 1.865041 g / cm^3
# Si number density = 18.692960 Si / 1000 Ang^3
#
#
#
# Elastic Constant Matrix: (Units=GPa)
#
#
# Indices 1 2 3 4 5 6 
#
# 1 44.8381 8.9657 -6.0622 0.0000 -0.8052 0.0000
# 2 8.9657 74.2146 16.2381 0.0000 9.7334 0.0000
# 3 -6.0622 16.2381 69.9083 0.0000 4.2944 0.0000
# 4 0.0000 0.0000 0.0000 18.0710 0.0000 -0.8701
# 5 -0.8052 9.7334 4.2944 0.0000 12.0344 0.0000
# 6 0.0000 0.0000 0.0000 -0.8701 0.0000 17.0445
#
#
#
# Elastic Compliance Matrix: (Units=1/GPa)
#
#
# Indices 1 2 3 4 5 6 
#
# 1 0.023525 -0.003934 0.002721 0.000000 0.003785 0.000000
# 2 -0.003934 0.016293 -0.003374 0.000000 -0.012237 0.000000
# 3 0.002721 -0.003374 0.015485 0.000000 -0.002615 0.000000
# 4 0.000000 0.000000 0.000000 0.055474 0.000000 0.002832
# 5 0.003785 -0.012237 -0.002615 0.000000 0.094178 0.000000
# 6 0.000000 0.000000 0.000000 0.002832 0.000000 0.058815
#
#
# Mechanical properties :
#
#
# Convention : Reuss Voigt Hill
#
# Bulk Modulus (GPa) = 21.67802 25.24934 23.46368
# Shear Modulus (GPa) = 17.34194 20.75127 19.04660
#
# Velocity S-wave (km/s) = 3.04916 3.33545 3.19551
# Velocity P-wave (km/s) = 4.90088 5.32638 5.11805
#
# Compressibility (1/GPa) = 0.04612968
#
# Stress axis : x y z
#
# Youngs Moduli (GPa) = 42.50811 61.37712 64.57975
#
# Poissons Ratio (x) = 0.24144 -0.17574
# Poissons Ratio (y) = 0.16722 0.21788
# Poissons Ratio (z) = -0.11568 0.20708
#
# Static dielectric constant tensor:
#      x y z
#    x 1.667530 0.000000 0.001720 
#    y 0.000000 1.660840 0.000000 
#    z 0.001720 0.000000 1.676660 
# 
# From -- ./inp_files/279416.got.cif
#   From: 2010.05.17/outbox.cif.g08.bks.cpg/sg15_140_cif.got.tgz:279416.got - 2010.06.03 18:47:42.
