data_PCOD9255099
_publ_section_title
;
Structure prediction by ZEFSAII (Michael W. Deem and Ramdas Pophale) SiO2 
 PCOD9255099
Probable space group: C 2/C
;
_chemical_formula_sum "Si O2"
_cell_formula_units_Z 64
_cell_length_a 6.961110
_cell_length_b 16.264489
_cell_length_c 24.371607
_cell_angle_alpha 90.000000
_cell_angle_beta 77.023196
_cell_angle_gamma 90.000000
_cell_volume 2688.856178
_symmetry_space_group_name_H-M "C 2/C"
_symmetry_group_IT_number 15
_symmetry_cell_setting 'monoclinic'
loop_
_space_group_symop_operation_xyz
x,y,z
-x,y,1/2-z
-x,-y,-z
x,-y,1/2+z
1/2+x,1/2+y,z
1/2-x,1/2+y,1/2-z
1/2-x,1/2-y,-z
1/2+x,1/2-y,1/2+z
loop_
_atom_site_type_symbol
_atom_site_label
_atom_site_fract_x
_atom_site_fract_y
_atom_site_fract_z
Si Si1 0.244062 0.987479 0.544983
Si Si2 0.769506 0.161307 0.379665
Si Si3 0.275373 0.293786 0.267688
Si Si4 0.784507 0.840286 0.145467
Si Si5 0.262993 0.502055 0.080002
Si Si6 0.232135 0.122197 0.329458
Si Si7 0.719924 0.593364 0.644733
Si Si8 0.282955 0.434191 0.778291
O O1 0.311171 0.057018 0.583722
O O2 0.003402 0.994231 0.562581
O O3 0.297033 0.899138 0.567651
O O4 0.303142 0.999776 0.478622
O O5 0.729315 0.257009 0.389147
O O6 0.002968 0.142517 0.357878
O O7 0.685308 0.131300 0.325516
O O8 0.500000 0.326395 0.250000
O O9 0.202740 0.312392 0.210930
O O10 0.294883 0.202919 0.291729
O O11 0.169139 0.342954 0.323358
O O12 0.708644 0.921016 0.118617
O O13 0.015375 0.863623 0.140249
O O14 0.197224 0.582253 0.118275
O O15 0.285670 0.052896 0.279610
O O16 0.689931 0.514781 0.686671
O O17 0.500000 0.400142 0.750000
#
# Coordination Sequence:
#
# PCOD9255099 Si02
#       8
#     8   8   8   8   8   8   8   8
#     4   8  16  31  47  72  92 124 171 204 239 284
#     4   9  17  27  47  73  99 123 149 204 256 290
#     4  10  19  30  47  71  99 124 162 206 248 295
#     4  10  17  28  46  75  99 118 155 205 251 292
#     4   9  17  29  49  68  97 128 165 206 236 289
#     4  10  18  30  49  70  99 130 164 200 248 295
#     4   9  17  29  48  69  92 124 163 203 240 289
#     4   9  14  26  46  68  89 121 159 195 240 288
#
# _framework density 23.801942
#
# number of rings (size 3 to 8) (size 9 to 14) (size 15 to 20)
#    0.000    2.750    1.250    4.125    0.000    0.500 
#    0.000    0.625    5.500    0.000    0.000    4.375 
#    0.000    0.000    0.000    0.000    0.000    0.000 
#
# Total GULP energy -178448.660585 kJ/mol
# GULP energy per Si atom -5576.520643 kJ/mol
# Density = 2.374777 g / cm^3
# Si number density = 23.801942 Si / 1000 Ang^3
#
#
#
# Elastic Constant Matrix: (Units=GPa)
#
#
# Indices 1 2 3 4 5 6 
#
# 1 69.1071 21.1048 43.4217 0.0000 -5.8147 0.0000
# 2 21.1048 153.7795 93.0262 0.0000 16.7705 0.0000
# 3 43.4217 93.0262 201.0408 0.0000 25.6565 0.0000
# 4 0.0000 0.0000 0.0000 32.4273 0.0000 -0.3668
# 5 -5.8147 16.7705 25.6565 0.0000 41.3335 0.0000
# 6 0.0000 0.0000 0.0000 -0.3668 0.0000 24.4104
#
#
#
# Elastic Compliance Matrix: (Units=1/GPa)
#
#
# Indices 1 2 3 4 5 6 
#
# 1 0.017767 -0.000399 -0.004336 0.000000 0.005353 0.000000
# 2 -0.000399 0.009091 -0.003956 0.000000 -0.001289 0.000000
# 3 -0.004336 -0.003956 0.008269 0.000000 -0.004138 0.000000
# 4 0.000000 0.000000 0.000000 0.030843 0.000000 0.000463
# 5 0.005353 -0.001289 -0.004138 0.000000 0.028038 0.000000
# 6 0.000000 0.000000 0.000000 0.000463 0.000000 0.040973
#
#
# Mechanical properties :
#
#
# Convention : Reuss Voigt Hill
#
# Bulk Modulus (GPa) = 56.35271 82.11474 69.23373
# Shear Modulus (GPa) = 31.58984 37.39257 34.49120
#
# Velocity S-wave (km/s) = 3.64702 3.96787 3.81082
# Velocity P-wave (km/s) = 6.43906 7.45426 6.96518
#
# Compressibility (1/GPa) = 0.01774537
#
# Stress axis : x y z
#
# Youngs Moduli (GPa) = 56.28463 109.99494 120.93162
#
# Poissons Ratio (x) = 0.04392 0.52432
# Poissons Ratio (y) = 0.02247 0.47841
# Poissons Ratio (z) = 0.24403 0.43514
#
# Static dielectric constant tensor:
#      x y z
#    x 2.094970 0.000000 0.053970 
#    y 0.000000 1.945850 0.000000 
#    z 0.053970 0.000000 1.888180 
# 
# From -- ./inp_files/269741.got.cif
#   From: 2010.05.17/outbox.cif.g08.bks.cpg/sg15_135_cif.got.tgz:269741.got - 2010.06.03 18:47:42.
