data_PCOD9255483
_publ_section_title
;
Structure prediction by ZEFSAII (Michael W. Deem and Ramdas Pophale) SiO2 
 PCOD9255483
Probable space group: C 2/C
;
_chemical_formula_sum "Si O2"
_cell_formula_units_Z 56
_cell_length_a 12.852242
_cell_length_b 12.824823
_cell_length_c 17.808700
_cell_angle_alpha 90.000000
_cell_angle_beta 54.925222
_cell_angle_gamma 90.000000
_cell_volume 2402.312923
_symmetry_space_group_name_H-M "C 2/C"
_symmetry_group_IT_number 15
_symmetry_cell_setting 'monoclinic'
loop_
_space_group_symop_operation_xyz
x,y,z
-x,y,1/2-z
-x,-y,-z
x,-y,1/2+z
1/2+x,1/2+y,z
1/2-x,1/2+y,1/2-z
1/2-x,1/2-y,-z
1/2+x,1/2-y,1/2+z
loop_
_atom_site_type_symbol
_atom_site_label
_atom_site_fract_x
_atom_site_fract_y
_atom_site_fract_z
Si Si1 0.135081 0.642624 0.435731
Si Si2 0.722009 0.064829 0.833948
Si Si3 0.060621 0.079610 0.327866
Si Si4 0.270956 0.904986 0.438847
Si Si5 0.848399 0.716101 0.771309
Si Si6 0.338491 0.423363 0.435710
Si Si7 0.509203 0.669343 0.498636
O O1 0.130554 0.526798 0.403971
O O2 0.196764 0.643625 0.493292
O O3 0.224884 0.711807 0.343739
O O4 0.005846 0.706670 0.499561
O O5 0.672954 0.142230 0.791209
O O6 0.778905 0.120144 0.884710
O O7 0.835436 0.998057 0.748080
O O8 0.055843 0.193274 0.293267
O O9 0.088824 0.108437 0.402717
O O10 0.926074 0.022075 0.374549
O O11 0.364337 0.858931 0.337164
O O12 0.131705 0.876020 0.462665
O O13 0.264424 0.026798 0.464392
O O14 0.435097 0.355347 0.443505
#
# Coordination Sequence:
#
# PCOD9255483 Si02
#       7
#     8   8   8   8   8   8   8
#     4   9  19  32  49  72 103 135 165 200 249 302
#     4  10  20  33  48  75 105 132 163 204 249 297
#     4  10  19  29  49  78  99 122 168 215 244 281
#     4   9  17  31  48  72 103 131 160 202 252 297
#     4  10  18  31  49  73 102 135 163 202 253 298
#     4  10  19  31  52  78 101 127 167 211 248 288
#     4  10  17  31  51  74  99 134 166 206 250 291
#
# _framework density 23.310867999999999
#
# number of rings (size 3 to 8) (size 9 to 14) (size 15 to 20)
#    0.000    2.286    0.000    6.429    0.000    3.429 
#    0.000    1.429    0.000    0.000    0.000   42.000 
#    0.000    0.000    0.000    0.000    0.000    0.000 
#
# Total GULP energy -156270.053800 kJ/mol
# GULP energy per Si atom -5581.073350 kJ/mol
# Density = 2.325781 g / cm^3
# Si number density = 23.310868 Si / 1000 Ang^3
#
#
#
# Elastic Constant Matrix: (Units=GPa)
#
#
# Indices 1 2 3 4 5 6 
#
# 1 80.3682 52.7864 52.8715 0.0000 34.4078 0.0000
# 2 52.7864 77.9135 40.0709 0.0000 33.9645 0.0000
# 3 52.8715 40.0709 109.1406 0.0000 31.3724 0.0000
# 4 0.0000 0.0000 0.0000 40.4898 0.0000 11.4044
# 5 34.4078 33.9645 31.3724 0.0000 45.2770 0.0000
# 6 0.0000 0.0000 0.0000 11.4044 0.0000 18.1880
#
#
#
# Elastic Compliance Matrix: (Units=1/GPa)
#
#
# Indices 1 2 3 4 5 6 
#
# 1 0.028395 -0.012372 -0.007090 0.000000 -0.007385 0.000000
# 2 -0.012372 0.025672 -0.000748 0.000000 -0.009338 0.000000
# 3 -0.007090 -0.000748 0.013938 0.000000 -0.003708 0.000000
# 4 0.000000 0.000000 0.000000 0.029995 0.000000 -0.018808
# 5 -0.007385 -0.009338 -0.003708 0.000000 0.037272 0.000000
# 6 0.000000 0.000000 0.000000 -0.018808 0.000000 0.066774
#
#
# Mechanical properties :
#
#
# Convention : Reuss Voigt Hill
#
# Bulk Modulus (GPa) = 36.25251 62.09777 49.17514
# Shear Modulus (GPa) = 19.86804 28.90386 24.38595
#
# Velocity S-wave (km/s) = 2.92260 3.52509 3.23789
# Velocity P-wave (km/s) = 5.19368 6.57762 5.92619
#
# Compressibility (1/GPa) = 0.02758430
#
# Stress axis : x y z
#
# Youngs Moduli (GPa) = 35.21795 38.95334 71.74702
#
# Poissons Ratio (x) = 0.48191 0.50871
# Poissons Ratio (y) = 0.43570 0.05367
# Poissons Ratio (z) = 0.24971 0.02914
#
# Static dielectric constant tensor:
#      x y z
#    x 1.944720 0.000000 -0.035170 
#    y 0.000000 1.924640 0.000000 
#    z -0.035170 0.000000 1.990930 
# 
# From -- ./inp_files/204771.got.cif
#   From: 2010.05.17/outbox.cif.g08.bks.cpg/sg15_103_cif.got.tgz:204771.got - 2010.06.03 18:47:42.
