data_PCOD9255171
_publ_section_title
;
Structure prediction by ZEFSAII (Michael W. Deem and Ramdas Pophale) SiO2 
 PCOD9255171
Probable space group: C 2/C
;
_chemical_formula_sum "Si O2"
_cell_formula_units_Z 56
_cell_length_a 28.547566
_cell_length_b 29.222329
_cell_length_c 5.299975
_cell_angle_alpha 90.000000
_cell_angle_beta 67.953248
_cell_angle_gamma 90.000000
_cell_volume 4098.078267
_symmetry_space_group_name_H-M "C 2/C"
_symmetry_group_IT_number 15
_symmetry_cell_setting 'monoclinic'
loop_
_space_group_symop_operation_xyz
x,y,z
-x,y,1/2-z
-x,-y,-z
x,-y,1/2+z
1/2+x,1/2+y,z
1/2-x,1/2+y,1/2-z
1/2-x,1/2-y,-z
1/2+x,1/2-y,1/2+z
loop_
_atom_site_type_symbol
_atom_site_label
_atom_site_fract_x
_atom_site_fract_y
_atom_site_fract_z
Si Si1 0.572165 0.528668 0.410259
Si Si2 0.532052 0.368852 0.938214
Si Si3 0.367012 0.691135 0.276578
Si Si4 0.234993 0.870335 0.518632
Si Si5 0.166705 0.762783 0.155603
Si Si6 0.731166 0.824614 0.549711
Si Si7 0.193759 0.028549 0.161975
O O1 0.559729 0.504454 0.700673
O O2 0.546356 0.577566 0.431071
O O3 0.632967 0.536185 0.280996
O O4 0.500000 0.361856 0.750000
O O5 0.583034 0.339361 0.825988
O O6 0.500000 0.356431 0.250000
O O7 0.318282 0.657397 0.374350
O O8 0.362799 0.721847 0.535287
O O9 0.362189 0.722394 0.038150
O O10 0.263028 0.857148 0.203612
O O11 0.221520 0.923381 0.571574
O O12 0.266242 0.852253 0.695353
O O13 0.218513 0.792695 0.052287
O O14 0.184549 0.710316 0.124464
O O15 0.205695 0.004716 0.403850
#
# Coordination Sequence:
#
# PCOD9255171 Si02
#       7
#     8   8   8   8   8   8   8
#     4  10  21  35  48  59  74  99 138 182 229 270
#     4  12  24  35  47  62  79 102 141 180 225 269
#     4  10  19  32  45  59  80 108 127 164 218 257
#     4  10  17  29  45  61  84 104 133 164 210 248
#     4   9  17  29  45  63  85 100 124 152 204 266
#     4   9  17  26  44  68  82 101 123 159 198 255
#     4  10  19  30  44  60  80 109 142 171 208 258
#
# _framework density 13.66494
#
# number of rings (size 3 to 8) (size 9 to 14) (size 15 to 20)
#    0.000    2.000    1.429    3.429    0.000    5.143 
#    0.000    0.000    0.000    0.000    0.000    0.000 
#    0.000    0.000    0.000    0.000    0.000    0.000 
#
# Total GULP energy -156279.191927 kJ/mol
# GULP energy per Si atom -5581.399712 kJ/mol
# Density = 1.363384 g / cm^3
# Si number density = 13.664940 Si / 1000 Ang^3
#
#
#
# Elastic Constant Matrix: (Units=GPa)
#
#
# Indices 1 2 3 4 5 6 
#
# 1 48.0502 22.3833 25.6234 0.0000 7.1089 0.0000
# 2 22.3833 40.3078 12.9138 0.0000 -6.2565 0.0000
# 3 25.6234 12.9138 79.6012 0.0000 14.6614 0.0000
# 4 0.0000 0.0000 0.0000 19.4195 0.0000 -8.1859
# 5 7.1089 -6.2565 14.6614 0.0000 18.0177 0.0000
# 6 0.0000 0.0000 0.0000 -8.1859 0.0000 12.5077
#
#
#
# Elastic Compliance Matrix: (Units=1/GPa)
#
#
# Indices 1 2 3 4 5 6 
#
# 1 0.035791 -0.021009 -0.004903 0.000000 -0.017427 0.000000
# 2 -0.021009 0.042322 -0.005101 0.000000 0.027136 0.000000
# 3 -0.004903 -0.005101 0.017572 0.000000 -0.014136 0.000000
# 4 0.000000 0.000000 0.000000 0.071113 0.000000 0.046541
# 5 -0.017427 0.027136 -0.014136 0.000000 0.083302 0.000000
# 6 0.000000 0.000000 0.000000 0.046541 0.000000 0.110410
#
#
# Mechanical properties :
#
#
# Convention : Reuss Voigt Hill
#
# Bulk Modulus (GPa) = 29.71028 32.20003 30.95515
# Shear Modulus (GPa) = 11.52720 17.12491 14.32605
#
# Velocity S-wave (km/s) = 2.90756 3.54390 3.24138
# Velocity P-wave (km/s) = 5.74987 6.35301 6.05895
#
# Compressibility (1/GPa) = 0.03365839
#
# Stress axis : x y z
#
# Youngs Moduli (GPa) = 27.93980 23.62831 56.90862
#
# Poissons Ratio (x) = 0.49642 0.27902
# Poissons Ratio (y) = 0.58700 0.29030
# Poissons Ratio (z) = 0.13699 0.12053
#
# Static dielectric constant tensor:
#      x y z
#    x 1.439200 0.000000 0.017400 
#    y 0.000000 1.425290 0.000000 
#    z 0.017400 0.000000 1.453220 
# 
# From -- ./inp_files/11966.got.cif
#   From: 2010.05.17/outbox.cif.g08.bks.cpg/sg15_6_cif.got.tgz:11966.got - 2010.06.03 18:47:42.
