data_PCOD9255570
_publ_section_title
;
Structure prediction by ZEFSAII (Michael W. Deem and Ramdas Pophale) SiO2 
 PCOD9255570
Probable space group: C 2/C
;
_chemical_formula_sum "Si O2"
_cell_formula_units_Z 64
_cell_length_a 29.414102
_cell_length_b 22.159100
_cell_length_c 9.167314
_cell_angle_alpha 90.000000
_cell_angle_beta 36.941354
_cell_angle_gamma 90.000000
_cell_volume 3591.057052
_symmetry_space_group_name_H-M "C 2/C"
_symmetry_group_IT_number 15
_symmetry_cell_setting 'monoclinic'
loop_
_space_group_symop_operation_xyz
x,y,z
-x,y,1/2-z
-x,-y,-z
x,-y,1/2+z
1/2+x,1/2+y,z
1/2-x,1/2+y,1/2-z
1/2-x,1/2-y,-z
1/2+x,1/2-y,1/2+z
loop_
_atom_site_type_symbol
_atom_site_label
_atom_site_fract_x
_atom_site_fract_y
_atom_site_fract_z
Si Si1 0.827793 0.027437 0.594453
Si Si2 0.706117 0.839220 0.700576
Si Si3 0.789616 0.206034 0.706225
Si Si4 0.787840 0.879459 0.947790
Si Si5 0.649279 0.607476 0.518228
Si Si6 0.173382 0.528316 0.616334
Si Si7 0.083434 0.870887 0.473885
Si Si8 0.589031 0.937425 0.047106
O O1 0.822873 0.068896 0.463466
O O2 0.873346 0.067037 0.594289
O O3 0.865336 0.963412 0.464809
O O4 0.743817 0.010038 0.867560
O O5 0.729093 0.821011 0.477159
O O6 0.710568 0.777762 0.781696
O O7 0.770466 0.882821 0.603567
O O8 0.627266 0.873408 0.910090
O O9 0.776931 0.177670 0.580274
O O10 0.868565 0.181107 0.569112
O O11 0.711914 0.911683 0.084049
O O12 0.838892 0.867000 0.674626
O O13 0.589814 0.635961 0.782927
O O14 0.113629 0.547111 0.647794
O O15 0.131641 0.487182 0.840227
O O16 0.000000 0.872689 0.750000
O O17 0.500000 0.938183 0.250000
#
# Coordination Sequence:
#
# PCOD9255570 Si02
#       8
#     8   8   8   8   8   8   8   8
#     4  10  18  33  56  76 108 147 184 225 279 338
#     4  10  19  38  57  79 104 146 194 230 272 333
#     4   9  21  36  58  79 104 146 195 234 272 330
#     4  10  17  31  56  82 105 140 189 235 276 315
#     4  10  18  32  54  79 105 138 184 231 273 326
#     4  11  20  36  54  82 115 152 181 233 282 343
#     4  10  21  35  52  79 112 146 181 227 279 337
#     4  12  23  35  55  86 117 148 183 231 295 350
#
# _framework density 17.822050999999998
#
# number of rings (size 3 to 8) (size 9 to 14) (size 15 to 20)
#    0.000    1.750    3.750    4.125    0.000    1.500 
#    0.000    2.500    0.000    0.000    0.000    3.500 
#    0.000    0.000    0.000    0.000    0.000    0.000 
#
# Total GULP energy -178538.915452 kJ/mol
# GULP energy per Si atom -5579.341108 kJ/mol
# Density = 1.778149 g / cm^3
# Si number density = 17.822051 Si / 1000 Ang^3
#
#
#
# Elastic Constant Matrix: (Units=GPa)
#
#
# Indices 1 2 3 4 5 6 
#
# 1 79.5767 30.2029 47.9378 0.0000 29.4017 0.0000
# 2 30.2029 64.3310 28.5935 0.0000 4.9177 0.0000
# 3 47.9378 28.5935 102.1203 0.0000 16.4229 0.0000
# 4 0.0000 0.0000 0.0000 10.8043 0.0000 4.0468
# 5 29.4017 4.9177 16.4229 0.0000 24.9552 0.0000
# 6 0.0000 0.0000 0.0000 4.0468 0.0000 14.2650
#
#
#
# Elastic Compliance Matrix: (Units=1/GPa)
#
#
# Indices 1 2 3 4 5 6 
#
# 1 0.032083 -0.009382 -0.007439 0.000000 -0.031055 0.000000
# 2 -0.009382 0.020499 -0.002755 0.000000 0.008827 0.000000
# 3 -0.007439 -0.002755 0.014046 0.000000 0.000064 0.000000
# 4 0.000000 0.000000 0.000000 0.103560 0.000000 -0.029379
# 5 -0.031055 0.008827 0.000064 0.000000 0.074878 0.000000
# 6 0.000000 0.000000 0.000000 -0.029379 0.000000 0.078436
#
#
# Mechanical properties :
#
#
# Convention : Reuss Voigt Hill
#
# Bulk Modulus (GPa) = 36.39723 51.05514 43.72619
# Shear Modulus (GPa) = 13.44759 19.29114 16.36937
#
# Velocity S-wave (km/s) = 2.74988 3.29360 3.03395
# Velocity P-wave (km/s) = 5.52715 6.57062 6.07135
#
# Compressibility (1/GPa) = 0.02747462
#
# Stress axis : x y z
#
# Youngs Moduli (GPa) = 31.16909 48.78220 71.19639
#
# Poissons Ratio (x) = 0.45769 0.52965
# Poissons Ratio (y) = 0.29244 0.19616
# Poissons Ratio (z) = 0.23188 0.13440
#
# Static dielectric constant tensor:
#      x y z
#    x 1.621550 0.000000 0.036120 
#    y 0.000000 1.613730 0.000000 
#    z 0.036120 0.000000 1.623890 
# 
# From -- ./inp_files/51239.got.cif
#   From: 2010.05.17/outbox.cif.g08.bks.cpg/sg15_26_cif.got.tgz:51239.got - 2010.06.03 18:47:42.
