data_PCOD9255034
_publ_section_title
;
Structure prediction by ZEFSAII (Michael W. Deem and Ramdas Pophale) SiO2 
 PCOD9255034
Probable space group: C 2/C
;
_chemical_formula_sum "Si O2"
_cell_formula_units_Z 56
_cell_length_a 5.452536
_cell_length_b 28.834184
_cell_length_c 17.513823
_cell_angle_alpha 90.000000
_cell_angle_beta 81.500773
_cell_angle_gamma 90.000000
_cell_volume 2723.273730
_symmetry_space_group_name_H-M "C 2/C"
_symmetry_group_IT_number 15
_symmetry_cell_setting 'monoclinic'
loop_
_space_group_symop_operation_xyz
x,y,z
-x,y,1/2-z
-x,-y,-z
x,-y,1/2+z
1/2+x,1/2+y,z
1/2-x,1/2+y,1/2-z
1/2-x,1/2-y,-z
1/2+x,1/2-y,1/2+z
loop_
_atom_site_type_symbol
_atom_site_label
_atom_site_fract_x
_atom_site_fract_y
_atom_site_fract_z
Si Si1 0.528322 0.931899 0.089304
Si Si2 0.937780 0.695790 0.054467
Si Si3 0.467845 0.296704 0.125711
Si Si4 0.942364 0.148443 0.036048
Si Si5 0.500199 0.473964 0.159706
Si Si6 0.973342 0.322972 0.123080
Si Si7 0.405979 0.544653 0.456480
O O1 0.257479 0.951631 0.118321
O O2 0.500596 0.877002 0.101490
O O3 0.749860 0.951390 0.134483
O O4 0.628293 0.945379 0.000229
O O5 0.671591 0.670587 0.072848
O O6 0.957694 0.744426 0.096065
O O7 0.169114 0.664881 0.071309
O O8 0.982336 0.703363 0.960885
O O9 0.198473 0.309862 0.166715
O O10 0.706721 0.307625 0.164122
O O11 0.513658 0.330943 0.050760
O O12 0.961698 0.093220 0.033618
O O13 0.500000 0.468748 0.250000
O O14 0.535316 0.527222 0.130979
O O15 0.500000 0.500000 0.500000
#
# Coordination Sequence:
#
# PCOD9255034 Si02
#       7
#     8   8   8   8   8   8   8
#     4  11  21  38  60  82 109 150 192 239 279 337
#     4  10  18  27  46  71 118 150 169 218 289 328
#     4  10  17  28  44  73 117 151 168 217 287 332
#     4  10  18  29  44  72 108 143 189 217 269 333
#     4  11  25  41  57  79 114 149 193 240 292 338
#     4  10  17  27  48  72 108 140 184 213 271 329
#     4  10  22  36  59  84 111 151 195 238 282 335
#
# _framework density 20.563485
#
# number of rings (size 3 to 8) (size 9 to 14) (size 15 to 20)
#    0.000    1.714    2.857    6.000    6.000    2.286 
#    0.000    0.000    0.000    0.000    0.000    0.000 
#    0.000   38.857    0.000    0.000    0.000    0.000 
#
# Total GULP energy -156210.842371 kJ/mol
# GULP energy per Si atom -5578.958656 kJ/mol
# Density = 2.051668 g / cm^3
# Si number density = 20.563485 Si / 1000 Ang^3
#
#
#
# Elastic Constant Matrix: (Units=GPa)
#
#
# Indices 1 2 3 4 5 6 
#
# 1 200.1094 58.8150 26.4749 0.0000 -4.7050 0.0000
# 2 58.8150 143.5505 18.8581 0.0000 2.0660 0.0000
# 3 26.4749 18.8581 26.9965 0.0000 3.3035 0.0000
# 4 0.0000 0.0000 0.0000 -13.0468 0.0000 10.8418
# 5 -4.7050 2.0660 3.3035 0.0000 14.0450 0.0000
# 6 0.0000 0.0000 0.0000 10.8418 0.0000 25.8586
#
#
#
# Elastic Compliance Matrix: (Units=1/GPa)
#
#
# Indices 1 2 3 4 5 6 
#
# 1 0.006364 -0.001961 -0.005320 0.000000 0.003672 0.000000
# 2 -0.001961 0.008275 -0.003735 0.000000 -0.000996 0.000000
# 3 -0.005320 -0.003735 0.046353 0.000000 -0.012136 0.000000
# 4 0.000000 0.000000 0.000000 -0.056843 0.000000 0.023832
# 5 0.003672 -0.000996 -0.012136 0.000000 0.075431 0.000000
# 6 0.000000 0.000000 0.000000 0.023832 0.000000 0.028680
#
#
# Mechanical properties :
#
#
# Convention : Reuss Voigt Hill
#
# Bulk Modulus (GPa) = 25.66799 64.32803 44.99801
# Shear Modulus (GPa) = 34.89691 23.13859 29.01775
#
# Velocity S-wave (km/s) = 4.12397 3.35808 3.76058
# Velocity P-wave (km/s) = 5.93175 6.81074 6.38638
#
# Compressibility (1/GPa) = 0.03895902
#
# Stress axis : x y z
#
# Youngs Moduli (GPa) = 157.13530 120.84933 21.57342
#
# Poissons Ratio (x) = 0.23703 0.11478
# Poissons Ratio (y) = 0.30820 0.08058
# Poissons Ratio (z) = 0.83600 0.45136
#
# Static dielectric constant tensor:
#      x y z
#    x 1.864540 0.000000 0.060540 
#    y 0.000000 1.730300 0.000000 
#    z 0.060540 0.000000 1.877970 
# 
# From -- ./inp_files/228330.got.cif
#   From: 2010.05.17/outbox.cif.g08.bks.cpg/sg15_115_cif.got.tgz:228330.got - 2010.06.03 18:47:42.
