data_PCOD9255023
_publ_section_title
;
Structure prediction by ZEFSAII (Michael W. Deem and Ramdas Pophale) SiO2 
 PCOD9255023
Probable space group: C 2/C
;
_chemical_formula_sum "Si O2"
_cell_formula_units_Z 44
_cell_length_a 23.619816
_cell_length_b 9.311302
_cell_length_c 7.971130
_cell_angle_alpha 90.000000
_cell_angle_beta 65.012560
_cell_angle_gamma 90.000000
_cell_volume 1589.011014
_symmetry_space_group_name_H-M "C 2/C"
_symmetry_group_IT_number 15
_symmetry_cell_setting 'monoclinic'
loop_
_space_group_symop_operation_xyz
x,y,z
-x,y,1/2-z
-x,-y,-z
x,-y,1/2+z
1/2+x,1/2+y,z
1/2-x,1/2+y,1/2-z
1/2-x,1/2-y,-z
1/2+x,1/2-y,1/2+z
loop_
_atom_site_type_symbol
_atom_site_label
_atom_site_fract_x
_atom_site_fract_y
_atom_site_fract_z
Si Si1 0.616978 0.329593 0.856986
Si Si2 0.660993 0.313980 0.151707
Si Si3 0.190954 0.230206 0.955785
Si Si4 0.017697 0.201770 0.920544
Si Si5 0.500000 0.919800 0.250000
Si Si6 0.631094 0.959058 0.523318
O O1 0.643536 0.351548 0.640035
O O2 0.658012 0.377373 0.966839
O O3 0.545922 0.385653 0.953543
O O4 0.619257 0.155268 0.886948
O O5 0.703542 0.342930 0.259707
O O6 0.590854 0.335891 0.314278
O O7 0.668902 0.144631 0.100349
O O8 0.163218 0.389126 0.956159
O O9 0.250000 0.250000 0.000000
O O10 0.000000 0.233568 0.750000
O O11 0.012964 0.322881 0.070168
O O12 0.436903 0.009581 0.314520
#
# Coordination Sequence:
#
# PCOD9255023 Si02
#       6
#     8   8   8   8   4   8
#     4   9  20  32  47  67  93 120 157 186 227 272
#     4   9  20  32  47  67  93 120 157 186 227 272
#     4  12  22  32  44  59  89 135 165 188 219 253
#     4  10  17  27  46  74  96 120 144 185 229 277
#     4  12  18  26  46  76 102 114 150 184 222 280
#     4  10  20  32  47  70  95 121 154 192 224 269
#
# _framework density 27.690179000000001
#
# number of rings (size 3 to 8) (size 9 to 14) (size 15 to 20)
#    1.091    0.727    3.636    2.182    0.000    2.182 
#    0.000    0.000    0.000    0.000    0.000    0.000 
#    0.000    0.000    0.000   58.909    0.000    1.455 
#
# Total GULP energy -122838.010589 kJ/mol
# GULP energy per Si atom -5583.545936 kJ/mol
# Density = 2.762716 g / cm^3
# Si number density = 27.690179 Si / 1000 Ang^3
#
#
#
# Elastic Constant Matrix: (Units=GPa)
#
#
# Indices 1 2 3 4 5 6 
#
# 1 93.4137 -0.2323 22.8504 0.0000 16.6889 0.0000
# 2 -0.2323 98.5603 37.1911 0.0000 -5.5134 0.0000
# 3 22.8504 37.1911 156.3905 0.0000 19.6262 0.0000
# 4 0.0000 0.0000 0.0000 29.3143 0.0000 23.0232
# 5 16.6889 -5.5134 19.6262 0.0000 48.7813 0.0000
# 6 0.0000 0.0000 0.0000 23.0232 0.0000 163.2497
#
#
#
# Elastic Compliance Matrix: (Units=1/GPa)
#
#
# Indices 1 2 3 4 5 6 
#
# 1 0.011645 0.000350 -0.001358 0.000000 -0.003398 0.000000
# 2 0.000350 0.011442 -0.003075 0.000000 0.002411 0.000000
# 3 -0.001358 -0.003075 0.007698 0.000000 -0.002980 0.000000
# 4 0.000000 0.000000 0.000000 0.038362 0.000000 -0.005410
# 5 -0.003398 0.002411 -0.002980 0.000000 0.023134 0.000000
# 6 0.000000 0.000000 0.000000 -0.005410 0.000000 0.006889
#
#
# Mechanical properties :
#
#
# Convention : Reuss Voigt Hill
#
# Bulk Modulus (GPa) = 44.21056 51.99810 48.10433
# Shear Modulus (GPa) = 43.52553 67.50607 55.51580
#
# Velocity S-wave (km/s) = 3.96899 4.94287 4.48246
# Velocity P-wave (km/s) = 6.08315 7.16905 6.64831
#
# Compressibility (1/GPa) = 0.02261903
#
# Stress axis : x y z
#
# Youngs Moduli (GPa) = 85.87182 87.39784 129.90648
#
# Poissons Ratio (x) = -0.03058 0.17645
# Poissons Ratio (y) = -0.03005 0.39941
# Poissons Ratio (z) = 0.11664 0.26872
#
# Static dielectric constant tensor:
#      x y z
#    x 2.203480 0.000000 -0.027950 
#    y 0.000000 2.272430 0.000000 
#    z -0.027950 0.000000 2.162300 
# 
# From -- ./inp_files/61037.got.cif
#   From: 2010.05.17/outbox.cif.g08.bks.cpg/sg15_31_cif.got.tgz:61037.got - 2010.06.03 18:47:42.
