data_PCOD9255269
_publ_section_title
;
Structure prediction by ZEFSAII (Michael W. Deem and Ramdas Pophale) SiO2 
 PCOD9255269
Probable space group: C 2/C
;
_chemical_formula_sum "Si O2"
_cell_formula_units_Z 44
_cell_length_a 5.879441
_cell_length_b 16.666933
_cell_length_c 19.190279
_cell_angle_alpha 90.000000
_cell_angle_beta 75.216369
_cell_angle_gamma 90.000000
_cell_volume 1818.247194
_symmetry_space_group_name_H-M "C 2/C"
_symmetry_group_IT_number 15
_symmetry_cell_setting 'monoclinic'
loop_
_space_group_symop_operation_xyz
x,y,z
-x,y,1/2-z
-x,-y,-z
x,-y,1/2+z
1/2+x,1/2+y,z
1/2-x,1/2+y,1/2-z
1/2-x,1/2-y,-z
1/2+x,1/2-y,1/2+z
loop_
_atom_site_type_symbol
_atom_site_label
_atom_site_fract_x
_atom_site_fract_y
_atom_site_fract_z
Si Si1 0.000000 0.874819 0.250000
Si Si2 0.464557 0.207271 0.650217
Si Si3 0.000000 0.158235 0.250000
Si Si4 0.846377 0.368877 0.027384
Si Si5 0.459152 0.976077 0.906766
Si Si6 0.616504 0.584219 0.887605
Si Si7 0.500000 0.924377 0.750000
O O1 0.778415 0.819437 0.291716
O O2 0.966795 0.930004 0.184737
O O3 0.563077 0.285614 0.679106
O O4 0.427686 0.203921 0.569714
O O5 0.656392 0.138407 0.644391
O O6 0.244461 0.119444 0.260270
O O7 0.566838 0.365396 0.052825
O O8 0.896624 0.454202 0.065098
O O9 0.964485 0.390653 0.945108
O O10 0.506272 0.972063 0.821621
O O11 0.191486 0.007647 0.925740
#
# Coordination Sequence:
#
# PCOD9255269 Si02
#       7
#     4   8   4   8   8   8   4
#     4  10  17  29  56 102 121 151 206 278 324 364
#     4  10  20  37  65  93 119 161 230 270 317 358
#     4  12  26  48  62  95 129 184 222 276 306 380
#     4   9  21  39  69  93 130 160 211 279 325 391
#     4  10  23  42  58 100 131 171 207 256 347 402
#     4  10  19  31  66  96 122 161 202 287 318 387
#     4  12  31  43  68  89 142 179 214 260 330 398
#
# _framework density 24.199131000000001
#
# number of rings (size 3 to 8) (size 9 to 14) (size 15 to 20)
#    0.000    1.818    1.818    1.091   12.727    0.000 
#    0.000    1.818    0.000    0.000    0.000    0.000 
#    0.000    0.000    0.000    0.000    0.000    0.000 
#
# Total GULP energy -122500.670360 kJ/mol
# GULP energy per Si atom -5568.212289 kJ/mol
# Density = 2.414405 g / cm^3
# Si number density = 24.199131 Si / 1000 Ang^3
#
#
#
# Elastic Constant Matrix: (Units=GPa)
#
#
# Indices 1 2 3 4 5 6 
#
# 1 87.5046 18.6398 14.4871 0.0000 -1.3321 0.0000
# 2 18.6398 35.8079 6.4668 0.0000 -0.9841 0.0000
# 3 14.4871 6.4668 78.9940 0.0000 -10.0872 0.0000
# 4 0.0000 0.0000 0.0000 -2.2339 0.0000 -5.0361
# 5 -1.3321 -0.9841 -10.0872 0.0000 22.7810 0.0000
# 6 0.0000 0.0000 0.0000 -5.0361 0.0000 15.7879
#
#
#
# Elastic Compliance Matrix: (Units=1/GPa)
#
#
# Indices 1 2 3 4 5 6 
#
# 1 0.013124 -0.006495 -0.001922 0.000000 -0.000364 0.000000
# 2 -0.006495 0.031561 -0.001343 0.000000 0.000389 0.000000
# 3 -0.001922 -0.001343 0.013885 0.000000 0.005978 0.000000
# 4 0.000000 0.000000 0.000000 -0.260395 0.000000 -0.083062
# 5 -0.000364 0.000389 0.005978 0.000000 0.046539 0.000000
# 6 0.000000 0.000000 0.000000 -0.083062 0.000000 0.036844
#
#
# Mechanical properties :
#
#
# Convention : Reuss Voigt Hill
#
# Bulk Modulus (GPa) = 25.60744 31.27709 28.44226
# Shear Modulus (GPa) = -58.20275 18.11453 -20.04411
#
# Velocity S-wave (km/s) = -4.90956 2.73895 -2.88114
# Velocity P-wave (km/s) = 4.64042 4.79118 0.84319
#
# Compressibility (1/GPa) = 0.03905116
#
# Stress axis : x y z
#
# Youngs Moduli (GPa) = 76.19610 31.68484 72.02068
#
# Poissons Ratio (x) = 0.20578 0.13840
# Poissons Ratio (y) = 0.49487 0.09672
# Poissons Ratio (z) = 0.14643 0.04255
#
# Static dielectric constant tensor:
#      x y z
#    x 2.083970 0.000000 0.040020 
#    y 0.000000 2.007110 0.000000 
#    z 0.040020 0.000000 2.019390 
# 
# From -- ./inp_files/184912.got.cif
#   From: 2010.05.17/outbox.cif.g08.bks.cpg/sg15_93_cif.got.tgz:184912.got - 2010.06.03 18:47:42.
