data_PCOD9255704
_publ_section_title
;
Structure prediction by ZEFSAII (Michael W. Deem and Ramdas Pophale) SiO2 
 PCOD9255704
Probable space group: C 2/C
;
_chemical_formula_sum "Si O2"
_cell_formula_units_Z 56
_cell_length_a 10.774180
_cell_length_b 20.661075
_cell_length_c 19.369931
_cell_angle_alpha 90.000000
_cell_angle_beta 135.672976
_cell_angle_gamma 90.000000
_cell_volume 3012.928025
_symmetry_space_group_name_H-M "C 2/C"
_symmetry_group_IT_number 15
_symmetry_cell_setting 'monoclinic'
loop_
_space_group_symop_operation_xyz
x,y,z
-x,y,1/2-z
-x,-y,-z
x,-y,1/2+z
1/2+x,1/2+y,z
1/2-x,1/2+y,1/2-z
1/2-x,1/2-y,-z
1/2+x,1/2-y,1/2+z
loop_
_atom_site_type_symbol
_atom_site_label
_atom_site_fract_x
_atom_site_fract_y
_atom_site_fract_z
Si Si1 0.000000 0.876024 0.750000
Si Si2 0.418403 0.969874 0.112282
Si Si3 0.667436 0.324698 0.191413
Si Si4 0.000000 0.897085 0.250000
Si Si5 0.049115 0.682761 0.896851
Si Si6 0.365825 0.495002 0.608184
Si Si7 0.723755 0.467935 0.173683
Si Si8 0.292482 0.224199 0.398842
O O1 0.072458 0.925941 0.836653
O O2 0.168279 0.827695 0.809805
O O3 0.418786 0.892079 0.107688
O O4 0.295868 0.990434 0.128551
O O5 0.621863 0.988191 0.210403
O O6 0.319879 0.993956 0.005169
O O7 0.547526 0.351919 0.205034
O O8 0.717429 0.389792 0.169498
O O9 0.604554 0.268906 0.114993
O O10 0.847293 0.300779 0.298869
O O11 0.858572 0.949255 0.164053
O O12 0.166224 0.727578 0.893183
O O13 0.090985 0.692926 0.994170
O O14 0.529759 0.511459 0.621758
#
# Coordination Sequence:
#
# PCOD9255704 Si02
#       8
#     4   8   8   4   8   8   8   8
#     4  11  20  32  50  80 110 131 166 226 280 311
#     4  10  17  32  54  80 108 137 180 218 270 322
#     4  10  18  36  54  74 107 143 181 222 255 321
#     4   9  22  38  54  72 102 153 190 210 256 327
#     4  10  19  30  53  86 106 130 176 218 279 323
#     4  10  20  36  50  78 113 138 179 219 268 322
#     4   9  19  32  53  79 106 147 175 219 264 323
#     4  11  19  32  54  83 110 132 168 230 278 313
#
# _framework density 18.586570999999999
#
# number of rings (size 3 to 8) (size 9 to 14) (size 15 to 20)
#    0.000    2.000    4.286    0.429    0.000    0.000 
#    2.571    3.571    0.000    1.714    0.000    0.000 
#    0.000    0.000    0.000    0.000    0.000    0.000 
#
# Total GULP energy -155907.681630 kJ/mol
# GULP energy per Si atom -5568.131487 kJ/mol
# Density = 1.854427 g / cm^3
# Si number density = 18.586571 Si / 1000 Ang^3
#
#
#
# Elastic Constant Matrix: (Units=GPa)
#
#
# Indices 1 2 3 4 5 6 
#
# 1 34.7748 13.6457 2.7199 0.0000 -15.6089 0.0000
# 2 13.6457 59.5611 19.9278 0.0000 -9.6968 0.0000
# 3 2.7199 19.9278 81.1330 0.0000 -8.2695 0.0000
# 4 0.0000 0.0000 0.0000 16.1437 0.0000 -4.8746
# 5 -15.6089 -9.6968 -8.2695 0.0000 22.9723 0.0000
# 6 0.0000 0.0000 0.0000 -4.8746 0.0000 23.4348
#
#
#
# Elastic Compliance Matrix: (Units=1/GPa)
#
#
# Indices 1 2 3 4 5 6 
#
# 1 0.043608 -0.006428 0.002969 0.000000 0.027986 0.000000
# 2 -0.006428 0.020174 -0.004481 0.000000 0.002535 0.000000
# 3 0.002969 -0.004481 0.013848 0.000000 0.005111 0.000000
# 4 0.000000 0.000000 0.000000 0.066095 0.000000 0.013748
# 5 0.027986 0.002535 0.005111 0.000000 0.065456 0.000000
# 6 0.000000 0.000000 0.000000 0.013748 0.000000 0.045531
#
#
# Mechanical properties :
#
#
# Convention : Reuss Voigt Hill
#
# Bulk Modulus (GPa) = 16.19431 27.56173 21.87802
# Shear Modulus (GPa) = 17.17177 21.78854 19.48015
#
# Velocity S-wave (km/s) = 3.04284 3.42756 3.24091
# Velocity P-wave (km/s) = 4.59097 5.52497 5.07948
#
# Compressibility (1/GPa) = 0.06175010
#
# Stress axis : x y z
#
# Youngs Moduli (GPa) = 22.93137 49.56826 72.21511
#
# Poissons Ratio (x) = 0.31863 -0.21444
# Poissons Ratio (y) = 0.14741 0.32362
# Poissons Ratio (z) = -0.06809 0.22213
#
# Static dielectric constant tensor:
#      x y z
#    x 1.659100 0.000000 -0.020270 
#    y 0.000000 1.640110 0.000000 
#    z -0.020270 0.000000 1.676090 
# 
# From -- ./inp_files/200229.got.cif
#   From: 2010.05.17/outbox.cif.g08.bks.cpg/sg15_101_cif.got.tgz:200229.got - 2010.06.03 18:47:42.
