data_PCOD9255643
_publ_section_title
;
Structure prediction by ZEFSAII (Michael W. Deem and Ramdas Pophale) SiO2 
 PCOD9255643
Probable space group: C 2/C
;
_chemical_formula_sum "Si O2"
_cell_formula_units_Z 52
_cell_length_a 9.450995
_cell_length_b 21.118281
_cell_length_c 15.398412
_cell_angle_alpha 90.000000
_cell_angle_beta 116.282744
_cell_angle_gamma 90.000000
_cell_volume 2755.626632
_symmetry_space_group_name_H-M "C 2/C"
_symmetry_group_IT_number 15
_symmetry_cell_setting 'monoclinic'
loop_
_space_group_symop_operation_xyz
x,y,z
-x,y,1/2-z
-x,-y,-z
x,-y,1/2+z
1/2+x,1/2+y,z
1/2-x,1/2+y,1/2-z
1/2-x,1/2-y,-z
1/2+x,1/2-y,1/2+z
loop_
_atom_site_type_symbol
_atom_site_label
_atom_site_fract_x
_atom_site_fract_y
_atom_site_fract_z
Si Si1 0.702759 0.128390 0.756014
Si Si2 0.619035 0.499690 0.451250
Si Si3 0.727918 0.129413 0.079249
Si Si4 0.500000 0.017268 0.750000
Si Si5 0.903890 0.698468 0.612603
Si Si6 0.500000 0.310663 0.750000
Si Si7 0.450431 0.050547 0.059627
Si Si8 0.500000 0.428566 0.250000
O O1 0.652149 0.062826 0.788239
O O2 0.550253 0.148474 0.657551
O O3 0.707176 0.179467 0.835099
O O4 0.854138 0.115234 0.739959
O O5 0.500000 0.500000 0.500000
O O6 0.693835 0.569208 0.450258
O O7 0.762196 0.450696 0.508527
O O8 0.540538 0.473214 0.342390
O O9 0.556171 0.110771 0.068169
O O10 0.845396 0.147708 0.189510
O O11 0.691730 0.185247 0.000550
O O12 0.496632 0.976239 0.834213
O O13 0.988455 0.763937 0.663100
O O14 0.500000 0.000000 0.000000
#
# Coordination Sequence:
#
# PCOD9255643 Si02
#       8
#     8   8   8   4   8   4   8   4
#     4   9  17  30  53  78 105 146 182 215 265 320
#     4  11  22  33  52  85 119 150 177 212 271 338
#     4  11  20  36  55  79 110 139 181 232 274 332
#     4  10  17  32  50  74 110 144 179 216 256 334
#     4   9  19  38  56  74 101 141 189 233 276 326
#     4  10  22  34  58  84  98 134 190 242 284 308
#     4  10  20  33  52  78 110 149 178 210 270 333
#     4  12  19  30  50  82 118 144 177 226 266 330
#
# _framework density 18.870480000000001
#
# number of rings (size 3 to 8) (size 9 to 14) (size 15 to 20)
#    0.000    2.154    0.000    9.231    0.000    1.231 
#    0.000    0.000    0.000   11.077    0.000   22.615 
#    0.000    0.000    0.000    0.000    0.000    0.000 
#
# Total GULP energy -144849.916123 kJ/mol
# GULP energy per Si atom -5571.150620 kJ/mol
# Density = 1.882753 g / cm^3
# Si number density = 18.870480 Si / 1000 Ang^3
#
#
#
# Elastic Constant Matrix: (Units=GPa)
#
#
# Indices 1 2 3 4 5 6 
#
# 1 146.4480 30.6664 33.2027 0.0000 -0.7034 0.0000
# 2 30.6664 53.6218 24.1870 0.0000 6.3080 0.0000
# 3 33.2027 24.1870 116.2706 0.0000 2.0073 0.0000
# 4 0.0000 0.0000 0.0000 11.8004 0.0000 6.6265
# 5 -0.7034 6.3080 2.0073 0.0000 29.4461 0.0000
# 6 0.0000 0.0000 0.0000 6.6265 0.0000 1.3768
#
#
#
# Elastic Compliance Matrix: (Units=1/GPa)
#
#
# Indices 1 2 3 4 5 6 
#
# 1 0.008016 -0.004061 -0.001465 0.000000 0.001161 0.000000
# 2 -0.004061 0.023149 -0.003573 0.000000 -0.004812 0.000000
# 3 -0.001465 -0.003573 0.009761 0.000000 0.000065 0.000000
# 4 0.000000 0.000000 0.000000 -0.049768 0.000000 0.239537
# 5 0.001161 -0.004812 0.000065 0.000000 0.035015 0.000000
# 6 0.000000 0.000000 0.000000 0.239537 0.000000 -0.426567
#
#
# Mechanical properties :
#
#
# Convention : Reuss Voigt Hill
#
# Bulk Modulus (GPa) = 43.99393 54.71695 49.35544
# Shear Modulus (GPa) = -13.34682 23.74362 5.19840
#
# Velocity S-wave (km/s) = -2.66237 3.55102 1.66155
# Velocity P-wave (km/s) = 3.73005 6.77289 5.46742
#
# Compressibility (1/GPa) = 0.02273041
#
# Stress axis : x y z
#
# Youngs Moduli (GPa) = 124.74659 43.19820 102.44884
#
# Poissons Ratio (x) = 0.17541 0.15004
# Poissons Ratio (y) = 0.50654 0.36604
# Poissons Ratio (z) = 0.18269 0.15434
#
# Static dielectric constant tensor:
#      x y z
#    x 1.593340 0.000000 0.015660 
#    y 0.000000 1.734040 0.000000 
#    z 0.015660 0.000000 1.684040 
# 
# From -- ./inp_files/137559.got.cif
#   From: 2010.05.17/outbox.cif.g08.bks.cpg/sg15_69_cif.got.tgz:137559.got - 2010.06.03 18:47:42.
