data_PCOD9255562
_publ_section_title
;
Structure prediction by ZEFSAII (Michael W. Deem and Ramdas Pophale) SiO2 
 PCOD9255562
Probable space group: C 2/C
;
_chemical_formula_sum "Si O2"
_cell_formula_units_Z 56
_cell_length_a 19.000355
_cell_length_b 7.389884
_cell_length_c 14.485964
_cell_angle_alpha 90.000000
_cell_angle_beta 90.678031
_cell_angle_gamma 90.000000
_cell_volume 2033.837863
_symmetry_space_group_name_H-M "C 2/C"
_symmetry_group_IT_number 15
_symmetry_cell_setting 'monoclinic'
loop_
_space_group_symop_operation_xyz
x,y,z
-x,y,1/2-z
-x,-y,-z
x,-y,1/2+z
1/2+x,1/2+y,z
1/2-x,1/2+y,1/2-z
1/2-x,1/2-y,-z
1/2+x,1/2-y,1/2+z
loop_
_atom_site_type_symbol
_atom_site_label
_atom_site_fract_x
_atom_site_fract_y
_atom_site_fract_z
Si Si1 0.764033 0.960815 0.974706
Si Si2 0.197051 0.982106 0.741429
Si Si3 0.385589 0.972512 0.569590
Si Si4 0.562371 0.604327 0.690207
Si Si5 0.157172 0.585264 0.731266
Si Si6 0.581603 0.574299 0.007513
Si Si7 0.477631 0.988563 0.353281
O O1 0.776083 0.978812 0.864198
O O2 0.684813 0.044810 0.982397
O O3 0.840942 0.016099 0.018671
O O4 0.750000 0.750000 0.000000
O O5 0.134544 0.125671 0.747454
O O6 0.167019 0.788451 0.766276
O O7 0.266082 0.024312 0.800802
O O8 0.368122 0.976566 0.678854
O O9 0.407181 0.772144 0.535271
O O10 0.461689 0.074689 0.575579
O O11 0.500000 0.529064 0.750000
O O12 0.583880 0.455889 0.616851
O O13 0.533854 0.793355 0.649914
O O14 0.102379 0.575291 0.646962
O O15 0.500000 0.500000 0.000000
O O16 0.500000 0.932642 0.250000
#
# Coordination Sequence:
#
# PCOD9255562 Si02
#       7
#     8   8   8   8   8   8   8
#     4   8  17  32  54  81 110 146 192 242 297 350
#     4  10  20  35  55  82 114 153 195 248 300 358
#     4   9  17  32  54  83 112 155 190 240 294 354
#     4  10  20  33  54  86 116 145 197 251 292 349
#     4  10  20  34  55  83 116 153 199 247 301 356
#     4  10  17  31  55  88 116 150 199 242 293 351
#     4   9  17  30  51  79 113 149 192 237 294 346
#
# _framework density 27.534151999999999
#
# number of rings (size 3 to 8) (size 9 to 14) (size 15 to 20)
#    0.000    2.571    1.429    0.857    0.000    2.857 
#    0.000    0.000    0.000   15.429    0.000   27.000 
#    0.000    0.000    0.000    0.000    0.000    0.000 
#
# Total GULP energy -156080.656484 kJ/mol
# GULP energy per Si atom -5574.309160 kJ/mol
# Density = 2.747148 g / cm^3
# Si number density = 27.534152 Si / 1000 Ang^3
#
#
#
# Elastic Constant Matrix: (Units=GPa)
#
#
# Indices 1 2 3 4 5 6 
#
# 1 313.7978 13.5820 52.8894 0.0000 40.4825 0.0000
# 2 13.5820 72.8898 30.7918 0.0000 -6.7406 0.0000
# 3 52.8894 30.7918 53.9345 0.0000 -10.7614 0.0000
# 4 0.0000 0.0000 0.0000 27.1178 0.0000 -1.5077
# 5 40.4825 -6.7406 -10.7614 0.0000 54.3744 0.0000
# 6 0.0000 0.0000 0.0000 -1.5077 0.0000 31.3305
#
#
#
# Elastic Compliance Matrix: (Units=1/GPa)
#
#
# Indices 1 2 3 4 5 6 
#
# 1 0.004821 0.001397 -0.006462 0.000000 -0.004695 0.000000
# 2 0.001397 0.018487 -0.012155 0.000000 -0.001154 0.000000
# 3 -0.006462 -0.012155 0.033812 0.000000 0.009996 0.000000
# 4 0.000000 0.000000 0.000000 0.036975 0.000000 0.001779
# 5 -0.004695 -0.001154 0.009996 0.000000 0.023722 0.000000
# 6 0.000000 0.000000 0.000000 0.001779 0.000000 0.032003
#
#
# Mechanical properties :
#
#
# Convention : Reuss Voigt Hill
#
# Bulk Modulus (GPa) = 44.09113 70.57206 57.33159
# Shear Modulus (GPa) = 26.06593 45.45514 35.76054
#
# Velocity S-wave (km/s) = 3.08015 4.06749 3.60776
# Velocity P-wave (km/s) = 5.35703 6.90983 6.18237
#
# Compressibility (1/GPa) = 0.02268030
#
# Stress axis : x y z
#
# Youngs Moduli (GPa) = 207.41617 54.09196 29.57506
#
# Poissons Ratio (x) = -0.07559 0.19113
# Poissons Ratio (y) = -0.28985 0.35949
# Poissons Ratio (z) = 1.34042 0.65749
#
# Static dielectric constant tensor:
#      x y z
#    x 2.378730 0.000000 0.109210 
#    y 0.000000 2.110440 0.000000 
#    z 0.109210 0.000000 2.150350 
# 
# From -- ./inp_files/246971.got.cif
#   From: 2010.05.17/outbox.cif.g08.bks.cpg/sg15_124_cif.got.tgz:246971.got - 2010.06.03 18:47:42.
