data_PCOD9255233
_publ_section_title
;
Structure prediction by ZEFSAII (Michael W. Deem and Ramdas Pophale) SiO2 
 PCOD9255233
Probable space group: C 2/C
;
_chemical_formula_sum "Si O2"
_cell_formula_units_Z 48
_cell_length_a 24.247296
_cell_length_b 14.723082
_cell_length_c 8.391469
_cell_angle_alpha 90.000000
_cell_angle_beta 62.294944
_cell_angle_gamma 90.000000
_cell_volume 2652.261298
_symmetry_space_group_name_H-M "C 2/C"
_symmetry_group_IT_number 15
_symmetry_cell_setting 'monoclinic'
loop_
_space_group_symop_operation_xyz
x,y,z
-x,y,1/2-z
-x,-y,-z
x,-y,1/2+z
1/2+x,1/2+y,z
1/2-x,1/2+y,1/2-z
1/2-x,1/2-y,-z
1/2+x,1/2-y,1/2+z
loop_
_atom_site_type_symbol
_atom_site_label
_atom_site_fract_x
_atom_site_fract_y
_atom_site_fract_z
Si Si1 0.352357 0.739411 0.300487
Si Si2 0.447826 0.411616 0.684966
Si Si3 0.220552 0.973043 0.332037
Si Si4 0.632983 0.582814 0.681347
Si Si5 0.269852 0.869560 0.568596
Si Si6 0.940255 0.221317 0.914107
O O1 0.390917 0.653976 0.317875
O O2 0.331859 0.811561 0.459630
O O3 0.288235 0.697569 0.316631
O O4 0.396549 0.774827 0.098014
O O5 0.500000 0.411929 0.750000
O O6 0.420055 0.511121 0.694541
O O7 0.464514 0.362120 0.495602
O O8 0.185591 0.914186 0.245515
O O9 0.253222 0.911800 0.418775
O O10 0.167446 0.034321 0.486779
O O11 0.267249 0.045805 0.190435
O O12 0.603307 0.675338 0.660294
O O13 0.000000 0.264820 0.750000
#
# Coordination Sequence:
#
# PCOD9255233 Si02
#       6
#     8   8   8   8   8   8
#     4   9  19  34  48  72  99 138 152 207 244 287
#     4  10  20  31  46  70 101 141 163 186 239 288
#     4  10  17  29  52  73  92 136 158 204 232 294
#     4  11  17  30  43  75 105 131 168 188 224 297
#     4  10  18  34  55  66 102 126 172 197 249 280
#     4  10  20  30  45  68 103 133 167 193 232 285
#
# _framework density 18.097764000000002
#
# number of rings (size 3 to 8) (size 9 to 14) (size 15 to 20)
#    1.000    1.000    6.667    0.500    2.333    1.333 
#    0.000    0.833    7.333    0.000    0.000    3.500 
#    0.000    0.000    0.000    0.000    0.000    0.000 
#
# Total GULP energy -133664.518105 kJ/mol
# GULP energy per Si atom -5569.354921 kJ/mol
# Density = 1.805657 g / cm^3
# Si number density = 18.097764 Si / 1000 Ang^3
#
#
#
# Elastic Constant Matrix: (Units=GPa)
#
#
# Indices 1 2 3 4 5 6 
#
# 1 19.0054 3.9360 12.3139 0.0000 -11.1612 0.0000
# 2 3.9360 21.9490 14.3406 0.0000 -12.0857 0.0000
# 3 12.3139 14.3406 84.7694 0.0000 -16.0772 0.0000
# 4 0.0000 0.0000 0.0000 19.9548 0.0000 -6.7881
# 5 -11.1612 -12.0857 -16.0772 0.0000 26.5238 0.0000
# 6 0.0000 0.0000 0.0000 -6.7881 0.0000 15.0034
#
#
#
# Elastic Compliance Matrix: (Units=1/GPa)
#
#
# Indices 1 2 3 4 5 6 
#
# 1 0.072876 0.007702 -0.006110 0.000000 0.030472 0.000000
# 2 0.007702 0.064161 -0.006569 0.000000 0.028495 0.000000
# 3 -0.006110 -0.006569 0.014395 0.000000 0.003161 0.000000
# 4 0.000000 0.000000 0.000000 0.059229 0.000000 0.026797
# 5 0.030472 0.028495 0.003161 0.000000 0.065425 0.000000
# 6 0.000000 0.000000 0.000000 0.026797 0.000000 0.078776
#
#
# Mechanical properties :
#
#
# Convention : Reuss Voigt Hill
#
# Bulk Modulus (GPa) = 7.06819 20.76720 13.91770
# Shear Modulus (GPa) = 12.13672 18.63862 15.38767
#
# Velocity S-wave (km/s) = 2.59244 3.21266 2.91907
# Velocity P-wave (km/s) = 3.58818 5.02609 4.36673
#
# Compressibility (1/GPa) = 0.14147890
#
# Stress axis : x y z
#
# Youngs Moduli (GPa) = 13.72203 15.58582 69.46812
#
# Poissons Ratio (x) = -0.12005 0.42444
# Poissons Ratio (y) = -0.10569 0.45633
# Poissons Ratio (z) = 0.08384 0.10238
#
# Static dielectric constant tensor:
#      x y z
#    x 1.626160 0.000000 -0.019430 
#    y 0.000000 1.625590 0.000000 
#    z -0.019430 0.000000 1.703910 
# 
# From -- ./inp_files/62918.got.cif
#   From: 2010.05.17/outbox.cif.g08.bks.cpg/sg15_32_cif.got.tgz:62918.got - 2010.06.03 18:47:42.
