data_PCOD9255134
_publ_section_title
;
Structure prediction by ZEFSAII (Michael W. Deem and Ramdas Pophale) SiO2 
 PCOD9255134
Probable space group: C 2/C
;
_chemical_formula_sum "Si O2"
_cell_formula_units_Z 32
_cell_length_a 24.052930
_cell_length_b 6.913398
_cell_length_c 20.410261
_cell_angle_alpha 90.000000
_cell_angle_beta 160.905880
_cell_angle_gamma 90.000000
_cell_volume 1110.238866
_symmetry_space_group_name_H-M "C 2/C"
_symmetry_group_IT_number 15
_symmetry_cell_setting 'monoclinic'
loop_
_space_group_symop_operation_xyz
x,y,z
-x,y,1/2-z
-x,-y,-z
x,-y,1/2+z
1/2+x,1/2+y,z
1/2-x,1/2+y,1/2-z
1/2-x,1/2-y,-z
1/2+x,1/2-y,1/2+z
loop_
_atom_site_type_symbol
_atom_site_label
_atom_site_fract_x
_atom_site_fract_y
_atom_site_fract_z
Si Si1 0.406498 0.579150 0.238795
Si Si2 0.628277 0.966518 0.836844
Si Si3 0.150583 0.856703 0.686604
Si Si4 0.215076 0.554235 0.297985
O O1 0.407293 0.805325 0.218442
O O2 0.292575 0.564000 0.178840
O O3 0.597949 0.516869 0.469371
O O4 0.312651 0.467577 0.076377
O O5 0.500000 0.903847 0.750000
O O6 0.626291 0.862933 0.763926
O O7 0.112677 0.636998 0.663330
O O8 0.256410 0.833779 0.737625
O O9 0.000000 0.000000 0.500000
#
# Coordination Sequence:
#
# PCOD9255134 Si02
#       4
#     8   8   8   8
#     4   9  17  31  51  76 104 133 175 223 264 307
#     4  10  17  28  50  81 108 130 172 230 273 307
#     4   9  19  34  52  79 112 143 180 222 267 319
#     4  10  19  34  55  78 108 143 176 218 269 320
#
# _framework density 28.822628000000002
#
# number of rings (size 3 to 8) (size 9 to 14) (size 15 to 20)
#    0.000    2.500    0.000    5.250    0.000    0.000 
#    0.000   20.000    0.000    1.500    0.000   38.500 
#    0.000    0.000    0.000    0.000    0.000    0.000 
#
# Total GULP energy -89654.790103 kJ/mol
# GULP energy per Si atom -5603.424381 kJ/mol
# Density = 2.875703 g / cm^3
# Si number density = 28.822628 Si / 1000 Ang^3
#
#
#
# Elastic Constant Matrix: (Units=GPa)
#
#
# Indices 1 2 3 4 5 6 
#
# 1 321.5180 49.5788 47.4627 0.0000 -43.1774 0.0000
# 2 49.5788 96.7219 43.8137 0.0000 -13.4177 0.0000
# 3 47.4627 43.8137 159.8095 0.0000 9.7814 0.0000
# 4 0.0000 0.0000 0.0000 39.1722 0.0000 -2.1840
# 5 -43.1774 -13.4177 9.7814 0.0000 44.6848 0.0000
# 6 0.0000 0.0000 0.0000 -2.1840 0.0000 42.2085
#
#
#
# Elastic Compliance Matrix: (Units=1/GPa)
#
#
# Indices 1 2 3 4 5 6 
#
# 1 0.003932 -0.000985 -0.001127 0.000000 0.003751 0.000000
# 2 -0.000985 0.012932 -0.003479 0.000000 0.003693 0.000000
# 3 -0.001127 -0.003479 0.007781 0.000000 -0.003837 0.000000
# 4 0.000000 0.000000 0.000000 0.025602 0.000000 0.001325
# 5 0.003751 0.003693 -0.003837 0.000000 0.027952 0.000000
# 6 0.000000 0.000000 0.000000 0.001325 0.000000 0.023760
#
#
# Mechanical properties :
#
#
# Convention : Reuss Voigt Hill
#
# Bulk Modulus (GPa) = 74.27832 95.52887 84.90360
# Shear Modulus (GPa) = 42.50623 54.35940 48.43281
#
# Velocity S-wave (km/s) = 3.84442 4.34752 4.10368
# Velocity P-wave (km/s) = 6.74780 7.64309 7.20936
#
# Compressibility (1/GPa) = 0.01346288
#
# Stress axis : x y z
#
# Youngs Moduli (GPa) = 254.31057 77.32788 128.51787
#
# Poissons Ratio (x) = 0.07613 0.14490
# Poissons Ratio (y) = 0.25038 0.44713
# Poissons Ratio (z) = 0.28673 0.26903
#
# Static dielectric constant tensor:
#      x y z
#    x 2.288810 0.000000 0.028050 
#    y 0.000000 2.250770 0.000000 
#    z 0.028050 0.000000 2.170260 
# 
# From -- ./inp_files/257351.got.cif
#   From: 2010.05.17/outbox.cif.g08.bks.cpg/sg15_129_cif.got.tgz:257351.got - 2010.06.03 18:47:42.
