data_PCOD9255516
_publ_section_title
;
Structure prediction by ZEFSAII (Michael W. Deem and Ramdas Pophale) SiO2 
 PCOD9255516
Probable space group: C 2/C
;
_chemical_formula_sum "Si O2"
_cell_formula_units_Z 56
_cell_length_a 7.896915
_cell_length_b 16.185328
_cell_length_c 24.909023
_cell_angle_alpha 90.000000
_cell_angle_beta 61.608334
_cell_angle_gamma 90.000000
_cell_volume 2800.780117
_symmetry_space_group_name_H-M "C 2/C"
_symmetry_group_IT_number 15
_symmetry_cell_setting 'monoclinic'
loop_
_space_group_symop_operation_xyz
x,y,z
-x,y,1/2-z
-x,-y,-z
x,-y,1/2+z
1/2+x,1/2+y,z
1/2-x,1/2+y,1/2-z
1/2-x,1/2-y,-z
1/2+x,1/2-y,1/2+z
loop_
_atom_site_type_symbol
_atom_site_label
_atom_site_fract_x
_atom_site_fract_y
_atom_site_fract_z
Si Si1 0.432505 0.411062 0.894823
Si Si2 0.602944 0.181272 0.499792
Si Si3 0.526347 0.241806 0.087485
Si Si4 0.385194 0.097276 0.892477
Si Si5 0.269629 0.924397 0.929326
Si Si6 0.067017 0.081632 0.572517
Si Si7 0.073980 0.757270 0.678774
O O1 0.575035 0.415922 0.924237
O O2 0.427999 0.509135 0.883947
O O3 0.495362 0.337765 0.845075
O O4 0.222681 0.382616 0.945422
O O5 0.750000 0.250000 0.500000
O O6 0.470804 0.230251 0.477961
O O7 0.545328 0.130616 0.560532
O O8 0.629615 0.162291 0.093763
O O9 0.615882 0.329276 0.088877
O O10 0.305640 0.239540 0.139927
O O11 0.149654 0.097164 0.919313
O O12 0.469693 0.165949 0.839253
O O13 0.407823 0.998422 0.888138
O O14 0.205692 0.938179 0.001000
O O15 0.000000 0.763086 0.750000
#
# Coordination Sequence:
#
# PCOD9255516 Si02
#       7
#     8   8   8   8   8   8   8
#     4  10  18  32  57  77 106 145 176 203 268 331
#     4  11  15  31  51  78 109 143 172 210 257 319
#     4  10  22  32  52  82 116 134 178 219 260 319
#     4  10  18  32  57  77 108 141 184 206 255 335
#     4  11  19  32  52  92 116 134 160 218 283 327
#     4  10  17  31  52  83 115 147 158 201 275 346
#     4  10  22  41  57  71  97 147 195 228 252 302
#
# _framework density 19.994429
#
# number of rings (size 3 to 8) (size 9 to 14) (size 15 to 20)
#    0.000    1.714    7.143    1.286    0.000    0.571 
#    0.000    5.000    0.000    0.000    0.000    0.000 
#    0.000    0.000    0.000    0.000    0.000    0.000 
#
# Total GULP energy -155969.614303 kJ/mol
# GULP energy per Si atom -5570.343368 kJ/mol
# Density = 1.994892 g / cm^3
# Si number density = 19.994429 Si / 1000 Ang^3
#
#
#
# Elastic Constant Matrix: (Units=GPa)
#
#
# Indices 1 2 3 4 5 6 
#
# 1 21.9755 21.8052 0.0166 -0.0001 -3.6602 0.0001
# 2 21.8052 209.7892 39.4709 0.0000 10.1914 0.0000
# 3 0.0166 39.4709 84.8967 -0.0001 11.3144 0.0001
# 4 -0.0001 0.0000 -0.0001 14.3193 0.0001 3.3663
# 5 -3.6602 10.1914 11.3144 0.0001 10.8497 -0.0001
# 6 0.0001 0.0000 0.0001 3.3663 -0.0001 30.7887
#
#
#
# Elastic Compliance Matrix: (Units=1/GPa)
#
#
# Indices 1 2 3 4 5 6 
#
# 1 0.056956 -0.007158 -0.000163 0.000000 0.026107 0.000000
# 2 -0.007158 0.006195 -0.002069 0.000000 -0.006076 0.000000
# 3 -0.000163 -0.002069 0.014505 0.000000 -0.013238 0.000000
# 4 0.000000 0.000000 0.000000 0.071678 -0.000001 -0.007837
# 5 0.026107 -0.006076 -0.013238 -0.000001 0.120488 0.000000
# 6 0.000000 0.000000 0.000000 -0.007837 0.000000 0.033336
#
#
# Mechanical properties :
#
#
# Convention : Reuss Voigt Hill
#
# Bulk Modulus (GPa) = 16.98446 48.80519 32.89482
# Shear Modulus (GPa) = 14.63859 28.21612 21.42736
#
# Velocity S-wave (km/s) = 2.70873 3.76067 3.27718
# Velocity P-wave (km/s) = 4.27738 6.58173 5.55046
#
# Compressibility (1/GPa) = 0.05887735
#
# Stress axis : x y z
#
# Youngs Moduli (GPa) = 17.55750 161.41789 68.94034
#
# Poissons Ratio (x) = 1.15536 0.01122
# Poissons Ratio (y) = 0.12567 0.14264
# Poissons Ratio (z) = 0.00286 0.33399
#
# Static dielectric constant tensor:
#      x y z
#    x 1.957020 0.000000 0.052960 
#    y 0.000000 1.846790 0.000000 
#    z 0.052960 0.000000 1.694400 
# 
# From -- ./inp_files/264581.got.cif
#   From: 2010.05.17/outbox.cif.g08.bks.cpg/sg15_133_cif.got.tgz:264581.got - 2010.06.03 18:47:42.
