data_PCOD9255121
_publ_section_title
;
Structure prediction by ZEFSAII (Michael W. Deem and Ramdas Pophale) SiO2 
 PCOD9255121
Probable space group: C 2/C
;
_chemical_formula_sum "Si O2"
_cell_formula_units_Z 40
_cell_length_a 13.205001
_cell_length_b 24.216217
_cell_length_c 8.388724
_cell_angle_alpha 90.000000
_cell_angle_beta 136.656194
_cell_angle_gamma 90.000000
_cell_volume 1841.203676
_symmetry_space_group_name_H-M "C 2/C"
_symmetry_group_IT_number 15
_symmetry_cell_setting 'monoclinic'
loop_
_space_group_symop_operation_xyz
x,y,z
-x,y,1/2-z
-x,-y,-z
x,-y,1/2+z
1/2+x,1/2+y,z
1/2-x,1/2+y,1/2-z
1/2-x,1/2-y,-z
1/2+x,1/2-y,1/2+z
loop_
_atom_site_type_symbol
_atom_site_label
_atom_site_fract_x
_atom_site_fract_y
_atom_site_fract_z
Si Si1 0.359676 0.326152 0.809928
Si Si2 0.148997 0.282658 0.011619
Si Si3 0.670184 0.479491 0.173163
Si Si4 0.677481 0.580856 0.996583
Si Si5 0.813584 0.864274 0.421636
O O1 0.375174 0.263074 0.878148
O O2 0.276313 0.336894 0.548807
O O3 0.297888 0.360545 0.890520
O O4 0.521572 0.349610 0.951344
O O5 0.215587 0.336278 0.172350
O O6 0.250000 0.250000 0.000000
O O7 0.000000 0.296258 0.750000
O O8 0.732186 0.447884 0.397330
O O9 0.683827 0.430634 0.059112
O O10 0.500000 0.500000 0.000000
O O11 0.735878 0.536948 0.193239
O O12 0.500000 0.582091 0.750000
#
# Coordination Sequence:
#
# PCOD9255121 Si02
#       5
#     8   8   8   8   8
#     4  11  21  36  57  89 124 161 201 256 309 371
#     4  12  24  42  62  87 122 168 213 258 308 371
#     4  10  18  28  51  84 124 155 189 253 314 358
#     4  10  17  28  48  82 124 146 198 241 316 344
#     4  11  22  36  57  87 130 156 206 256 315 361
#
# _framework density 21.724920000000001
#
# number of rings (size 3 to 8) (size 9 to 14) (size 15 to 20)
#    0.000    1.200    6.000    3.600    5.600    0.000 
#    0.000    0.000    0.000    0.000    0.000   12.600 
#    0.000    0.000    0.000    0.000    0.000    0.000 
#
# Total GULP energy -111391.660272 kJ/mol
# GULP energy per Si atom -5569.583014 kJ/mol
# Density = 2.167547 g / cm^3
# Si number density = 21.724920 Si / 1000 Ang^3
#
#
#
# Elastic Constant Matrix: (Units=GPa)
#
#
# Indices 1 2 3 4 5 6 
#
# 1 23.7201 -0.9616 24.6929 0.0000 -21.5032 0.0000
# 2 -0.9616 143.5703 36.2347 0.0000 -8.3120 0.0000
# 3 24.6929 36.2347 112.4087 0.0000 -21.6824 0.0000
# 4 0.0000 0.0000 0.0000 32.5985 0.0000 -11.6472
# 5 -21.5032 -8.3120 -21.6824 0.0000 31.3227 0.0000
# 6 0.0000 0.0000 0.0000 -11.6472 0.0000 18.0505
#
#
#
# Elastic Compliance Matrix: (Units=1/GPa)
#
#
# Indices 1 2 3 4 5 6 
#
# 1 0.137910 0.010187 -0.017075 0.000000 0.085559 0.000000
# 2 0.010187 0.008338 -0.003635 0.000000 0.006690 0.000000
# 3 -0.017075 -0.003635 0.013124 0.000000 -0.003602 0.000000
# 4 0.000000 0.000000 0.000000 0.039868 0.000000 0.025725
# 5 0.085559 0.006690 -0.003602 0.000000 0.089945 0.000000
# 6 0.000000 0.000000 0.000000 0.025725 0.000000 0.071999
#
#
# Mechanical properties :
#
#
# Convention : Reuss Voigt Hill
#
# Bulk Modulus (GPa) = 7.22936 44.40346 25.81641
# Shear Modulus (GPa) = 11.67301 31.04320 21.35810
#
# Velocity S-wave (km/s) = 2.32051 3.78421 3.13887
# Velocity P-wave (km/s) = 3.24262 6.29102 5.00458
#
# Compressibility (1/GPa) = 0.13832489
#
# Stress axis : x y z
#
# Youngs Moduli (GPa) = 7.25112 119.92979 76.19626
#
# Poissons Ratio (x) = -1.22168 1.30105
# Poissons Ratio (y) = -0.07386 0.27699
# Poissons Ratio (z) = 0.12381 0.43597
#
# Static dielectric constant tensor:
#      x y z
#    x 1.912830 0.000000 -0.061340 
#    y 0.000000 1.805460 0.000000 
#    z -0.061340 0.000000 1.850530 
# 
# From -- ./inp_files/31741.got.cif
#   From: 2010.05.17/outbox.cif.g08.bks.cpg/sg15_16_cif.got.tgz:31741.got - 2010.06.03 18:47:42.
