data_PCOD9255342
_publ_section_title
;
Structure prediction by ZEFSAII (Michael W. Deem and Ramdas Pophale) SiO2 
 PCOD9255342
Probable space group: C 2/C
;
_chemical_formula_sum "Si O2"
_cell_formula_units_Z 64
_cell_length_a 9.141020
_cell_length_b 23.142987
_cell_length_c 14.021409
_cell_angle_alpha 90.000000
_cell_angle_beta 96.368191
_cell_angle_gamma 90.000000
_cell_volume 2947.933469
_symmetry_space_group_name_H-M "C 2/C"
_symmetry_group_IT_number 15
_symmetry_cell_setting 'monoclinic'
loop_
_space_group_symop_operation_xyz
x,y,z
-x,y,1/2-z
-x,-y,-z
x,-y,1/2+z
1/2+x,1/2+y,z
1/2-x,1/2+y,1/2-z
1/2-x,1/2-y,-z
1/2+x,1/2-y,1/2+z
loop_
_atom_site_type_symbol
_atom_site_label
_atom_site_fract_x
_atom_site_fract_y
_atom_site_fract_z
Si Si1 0.721124 0.927854 0.309501
Si Si2 0.948113 0.841360 0.386314
Si Si3 0.637040 0.777474 0.712547
Si Si4 0.439808 0.096282 0.898659
Si Si5 0.458290 0.473229 0.852174
Si Si6 0.663072 0.300242 0.937634
Si Si7 0.410332 0.776508 0.339068
Si Si8 0.162668 0.932137 0.466766
O O1 0.836964 0.875607 0.311495
O O2 0.635924 0.926111 0.204289
O O3 0.609303 0.918656 0.389856
O O4 0.821045 0.983603 0.328204
O O5 0.942020 0.775755 0.350165
O O6 0.872236 0.846032 0.484707
O O7 0.099618 0.875437 0.407788
O O8 0.500000 0.809660 0.750000
O O9 0.735577 0.813698 0.645591
O O10 0.753998 0.748518 0.794089
O O11 0.418884 0.165725 0.902256
O O12 0.339061 0.068462 0.973182
O O13 0.500000 0.450285 0.750000
O O14 0.401754 0.431343 0.931151
O O15 0.589268 0.512839 0.907160
O O16 0.508829 0.273511 0.892292
O O17 0.750000 0.250000 0.000000
O O18 0.500000 0.794239 0.250000
#
# Coordination Sequence:
#
# PCOD9255342 Si02
#       8
#     8   8   8   8   8   8   8   8
#     4  10  19  30  57  79 112 138 168 232 285 318
#     4  10  19  35  52  76 107 147 181 221 271 327
#     4  10  18  30  51  77 101 139 184 234 273 309
#     4  11  17  31  52  91 106 131 181 227 279 323
#     4  10  20  38  54  79 111 141 177 229 275 331
#     4   9  19  33  49  73 110 146 175 220 276 325
#     4  10  17  30  51  77 110 140 180 225 271 325
#     4  10  22  33  58  82 103 143 188 223 272 334
#
# _framework density 21.710121999999998
#
# number of rings (size 3 to 8) (size 9 to 14) (size 15 to 20)
#    0.000    2.000    3.750    2.250    0.000    0.500 
#    0.000    8.750    0.000    0.000    0.000    0.000 
#    0.000    0.000    0.000    0.000    0.000    0.000 
#
# Total GULP energy -178501.226455 kJ/mol
# GULP energy per Si atom -5578.163327 kJ/mol
# Density = 2.166071 g / cm^3
# Si number density = 21.710122 Si / 1000 Ang^3
#
#
#
# Elastic Constant Matrix: (Units=GPa)
#
#
# Indices 1 2 3 4 5 6 
#
# 1 114.3434 0.4468 28.6187 0.0000 -24.4807 0.0000
# 2 0.4468 6.4278 6.7029 0.0000 -6.1464 0.0000
# 3 28.6187 6.7029 82.8703 0.0000 -24.3022 0.0000
# 4 0.0000 0.0000 0.0000 13.0239 0.0000 0.7092
# 5 -24.4807 -6.1464 -24.3022 0.0000 25.7532 0.0000
# 6 0.0000 0.0000 0.0000 0.7092 0.0000 6.4902
#
#
#
# Elastic Compliance Matrix: (Units=1/GPa)
#
#
# Indices 1 2 3 4 5 6 
#
# 1 0.011835 0.013107 -0.001287 0.000000 0.013164 0.000000
# 2 0.013107 0.216651 -0.004470 0.000000 0.059949 0.000000
# 3 -0.001287 -0.004470 0.016870 0.000000 0.013629 0.000000
# 4 0.000000 0.000000 0.000000 0.077242 0.000000 -0.008440
# 5 0.013164 0.059949 0.013629 0.000000 0.078513 0.000000
# 6 0.000000 0.000000 0.000000 -0.008440 0.000000 0.155000
#
#
# Mechanical properties :
#
#
# Convention : Reuss Voigt Hill
#
# Bulk Modulus (GPa) = 3.84532 30.57537 17.21035
# Shear Modulus (GPa) = 7.96059 20.24500 14.10280
#
# Velocity S-wave (km/s) = 1.91696 3.05702 2.55148
# Velocity P-wave (km/s) = 2.58354 5.15505 4.07733
#
# Compressibility (1/GPa) = 0.26005648
#
# Stress axis : x y z
#
# Youngs Moduli (GPa) = 84.49638 4.61573 59.27728
#
# Poissons Ratio (x) = -0.06050 0.07628
# Poissons Ratio (y) = -1.10750 0.26495
# Poissons Ratio (z) = 0.10873 0.02063
#
# Static dielectric constant tensor:
#      x y z
#    x 1.836540 0.000000 -0.032660 
#    y 0.000000 1.792110 0.000000 
#    z -0.032660 0.000000 1.858660 
# 
# From -- ./inp_files/138636.got.cif
#   From: 2010.05.17/outbox.cif.g08.bks.cpg/sg15_70_cif.got.tgz:138636.got - 2010.06.03 18:47:42.
