data_PCOD9255804
_publ_section_title
;
Structure prediction by ZEFSAII (Michael W. Deem and Ramdas Pophale) SiO2 
 PCOD9255804
Probable space group: C 2/C
;
_chemical_formula_sum "Si O2"
_cell_formula_units_Z 52
_cell_length_a 12.687436
_cell_length_b 10.611093
_cell_length_c 20.579786
_cell_angle_alpha 90.000000
_cell_angle_beta 120.105595
_cell_angle_gamma 90.000000
_cell_volume 2396.858403
_symmetry_space_group_name_H-M "C 2/C"
_symmetry_group_IT_number 15
_symmetry_cell_setting 'monoclinic'
loop_
_space_group_symop_operation_xyz
x,y,z
-x,y,1/2-z
-x,-y,-z
x,-y,1/2+z
1/2+x,1/2+y,z
1/2-x,1/2+y,1/2-z
1/2-x,1/2-y,-z
1/2+x,1/2-y,1/2+z
loop_
_atom_site_type_symbol
_atom_site_label
_atom_site_fract_x
_atom_site_fract_y
_atom_site_fract_z
Si Si1 0.111186 0.999670 0.985645
Si Si2 0.383230 0.710444 0.111464
Si Si3 0.000000 0.018360 0.250000
Si Si4 0.870238 0.353365 0.908317
Si Si5 0.511497 0.681892 0.658694
Si Si6 0.232235 0.697965 0.419643
Si Si7 0.565794 0.860107 0.085882
O O1 0.062810 0.091195 0.913738
O O2 0.133546 0.867409 0.960035
O O3 0.230334 0.053661 0.057606
O O4 0.000000 0.000000 0.000000
O O5 0.442164 0.613290 0.181034
O O6 0.248191 0.715320 0.099198
O O7 0.479242 0.819522 0.119989
O O8 0.928171 0.914847 0.271856
O O9 0.903023 0.271542 0.855826
O O10 0.868688 0.502901 0.889928
O O11 0.977086 0.354375 0.995400
O O12 0.401132 0.771904 0.648127
O O13 0.250000 0.750000 0.500000
O O14 0.329935 0.760084 0.401324
#
# Coordination Sequence:
#
# PCOD9255804 Si02
#       7
#     8   8   4   8   8   8   8
#     4  10  17  32  59  91 117 151 201 249 305 368
#     4  11  23  41  60  92 129 167 212 259 313 389
#     4  10  24  46  62  78 118 170 224 256 294 376
#     4  11  22  38  60  96 132 156 198 268 337 382
#     4  10  21  39  60  84 117 163 207 250 311 369
#     4  10  17  34  59  90 120 153 197 248 305 369
#     4  11  21  36  64  96 128 162 196 265 334 383
#
# _framework density 21.695066000000001
#
# number of rings (size 3 to 8) (size 9 to 14) (size 15 to 20)
#    0.000    1.538    4.615    3.231    2.154    0.000 
#    5.538    0.769    0.000    0.000    0.000    0.000 
#    0.000    0.000    0.000    0.000    0.000    0.000 
#
# Total GULP energy -144763.782578 kJ/mol
# GULP energy per Si atom -5567.837791 kJ/mol
# Density = 2.164569 g / cm^3
# Si number density = 21.695066 Si / 1000 Ang^3
#
#
#
# Elastic Constant Matrix: (Units=GPa)
#
#
# Indices 1 2 3 4 5 6 
#
# 1 132.4098 14.4597 12.2398 0.0000 -5.4942 0.0000
# 2 14.4597 63.1240 27.2261 0.0000 -13.0099 0.0000
# 3 12.2398 27.2261 44.7518 0.0000 -12.9141 0.0000
# 4 0.0000 0.0000 0.0000 30.8139 0.0000 -9.9528
# 5 -5.4942 -13.0099 -12.9141 0.0000 13.8479 0.0000
# 6 0.0000 0.0000 0.0000 -9.9528 0.0000 31.6283
#
#
#
# Elastic Compliance Matrix: (Units=1/GPa)
#
#
# Indices 1 2 3 4 5 6 
#
# 1 0.007821 -0.001071 -0.001208 0.000000 0.000971 0.000000
# 2 -0.001071 0.022907 -0.010337 0.000000 0.011455 0.000000
# 3 -0.001208 -0.010337 0.035606 0.000000 0.023014 0.000000
# 4 0.000000 0.000000 0.000000 0.036125 0.000000 0.011368
# 5 0.000971 0.011455 0.023014 0.000000 0.104823 0.000000
# 6 0.000000 0.000000 0.000000 0.011368 0.000000 0.035194
#
#
# Mechanical properties :
#
#
# Convention : Reuss Voigt Hill
#
# Bulk Modulus (GPa) = 24.32923 38.68185 31.50554
# Shear Modulus (GPa) = 17.76778 27.68201 22.72489
#
# Velocity S-wave (km/s) = 2.86488 3.57593 3.23997
# Velocity P-wave (km/s) = 4.70977 5.90916 5.34323
#
# Compressibility (1/GPa) = 0.04110282
#
# Stress axis : x y z
#
# Youngs Moduli (GPa) = 127.85848 43.65537 28.08505
#
# Poissons Ratio (x) = 0.04674 0.03391
# Poissons Ratio (y) = 0.13688 0.29033
# Poissons Ratio (z) = 0.15439 0.45129
#
# Static dielectric constant tensor:
#      x y z
#    x 1.832870 0.000000 0.024790 
#    y 0.000000 1.850770 0.000000 
#    z 0.024790 0.000000 1.827230 
# 
# From -- ./inp_files/237211.got.cif
#   From: 2010.05.17/outbox.cif.g08.bks.cpg/sg15_119_cif.got.tgz:237211.got - 2010.06.03 18:47:42.
