data_PCOD9255248
_publ_section_title
;
Structure prediction by ZEFSAII (Michael W. Deem and Ramdas Pophale) SiO2 
 PCOD9255248
Probable space group: C 2/C
;
_chemical_formula_sum "Si O2"
_cell_formula_units_Z 64
_cell_length_a 8.466674
_cell_length_b 24.848002
_cell_length_c 14.351384
_cell_angle_alpha 90.000000
_cell_angle_beta 117.464612
_cell_angle_gamma 90.000000
_cell_volume 2678.961980
_symmetry_space_group_name_H-M "C 2/C"
_symmetry_group_IT_number 15
_symmetry_cell_setting 'monoclinic'
loop_
_space_group_symop_operation_xyz
x,y,z
-x,y,1/2-z
-x,-y,-z
x,-y,1/2+z
1/2+x,1/2+y,z
1/2-x,1/2+y,1/2-z
1/2-x,1/2-y,-z
1/2+x,1/2-y,1/2+z
loop_
_atom_site_type_symbol
_atom_site_label
_atom_site_fract_x
_atom_site_fract_y
_atom_site_fract_z
Si Si1 0.676449 0.777632 0.839659
Si Si2 0.788686 0.504043 0.461038
Si Si3 0.754918 0.124241 0.043627
Si Si4 0.903947 0.309645 0.470303
Si Si5 0.637368 0.620439 0.137230
Si Si6 0.197693 0.513130 0.315263
Si Si7 0.205593 0.391736 0.309568
Si Si8 0.606532 0.393838 0.402696
O O1 0.500000 0.751478 0.750000
O O2 0.849487 0.739524 0.888451
O O3 0.715820 0.834745 0.801970
O O4 0.633047 0.790211 0.935170
O O5 0.752460 0.564203 0.416745
O O6 0.764703 0.499176 0.566252
O O7 0.661986 0.455286 0.393060
O O8 0.000000 0.500000 0.500000
O O9 0.597712 0.164717 0.023024
O O10 0.739037 0.113959 0.928820
O O11 0.950802 0.144191 0.118782
O O12 0.763309 0.356355 0.406944
O O13 0.673141 0.560224 0.182024
O O14 0.627720 0.613168 0.021522
O O15 0.192892 0.453787 0.270577
O O16 0.000000 0.536319 0.250000
O O17 0.403722 0.376474 0.324731
O O18 0.000000 0.369711 0.250000
#
# Coordination Sequence:
#
# PCOD9255248 Si02
#       8
#     8   8   8   8   8   8   8   8
#     4  10  22  40  59  77 104 143 188 226 285 342
#     4  10  17  29  53  81 111 147 179 216 263 326
#     4  10  19  33  55  82 111 139 183 225 269 321
#     4  10  21  37  59  83 107 140 182 236 276 329
#     4   9  18  33  55  78 101 142 181 226 273 321
#     4   9  17  30  51  75 108 147 185 214 261 326
#     4   9  18  31  50  78 113 148 182 215 262 334
#     4   9  17  32  53  79 110 145 180 214 270 328
#
# _framework density 23.889851
#
# number of rings (size 3 to 8) (size 9 to 14) (size 15 to 20)
#    0.000    2.500    1.250    1.125    0.000    4.500 
#    0.000    0.625    0.000    1.500    0.000    0.000 
#    0.000    0.000    0.000    0.000    0.000    0.000 
#
# Total GULP energy -178441.130899 kJ/mol
# GULP energy per Si atom -5576.285341 kJ/mol
# Density = 2.383548 g / cm^3
# Si number density = 23.889851 Si / 1000 Ang^3
#
#
#
# Elastic Constant Matrix: (Units=GPa)
#
#
# Indices 1 2 3 4 5 6 
#
# 1 89.6510 24.7004 14.3639 0.0000 35.5529 0.0000
# 2 24.7004 80.0946 2.9571 0.0000 9.9036 0.0000
# 3 14.3639 2.9571 70.6046 0.0000 11.2040 0.0000
# 4 0.0000 0.0000 0.0000 -38.3494 0.0000 -9.4713
# 5 35.5529 9.9036 11.2040 0.0000 42.1773 0.0000
# 6 0.0000 0.0000 0.0000 -9.4713 0.0000 15.5677
#
#
#
# Elastic Compliance Matrix: (Units=1/GPa)
#
#
# Indices 1 2 3 4 5 6 
#
# 1 0.017890 -0.003756 -0.001283 0.000000 -0.013858 0.000000
# 2 -0.003756 0.013648 0.000207 0.000000 -0.000093 0.000000
# 3 -0.001283 0.000207 0.014879 0.000000 -0.002919 0.000000
# 4 0.000000 0.000000 0.000000 -0.022670 0.000000 -0.013792
# 5 -0.013858 -0.000093 -0.002919 0.000000 0.036188 0.000000
# 6 0.000000 0.000000 0.000000 -0.013792 0.000000 0.055844
#
#
# Mechanical properties :
#
#
# Convention : Reuss Voigt Hill
#
# Bulk Modulus (GPa) = 27.20906 36.04369 31.62637
# Shear Modulus (GPa) = 36.31209 17.10105 26.70657
#
# Velocity S-wave (km/s) = 3.90292 2.67840 3.34714
# Velocity P-wave (km/s) = 5.63245 4.96843 5.31083
#
# Compressibility (1/GPa) = 0.03675247
#
# Stress axis : x y z
#
# Youngs Moduli (GPa) = 55.89573 73.27326 67.20864
#
# Poissons Ratio (x) = 0.27524 0.08625
# Poissons Ratio (y) = 0.20997 -0.01394
# Poissons Ratio (z) = 0.07173 -0.01520
#
# Static dielectric constant tensor:
#      x y z
#    x 1.976060 0.000000 -0.005670 
#    y 0.000000 1.921640 0.000000 
#    z -0.005670 0.000000 1.976000 
# 
# From -- ./inp_files/234451.got.cif
#   From: 2010.05.17/outbox.cif.g08.bks.cpg/sg15_118_cif.got.tgz:234451.got - 2010.06.03 18:47:42.
