data_PCOD9255262
_publ_section_title
;
Structure prediction by ZEFSAII (Michael W. Deem and Ramdas Pophale) SiO2 
 PCOD9255262
Probable space group: C 2/C
;
_chemical_formula_sum "Si O2"
_cell_formula_units_Z 48
_cell_length_a 8.000787
_cell_length_b 14.383807
_cell_length_c 15.633596
_cell_angle_alpha 90.000000
_cell_angle_beta 75.769398
_cell_angle_gamma 90.000000
_cell_volume 1743.933867
_symmetry_space_group_name_H-M "C 2/C"
_symmetry_group_IT_number 15
_symmetry_cell_setting 'monoclinic'
loop_
_space_group_symop_operation_xyz
x,y,z
-x,y,1/2-z
-x,-y,-z
x,-y,1/2+z
1/2+x,1/2+y,z
1/2-x,1/2+y,1/2-z
1/2-x,1/2-y,-z
1/2+x,1/2-y,1/2+z
loop_
_atom_site_type_symbol
_atom_site_label
_atom_site_fract_x
_atom_site_fract_y
_atom_site_fract_z
Si Si1 0.769667 0.185274 0.682324
Si Si2 0.958463 0.011253 0.607688
Si Si3 0.680722 0.762316 0.386876
Si Si4 0.458659 0.915224 0.420338
Si Si5 0.897698 0.401425 0.851263
Si Si6 0.327058 0.355480 0.910552
O O1 0.928167 0.115867 0.643036
O O2 0.736810 0.212548 0.783370
O O3 0.606632 0.130477 0.661103
O O4 0.776889 0.284400 0.634405
O O5 0.780200 0.956696 0.646474
O O6 0.000000 0.000000 0.500000
O O7 0.102583 0.951040 0.637843
O O8 0.628534 0.862247 0.429390
O O9 0.832375 0.695622 0.398587
O O10 0.501487 0.702044 0.414198
O O11 0.295244 0.885022 0.497119
O O12 0.486841 0.024098 0.402793
O O13 0.000000 0.389557 0.750000
#
# Coordination Sequence:
#
# PCOD9255262 Si02
#       6
#     8   8   8   8   8   8
#     4  10  18  30  48  77 123 145 191 242 289 348
#     4  10  18  30  52  85 111 152 200 239 293 353
#     4  10  20  30  51  80 117 154 188 244 300 348
#     4  10  17  29  54  85 111 145 200 243 286 356
#     4  10  20  33  53  79 117 151 195 244 293 349
#     4  10  18  28  52  87 114 149 201 245 293 358
#
# _framework density 27.523980000000002
#
# number of rings (size 3 to 8) (size 9 to 14) (size 15 to 20)
#    0.000    2.000    3.333    6.000    2.333    0.000 
#    0.000    0.000    0.000   10.000    0.000    2.333 
#    0.000    1.333    0.000    0.000    0.000    0.000 
#
# Total GULP energy -134371.574435 kJ/mol
# GULP energy per Si atom -5598.815601 kJ/mol
# Density = 2.746133 g / cm^3
# Si number density = 27.523980 Si / 1000 Ang^3
#
#
#
# Elastic Constant Matrix: (Units=GPa)
#
#
# Indices 1 2 3 4 5 6 
#
# 1 93.5269 67.7094 50.5593 0.0000 -19.3367 0.0000
# 2 67.7094 217.9188 41.6379 0.0000 -20.7800 0.0000
# 3 50.5593 41.6379 128.4312 0.0000 -25.6562 0.0000
# 4 0.0000 0.0000 0.0000 45.7264 0.0000 -23.5037
# 5 -19.3367 -20.7800 -25.6562 0.0000 41.0968 0.0000
# 6 0.0000 0.0000 0.0000 -23.5037 0.0000 74.6830
#
#
#
# Elastic Compliance Matrix: (Units=1/GPa)
#
#
# Indices 1 2 3 4 5 6 
#
# 1 0.016756 -0.004029 -0.004709 0.000000 0.002907 0.000000
# 2 -0.004029 0.005966 -0.000142 0.000000 0.001032 0.000000
# 3 -0.004709 -0.000142 0.010544 0.000000 0.004295 0.000000
# 4 0.000000 0.000000 0.000000 0.026090 0.000000 0.008211
# 5 0.002907 0.001032 0.004295 0.000000 0.028904 0.000000
# 6 0.000000 0.000000 0.000000 0.008211 0.000000 0.015974
#
#
# Mechanical properties :
#
#
# Convention : Reuss Voigt Hill
#
# Bulk Modulus (GPa) = 64.49322 84.41001 74.45162
# Shear Modulus (GPa) = 39.31962 50.96592 45.14277
#
# Velocity S-wave (km/s) = 3.78373 4.30780 4.05424
# Velocity P-wave (km/s) = 6.52467 7.44830 7.00173
#
# Compressibility (1/GPa) = 0.01550551
#
# Stress axis : x y z
#
# Youngs Moduli (GPa) = 59.68078 167.60695 94.83900
#
# Poissons Ratio (x) = 0.67532 0.44663
# Poissons Ratio (y) = 0.24047 0.01346
# Poissons Ratio (z) = 0.28105 0.02378
#
# Static dielectric constant tensor:
#      x y z
#    x 2.233960 0.000000 0.051330 
#    y 0.000000 2.196540 0.000000 
#    z 0.051330 0.000000 2.111990 
# 
# From -- ./inp_files/238266.got.cif
#   From: 2010.05.17/outbox.cif.g08.bks.cpg/sg15_120_cif.got.tgz:238266.got - 2010.06.03 18:47:42.
