data_PCOD9255622
_publ_section_title
;
Structure prediction by ZEFSAII (Michael W. Deem and Ramdas Pophale) SiO2 
 PCOD9255622
Probable space group: C 2/C
;
_chemical_formula_sum "Si O2"
_cell_formula_units_Z 28
_cell_length_a 15.436033
_cell_length_b 7.518404
_cell_length_c 14.689683
_cell_angle_alpha 90.000000
_cell_angle_beta 136.318026
_cell_angle_gamma 90.000000
_cell_volume 1177.429444
_symmetry_space_group_name_H-M "C 2/C"
_symmetry_group_IT_number 15
_symmetry_cell_setting 'monoclinic'
loop_
_space_group_symop_operation_xyz
x,y,z
-x,y,1/2-z
-x,-y,-z
x,-y,1/2+z
1/2+x,1/2+y,z
1/2-x,1/2+y,1/2-z
1/2-x,1/2-y,-z
1/2+x,1/2-y,1/2+z
loop_
_atom_site_type_symbol
_atom_site_label
_atom_site_fract_x
_atom_site_fract_y
_atom_site_fract_z
Si Si1 0.314088 0.039494 0.687342
Si Si2 0.000000 0.150737 0.750000
Si Si3 0.710639 0.374867 0.287036
Si Si4 0.596493 0.011656 0.431494
O O1 0.289466 0.829887 0.683240
O O2 0.317644 0.073447 0.582543
O O3 0.458662 0.073595 0.827957
O O4 0.216752 0.124556 0.683060
O O5 0.907076 0.046531 0.746206
O O6 0.928605 0.287440 0.627035
O O7 0.832033 0.471624 0.420258
#
# Coordination Sequence:
#
# PCOD9255622 Si02
#       4
#     8   4   8   8
#     4   9  18  30  50  71  87 118 157 182 222 272
#     4   8  16  28  46  70  90 120 154 178 220 276
#     4  10  17  32  48  67  93 120 150 189 221 264
#     4   8  16  32  49  64  90 126 152 176 220 281
#
# _framework density 23.780619999999999
#
# number of rings (size 3 to 8) (size 9 to 14) (size 15 to 20)
#    0.000    4.000    0.000    4.286    0.000    0.000 
#    0.000   17.143    0.000    0.000    0.000    0.000 
#    0.000    0.000    0.000    0.000    0.000    0.000 
#
# Total GULP energy -78002.525217 kJ/mol
# GULP energy per Si atom -5571.608944 kJ/mol
# Density = 2.372649 g / cm^3
# Si number density = 23.780620 Si / 1000 Ang^3
#
#
#
# Elastic Constant Matrix: (Units=GPa)
#
#
# Indices 1 2 3 4 5 6 
#
# 1 150.9693 10.0483 6.8475 0.0000 -23.0889 0.0000
# 2 10.0483 31.9124 12.0056 0.0000 4.2326 0.0000
# 3 6.8475 12.0056 39.6352 0.0000 -7.8707 0.0000
# 4 0.0000 0.0000 0.0000 9.9191 0.0000 -7.2621
# 5 -23.0889 4.2326 -7.8707 0.0000 23.0004 0.0000
# 6 0.0000 0.0000 0.0000 -7.2621 0.0000 15.2714
#
#
#
# Elastic Compliance Matrix: (Units=1/GPa)
#
#
# Indices 1 2 3 4 5 6 
#
# 1 0.008365 -0.004681 0.001943 0.000000 0.009924 0.000000
# 2 -0.004681 0.040739 -0.014970 0.000000 -0.017319 0.000000
# 3 0.001943 -0.014970 0.032577 0.000000 0.015854 0.000000
# 4 0.000000 0.000000 0.000000 0.154661 0.000000 0.073547
# 5 0.009924 -0.017319 0.015854 0.000000 0.062051 0.000000
# 6 0.000000 0.000000 0.000000 0.073547 0.000000 0.100456
#
#
# Mechanical properties :
#
#
# Convention : Reuss Voigt Hill
#
# Bulk Modulus (GPa) = 21.61482 31.14664 26.38073
# Shear Modulus (GPa) = 11.11884 22.54591 16.83238
#
# Velocity S-wave (km/s) = 2.16466 3.08243 2.66337
# Velocity P-wave (km/s) = 3.91876 5.07882 4.53603
#
# Compressibility (1/GPa) = 0.04626455
#
# Stress axis : x y z
#
# Youngs Moduli (GPa) = 119.54580 24.54668 30.69643
#
# Poissons Ratio (x) = 0.11491 -0.05966
# Poissons Ratio (y) = 0.55962 0.45954
# Poissons Ratio (z) = -0.23233 0.36747
#
# Static dielectric constant tensor:
#      x y z
#    x 2.031640 0.000000 0.052530 
#    y 0.000000 1.961470 0.000000 
#    z 0.052530 0.000000 1.885460 
# 
# From -- ./inp_files/36496.got.cif
#   From: 2010.05.17/outbox.cif.g08.bks.cpg/sg15_19_cif.got.tgz:36496.got - 2010.06.03 18:47:42.
