data_PCOD9255882
_publ_section_title
;
Structure prediction by ZEFSAII (Michael W. Deem and Ramdas Pophale) SiO2 
 PCOD9255882
Probable space group: C 2/C
;
_chemical_formula_sum "Si O2"
_cell_formula_units_Z 48
_cell_length_a 14.947903
_cell_length_b 8.021782
_cell_length_c 17.981235
_cell_angle_alpha 90.000000
_cell_angle_beta 101.680357
_cell_angle_gamma 90.000000
_cell_volume 2111.460553
_symmetry_space_group_name_H-M "C 2/C"
_symmetry_group_IT_number 15
_symmetry_cell_setting 'monoclinic'
loop_
_space_group_symop_operation_xyz
x,y,z
-x,y,1/2-z
-x,-y,-z
x,-y,1/2+z
1/2+x,1/2+y,z
1/2-x,1/2+y,1/2-z
1/2-x,1/2-y,-z
1/2+x,1/2-y,1/2+z
loop_
_atom_site_type_symbol
_atom_site_label
_atom_site_fract_x
_atom_site_fract_y
_atom_site_fract_z
Si Si1 0.062214 0.661199 0.323248
Si Si2 0.023868 0.978053 0.840392
Si Si3 0.842869 0.135947 0.358021
Si Si4 0.267370 0.371251 0.603586
Si Si5 0.707334 0.004909 0.449225
Si Si6 0.284732 0.700970 0.761619
O O1 0.010978 0.822413 0.348099
O O2 0.112472 0.558527 0.395382
O O3 0.141985 0.744706 0.287035
O O4 0.000000 0.572937 0.250000
O O5 0.000000 0.940931 0.750000
O O6 0.951520 0.881045 0.879257
O O7 0.128543 0.933255 0.872399
O O8 0.787895 0.116561 0.425827
O O9 0.809924 0.972173 0.304864
O O10 0.809410 0.287851 0.300833
O O11 0.273480 0.183822 0.573022
O O12 0.213996 0.492713 0.538899
O O13 0.221535 0.338359 0.674785
#
# Coordination Sequence:
#
# PCOD9255882 Si02
#       6
#     8   8   8   8   8   8
#     4  10  19  35  57  80 104 133 180 226 257 301
#     4  11  19  34  57  83 103 132 182 222 259 299
#     4  10  19  34  55  79 104 138 175 218 257 309
#     4  10  20  36  55  75 112 142 173 211 264 322
#     4   9  22  37  53  77 110 144 171 210 270 314
#     4  10  17  33  55  77 103 139 173 213 261 309
#
# _framework density 22.733079
#
# number of rings (size 3 to 8) (size 9 to 14) (size 15 to 20)
#    0.000    2.000    5.000    0.000    0.000    2.000 
#    3.000    0.833    0.000    0.000    0.000    0.000 
#    0.000    0.000    0.000    0.000    0.000    0.000 
#
# Total GULP energy -133999.823130 kJ/mol
# GULP energy per Si atom -5583.325964 kJ/mol
# Density = 2.268134 g / cm^3
# Si number density = 22.733079 Si / 1000 Ang^3
#
#
#
# Elastic Constant Matrix: (Units=GPa)
#
#
# Indices 1 2 3 4 5 6 
#
# 1 48.7076 2.3081 3.6960 0.0000 14.7358 0.0000
# 2 2.3081 61.0806 5.6704 0.0000 -0.9499 0.0000
# 3 3.6960 5.6704 46.6608 0.0000 -0.8946 0.0000
# 4 0.0000 0.0000 0.0000 14.3369 0.0000 12.2644
# 5 14.7358 -0.9499 -0.8946 0.0000 27.6187 0.0000
# 6 0.0000 0.0000 0.0000 12.2644 0.0000 26.0861
#
#
#
# Elastic Compliance Matrix: (Units=1/GPa)
#
#
# Indices 1 2 3 4 5 6 
#
# 1 0.024763 -0.000948 -0.002102 0.000000 -0.013313 0.000000
# 2 -0.000948 0.016602 -0.001923 0.000000 0.001014 0.000000
# 3 -0.002102 -0.001923 0.021865 0.000000 0.001763 0.000000
# 4 0.000000 0.000000 0.000000 0.116676 0.000000 -0.054855
# 5 -0.013313 0.001014 0.001763 0.000000 0.043402 0.000000
# 6 0.000000 0.000000 0.000000 -0.054855 0.000000 0.064125
#
#
# Mechanical properties :
#
#
# Convention : Reuss Voigt Hill
#
# Bulk Modulus (GPa) = 18.76688 19.97755 19.37222
# Shear Modulus (GPa) = 15.86601 23.25998 19.56299
#
# Velocity S-wave (km/s) = 2.64470 3.20218 2.93670
# Velocity P-wave (km/s) = 4.19513 4.74120 4.47650
#
# Compressibility (1/GPa) = 0.05328536
#
# Stress axis : x y z
#
# Youngs Moduli (GPa) = 40.38348 60.23403 45.73468
#
# Poissons Ratio (x) = 0.05708 0.09611
# Poissons Ratio (y) = 0.03827 0.08795
# Poissons Ratio (z) = 0.08487 0.11583
#
# Static dielectric constant tensor:
#      x y z
#    x 1.873530 0.000000 0.019560 
#    y 0.000000 1.901280 0.000000 
#    z 0.019560 0.000000 1.888740 
# 
# From -- ./inp_files/203635.got.cif
#   From: 2010.05.17/outbox.cif.g08.bks.cpg/sg15_102_cif.got.tgz:203635.got - 2010.06.03 18:47:42.
