data_PCOD9255637
_publ_section_title
;
Structure prediction by ZEFSAII (Michael W. Deem and Ramdas Pophale) SiO2 
 PCOD9255637
Probable space group: C 2/C
;
_chemical_formula_sum "Si O2"
_cell_formula_units_Z 48
_cell_length_a 7.743509
_cell_length_b 17.556185
_cell_length_c 24.600053
_cell_angle_alpha 90.000000
_cell_angle_beta 66.808146
_cell_angle_gamma 90.000000
_cell_volume 3074.042887
_symmetry_space_group_name_H-M "C 2/C"
_symmetry_group_IT_number 15
_symmetry_cell_setting 'monoclinic'
loop_
_space_group_symop_operation_xyz
x,y,z
-x,y,1/2-z
-x,-y,-z
x,-y,1/2+z
1/2+x,1/2+y,z
1/2-x,1/2+y,1/2-z
1/2-x,1/2-y,-z
1/2+x,1/2-y,1/2+z
loop_
_atom_site_type_symbol
_atom_site_label
_atom_site_fract_x
_atom_site_fract_y
_atom_site_fract_z
Si Si1 0.520712 0.595186 0.136725
Si Si2 0.592882 0.979660 0.931797
Si Si3 0.617732 0.079116 0.828482
Si Si4 0.409870 0.251094 0.701493
Si Si5 0.379685 0.061243 0.355959
Si Si6 0.500000 0.502408 0.750000
Si Si7 0.500000 0.822191 0.750000
O O1 0.715226 0.567545 0.087161
O O2 0.507449 0.684395 0.152317
O O3 0.341000 0.571806 0.123482
O O4 0.498939 0.551260 0.197137
O O5 0.635537 0.054966 0.889859
O O6 0.454114 0.933670 0.908348
O O7 0.500000 0.000000 0.000000
O O8 0.574100 0.166287 0.823676
O O9 0.812478 0.053035 0.776628
O O10 0.453837 0.022039 0.828351
O O11 0.500000 0.254205 0.750000
O O12 0.189876 0.273965 0.731376
O O13 0.478172 0.123146 0.305054
#
# Coordination Sequence:
#
# PCOD9255637 Si02
#       7
#     8   8   8   8   8   4   4
#     4  10  19  33  54  74 102 138 169 206 260 314
#     4   9  20  38  55  74 100 139 184 214 247 302
#     4   9  20  31  49  78 102 132 169 216 254 295
#     4  11  20  30  48  79 110 132 161 209 270 309
#     4   9  19  32  55  76  98 137 173 209 250 307
#     4  10  17  32  49  74 104 136 166 200 257 318
#     4  10  19  34  51  76 112 138 166 202 263 328
#
# _framework density 15.614617000000001
#
# number of rings (size 3 to 8) (size 9 to 14) (size 15 to 20)
#    1.000    1.333    0.833    3.500    3.500    0.667 
#    0.000    0.833    0.000    4.000    0.000    0.000 
#    0.000    0.000    0.000    0.000    0.000    0.000 
#
# Total GULP energy -133651.768004 kJ/mol
# GULP energy per Si atom -5568.823667 kJ/mol
# Density = 1.557908 g / cm^3
# Si number density = 15.614617 Si / 1000 Ang^3
#
#
#
# Elastic Constant Matrix: (Units=GPa)
#
#
# Indices 1 2 3 4 5 6 
#
# 1 79.0551 47.3767 14.0337 0.0000 -3.3159 0.0000
# 2 47.3767 124.7248 21.4069 0.0000 -7.7483 0.0000
# 3 14.0337 21.4069 53.3180 0.0000 -6.1964 0.0000
# 4 0.0000 0.0000 0.0000 -15.5575 0.0000 -0.7093
# 5 -3.3159 -7.7483 -6.1964 0.0000 18.4981 0.0000
# 6 0.0000 0.0000 0.0000 -0.7093 0.0000 18.6931
#
#
#
# Elastic Compliance Matrix: (Units=1/GPa)
#
#
# Indices 1 2 3 4 5 6 
#
# 1 0.016569 -0.005964 -0.001989 0.000000 -0.000195 0.000000
# 2 -0.005964 0.010875 -0.002488 0.000000 0.002653 0.000000
# 3 -0.001989 -0.002488 0.020930 0.000000 0.005612 0.000000
# 4 0.000000 0.000000 0.000000 -0.064167 0.000000 -0.002435
# 5 -0.000195 0.002653 0.005612 0.000000 0.057016 0.000000
# 6 0.000000 0.000000 0.000000 -0.002435 0.000000 0.053403
#
#
# Mechanical properties :
#
#
# Convention : Reuss Voigt Hill
#
# Bulk Modulus (GPa) = 36.37557 46.97027 41.67292
# Shear Modulus (GPa) = 40.10490 15.94543 28.02516
#
# Velocity S-wave (km/s) = 5.07346 3.19907 4.24111
# Velocity P-wave (km/s) = 7.59384 6.61753 7.12243
#
# Compressibility (1/GPa) = 0.02749098
#
# Stress axis : x y z
#
# Youngs Moduli (GPa) = 60.35493 91.95372 47.77805
#
# Poissons Ratio (x) = 0.54844 0.09503
# Poissons Ratio (y) = 0.35998 0.11888
# Poissons Ratio (z) = 0.12004 0.22879
#
# Static dielectric constant tensor:
#      x y z
#    x 1.535150 0.000000 0.007080 
#    y 0.000000 1.511020 0.000000 
#    z 0.007080 0.000000 1.500590 
# 
# From -- ./inp_files/231833.got.cif
#   From: 2010.05.17/outbox.cif.g08.bks.cpg/sg15_116_cif.got.tgz:231833.got - 2010.06.03 18:47:42.
