data_PCOD9255367
_publ_section_title
;
Structure prediction by ZEFSAII (Michael W. Deem and Ramdas Pophale) SiO2 
 PCOD9255367
Probable space group: C 2/C
;
_chemical_formula_sum "Si O2"
_cell_formula_units_Z 56
_cell_length_a 29.280897
_cell_length_b 10.590115
_cell_length_c 8.629447
_cell_angle_alpha 90.000000
_cell_angle_beta 120.306138
_cell_angle_gamma 90.000000
_cell_volume 2310.205613
_symmetry_space_group_name_H-M "C 2/C"
_symmetry_group_IT_number 15
_symmetry_cell_setting 'monoclinic'
loop_
_space_group_symop_operation_xyz
x,y,z
-x,y,1/2-z
-x,-y,-z
x,-y,1/2+z
1/2+x,1/2+y,z
1/2-x,1/2+y,1/2-z
1/2-x,1/2-y,-z
1/2+x,1/2-y,1/2+z
loop_
_atom_site_type_symbol
_atom_site_label
_atom_site_fract_x
_atom_site_fract_y
_atom_site_fract_z
Si Si1 0.675014 0.049543 0.985580
Si Si2 0.344690 0.589774 0.359012
Si Si3 0.111416 0.097051 0.371753
Si Si4 0.611239 0.858584 0.082723
Si Si5 0.240474 0.373270 0.882179
Si Si6 0.021854 0.308058 0.133205
Si Si7 0.468932 0.609054 0.854366
O O1 0.695999 0.129005 0.168846
O O2 0.633154 0.950558 0.988160
O O3 0.647649 0.120686 0.797129
O O4 0.721999 0.975392 0.978255
O O5 0.340881 0.608448 0.167951
O O6 0.366783 0.447913 0.427033
O O7 0.381550 0.713419 0.457216
O O8 0.293212 0.601646 0.374580
O O9 0.066775 0.204691 0.271305
O O10 0.083210 0.965730 0.276857
O O11 0.552923 0.881439 0.052150
O O12 0.250000 0.250000 0.000000
O O13 0.000000 0.372658 0.250000
O O14 0.974254 0.231204 0.970433
O O15 0.500000 0.636685 0.750000
O O16 0.500000 0.500000 0.000000
#
# Coordination Sequence:
#
# PCOD9255367 Si02
#       7
#     8   8   8   8   8   8   8
#     4  10  23  45  65  83 120 161 195 260 300 339
#     4  11  21  37  57  95 124 158 197 240 291 376
#     4  10  19  33  56  89 134 156 186 237 307 359
#     4  10  22  42  64  85 116 161 205 246 301 353
#     4  11  22  43  65  91 121 157 205 239 301 358
#     4  10  20  37  58  88 123 155 197 243 298 363
#     4  10  17  30  52  80 121 165 188 227 291 355
#
# _framework density 24.240268
#
# number of rings (size 3 to 8) (size 9 to 14) (size 15 to 20)
#    0.000    1.714    1.429    6.000    0.000    0.571 
#   12.857    2.143    0.000    0.000    0.000    0.000 
#    0.000    0.000    0.000    0.000    0.000    0.000 
#
# Total GULP energy -156145.634957 kJ/mol
# GULP energy per Si atom -5576.629820 kJ/mol
# Density = 2.418510 g / cm^3
# Si number density = 24.240268 Si / 1000 Ang^3
#
#
#
# Elastic Constant Matrix: (Units=GPa)
#
#
# Indices 1 2 3 4 5 6 
#
# 1 138.4349 17.1643 2.3760 0.0000 -39.9170 0.0000
# 2 17.1643 58.4829 26.8667 0.0000 -5.0474 0.0000
# 3 2.3760 26.8667 59.7609 0.0000 -31.2810 0.0000
# 4 0.0000 0.0000 0.0000 26.8483 0.0000 -2.9405
# 5 -39.9170 -5.0474 -31.2810 0.0000 40.2390 0.0000
# 6 0.0000 0.0000 0.0000 -2.9405 0.0000 31.5165
#
#
#
# Elastic Compliance Matrix: (Units=1/GPa)
#
#
# Indices 1 2 3 4 5 6 
#
# 1 0.018607 -0.013287 0.023644 0.000000 0.035171 0.000000
# 2 -0.013287 0.032745 -0.031938 0.000000 -0.033902 0.000000
# 3 0.023644 -0.031938 0.068002 0.000000 0.072312 0.000000
# 4 0.000000 0.000000 0.000000 0.037631 0.000000 0.003511
# 5 0.035171 -0.033902 0.072312 0.000000 0.111703 0.000000
# 6 0.000000 0.000000 0.000000 0.003511 0.000000 0.032057
#
#
# Mechanical properties :
#
#
# Convention : Reuss Voigt Hill
#
# Bulk Modulus (GPa) = 13.12500 38.83254 25.97877
# Shear Modulus (GPa) = 13.53894 33.73884 23.63889
#
# Velocity S-wave (km/s) = 2.36589 3.73480 3.12619
# Velocity P-wave (km/s) = 3.59020 5.88667 4.87558
#
# Compressibility (1/GPa) = 0.07619048
#
# Stress axis : x y z
#
# Youngs Moduli (GPa) = 53.74414 30.53898 14.70536
#
# Poissons Ratio (x) = 0.40578 -0.34769
# Poissons Ratio (y) = 0.71411 0.46966
# Poissons Ratio (z) = -1.27070 0.97536
#
# Static dielectric constant tensor:
#      x y z
#    x 1.960040 0.000000 0.055180 
#    y 0.000000 1.961740 0.000000 
#    z 0.055180 0.000000 2.000560 
# 
# From -- ./inp_files/69157.got.cif
#   From: 2010.05.17/outbox.cif.g08.bks.cpg/sg15_35_cif.got.tgz:69157.got - 2010.06.03 18:47:42.
