data_PCOD9255878
_publ_section_title
;
Structure prediction by ZEFSAII (Michael W. Deem and Ramdas Pophale) SiO2 
 PCOD9255878
Probable space group: C 2/C
;
_chemical_formula_sum "Si O2"
_cell_formula_units_Z 60
_cell_length_a 13.990922
_cell_length_b 17.680798
_cell_length_c 16.385574
_cell_angle_alpha 90.000000
_cell_angle_beta 137.033991
_cell_angle_gamma 90.000000
_cell_volume 2762.591877
_symmetry_space_group_name_H-M "C 2/C"
_symmetry_group_IT_number 15
_symmetry_cell_setting 'monoclinic'
loop_
_space_group_symop_operation_xyz
x,y,z
-x,y,1/2-z
-x,-y,-z
x,-y,1/2+z
1/2+x,1/2+y,z
1/2-x,1/2+y,1/2-z
1/2-x,1/2-y,-z
1/2+x,1/2-y,1/2+z
loop_
_atom_site_type_symbol
_atom_site_label
_atom_site_fract_x
_atom_site_fract_y
_atom_site_fract_z
Si Si1 0.854622 0.543528 0.692776
Si Si2 0.064624 0.394002 0.697503
Si Si3 0.198249 0.687533 0.534983
Si Si4 0.000000 0.041534 0.250000
Si Si5 0.659035 0.682922 0.354521
Si Si6 0.827329 0.820755 0.448239
Si Si7 0.151615 0.063403 0.959004
Si Si8 0.358615 0.323202 0.899547
O O1 0.910014 0.483815 0.794672
O O2 0.745396 0.609555 0.643501
O O3 0.772961 0.488561 0.576423
O O4 0.000000 0.577392 0.750000
O O5 0.217404 0.360004 0.779142
O O6 0.000000 0.382806 0.750000
O O7 0.953336 0.348160 0.576130
O O8 0.250000 0.750000 0.500000
O O9 0.296938 0.615248 0.584318
O O10 0.186477 0.737915 0.607190
O O11 0.037559 0.992429 0.351788
O O12 0.128234 0.097575 0.307161
O O13 0.500000 0.716804 0.250000
O O14 0.764491 0.741124 0.378878
O O15 0.711800 0.672684 0.480519
O O16 0.994831 0.823044 0.554351
O O17 0.108534 0.124184 0.000251
#
# Coordination Sequence:
#
# PCOD9255878 Si02
#       8
#     8   8   8   4   8   8   8   8
#     4  10  17  33  59  85 112 143 203 242 283 342
#     4  10  17  33  54  83 115 154 187 235 300 343
#     4  10  18  34  55  83 118 151 192 232 289 364
#     4  10  20  40  60  84 114 158 200 232 290 368
#     4   9  21  40  61  81 111 162 197 236 294 346
#     4  11  21  38  60  90 114 152 202 249 286 343
#     4  10  19  35  60  88 113 155 192 234 299 349
#     4  10  23  34  56  92 122 146 195 248 293 341
#
# _framework density 21.718733
#
# number of rings (size 3 to 8) (size 9 to 14) (size 15 to 20)
#    0.400    1.600    6.667    0.400    0.000    5.333 
#    0.000    0.000    0.000    0.800    0.000    0.000 
#    0.000    0.000    0.000    0.000    0.000    0.000 
#
# Total GULP energy -167023.777876 kJ/mol
# GULP energy per Si atom -5567.459263 kJ/mol
# Density = 2.166930 g / cm^3
# Si number density = 21.718733 Si / 1000 Ang^3
#
#
#
# Elastic Constant Matrix: (Units=GPa)
#
#
# Indices 1 2 3 4 5 6 
#
# 1 38.7173 22.4683 4.8310 0.0000 16.4403 0.0000
# 2 22.4683 115.4303 23.7884 0.0000 9.7986 0.0000
# 3 4.8310 23.7884 50.8865 -0.0001 13.4280 -0.0001
# 4 0.0000 0.0000 -0.0001 23.0903 -0.0001 2.8764
# 5 16.4403 9.7986 13.4280 -0.0001 28.0310 0.0000
# 6 0.0000 0.0000 -0.0001 2.8764 0.0000 3.9320
#
#
#
# Elastic Compliance Matrix: (Units=1/GPa)
#
#
# Indices 1 2 3 4 5 6 
#
# 1 0.038857 -0.006749 0.005560 0.000000 -0.023094 0.000000
# 2 -0.006749 0.010806 -0.005104 0.000000 0.002626 0.000000
# 3 0.005560 -0.005104 0.025068 0.000000 -0.013486 0.000000
# 4 0.000000 0.000000 0.000000 0.047651 0.000000 -0.034859
# 5 -0.023094 0.002626 -0.013486 0.000000 0.054762 0.000000
# 6 0.000000 0.000000 0.000000 -0.034859 0.000000 0.279827
#
#
# Mechanical properties :
#
#
# Convention : Reuss Voigt Hill
#
# Bulk Modulus (GPa) = 16.09102 34.13440 25.11271
# Shear Modulus (GPa) = 10.19843 21.27377 15.73610
#
# Velocity S-wave (km/s) = 2.16930 3.13311 2.69465
# Velocity P-wave (km/s) = 3.70127 5.37021 4.61187
#
# Compressibility (1/GPa) = 0.06214647
#
# Stress axis : x y z
#
# Youngs Moduli (GPa) = 25.73510 92.54299 39.89123
#
# Poissons Ratio (x) = 0.62457 -0.22180
# Poissons Ratio (y) = 0.17368 0.20359
# Poissons Ratio (z) = -0.14309 0.47231
#
# Static dielectric constant tensor:
#      x y z
#    x 1.853220 0.000000 -0.058510 
#    y 0.000000 1.807170 0.000000 
#    z -0.058510 0.000000 1.786920 
# 
# From -- ./inp_files/244928.got.cif
#   From: 2010.05.17/outbox.cif.g08.bks.cpg/sg15_123_cif.got.tgz:244928.got - 2010.06.03 18:47:42.
