data_PCOD9255479
_publ_section_title
;
Structure prediction by ZEFSAII (Michael W. Deem and Ramdas Pophale) SiO2 
 PCOD9255479
Probable space group: C 2/C
;
_chemical_formula_sum "Si O2"
_cell_formula_units_Z 60
_cell_length_a 28.782864
_cell_length_b 23.013449
_cell_length_c 15.530253
_cell_angle_alpha 90.000000
_cell_angle_beta 161.319247
_cell_angle_gamma 90.000000
_cell_volume 3294.914209
_symmetry_space_group_name_H-M "C 2/C"
_symmetry_group_IT_number 15
_symmetry_cell_setting 'monoclinic'
loop_
_space_group_symop_operation_xyz
x,y,z
-x,y,1/2-z
-x,-y,-z
x,-y,1/2+z
1/2+x,1/2+y,z
1/2-x,1/2+y,1/2-z
1/2-x,1/2-y,-z
1/2+x,1/2-y,1/2+z
loop_
_atom_site_type_symbol
_atom_site_label
_atom_site_fract_x
_atom_site_fract_y
_atom_site_fract_z
Si Si1 0.381066 0.642633 0.423826
Si Si2 0.278726 0.128883 0.997850
Si Si3 0.981776 0.932870 0.945019
Si Si4 0.606296 0.740821 0.650326
Si Si5 0.000000 0.664524 0.250000
Si Si6 0.143771 0.271149 0.157015
Si Si7 0.918620 0.156398 0.197299
Si Si8 0.216668 0.147778 0.069483
O O1 0.396069 0.598235 0.372471
O O2 0.311573 0.703626 0.272783
O O3 0.300549 0.619387 0.367178
O O4 0.549290 0.656679 0.745075
O O5 0.217793 0.195109 0.888097
O O6 0.146166 0.090709 0.732049
O O7 0.409410 0.127569 0.160353
O O8 0.296105 0.115486 0.129738
O O9 0.911490 0.904867 0.735825
O O10 0.000000 0.000000 0.000000
O O11 0.495940 0.768146 0.525918
O O12 0.511663 0.701872 0.418554
O O13 0.698147 0.792095 0.769533
O O14 0.100624 0.704523 0.487325
O O15 0.265576 0.312664 0.410376
O O16 0.000000 0.148224 0.250000
#
# Coordination Sequence:
#
# PCOD9255479 Si02
#       8
#     8   8   8   8   4   8   8   8
#     4  10  19  31  56  82 114 147 191 239 287 346
#     4  10  19  34  53  85 114 146 203 236 283 338
#     4  10  22  42  61  79 108 155 202 256 286 337
#     4  11  19  32  51  83 127 152 176 231 284 362
#     4  12  22  32  62  88 120 164 182 238 292 352
#     4  12  20  32  56  86 121 157 184 229 303 361
#     4  11  23  38  54  85 122 152 194 235 296 364
#     4  10  17  31  50  85 118 142 185 236 285 349
#
# _framework density 18.209883000000001
#
# number of rings (size 3 to 8) (size 9 to 14) (size 15 to 20)
#    0.000    1.333    5.333    5.600    0.000    0.000 
#    4.800    0.000    0.000    2.400    0.000    0.000 
#    0.000    0.000    0.000    0.000    0.000    0.000 
#
# Total GULP energy -167271.231252 kJ/mol
# GULP energy per Si atom -5575.707708 kJ/mol
# Density = 1.816844 g / cm^3
# Si number density = 18.209883 Si / 1000 Ang^3
#
#
#
# Elastic Constant Matrix: (Units=GPa)
#
#
# Indices 1 2 3 4 5 6 
#
# 1 168.3744 33.5262 35.7630 0.0000 17.1367 0.0000
# 2 33.5262 81.4374 31.4193 0.0000 -3.6866 0.0000
# 3 35.7630 31.4193 53.4972 0.0000 -4.3858 0.0000
# 4 0.0000 0.0000 0.0000 11.7487 0.0000 1.3458
# 5 17.1367 -3.6866 -4.3858 0.0000 31.4737 0.0000
# 6 0.0000 0.0000 0.0000 1.3458 0.0000 11.4487
#
#
#
# Elastic Compliance Matrix: (Units=1/GPa)
#
#
# Indices 1 2 3 4 5 6 
#
# 1 0.007768 -0.001634 -0.004649 0.000000 -0.005069 0.000000
# 2 -0.001634 0.016231 -0.008306 0.000000 0.001633 0.000000
# 3 -0.004649 -0.008306 0.027116 0.000000 0.005337 0.000000
# 4 0.000000 0.000000 0.000000 0.086277 0.000000 -0.010142
# 5 -0.005069 0.001633 0.005337 0.000000 0.035467 0.000000
# 6 0.000000 0.000000 0.000000 -0.010142 0.000000 0.088538
#
#
# Mechanical properties :
#
#
# Convention : Reuss Voigt Hill
#
# Bulk Modulus (GPa) = 45.58537 56.08066 50.83302
# Shear Modulus (GPa) = 16.78488 24.44092 20.61290
#
# Velocity S-wave (km/s) = 3.03932 3.66755 3.36811
# Velocity P-wave (km/s) = 6.11590 6.98557 6.56516
#
# Compressibility (1/GPa) = 0.02193686
#
# Stress axis : x y z
#
# Youngs Moduli (GPa) = 128.73808 61.61238 36.87844
#
# Poissons Ratio (x) = 0.10066 0.17144
# Poissons Ratio (y) = 0.21032 0.30632
# Poissons Ratio (z) = 0.59847 0.51177
#
# Static dielectric constant tensor:
#      x y z
#    x 1.699000 0.000000 -0.007780 
#    y 0.000000 1.612490 0.000000 
#    z -0.007780 0.000000 1.645380 
# 
# From -- ./inp_files/179286.got.cif
#   From: 2010.05.17/outbox.cif.g08.bks.cpg/sg15_90_cif.got.tgz:179286.got - 2010.06.03 18:47:42.
