data_PCOD9255886
_publ_section_title
;
Structure prediction by ZEFSAII (Michael W. Deem and Ramdas Pophale) SiO2 
 PCOD9255886
Probable space group: C 2/C
;
_chemical_formula_sum "Si O2"
_cell_formula_units_Z 48
_cell_length_a 17.776599
_cell_length_b 17.549321
_cell_length_c 8.926186
_cell_angle_alpha 90.000000
_cell_angle_beta 47.934628
_cell_angle_gamma 90.000000
_cell_volume 2067.291465
_symmetry_space_group_name_H-M "C 2/C"
_symmetry_group_IT_number 15
_symmetry_cell_setting 'monoclinic'
loop_
_space_group_symop_operation_xyz
x,y,z
-x,y,1/2-z
-x,-y,-z
x,-y,1/2+z
1/2+x,1/2+y,z
1/2-x,1/2+y,1/2-z
1/2-x,1/2-y,-z
1/2+x,1/2-y,1/2+z
loop_
_atom_site_type_symbol
_atom_site_label
_atom_site_fract_x
_atom_site_fract_y
_atom_site_fract_z
Si Si1 0.608723 0.611191 0.031325
Si Si2 0.578805 0.770135 0.531509
Si Si3 0.699643 0.083551 0.885787
Si Si4 0.077924 0.470706 0.270286
Si Si5 0.927668 0.287383 0.487750
Si Si6 0.224317 0.822779 0.639256
O O1 0.500000 0.587907 0.250000
O O2 0.675973 0.617596 0.092437
O O3 0.680618 0.571141 0.809717
O O4 0.599166 0.696815 0.971797
O O5 0.500000 0.733916 0.750000
O O6 0.661676 0.830792 0.479055
O O7 0.497402 0.811902 0.531825
O O8 0.638659 0.706088 0.364463
O O9 0.651348 0.074751 0.783384
O O10 0.647162 0.029110 0.079345
O O11 0.000000 0.438123 0.250000
O O12 0.000000 0.500000 0.500000
O O13 0.827415 0.336801 0.591904
O O14 0.000000 0.287459 0.250000
O O15 0.250000 0.750000 0.500000
#
# Coordination Sequence:
#
# PCOD9255886 Si02
#       6
#     8   8   8   8   8   8
#     4  10  18  35  62  83 117 156 192 232 285 348
#     4  12  22  32  56  89 122 154 187 237 294 341
#     4  11  21  39  61  84 113 155 195 245 298 335
#     4   9  20  39  60  81 112 141 196 250 291 335
#     4  10  17  33  55  80 118 159 196 222 272 363
#     4  10  17  34  53  82 119 156 197 220 275 368
#
# _framework density 23.218786000000001
#
# number of rings (size 3 to 8) (size 9 to 14) (size 15 to 20)
#    0.000    1.667    8.333    1.500    0.000    2.667 
#    0.000    0.833    0.000    0.000    0.000    0.000 
#    0.000    0.000    0.000    0.000    0.000    0.000 
#
# Total GULP energy -133648.924857 kJ/mol
# GULP energy per Si atom -5568.705202 kJ/mol
# Density = 2.316594 g / cm^3
# Si number density = 23.218786 Si / 1000 Ang^3
#
#
#
# Elastic Constant Matrix: (Units=GPa)
#
#
# Indices 1 2 3 4 5 6 
#
# 1 75.7921 -7.9637 30.5392 0.0000 -27.9284 0.0000
# 2 -7.9637 32.2875 29.2445 0.0000 -6.1198 0.0000
# 3 30.5392 29.2445 226.2990 0.0000 -41.3688 0.0000
# 4 0.0000 0.0000 0.0000 38.0062 0.0000 -6.0033
# 5 -27.9284 -6.1198 -41.3688 0.0000 44.3044 0.0000
# 6 0.0000 0.0000 0.0000 -6.0033 0.0000 12.6732
#
#
#
# Elastic Compliance Matrix: (Units=1/GPa)
#
#
# Indices 1 2 3 4 5 6 
#
# 1 0.018975 0.008245 -0.001485 0.000000 0.011714 0.000000
# 2 0.008245 0.038681 -0.005046 0.000000 0.005829 0.000000
# 3 -0.001485 -0.005046 0.005996 0.000000 0.003966 0.000000
# 4 0.000000 0.000000 0.000000 0.028439 0.000000 0.013472
# 5 0.011714 0.005829 0.003966 0.000000 0.034464 0.000000
# 6 0.000000 0.000000 0.000000 0.013472 0.000000 0.085289
#
#
# Mechanical properties :
#
#
# Convention : Reuss Voigt Hill
#
# Bulk Modulus (GPa) = 14.90724 48.66874 31.78799
# Shear Modulus (GPa) = 21.66615 37.83400 29.75007
#
# Velocity S-wave (km/s) = 3.05803 4.04103 3.58340
# Velocity P-wave (km/s) = 4.34776 6.54062 5.55350
#
# Compressibility (1/GPa) = 0.06708149
#
# Stress axis : x y z
#
# Youngs Moduli (GPa) = 52.70071 25.85278 166.76667
#
# Poissons Ratio (x) = -0.21317 0.24763
# Poissons Ratio (y) = -0.43454 0.84147
# Poissons Ratio (z) = 0.07825 0.13045
#
# Static dielectric constant tensor:
#      x y z
#    x 2.108140 0.000000 0.065260 
#    y 0.000000 1.932970 0.000000 
#    z 0.065260 0.000000 1.922350 
# 
# From -- ./inp_files/58396.got.cif
#   From: 2010.05.17/outbox.cif.g08.bks.cpg/sg15_30_cif.got.tgz:58396.got - 2010.06.03 18:47:42.
