data_PCOD9255122
_publ_section_title
;
Structure prediction by ZEFSAII (Michael W. Deem and Ramdas Pophale) SiO2 
 PCOD9255122
Probable space group: C 2/C
;
_chemical_formula_sum "Si O2"
_cell_formula_units_Z 64
_cell_length_a 17.548386
_cell_length_b 26.933618
_cell_length_c 10.308230
_cell_angle_alpha 90.000000
_cell_angle_beta 75.198382
_cell_angle_gamma 90.000000
_cell_volume 4710.422713
_symmetry_space_group_name_H-M "C 2/C"
_symmetry_group_IT_number 15
_symmetry_cell_setting 'monoclinic'
loop_
_space_group_symop_operation_xyz
x,y,z
-x,y,1/2-z
-x,-y,-z
x,-y,1/2+z
1/2+x,1/2+y,z
1/2-x,1/2+y,1/2-z
1/2-x,1/2-y,-z
1/2+x,1/2-y,1/2+z
loop_
_atom_site_type_symbol
_atom_site_label
_atom_site_fract_x
_atom_site_fract_y
_atom_site_fract_z
Si Si1 0.302654 0.701198 0.328935
Si Si2 0.559901 0.943550 0.340784
Si Si3 0.546645 0.059735 0.358587
Si Si4 0.846260 0.355822 0.593804
Si Si5 0.045416 0.263758 0.864597
Si Si6 0.812442 0.202545 0.623062
Si Si7 0.835770 0.644113 0.783786
Si Si8 0.437149 0.239827 0.661024
O O1 0.242711 0.656917 0.324540
O O2 0.245950 0.749718 0.353099
O O3 0.332841 0.694283 0.462918
O O4 0.374682 0.715705 0.206661
O O5 0.500000 0.930567 0.250000
O O6 0.514503 0.935611 0.495492
O O7 0.634143 0.907697 0.287773
O O8 0.573536 0.002668 0.328353
O O9 0.500000 0.075415 0.250000
O O10 0.619965 0.093773 0.363551
O O11 0.903814 0.312432 0.619854
O O12 0.847543 0.355307 0.435616
O O13 0.109057 0.218848 0.836961
O O14 0.000000 0.269121 0.750000
O O15 0.982725 0.257372 0.006844
O O16 0.755813 0.158672 0.697757
O O17 0.889912 0.687957 0.700322
O O18 0.500000 0.241996 0.750000
#
# Coordination Sequence:
#
# PCOD9255122 Si02
#       8
#     8   8   8   8   8   8   8   8
#     4   8  15  26  44  62  81 107 147 183 200 236
#     4  10  18  30  44  63  83 111 151 177 201 246
#     4  10  20  29  41  62  91 112 136 182 217 241
#     4  10  17  30  44  62  86 116 146 175 214 246
#     4  11  20  28  41  64  93 115 137 174 217 253
#     4   8  15  28  41  62  84 108 142 181 207 237
#     4  10  17  28  49  62  79 115 157 176 196 252
#     4  11  16  27  45  65  82 112 149 175 201 246
#
# _framework density 13.586891
#
# number of rings (size 3 to 8) (size 9 to 14) (size 15 to 20)
#    0.000    2.250    3.750    3.000    0.000    0.000 
#    0.000    6.875    0.000    0.000    0.000    0.000 
#    0.000    2.000    0.000    0.125    0.000    0.000 
#
# Total GULP energy -178196.387856 kJ/mol
# GULP energy per Si atom -5568.637121 kJ/mol
# Density = 1.355597 g / cm^3
# Si number density = 13.586891 Si / 1000 Ang^3
#
#
#
# Elastic Constant Matrix: (Units=GPa)
#
#
# Indices 1 2 3 4 5 6 
#
# 1 53.5405 22.0964 31.5450 0.0000 -5.4306 0.0000
# 2 22.0964 47.8166 15.1236 0.0000 -7.3134 0.0000
# 3 31.5450 15.1236 71.4490 0.0000 -2.1046 0.0000
# 4 0.0000 0.0000 0.0000 13.9572 0.0000 -2.2383
# 5 -5.4306 -7.3134 -2.1046 0.0000 18.5120 0.0000
# 6 0.0000 0.0000 0.0000 -2.2383 0.0000 24.9916
#
#
#
# Elastic Compliance Matrix: (Units=1/GPa)
#
#
# Indices 1 2 3 4 5 6 
#
# 1 0.029391 -0.009604 -0.010837 0.000000 0.003596 0.000000
# 2 -0.009604 0.026915 -0.001231 0.000000 0.007676 0.000000
# 3 -0.010837 -0.001231 0.018997 0.000000 -0.001506 0.000000
# 4 0.000000 0.000000 0.000000 0.072692 0.000000 0.006510
# 5 0.003596 0.007676 -0.001506 0.000000 0.057935 0.000000
# 6 0.000000 0.000000 0.000000 0.006510 0.000000 0.040596
#
#
# Mechanical properties :
#
#
# Convention : Reuss Voigt Hill
#
# Bulk Modulus (GPa) = 31.29099 34.48177 32.88638
# Shear Modulus (GPa) = 16.63767 18.42824 17.53296
#
# Velocity S-wave (km/s) = 3.50314 3.68683 3.59616
# Velocity P-wave (km/s) = 6.28036 6.59980 6.44206
#
# Compressibility (1/GPa) = 0.03195808
#
# Stress axis : x y z
#
# Youngs Moduli (GPa) = 34.02399 37.15457 52.64010
#
# Poissons Ratio (x) = 0.35684 0.57048
# Poissons Ratio (y) = 0.32677 0.06478
# Poissons Ratio (z) = 0.36873 0.04572
#
# Static dielectric constant tensor:
#      x y z
#    x 1.445380 0.000000 -0.003850 
#    y 0.000000 1.460130 0.000000 
#    z -0.003850 0.000000 1.445940 
# 
# From -- ./inp_files/52486.got.cif
#   From: 2010.05.17/outbox.cif.g08.bks.cpg/sg15_27_cif.got.tgz:52486.got - 2010.06.03 18:47:42.
