data_PCOD9255095
_publ_section_title
;
Structure prediction by ZEFSAII (Michael W. Deem and Ramdas Pophale) SiO2 
 PCOD9255095
Probable space group: C 2/C
;
_chemical_formula_sum "Si O2"
_cell_formula_units_Z 64
_cell_length_a 28.488949
_cell_length_b 19.725589
_cell_length_c 12.687099
_cell_angle_alpha 90.000000
_cell_angle_beta 158.133892
_cell_angle_gamma 90.000000
_cell_volume 2655.362057
_symmetry_space_group_name_H-M "C 2/C"
_symmetry_group_IT_number 15
_symmetry_cell_setting 'monoclinic'
loop_
_space_group_symop_operation_xyz
x,y,z
-x,y,1/2-z
-x,-y,-z
x,-y,1/2+z
1/2+x,1/2+y,z
1/2-x,1/2+y,1/2-z
1/2-x,1/2-y,-z
1/2+x,1/2-y,1/2+z
loop_
_atom_site_type_symbol
_atom_site_label
_atom_site_fract_x
_atom_site_fract_y
_atom_site_fract_z
Si Si1 0.292936 0.454672 0.852561
Si Si2 0.471115 0.205608 0.810021
Si Si3 0.950002 0.163604 0.373005
Si Si4 0.391122 0.417331 0.438787
Si Si5 0.173302 0.185440 0.159589
Si Si6 0.347073 0.957094 0.292347
Si Si7 0.437609 0.064312 0.763599
Si Si8 0.282632 0.164328 0.783305
O O1 0.347105 0.378717 0.960671
O O2 0.273055 0.499943 0.915877
O O3 0.148626 0.441907 0.517981
O O4 0.353440 0.505819 0.891754
O O5 0.500000 0.224613 0.750000
O O6 0.513596 0.264814 0.974396
O O7 0.321043 0.191210 0.500472
O O8 0.522442 0.131679 0.944205
O O9 0.903280 0.169290 0.394292
O O10 0.044376 0.103160 0.536799
O O11 0.829039 0.164435 0.040241
O O12 0.500000 0.400686 0.750000
O O13 0.277548 0.367186 0.236046
O O14 0.155744 0.261720 0.078933
O O15 0.339187 0.934686 0.155275
O O16 0.368595 0.893658 0.412829
O O17 0.472393 0.000923 0.549266
#
# Coordination Sequence:
#
# PCOD9255095 Si02
#       8
#     8   8   8   8   8   8   8   8
#     4  10  20  34  50  72 101 133 167 208 250 296
#     4  10  17  28  48  75 105 128 156 205 260 305
#     4  10  17  28  46  72 100 128 162 204 251 295
#     4   9  19  32  49  70  97 132 167 200 244 296
#     4  10  18  28  47  71  97 127 163 207 251 293
#     4  10  19  31  50  75 104 131 162 204 256 307
#     4  10  19  31  50  79 103 129 163 204 256 305
#     4   9  16  30  47  70  98 125 158 202 252 299
#
# _framework density 24.102174999999999
#
# number of rings (size 3 to 8) (size 9 to 14) (size 15 to 20)
#    0.000    2.250    0.000    7.500    0.000    0.500 
#    0.000    0.000    0.000    3.000    0.000   20.125 
#    0.000    0.000    0.000    0.000    0.000    0.000 
#
# Total GULP energy -178535.341263 kJ/mol
# GULP energy per Si atom -5579.229414 kJ/mol
# Density = 2.404732 g / cm^3
# Si number density = 24.102175 Si / 1000 Ang^3
#
#
#
# Elastic Constant Matrix: (Units=GPa)
#
#
# Indices 1 2 3 4 5 6 
#
# 1 133.0328 49.2156 6.8503 0.0000 35.2046 0.0000
# 2 49.2156 185.8027 18.7005 0.0000 28.3826 0.0000
# 3 6.8503 18.7005 28.0050 0.0000 8.5082 0.0000
# 4 0.0000 0.0000 0.0000 21.6001 0.0000 9.5149
# 5 35.2046 28.3826 8.5082 0.0000 20.9632 0.0000
# 6 0.0000 0.0000 0.0000 9.5149 0.0000 27.4958
#
#
#
# Elastic Compliance Matrix: (Units=1/GPa)
#
#
# Indices 1 2 3 4 5 6 
#
# 1 0.013974 -0.000358 0.004338 0.000000 -0.024742 0.000000
# 2 -0.000358 0.006893 -0.002125 0.000000 -0.007868 0.000000
# 3 0.004338 -0.002125 0.042666 0.000000 -0.021725 0.000000
# 4 0.000000 0.000000 0.000000 0.054623 0.000000 -0.018902
# 5 -0.024742 -0.007868 -0.021725 0.000000 0.108723 0.000000
# 6 0.000000 0.000000 0.000000 -0.018902 0.000000 0.042910
#
#
# Mechanical properties :
#
#
# Convention : Reuss Voigt Hill
#
# Bulk Modulus (GPa) = 14.87158 55.15259 35.01208
# Shear Modulus (GPa) = 17.33149 32.15010 24.74079
#
# Velocity S-wave (km/s) = 2.68448 3.65623 3.20737
# Velocity P-wave (km/s) = 3.97394 6.38409 5.31737
#
# Compressibility (1/GPa) = 0.06724237
#
# Stress axis : x y z
#
# Youngs Moduli (GPa) = 71.56304 145.08056 23.43798
#
# Poissons Ratio (x) = 0.05201 -0.10168
# Poissons Ratio (y) = 0.02565 0.04980
# Poissons Ratio (z) = -0.31045 0.30824
#
# Static dielectric constant tensor:
#      x y z
#    x 1.961560 0.000000 0.001660 
#    y 0.000000 2.077480 0.000000 
#    z 0.001660 0.000000 1.992890 
# 
# From -- ./inp_files/182774.got.cif
#   From: 2010.05.17/outbox.cif.g08.bks.cpg/sg15_92_cif.got.tgz:182774.got - 2010.06.03 18:47:42.
