data_PCOD9255994
_publ_section_title
;
Structure prediction by ZEFSAII (Michael W. Deem and Ramdas Pophale) SiO2 
 PCOD9255994
Probable space group: C 2/C
;
_chemical_formula_sum "Si O2"
_cell_formula_units_Z 44
_cell_length_a 30.872591
_cell_length_b 12.898180
_cell_length_c 9.558299
_cell_angle_alpha 90.000000
_cell_angle_beta 142.122504
_cell_angle_gamma 90.000000
_cell_volume 2336.861490
_symmetry_space_group_name_H-M "C 2/C"
_symmetry_group_IT_number 15
_symmetry_cell_setting 'monoclinic'
loop_
_space_group_symop_operation_xyz
x,y,z
-x,y,1/2-z
-x,-y,-z
x,-y,1/2+z
1/2+x,1/2+y,z
1/2-x,1/2+y,1/2-z
1/2-x,1/2-y,-z
1/2+x,1/2-y,1/2+z
loop_
_atom_site_type_symbol
_atom_site_label
_atom_site_fract_x
_atom_site_fract_y
_atom_site_fract_z
Si Si1 0.105055 0.180718 0.797677
Si Si2 0.592921 0.438992 0.715676
Si Si3 0.265801 0.497127 0.550850
Si Si4 0.000000 0.829387 0.250000
Si Si5 0.636107 0.320739 0.070943
Si Si6 0.267580 0.862450 0.780206
O O1 0.105958 0.220694 0.641185
O O2 0.051694 0.229170 0.773489
O O3 0.082004 0.059504 0.723008
O O4 0.185993 0.176634 0.057550
O O5 0.675332 0.432014 0.883127
O O6 0.550633 0.399095 0.475291
O O7 0.581016 0.370283 0.822634
O O8 0.311417 0.584682 0.750390
O O9 0.226709 0.425153 0.561351
O O10 0.222106 0.558911 0.323688
O O11 0.680197 0.232275 0.106918
#
# Coordination Sequence:
#
# PCOD9255994 Si02
#       6
#     8   8   8   4   8   8
#     4  10  19  32  47  72 106 139 167 204 242 304
#     4  10  19  32  47  71 106 139 172 202 242 298
#     4  10  17  34  46  76 105 135 165 206 249 296
#     4  12  20  30  46  72 102 144 174 194 240 304
#     4  10  19  34  51  70 104 142 166 206 260 292
#     4  10  19  33  52  71 106 137 166 209 256 298
#
# _framework density 18.828672999999998
#
# number of rings (size 3 to 8) (size 9 to 14) (size 15 to 20)
#    0.000    2.182    5.455    3.818    0.000    1.455 
#    0.000    0.000    0.000    0.000    0.000    0.000 
#    0.000   37.818    0.000    0.000    0.000    0.000 
#
# Total GULP energy -122706.058706 kJ/mol
# GULP energy per Si atom -5577.548123 kJ/mol
# Density = 1.878582 g / cm^3
# Si number density = 18.828673 Si / 1000 Ang^3
#
#
#
# Elastic Constant Matrix: (Units=GPa)
#
#
# Indices 1 2 3 4 5 6 
#
# 1 120.2994 37.1411 5.2027 0.0000 -20.3377 0.0000
# 2 37.1411 28.4766 7.3995 0.0000 -0.3676 0.0000
# 3 5.2027 7.3995 17.2459 0.0000 -6.0352 0.0000
# 4 0.0000 0.0000 0.0000 6.9418 0.0000 -0.5109
# 5 -20.3377 -0.3676 -6.0352 0.0000 17.5383 0.0000
# 6 0.0000 0.0000 0.0000 -0.5109 0.0000 13.6968
#
#
#
# Elastic Compliance Matrix: (Units=1/GPa)
#
#
# Indices 1 2 3 4 5 6 
#
# 1 0.025010 -0.037618 0.020998 0.000000 0.035439 0.000000
# 2 -0.037618 0.096612 -0.050776 0.000000 -0.059071 0.000000
# 3 0.020998 -0.050776 0.092755 0.000000 0.055204 0.000000
# 4 0.000000 0.000000 0.000000 0.144452 0.000000 0.005388
# 5 0.035439 -0.059071 0.055204 0.000000 0.115872 0.000000
# 6 0.000000 0.000000 0.000000 0.005388 0.000000 0.073211
#
#
# Mechanical properties :
#
#
# Convention : Reuss Voigt Hill
#
# Bulk Modulus (GPa) = 12.56534 29.50095 21.03314
# Shear Modulus (GPa) = 7.04986 15.38728 11.21857
#
# Velocity S-wave (km/s) = 1.93710 2.86182 2.44360
# Velocity P-wave (km/s) = 3.41923 5.15966 4.37683
#
# Compressibility (1/GPa) = 0.07958402
#
# Stress axis : x y z
#
# Youngs Moduli (GPa) = 39.98384 10.35065 10.78109
#
# Poissons Ratio (x) = 0.38938 -0.22638
# Poissons Ratio (y) = 1.50413 0.54742
# Poissons Ratio (z) = -0.83957 0.52556
#
# Static dielectric constant tensor:
#      x y z
#    x 1.743600 0.000000 -0.014630 
#    y 0.000000 1.632330 0.000000 
#    z -0.014630 0.000000 1.675050 
# 
# From -- ./inp_files/66095.got.cif
#   From: 2010.05.17/outbox.cif.g08.bks.cpg/sg15_34_cif.got.tgz:66095.got - 2010.06.03 18:47:42.
