data_PCOD9255407
_publ_section_title
;
Structure prediction by ZEFSAII (Michael W. Deem and Ramdas Pophale) SiO2 
 PCOD9255407
Probable space group: C 2/C
;
_chemical_formula_sum "Si O2"
_cell_formula_units_Z 44
_cell_length_a 14.093226
_cell_length_b 12.216916
_cell_length_c 11.827535
_cell_angle_alpha 90.000000
_cell_angle_beta 122.125617
_cell_angle_gamma 90.000000
_cell_volume 1724.607622
_symmetry_space_group_name_H-M "C 2/C"
_symmetry_group_IT_number 15
_symmetry_cell_setting 'monoclinic'
loop_
_space_group_symop_operation_xyz
x,y,z
-x,y,1/2-z
-x,-y,-z
x,-y,1/2+z
1/2+x,1/2+y,z
1/2-x,1/2+y,1/2-z
1/2-x,1/2-y,-z
1/2+x,1/2-y,1/2+z
loop_
_atom_site_type_symbol
_atom_site_label
_atom_site_fract_x
_atom_site_fract_y
_atom_site_fract_z
Si Si1 0.500000 0.678875 0.250000
Si Si2 0.830389 0.387746 0.868563
Si Si3 0.883954 0.809560 0.897022
Si Si4 0.214956 0.910722 0.009606
Si Si5 0.726994 0.104832 0.576808
Si Si6 0.405000 0.333419 0.353081
O O1 0.552684 0.739706 0.174572
O O2 0.401629 0.606540 0.131672
O O3 0.715804 0.374367 0.725603
O O4 0.805120 0.352484 0.983764
O O5 0.845039 0.517188 0.893518
O O6 0.911785 0.299318 0.864463
O O7 0.832330 0.719755 0.947604
O O8 0.977602 0.875348 0.025812
O O9 0.255971 0.036529 0.026727
O O10 0.191795 0.866156 0.118061
O O11 0.852065 0.124163 0.705165
#
# Coordination Sequence:
#
# PCOD9255407 Si02
#       6
#     4   8   8   8   8   8
#     4   8  14  30  50  76 104 124 180 232 234 296
#     4   8  17  31  47  76 110 126 179 219 254 305
#     4   9  17  30  50  79 106 137 175 218 265 307
#     4   8  16  30  48  77 104 132 175 218 258 305
#     4   9  19  31  49  81 109 134 177 225 252 319
#     4  10  17  30  55  74 103 145 168 219 272 296
#
# _framework density 25.51305
#
# number of rings (size 3 to 8) (size 9 to 14) (size 15 to 20)
#    1.091    2.182    0.000    0.545    0.000    2.909 
#    0.000    0.000    0.000    4.364    0.000    0.000 
#    0.000    0.000    0.000    0.000    0.000    0.545 
#
# Total GULP energy -122636.454495 kJ/mol
# GULP energy per Si atom -5574.384295 kJ/mol
# Density = 2.545498 g / cm^3
# Si number density = 25.513050 Si / 1000 Ang^3
#
#
#
# Elastic Constant Matrix: (Units=GPa)
#
#
# Indices 1 2 3 4 5 6 
#
# 1 61.2140 10.3090 20.3807 0.0000 -12.6401 0.0000
# 2 10.3090 87.8550 -6.5535 0.0000 -13.3951 0.0000
# 3 20.3807 -6.5535 56.8172 0.0000 -1.0901 0.0000
# 4 0.0000 0.0000 0.0000 16.0351 0.0000 -9.8884
# 5 -12.6401 -13.3951 -1.0901 0.0000 32.2830 0.0000
# 6 0.0000 0.0000 0.0000 -9.8884 0.0000 15.1946
#
#
#
# Elastic Compliance Matrix: (Units=1/GPa)
#
#
# Indices 1 2 3 4 5 6 
#
# 1 0.020594 -0.001903 -0.007472 0.000000 0.007021 0.000000
# 2 -0.001903 0.012456 0.002206 0.000000 0.004498 0.000000
# 3 -0.007472 0.002206 0.020510 0.000000 -0.001318 0.000000
# 4 0.000000 0.000000 0.000000 0.104167 0.000000 0.067790
# 5 0.007021 0.004498 -0.001318 0.000000 0.035547 0.000000
# 6 0.000000 0.000000 0.000000 0.067790 0.000000 0.109929
#
#
# Mechanical properties :
#
#
# Convention : Reuss Voigt Hill
#
# Bulk Modulus (GPa) = 25.49686 28.23986 26.86836
# Shear Modulus (GPa) = 15.12328 24.81922 19.97125
#
# Velocity S-wave (km/s) = 2.43732 3.12237 2.80087
# Velocity P-wave (km/s) = 4.23510 4.90833 4.58409
#
# Compressibility (1/GPa) = 0.03922052
#
# Stress axis : x y z
#
# Youngs Moduli (GPa) = 48.55709 80.28256 48.75730
#
# Poissons Ratio (x) = 0.15281 0.36432
# Poissons Ratio (y) = 0.09242 -0.10755
# Poissons Ratio (z) = 0.36283 -0.17708
#
# Static dielectric constant tensor:
#      x y z
#    x 2.085640 0.000000 -0.025740 
#    y 0.000000 2.038430 0.000000 
#    z -0.025740 0.000000 1.954200 
# 
# From -- ./inp_files/161764.got.cif
#   From: 2010.05.17/outbox.cif.g08.bks.cpg/sg15_81_cif.got.tgz:161764.got - 2010.06.03 18:47:42.
