data_PCOD9255788
_publ_section_title
;
Structure prediction by ZEFSAII (Michael W. Deem and Ramdas Pophale) SiO2 
 PCOD9255788
Probable space group: C 2/C
;
_chemical_formula_sum "Si O2"
_cell_formula_units_Z 64
_cell_length_a 8.779655
_cell_length_b 19.647939
_cell_length_c 26.502972
_cell_angle_alpha 90.000000
_cell_angle_beta 131.852551
_cell_angle_gamma 90.000000
_cell_volume 3405.385000
_symmetry_space_group_name_H-M "C 2/C"
_symmetry_group_IT_number 15
_symmetry_cell_setting 'monoclinic'
loop_
_space_group_symop_operation_xyz
x,y,z
-x,y,1/2-z
-x,-y,-z
x,-y,1/2+z
1/2+x,1/2+y,z
1/2-x,1/2+y,1/2-z
1/2-x,1/2-y,-z
1/2+x,1/2-y,1/2+z
loop_
_atom_site_type_symbol
_atom_site_label
_atom_site_fract_x
_atom_site_fract_y
_atom_site_fract_z
Si Si1 0.688596 0.463546 0.640430
Si Si2 0.279288 0.466038 0.605265
Si Si3 0.819022 0.915359 0.974367
Si Si4 0.730182 0.102336 0.888533
Si Si5 0.099165 0.551621 0.964744
Si Si6 0.582133 0.248276 0.824880
Si Si7 0.885751 0.645367 0.362738
Si Si8 0.299450 0.828917 0.726189
O O1 0.505546 0.482833 0.637790
O O2 0.621509 0.437662 0.569667
O O3 0.809132 0.532878 0.652401
O O4 0.781972 0.397578 0.688726
O O5 0.185357 0.423711 0.537056
O O6 0.243453 0.419634 0.645934
O O7 0.136092 0.531416 0.580047
O O8 0.625933 0.865232 0.926296
O O9 0.719985 0.981014 0.979693
O O10 0.023463 0.893570 0.048541
O O11 0.637249 0.094894 0.923939
O O12 0.633348 0.170117 0.845334
O O13 0.500000 0.255213 0.750000
O O14 0.790438 0.291412 0.871415
O O15 0.408140 0.284510 0.820606
O O16 0.844429 0.652327 0.294202
O O17 0.500000 0.790542 0.750000
#
# Coordination Sequence:
#
# PCOD9255788 Si02
#       8
#     8   8   8   8   8   8   8   8
#     4  11  19  35  64  92 115 150 204 247 294 349
#     4  10  17  32  58  89 118 151 192 250 289 348
#     4  10  18  34  60  91 118 155 197 249 293 358
#     4  11  21  38  59  91 129 156 189 243 314 366
#     4   9  18  32  55  86 128 156 182 239 318 345
#     4  10  24  43  59  81 124 162 190 247 307 356
#     4  10  21  37  60  88 116 154 208 245 291 348
#     4  11  22  41  66  84 109 161 213 253 285 356
#
# _framework density 18.793763999999999
#
# number of rings (size 3 to 8) (size 9 to 14) (size 15 to 20)
#    0.000    1.750    5.000    0.750    0.000    1.000 
#    0.000    5.000    0.000    0.000    0.000    0.000 
#    0.000    0.000    0.000    0.000    0.000    0.000 
#
# Total GULP energy -178307.612781 kJ/mol
# GULP energy per Si atom -5572.112899 kJ/mol
# Density = 1.875099 g / cm^3
# Si number density = 18.793764 Si / 1000 Ang^3
#
#
#
# Elastic Constant Matrix: (Units=GPa)
#
#
# Indices 1 2 3 4 5 6 
#
# 1 112.2810 21.3050 21.2452 -0.0001 6.0161 0.0000
# 2 21.3050 75.1746 15.9400 0.0000 8.3225 0.0000
# 3 21.2452 15.9400 15.6609 -0.0002 2.7007 0.0000
# 4 -0.0001 0.0000 -0.0002 29.9182 -0.0001 0.8815
# 5 6.0161 8.3225 2.7007 -0.0001 28.2757 0.0000
# 6 0.0000 0.0000 0.0000 0.8815 0.0000 2.6111
#
#
#
# Elastic Compliance Matrix: (Units=1/GPa)
#
#
# Indices 1 2 3 4 5 6 
#
# 1 0.012012 0.000164 -0.016281 0.000000 -0.001049 0.000000
# 2 0.000164 0.017293 -0.017224 0.000000 -0.003480 0.000000
# 3 -0.016281 -0.017224 0.103708 0.000001 -0.001372 -0.000002
# 4 0.000000 0.000000 0.000001 0.033760 0.000000 -0.011397
# 5 -0.001049 -0.003480 -0.001372 0.000000 0.036744 0.000000
# 6 0.000000 0.000000 -0.000002 -0.011397 0.000000 0.386825
#
#
# Mechanical properties :
#
#
# Convention : Reuss Voigt Hill
#
# Bulk Modulus (GPa) = 15.07604 35.56635 25.32120
# Shear Modulus (GPa) = 7.36230 21.80276 14.58253
#
# Velocity S-wave (km/s) = 1.98139 3.40973 2.78856
# Velocity P-wave (km/s) = 3.64332 5.87089 4.88575
#
# Compressibility (1/GPa) = 0.06633040
#
# Stress axis : x y z
#
# Youngs Moduli (GPa) = 83.25046 57.82590 9.64249
#
# Poissons Ratio (x) = -0.00949 0.15699
# Poissons Ratio (y) = -0.01367 0.16608
# Poissons Ratio (z) = 1.35543 0.99600
#
# Static dielectric constant tensor:
#      x y z
#    x 1.693740 0.000000 0.025480 
#    y 0.000000 1.649540 0.000000 
#    z 0.025480 0.000000 1.681370 
# 
# From -- ./inp_files/290010.got.cif
#   From: 2010.05.17/outbox.cif.g08.bks.cpg/sg15_146_cif.got.tgz:290010.got - 2010.06.03 18:47:42.
