data_PCOD9255405
_publ_section_title
;
Structure prediction by ZEFSAII (Michael W. Deem and Ramdas Pophale) SiO2 
 PCOD9255405
Probable space group: C 2/C
;
_chemical_formula_sum "Si O2"
_cell_formula_units_Z 52
_cell_length_a 15.631699
_cell_length_b 12.464768
_cell_length_c 18.836856
_cell_angle_alpha 90.000000
_cell_angle_beta 130.228334
_cell_angle_gamma 90.000000
_cell_volume 2802.170864
_symmetry_space_group_name_H-M "C 2/C"
_symmetry_group_IT_number 15
_symmetry_cell_setting 'monoclinic'
loop_
_space_group_symop_operation_xyz
x,y,z
-x,y,1/2-z
-x,-y,-z
x,-y,1/2+z
1/2+x,1/2+y,z
1/2-x,1/2+y,1/2-z
1/2-x,1/2-y,-z
1/2+x,1/2-y,1/2+z
loop_
_atom_site_type_symbol
_atom_site_label
_atom_site_fract_x
_atom_site_fract_y
_atom_site_fract_z
Si Si1 0.000000 0.916257 0.750000
Si Si2 0.766518 0.405709 0.205950
Si Si3 0.500358 0.775970 0.357010
Si Si4 0.573020 0.077556 0.485725
Si Si5 0.111949 0.284268 0.571398
Si Si6 0.606726 0.974183 0.351355
Si Si7 0.232174 0.994525 0.836105
O O1 0.990805 0.837313 0.812996
O O2 0.887588 0.985022 0.691810
O O3 0.883237 0.343401 0.290602
O O4 0.675737 0.317628 0.135890
O O5 0.792343 0.476463 0.149770
O O6 0.729107 0.478890 0.251329
O O7 0.553376 0.767477 0.463448
O O8 0.586508 0.848278 0.357567
O O9 0.490810 0.177358 0.434279
O O10 0.500000 0.000000 0.500000
O O11 0.602624 0.027804 0.425727
O O12 0.690520 0.087126 0.588355
O O13 0.202508 0.381659 0.616015
O O14 0.500000 0.014535 0.250000
#
# Coordination Sequence:
#
# PCOD9255405 Si02
#       7
#     4   8   8   8   8   8   8
#     4  12  24  36  62  88 132 154 196 252 326 348
#     4  11  22  36  60  92 125 155 206 252 303 359
#     4  11  18  34  58  98 118 147 200 255 302 359
#     4  10  18  33  58  89 118 158 201 242 303 358
#     4  11  20  36  64  90 124 158 201 254 302 359
#     4  10  17  30  54  89 123 145 194 248 291 352
#     4  11  22  39  59  88 124 167 195 253 310 366
#
# _framework density 18.557041000000002
#
# number of rings (size 3 to 8) (size 9 to 14) (size 15 to 20)
#    0.000    1.231    8.462    2.769    2.154    1.231 
#    0.000    0.769    5.077    0.923    0.000    0.000 
#    0.000    0.000    0.000    0.000    0.000    0.000 
#
# Total GULP energy -144905.586616 kJ/mol
# GULP energy per Si atom -5573.291793 kJ/mol
# Density = 1.851480 g / cm^3
# Si number density = 18.557041 Si / 1000 Ang^3
#
#
#
# Elastic Constant Matrix: (Units=GPa)
#
#
# Indices 1 2 3 4 5 6 
#
# 1 103.4165 29.5435 42.4950 0.0000 4.2527 0.0000
# 2 29.5435 25.0809 25.4528 0.0000 -0.5561 0.0000
# 3 42.4950 25.4528 96.7901 0.0000 -13.0856 0.0000
# 4 0.0000 0.0000 0.0000 17.2251 0.0000 1.0216
# 5 4.2527 -0.5561 -13.0856 0.0000 33.9743 0.0000
# 6 0.0000 0.0000 0.0000 1.0216 0.0000 18.7702
#
#
#
# Elastic Compliance Matrix: (Units=1/GPa)
#
#
# Indices 1 2 3 4 5 6 
#
# 1 0.015428 -0.014870 -0.003331 0.000000 -0.003458 0.000000
# 2 -0.014870 0.069491 -0.011963 0.000000 -0.001609 0.000000
# 3 -0.003331 -0.011963 0.015792 0.000000 0.006304 0.000000
# 4 0.000000 0.000000 0.000000 0.058243 0.000000 -0.003170
# 5 -0.003458 -0.001609 0.006304 0.000000 0.032268 0.000000
# 6 0.000000 0.000000 0.000000 -0.003170 0.000000 0.053449
#
#
# Mechanical properties :
#
#
# Convention : Reuss Voigt Hill
#
# Bulk Modulus (GPa) = 24.76213 46.69668 35.72940
# Shear Modulus (GPa) = 15.70050 22.51366 19.10708
#
# Velocity S-wave (km/s) = 2.91188 3.48690 3.21228
# Velocity P-wave (km/s) = 4.96771 6.43660 5.74926
#
# Compressibility (1/GPa) = 0.04038425
#
# Stress axis : x y z
#
# Youngs Moduli (GPa) = 64.81514 14.39026 63.32242
#
# Poissons Ratio (x) = 0.21398 0.21092
# Poissons Ratio (y) = 0.96380 0.75753
# Poissons Ratio (z) = 0.21589 0.17215
#
# Static dielectric constant tensor:
#      x y z
#    x 1.664780 0.000000 -0.003990 
#    y 0.000000 1.666310 0.000000 
#    z -0.003990 0.000000 1.693340 
# 
# From -- ./inp_files/205191.got.cif
#   From: 2010.05.17/outbox.cif.g08.bks.cpg/sg15_103_cif.got.tgz:205191.got - 2010.06.03 18:47:42.
