data_PCOD9255166
_publ_section_title
;
Structure prediction by ZEFSAII (Michael W. Deem and Ramdas Pophale) SiO2 
 PCOD9255166
Probable space group: C 2/C
;
_chemical_formula_sum "Si O2"
_cell_formula_units_Z 56
_cell_length_a 15.583180
_cell_length_b 27.614236
_cell_length_c 8.156775
_cell_angle_alpha 90.000000
_cell_angle_beta 53.074552
_cell_angle_gamma 90.000000
_cell_volume 2805.959974
_symmetry_space_group_name_H-M "C 2/C"
_symmetry_group_IT_number 15
_symmetry_cell_setting 'monoclinic'
loop_
_space_group_symop_operation_xyz
x,y,z
-x,y,1/2-z
-x,-y,-z
x,-y,1/2+z
1/2+x,1/2+y,z
1/2-x,1/2+y,1/2-z
1/2-x,1/2-y,-z
1/2+x,1/2-y,1/2+z
loop_
_atom_site_type_symbol
_atom_site_label
_atom_site_fract_x
_atom_site_fract_y
_atom_site_fract_z
Si Si1 0.262206 0.688177 0.164549
Si Si2 0.622210 0.714670 0.787765
Si Si3 0.871833 0.378376 0.872683
Si Si4 0.119700 0.572668 0.666578
Si Si5 0.215154 0.667043 0.694167
Si Si6 0.917765 0.236011 0.195918
Si Si7 0.384001 0.022978 0.471476
O O1 0.195850 0.737687 0.218881
O O2 0.175901 0.646075 0.234674
O O3 0.329694 0.694921 0.253203
O O4 0.345812 0.687611 0.916272
O O5 0.664521 0.681455 0.890307
O O6 0.501508 0.733047 0.948277
O O7 0.828265 0.432984 0.939387
O O8 0.000000 0.379997 0.750000
O O9 0.834496 0.346822 0.070301
O O10 0.192346 0.619585 0.612886
O O11 0.160814 0.531105 0.495024
O O12 0.000000 0.588575 0.750000
O O13 0.108726 0.544026 0.853644
O O14 0.147608 0.713892 0.714079
O O15 0.000000 0.232232 0.250000
O O16 0.500000 0.018651 0.250000
#
# Coordination Sequence:
#
# PCOD9255166 Si02
#       7
#     8   8   8   8   8   8   8
#     4   9  18  31  51  69  88 124 161 197 237 277
#     4   9  18  33  48  66  90 120 164 199 230 276
#     4   9  16  29  48  71  93 119 159 198 229 273
#     4  10  17  29  44  64  92 121 154 187 230 281
#     4   9  19  30  46  67  91 127 159 190 233 277
#     4  11  21  32  45  68  99 129 157 195 236 276
#     4   9  17  27  42  64  91 120 150 188 230 276
#
# _framework density 19.957519000000001
#
# number of rings (size 3 to 8) (size 9 to 14) (size 15 to 20)
#    0.000    2.571    0.000    4.286    0.000    2.286 
#    0.000    7.143    0.000    0.000    0.000    1.000 
#    0.000    0.000    0.000    0.429    0.000    0.000 
#
# Total GULP energy -156040.255578 kJ/mol
# GULP energy per Si atom -5572.866271 kJ/mol
# Density = 1.991210 g / cm^3
# Si number density = 19.957519 Si / 1000 Ang^3
#
#
#
# Elastic Constant Matrix: (Units=GPa)
#
#
# Indices 1 2 3 4 5 6 
#
# 1 102.2802 59.7163 7.1441 0.0000 21.4353 0.0000
# 2 59.7163 112.2624 5.7775 0.0000 12.0204 0.0000
# 3 7.1441 5.7775 44.5682 0.0000 -0.1401 0.0000
# 4 0.0000 0.0000 0.0000 10.7264 0.0000 5.1861
# 5 21.4353 12.0204 -0.1401 0.0000 27.6404 0.0000
# 6 0.0000 0.0000 0.0000 5.1861 0.0000 29.7448
#
#
#
# Elastic Compliance Matrix: (Units=1/GPa)
#
#
# Indices 1 2 3 4 5 6 
#
# 1 0.016268 -0.007569 -0.001656 0.000000 -0.009332 0.000000
# 2 -0.007569 0.012932 -0.000462 0.000000 0.000244 0.000000
# 3 -0.001656 -0.000462 0.022768 0.000000 0.001601 0.000000
# 4 0.000000 0.000000 0.000000 0.101810 0.000000 -0.017751
# 5 -0.009332 0.000244 0.001601 0.000000 0.043318 0.000000
# 6 0.000000 0.000000 0.000000 -0.017751 0.000000 0.036714
#
#
# Mechanical properties :
#
#
# Convention : Reuss Voigt Hill
#
# Bulk Modulus (GPa) = 30.68130 44.93185 37.80658
# Shear Modulus (GPa) = 18.93593 26.05386 22.49489
#
# Velocity S-wave (km/s) = 3.08362 3.61704 3.36093
# Velocity P-wave (km/s) = 5.29952 6.32508 5.83488
#
# Compressibility (1/GPa) = 0.03259314
#
# Stress axis : x y z
#
# Youngs Moduli (GPa) = 61.47179 77.33030 43.92147
#
# Poissons Ratio (x) = 0.58530 0.07272
# Poissons Ratio (y) = 0.46527 0.02031
# Poissons Ratio (z) = 0.10178 0.03575
#
# Static dielectric constant tensor:
#      x y z
#    x 1.767340 0.000000 0.058300 
#    y 0.000000 1.743600 0.000000 
#    z 0.058300 0.000000 1.821640 
# 
# From -- ./inp_files/44239.got.cif
#   From: 2010.05.17/outbox.cif.g08.bks.cpg/sg15_23_cif.got.tgz:44239.got - 2010.06.03 18:47:42.
