data_PCOD9255195
_publ_section_title
;
Structure prediction by ZEFSAII (Michael W. Deem and Ramdas Pophale) SiO2 
 PCOD9255195
Probable space group: C 2/C
;
_chemical_formula_sum "Si O2"
_cell_formula_units_Z 56
_cell_length_a 18.291498
_cell_length_b 9.304892
_cell_length_c 20.055182
_cell_angle_alpha 90.000000
_cell_angle_beta 139.421172
_cell_angle_gamma 90.000000
_cell_volume 2220.395049
_symmetry_space_group_name_H-M "C 2/C"
_symmetry_group_IT_number 15
_symmetry_cell_setting 'monoclinic'
loop_
_space_group_symop_operation_xyz
x,y,z
-x,y,1/2-z
-x,-y,-z
x,-y,1/2+z
1/2+x,1/2+y,z
1/2-x,1/2+y,1/2-z
1/2-x,1/2-y,-z
1/2+x,1/2-y,1/2+z
loop_
_atom_site_type_symbol
_atom_site_label
_atom_site_fract_x
_atom_site_fract_y
_atom_site_fract_z
Si Si1 0.684178 0.989594 0.785287
Si Si2 0.810457 0.005311 0.699597
Si Si3 0.420049 0.516398 0.006073
Si Si4 0.109578 0.113940 0.881869
Si Si5 0.231603 0.233180 0.232741
Si Si6 0.372263 0.942941 0.609325
Si Si7 0.333327 0.812992 0.999202
O O1 0.660759 0.868434 0.713361
O O2 0.616082 0.989728 0.806052
O O3 0.806398 0.941593 0.899286
O O4 0.705328 0.145555 0.770015
O O5 0.840485 0.901212 0.783715
O O6 0.729041 0.898774 0.601942
O O7 0.891869 0.056183 0.695100
O O8 0.746039 0.148068 0.681921
O O9 0.393544 0.679636 0.007140
O O10 0.500000 0.500000 0.000000
O O11 0.456387 0.446842 0.100399
O O12 0.086313 0.282251 0.867595
O O13 0.239867 0.075607 0.994447
O O14 0.413194 0.070959 0.590232
O O15 0.250000 0.750000 0.000000
#
# Coordination Sequence:
#
# PCOD9255195 Si02
#       7
#     8   8   8   8   8   8   8
#     4  10  18  32  50  83 107 132 180 222 281 310
#     4  10  17  29  48  82 107 132 178 231 286 308
#     4  11  22  35  53  79 114 144 175 226 288 348
#     4   9  17  30  50  75 105 134 176 226 280 315
#     4  10  19  27  50  81 110 136 172 242 258 317
#     4   9  16  28  52  77 100 126 176 240 266 308
#     4  11  17  31  54  79 103 138 183 236 276 324
#
# _framework density 25.220735999999999
#
# number of rings (size 3 to 8) (size 9 to 14) (size 15 to 20)
#    0.000    2.000    7.143    0.000    2.000    0.000 
#    0.000    0.714    0.000    3.429    0.000    2.000 
#    0.000    0.000    0.000    0.000    0.000    0.000 
#
# Total GULP energy -155873.840703 kJ/mol
# GULP energy per Si atom -5566.922882 kJ/mol
# Density = 2.516333 g / cm^3
# Si number density = 25.220736 Si / 1000 Ang^3
#
#
#
# Elastic Constant Matrix: (Units=GPa)
#
#
# Indices 1 2 3 4 5 6 
#
# 1 128.8526 56.1919 71.9203 0.0000 -59.7962 0.0000
# 2 56.1919 226.5745 71.5536 0.0000 -51.9287 0.0000
# 3 71.9203 71.5536 122.9071 0.0000 -42.2626 0.0000
# 4 0.0000 0.0000 0.0000 51.1654 0.0000 -26.2399
# 5 -59.7962 -51.9287 -42.2626 0.0000 52.3161 0.0000
# 6 0.0000 0.0000 0.0000 -26.2399 0.0000 34.9536
#
#
#
# Elastic Compliance Matrix: (Units=1/GPa)
#
#
# Indices 1 2 3 4 5 6 
#
# 1 0.018696 0.001249 -0.005391 0.000000 0.018255 0.000000
# 2 0.001249 0.006138 -0.002380 0.000000 0.005599 0.000000
# 3 -0.005391 -0.002380 0.013493 0.000000 0.002377 0.000000
# 4 0.000000 0.000000 0.000000 0.031779 0.000000 0.023857
# 5 0.018255 0.005599 0.002377 0.000000 0.047457 0.000000
# 6 0.000000 0.000000 0.000000 0.023857 0.000000 0.046519
#
#
# Mechanical properties :
#
#
# Convention : Reuss Voigt Hill
#
# Bulk Modulus (GPa) = 39.54693 97.51843 68.53268
# Shear Modulus (GPa) = 26.94644 46.26493 36.60569
#
# Velocity S-wave (km/s) = 3.27222 4.28764 3.81387
# Velocity P-wave (km/s) = 5.47640 7.95372 6.82835
#
# Compressibility (1/GPa) = 0.02528641
#
# Stress axis : x y z
#
# Youngs Moduli (GPa) = 53.48674 162.91079 74.11114
#
# Poissons Ratio (x) = -0.20355 0.39950
# Poissons Ratio (y) = -0.06683 0.17635
# Poissons Ratio (z) = 0.28832 0.38766
#
# Static dielectric constant tensor:
#      x y z
#    x 2.162990 0.000000 0.114900 
#    y 0.000000 1.924770 0.000000 
#    z 0.114900 0.000000 2.178830 
# 
# From -- ./inp_files/251326.got.cif
#   From: 2010.05.17/outbox.cif.g08.bks.cpg/sg15_126_cif.got.tgz:251326.got - 2010.06.03 18:47:42.
