data_PCOD9255046
_publ_section_title
;
Structure prediction by ZEFSAII (Michael W. Deem and Ramdas Pophale) SiO2 
 PCOD9255046
Probable space group: C 2/C
;
_chemical_formula_sum "Si O2"
_cell_formula_units_Z 56
_cell_length_a 11.375161
_cell_length_b 17.048248
_cell_length_c 12.157355
_cell_angle_alpha 90.000000
_cell_angle_beta 64.345130
_cell_angle_gamma 90.000000
_cell_volume 2125.214575
_symmetry_space_group_name_H-M "C 2/C"
_symmetry_group_IT_number 15
_symmetry_cell_setting 'monoclinic'
loop_
_space_group_symop_operation_xyz
x,y,z
-x,y,1/2-z
-x,-y,-z
x,-y,1/2+z
1/2+x,1/2+y,z
1/2-x,1/2+y,1/2-z
1/2-x,1/2-y,-z
1/2+x,1/2-y,1/2+z
loop_
_atom_site_type_symbol
_atom_site_label
_atom_site_fract_x
_atom_site_fract_y
_atom_site_fract_z
Si Si1 0.172123 0.094018 0.416040
Si Si2 0.801991 0.833036 0.245379
Si Si3 0.603112 0.803831 0.631149
Si Si4 0.125442 0.985788 0.149273
Si Si5 0.378980 0.037895 0.152495
Si Si6 0.536103 0.716106 0.013176
Si Si7 0.508194 0.125625 0.914189
O O1 0.271600 0.145816 0.450281
O O2 0.106409 0.036927 0.530378
O O3 0.274709 0.056419 0.290169
O O4 0.063994 0.150034 0.403881
O O5 0.847519 0.758192 0.296428
O O6 0.865436 0.909449 0.274919
O O7 0.649431 0.842083 0.323802
O O8 0.845938 0.823494 0.101282
O O9 0.500000 0.850614 0.750000
O O10 0.547752 0.753945 0.553663
O O11 0.000000 0.029856 0.250000
O O12 0.269925 0.021614 0.100743
O O13 0.471445 0.963227 0.140325
O O14 0.469568 0.101855 0.055287
O O15 0.572755 0.792890 0.070527
#
# Coordination Sequence:
#
# PCOD9255046 Si02
#       7
#     8   8   8   8   8   8   8
#     4  12  21  35  59  92 120 167 205 244 311 365
#     4  10  17  31  52  83 121 154 187 239 304 364
#     4  10  17  27  49  86 124 151 181 235 306 378
#     4  11  21  38  57  83 129 161 201 255 294 362
#     4  10  24  39  55  86 130 171 204 232 307 385
#     4  11  19  31  59  92 123 155 196 254 322 365
#     4  10  21  38  52  80 136 163 192 247 286 375
#
# _framework density 26.350280999999999
#
# number of rings (size 3 to 8) (size 9 to 14) (size 15 to 20)
#    0.000    1.429    4.286    4.286    0.000    1.714 
#    0.000    0.000    0.000    0.000    0.000    4.000 
#    0.000    0.000    0.000    0.000    0.000    0.000 
#
# Total GULP energy -156190.785922 kJ/mol
# GULP energy per Si atom -5578.242354 kJ/mol
# Density = 2.629031 g / cm^3
# Si number density = 26.350281 Si / 1000 Ang^3
#
#
#
# Elastic Constant Matrix: (Units=GPa)
#
#
# Indices 1 2 3 4 5 6 
#
# 1 46.5801 5.6338 26.2618 0.0000 -11.2625 0.0000
# 2 5.6338 69.4593 63.4528 0.0000 -0.3686 0.0000
# 3 26.2618 63.4528 184.5302 0.0000 -39.5939 0.0000
# 4 0.0000 0.0000 0.0000 38.8429 0.0000 -10.2502
# 5 -11.2625 -0.3686 -39.5939 0.0000 30.5374 0.0000
# 6 0.0000 0.0000 0.0000 -10.2502 0.0000 12.8428
#
#
#
# Elastic Compliance Matrix: (Units=1/GPa)
#
#
# Indices 1 2 3 4 5 6 
#
# 1 0.024151 0.000009 -0.002118 0.000000 0.006161 0.000000
# 2 0.000009 0.025202 -0.011916 0.000000 -0.015143 0.000000
# 3 -0.002118 -0.011916 0.013327 0.000000 0.016355 0.000000
# 4 0.000000 0.000000 0.000000 0.032614 0.000000 0.026030
# 5 0.006161 -0.015143 0.016355 0.000000 0.056041 0.000000
# 6 0.000000 0.000000 0.000000 0.026030 0.000000 0.098640
#
#
# Mechanical properties :
#
#
# Convention : Reuss Voigt Hill
#
# Bulk Modulus (GPa) = 28.87762 54.58516 41.73139
# Shear Modulus (GPa) = 17.26702 30.12604 23.69653
#
# Velocity S-wave (km/s) = 2.56264 3.38493 3.00207
# Velocity P-wave (km/s) = 4.44287 6.00310 5.28092
#
# Compressibility (1/GPa) = 0.03462890
#
# Stress axis : x y z
#
# Youngs Moduli (GPa) = 41.40580 39.67991 75.03353
#
# Poissons Ratio (x) = -0.00035 0.15894
# Poissons Ratio (y) = -0.00037 0.89412
# Poissons Ratio (z) = 0.08771 0.47284
#
# Static dielectric constant tensor:
#      x y z
#    x 2.172320 0.000000 0.033770 
#    y 0.000000 2.159070 0.000000 
#    z 0.033770 0.000000 2.073560 
# 
# From -- ./inp_files/155124.got.cif
#   From: 2010.05.17/outbox.cif.g08.bks.cpg/sg15_78_cif.got.tgz:155124.got - 2010.06.03 18:47:42.
