data_PCOD9255911
_publ_section_title
;
Structure prediction by ZEFSAII (Michael W. Deem and Ramdas Pophale) SiO2 
 PCOD9255911
Probable space group: C 2/C
;
_chemical_formula_sum "Si O2"
_cell_formula_units_Z 56
_cell_length_a 12.441261
_cell_length_b 22.911576
_cell_length_c 27.882774
_cell_angle_alpha 90.000000
_cell_angle_beta 153.293521
_cell_angle_gamma 90.000000
_cell_volume 3571.969618
_symmetry_space_group_name_H-M "C 2/C"
_symmetry_group_IT_number 15
_symmetry_cell_setting 'monoclinic'
loop_
_space_group_symop_operation_xyz
x,y,z
-x,y,1/2-z
-x,-y,-z
x,-y,1/2+z
1/2+x,1/2+y,z
1/2-x,1/2+y,1/2-z
1/2-x,1/2-y,-z
1/2+x,1/2-y,1/2+z
loop_
_atom_site_type_symbol
_atom_site_label
_atom_site_fract_x
_atom_site_fract_y
_atom_site_fract_z
Si Si1 0.137788 0.156431 0.454489
Si Si2 0.839313 0.443906 0.637708
Si Si3 0.500000 0.242460 0.250000
Si Si4 0.020932 0.267458 0.473742
Si Si5 0.222391 0.074992 0.567517
Si Si6 0.753872 0.271503 0.833938
Si Si7 0.500000 0.840565 0.250000
Si Si8 0.113188 0.658684 0.206394
O O1 0.310758 0.185975 0.485139
O O2 0.251779 0.101587 0.526462
O O3 0.085810 0.205268 0.474978
O O4 0.883976 0.142703 0.329363
O O5 0.831537 0.510871 0.617740
O O6 0.563749 0.427487 0.538127
O O7 0.000000 0.438710 0.750000
O O8 0.951049 0.398815 0.644243
O O9 0.744046 0.277927 0.352085
O O10 0.517810 0.201340 0.210311
O O11 0.079083 0.266645 0.553044
O O12 0.344745 0.118793 0.653867
O O13 0.500000 0.299471 0.750000
O O14 0.666120 0.205364 0.786551
O O15 0.868841 0.306241 0.836129
#
# Coordination Sequence:
#
# PCOD9255911 Si02
#       8
#     8   8   4   8   8   8   4   8
#     4  10  17  33  57  76 105 145 184 220 265 334
#     4  11  21  36  53  80 110 144 191 229 274 323
#     4  10  22  31  50  80 111 152 170 218 276 334
#     4  10  19  33  51  81 112 143 180 213 275 340
#     4  11  21  34  56  80 113 145 178 237 278 322
#     4  10  20  33  54  86 110 142 184 225 272 332
#     4  10  20  33  52  86 113 140 178 230 284 322
#     4  11  20  35  55  79 113 148 183 223 270 335
#
# _framework density 15.677625000000001
#
# number of rings (size 3 to 8) (size 9 to 14) (size 15 to 20)
#    0.429    1.143    5.714    0.857    4.000    0.571 
#    0.000    0.000    0.000    0.857    1.857    0.000 
#    0.000    0.000    0.000    0.000    0.000    0.000 
#
# Total GULP energy -156080.283741 kJ/mol
# GULP energy per Si atom -5574.295848 kJ/mol
# Density = 1.564194 g / cm^3
# Si number density = 15.677625 Si / 1000 Ang^3
#
#
#
# Elastic Constant Matrix: (Units=GPa)
#
#
# Indices 1 2 3 4 5 6 
#
# 1 74.5444 40.3309 28.7353 -0.0005 -7.3305 -0.0006
# 2 40.3309 88.9014 34.0128 0.0007 -4.7715 -0.0008
# 3 28.7353 34.0128 85.1981 0.0127 -3.2541 -0.0050
# 4 -0.0005 0.0007 0.0127 21.4687 -0.0013 3.3527
# 5 -7.3305 -4.7715 -3.2541 -0.0013 26.0042 -0.0006
# 6 -0.0006 -0.0008 -0.0050 3.3527 -0.0006 22.6856
#
#
#
# Elastic Compliance Matrix: (Units=1/GPa)
#
#
# Indices 1 2 3 4 5 6 
#
# 1 0.018918 -0.007082 -0.003416 0.000003 0.003606 -0.000001
# 2 -0.007082 0.016010 -0.003986 0.000002 0.000442 -0.000001
# 3 -0.003416 -0.003986 0.014485 -0.000009 0.000118 0.000004
# 4 0.000003 0.000002 -0.000009 0.047680 0.000002 -0.007047
# 5 0.003606 0.000442 0.000118 0.000002 0.039568 0.000001
# 6 -0.000001 -0.000001 0.000004 -0.007047 0.000001 0.045122
#
#
# Mechanical properties :
#
#
# Convention : Reuss Voigt Hill
#
# Bulk Modulus (GPa) = 48.90968 50.53354 49.72161
# Shear Modulus (GPa) = 22.98168 23.73603 23.35885
#
# Velocity S-wave (km/s) = 3.83285 3.89524 3.86417
# Velocity P-wave (km/s) = 7.13109 7.24800 7.18978
#
# Compressibility (1/GPa) = 0.02044585
#
# Stress axis : x y z
#
# Youngs Moduli (GPa) = 52.86095 62.46119 69.03618
#
# Poissons Ratio (x) = 0.44234 0.23579
# Poissons Ratio (y) = 0.37435 0.27518
# Poissons Ratio (z) = 0.18055 0.24897
#
# Static dielectric constant tensor:
#      x y z
#    x 1.514590 0.000000 0.007630 
#    y 0.000000 1.525820 0.000000 
#    z 0.007630 0.000000 1.541410 
# 
# From -- ./inp_files/90388.got.cif
#   From: 2010.05.17/outbox.cif.g08.bks.cpg/sg15_46_cif.got.tgz:90388.got - 2010.06.03 18:47:42.
