data_PCOD9255988
_publ_section_title
;
Structure prediction by ZEFSAII (Michael W. Deem and Ramdas Pophale) SiO2 
 PCOD9255988
Probable space group: C 2/C
;
_chemical_formula_sum "Si O2"
_cell_formula_units_Z 64
_cell_length_a 24.406770
_cell_length_b 7.544188
_cell_length_c 14.730912
_cell_angle_alpha 90.000000
_cell_angle_beta 95.274318
_cell_angle_gamma 90.000000
_cell_volume 2700.907683
_symmetry_space_group_name_H-M "C 2/C"
_symmetry_group_IT_number 15
_symmetry_cell_setting 'monoclinic'
loop_
_space_group_symop_operation_xyz
x,y,z
-x,y,1/2-z
-x,-y,-z
x,-y,1/2+z
1/2+x,1/2+y,z
1/2-x,1/2+y,1/2-z
1/2-x,1/2-y,-z
1/2+x,1/2-y,1/2+z
loop_
_atom_site_type_symbol
_atom_site_label
_atom_site_fract_x
_atom_site_fract_y
_atom_site_fract_z
Si Si1 0.766199 0.442563 0.610810
Si Si2 0.536774 0.261022 0.825260
Si Si3 0.365357 0.503831 0.205254
Si Si4 0.749732 0.182474 0.209338
Si Si5 0.448911 0.121109 0.479369
Si Si6 0.151839 0.012430 0.006725
Si Si7 0.940963 0.961391 0.368092
Si Si8 0.831691 0.412532 0.956319
O O1 0.761134 0.629960 0.663697
O O2 0.776935 0.306962 0.694602
O O3 0.707926 0.403411 0.553215
O O4 0.809927 0.477675 0.538600
O O5 0.500000 0.146898 0.750000
O O6 0.590704 0.335038 0.785550
O O7 0.492627 0.416314 0.846862
O O8 0.560738 0.181163 0.919222
O O9 0.307424 0.580834 0.227808
O O10 0.398207 0.388121 0.284210
O O11 0.360729 0.444882 0.099931
O O12 0.710594 0.079883 0.133051
O O13 0.463938 0.288949 0.421221
O O14 0.392801 0.033615 0.436972
O O15 0.500000 0.000000 0.500000
O O16 0.100065 0.050728 0.064108
O O17 0.163745 0.798341 0.016234
#
# Coordination Sequence:
#
# PCOD9255988 Si02
#       8
#     8   8   8   8   8   8   8   8
#     4  11  20  37  62  89 125 163 205 251 315 374
#     4  10  21  38  65  92 119 161 216 265 309 366
#     4  11  18  35  64  98 119 154 211 262 310 363
#     4  11  21  36  63  95 120 162 208 258 306 377
#     4  11  23  44  64  85 128 169 206 253 316 377
#     4  10  17  33  65  89 119 159 204 252 310 366
#     4  10  21  36  65  96 117 154 219 264 305 363
#     4  10  20  40  62  86 121 171 205 240 315 392
#
# _framework density 23.695739
#
# number of rings (size 3 to 8) (size 9 to 14) (size 15 to 20)
#    0.000    1.500    6.250    1.125    0.000    0.000 
#    6.750    3.750    2.750    0.000    0.000    0.000 
#    0.000    0.000    0.000    0.000    0.000    0.000 
#
# Total GULP energy -178810.055410 kJ/mol
# GULP energy per Si atom -5587.814232 kJ/mol
# Density = 2.364181 g / cm^3
# Si number density = 23.695739 Si / 1000 Ang^3
#
#
#
# Elastic Constant Matrix: (Units=GPa)
#
#
# Indices 1 2 3 4 5 6 
#
# 1 111.3759 5.4523 -11.3556 0.0000 -1.4604 0.0000
# 2 5.4523 25.5500 -18.1806 0.0000 2.0192 0.0000
# 3 -11.3556 -18.1806 82.1839 0.0000 15.1673 0.0000
# 4 0.0000 0.0000 0.0000 8.4273 0.0000 2.6965
# 5 -1.4604 2.0192 15.1673 0.0000 45.0468 0.0000
# 6 0.0000 0.0000 0.0000 2.6965 0.0000 12.4570
#
#
#
# Elastic Compliance Matrix: (Units=1/GPa)
#
#
# Indices 1 2 3 4 5 6 
#
# 1 0.009140 -0.001254 0.000981 0.000000 0.000022 0.000000
# 2 -0.001254 0.048147 0.011605 0.000000 -0.006106 0.000000
# 3 0.000981 0.011605 0.015952 0.000000 -0.005859 0.000000
# 4 0.000000 0.000000 0.000000 0.127492 0.000000 -0.027597
# 5 0.000022 -0.006106 -0.005859 0.000000 0.024446 0.000000
# 6 0.000000 0.000000 0.000000 -0.027597 0.000000 0.086250
#
#
# Mechanical properties :
#
#
# Convention : Reuss Voigt Hill
#
# Bulk Modulus (GPa) = 10.42719 18.99357 14.71038
# Shear Modulus (GPa) = 15.58941 29.39913 22.49427
#
# Velocity S-wave (km/s) = 2.56774 3.52617 3.08441
# Velocity P-wave (km/s) = 3.63332 4.96100 4.34813
#
# Compressibility (1/GPa) = 0.09590312
#
# Stress axis : x y z
#
# Youngs Moduli (GPa) = 109.40508 20.76993 62.68826
#
# Poissons Ratio (x) = 0.02604 -0.06153
# Poissons Ratio (y) = 0.13718 -0.72747
# Poissons Ratio (z) = -0.10738 -0.24103
#
# Static dielectric constant tensor:
#      x y z
#    x 1.823810 0.000000 0.067870 
#    y 0.000000 1.784150 0.000000 
#    z 0.067870 0.000000 2.062460 
# 
# From -- ./inp_files/176618.got.cif
#   From: 2010.05.17/outbox.cif.g08.bks.cpg/sg15_89_cif.got.tgz:176618.got - 2010.06.03 18:47:42.
