data_PCOD9255477
_publ_section_title
;
Structure prediction by ZEFSAII (Michael W. Deem and Ramdas Pophale) SiO2 
 PCOD9255477
Probable space group: C 2/C
;
_chemical_formula_sum "Si O2"
_cell_formula_units_Z 60
_cell_length_a 21.207150
_cell_length_b 12.881493
_cell_length_c 18.965156
_cell_angle_alpha 90.000000
_cell_angle_beta 39.512779
_cell_angle_gamma 90.000000
_cell_volume 3296.347073
_symmetry_space_group_name_H-M "C 2/C"
_symmetry_group_IT_number 15
_symmetry_cell_setting 'monoclinic'
loop_
_space_group_symop_operation_xyz
x,y,z
-x,y,1/2-z
-x,-y,-z
x,-y,1/2+z
1/2+x,1/2+y,z
1/2-x,1/2+y,1/2-z
1/2-x,1/2-y,-z
1/2+x,1/2-y,1/2+z
loop_
_atom_site_type_symbol
_atom_site_label
_atom_site_fract_x
_atom_site_fract_y
_atom_site_fract_z
Si Si1 0.274253 0.255281 0.661163
Si Si2 0.966822 0.272135 0.071949
Si Si3 0.989032 0.936129 0.898331
Si Si4 0.688446 0.169038 0.385906
Si Si5 0.222801 0.983079 0.881948
Si Si6 0.834163 0.323075 0.324472
Si Si7 0.500000 0.295629 0.750000
Si Si8 0.301097 0.533914 0.763896
O O1 0.389911 0.226458 0.573997
O O2 0.229905 0.289907 0.775298
O O3 0.259407 0.359910 0.629550
O O4 0.222614 0.147691 0.687416
O O5 0.998412 0.152144 0.052935
O O6 0.902542 0.306698 0.195482
O O7 0.070068 0.332943 0.983054
O O8 0.992534 0.870188 0.823609
O O9 0.084643 0.007571 0.822574
O O10 0.886826 0.994313 0.995593
O O11 0.736390 0.251296 0.398907
O O12 0.736460 0.056596 0.356064
O O13 0.298787 0.058511 0.856727
O O14 0.223036 0.021393 0.799270
O O15 0.903643 0.277448 0.325419
#
# Coordination Sequence:
#
# PCOD9255477 Si02
#       8
#     8   8   8   8   8   8   4   8
#     4  10  21  31  49  81 116 142 184 221 275 348
#     4  10  17  31  50  82 110 147 177 220 283 327
#     4  11  20  34  60  79 110 144 193 230 273 328
#     4  10  18  31  52  78 114 147 176 230 279 318
#     4  11  20  34  55  84 114 148 179 233 283 331
#     4  10  19  36  51  81 115 136 188 230 273 322
#     4  10  22  38  56  86 108 144 192 234 278 326
#     4  11  19  35  52  83 119 148 180 230 273 343
#
# _framework density 18.201965999999999
#
# number of rings (size 3 to 8) (size 9 to 14) (size 15 to 20)
#    0.000    1.600    9.333    0.400    1.867    1.067 
#    0.000    0.000    0.000    1.600    0.000    0.000 
#    0.000    0.000    0.000    0.000    0.000    0.000 
#
# Total GULP energy -167288.705372 kJ/mol
# GULP energy per Si atom -5576.290179 kJ/mol
# Density = 1.816054 g / cm^3
# Si number density = 18.201966 Si / 1000 Ang^3
#
#
#
# Elastic Constant Matrix: (Units=GPa)
#
#
# Indices 1 2 3 4 5 6 
#
# 1 37.0666 12.7740 3.6172 0.0000 -2.3443 0.0000
# 2 12.7740 136.9920 23.2944 0.0000 -13.0912 0.0000
# 3 3.6172 23.2944 48.4468 0.0000 -20.6556 0.0000
# 4 0.0000 0.0000 0.0000 5.0341 0.0000 -8.7545
# 5 -2.3443 -13.0912 -20.6556 0.0000 13.4608 0.0000
# 6 0.0000 0.0000 0.0000 -8.7545 0.0000 24.6542
#
#
#
# Elastic Compliance Matrix: (Units=1/GPa)
#
#
# Indices 1 2 3 4 5 6 
#
# 1 0.027958 -0.002372 0.000421 0.000000 0.003208 0.000000
# 2 -0.002372 0.008289 -0.001584 0.000000 0.005218 0.000000
# 3 0.000421 -0.001584 0.060001 0.000000 0.090605 0.000000
# 4 0.000000 0.000000 0.000000 0.519367 0.000000 0.184424
# 5 0.003208 0.005218 0.090605 0.000000 0.218955 0.000000
# 6 0.000000 0.000000 0.000000 0.184424 0.000000 0.106049
#
#
# Mechanical properties :
#
#
# Convention : Reuss Voigt Hill
#
# Bulk Modulus (GPa) = 11.21355 33.54184 22.37770
# Shear Modulus (GPa) = 5.11554 20.81781 12.96667
#
# Velocity S-wave (km/s) = 1.67825 3.38555 2.67194
# Velocity P-wave (km/s) = 3.15109 5.80949 4.67331
#
# Compressibility (1/GPa) = 0.08917783
#
# Stress axis : x y z
#
# Youngs Moduli (GPa) = 35.76832 120.64479 16.66639
#
# Poissons Ratio (x) = 0.28616 -0.00701
# Poissons Ratio (y) = 0.08484 0.02639
# Poissons Ratio (z) = -0.01505 0.19105
#
# Static dielectric constant tensor:
#      x y z
#    x 1.672690 0.000000 -0.003130 
#    y 0.000000 1.639870 0.000000 
#    z -0.003130 0.000000 1.650920 
# 
# From -- ./inp_files/215183.got.cif
#   From: 2010.05.17/outbox.cif.g08.bks.cpg/sg15_108_cif.got.tgz:215183.got - 2010.06.03 18:47:42.
