data_PCOD9255867
_publ_section_title
;
Structure prediction by ZEFSAII (Michael W. Deem and Ramdas Pophale) SiO2 
 PCOD9255867
Probable space group: C 2/C
;
_chemical_formula_sum "Si O2"
_cell_formula_units_Z 52
_cell_length_a 24.138261
_cell_length_b 13.422158
_cell_length_c 15.367485
_cell_angle_alpha 90.000000
_cell_angle_beta 155.564932
_cell_angle_gamma 90.000000
_cell_volume 2059.569616
_symmetry_space_group_name_H-M "C 2/C"
_symmetry_group_IT_number 15
_symmetry_cell_setting 'monoclinic'
loop_
_space_group_symop_operation_xyz
x,y,z
-x,y,1/2-z
-x,-y,-z
x,-y,1/2+z
1/2+x,1/2+y,z
1/2-x,1/2+y,1/2-z
1/2-x,1/2-y,-z
1/2+x,1/2-y,1/2+z
loop_
_atom_site_type_symbol
_atom_site_label
_atom_site_fract_x
_atom_site_fract_y
_atom_site_fract_z
Si Si1 0.866944 0.419592 0.519399
Si Si2 0.000000 0.913842 0.250000
Si Si3 0.502756 0.884073 0.975448
Si Si4 0.320961 0.402343 0.649428
Si Si5 0.383818 0.561376 0.942931
Si Si6 0.250615 0.621305 0.483694
Si Si7 0.235698 0.214349 0.600239
O O1 0.932537 0.373475 0.527635
O O2 0.734401 0.472420 0.290666
O O3 0.807140 0.344200 0.506167
O O4 0.000000 0.472178 0.750000
O O5 0.901386 0.856510 0.172927
O O6 0.090562 0.983636 0.442025
O O7 0.349468 0.856271 0.738209
O O8 0.608278 0.822330 0.182744
O O9 0.500000 0.000000 0.000000
O O10 0.254056 0.502192 0.514125
O O11 0.237759 0.332813 0.595531
O O12 0.336876 0.332461 0.586759
O O13 0.472619 0.422937 0.895696
O O14 0.332466 0.663451 0.914150
#
# Coordination Sequence:
#
# PCOD9255867 Si02
#       7
#     8   4   8   8   8   8   8
#     4   9  20  32  54  79 106 141 184 235 277 335
#     4  10  18  30  56  76 104 152 170 230 288 348
#     4  10  17  33  54  75 109 149 182 226 284 341
#     4  10  19  30  51  78 108 138 180 233 271 336
#     4  10  17  35  52  73 108 149 181 215 292 348
#     4  10  18  34  51  84 108 139 190 229 282 326
#     4  10  18  32  51  76 107 148 179 214 285 352
#
# _framework density 25.247992
#
# number of rings (size 3 to 8) (size 9 to 14) (size 15 to 20)
#    0.000    2.154    4.615    0.923    0.000    2.462 
#    2.769    1.538    0.000    8.308    0.000    0.000 
#    0.000    0.000    0.000    0.000    0.000    0.000 
#
# Total GULP energy -145047.361588 kJ/mol
# GULP energy per Si atom -5578.744676 kJ/mol
# Density = 2.519053 g / cm^3
# Si number density = 25.247992 Si / 1000 Ang^3
#
#
#
# Elastic Constant Matrix: (Units=GPa)
#
#
# Indices 1 2 3 4 5 6 
#
# 1 92.1320 11.6370 22.5886 0.0000 16.0165 0.0000
# 2 11.6370 124.6148 33.1002 0.0000 2.4998 0.0000
# 3 22.5886 33.1002 209.8276 0.0000 -0.4539 0.0000
# 4 0.0000 0.0000 0.0000 24.7987 0.0000 -0.3281
# 5 16.0165 2.4998 -0.4539 0.0000 48.0854 0.0000
# 6 0.0000 0.0000 0.0000 -0.3281 0.0000 -3.4346
#
#
#
# Elastic Compliance Matrix: (Units=1/GPa)
#
#
# Indices 1 2 3 4 5 6 
#
# 1 0.011919 -0.000721 -0.001178 0.000000 -0.003944 0.000000
# 2 -0.000721 0.008429 -0.001252 0.000000 -0.000210 0.000000
# 3 -0.001178 -0.001252 0.005091 0.000000 0.000506 0.000000
# 4 0.000000 0.000000 0.000000 0.040274 0.000000 -0.003847
# 5 -0.003944 -0.000210 0.000506 0.000000 0.022126 0.000000
# 6 0.000000 0.000000 0.000000 -0.003847 0.000000 -0.290788
#
#
# Mechanical properties :
#
#
# Convention : Reuss Voigt Hill
#
# Bulk Modulus (GPa) = 52.25561 62.35843 57.30702
# Shear Modulus (GPa) = -26.27894 37.83981 5.78043
#
# Velocity S-wave (km/s) = -3.22969 3.87554 1.51474
# Velocity P-wave (km/s) = 2.61419 6.69166 5.07998
#
# Compressibility (1/GPa) = 0.01913670
#
# Stress axis : x y z
#
# Youngs Moduli (GPa) = 83.89623 118.63854 196.41347
#
# Poissons Ratio (x) = 0.08555 0.23137
# Poissons Ratio (y) = 0.06050 0.24601
# Poissons Ratio (z) = 0.09883 0.14859
#
# Static dielectric constant tensor:
#      x y z
#    x 2.093650 0.000000 0.009100 
#    y 0.000000 2.140590 0.000000 
#    z 0.009100 0.000000 2.037880 
# 
# From -- ./inp_files/225530.got.cif
#   From: 2010.05.17/outbox.cif.g08.bks.cpg/sg15_113_cif.got.tgz:225530.got - 2010.06.03 18:47:42.
