data_PCOD9255261
_publ_section_title
;
Structure prediction by ZEFSAII (Michael W. Deem and Ramdas Pophale) SiO2 
 PCOD9255261
Probable space group: C 2/C
;
_chemical_formula_sum "Si O2"
_cell_formula_units_Z 32
_cell_length_a 24.131069
_cell_length_b 7.353875
_cell_length_c 9.225390
_cell_angle_alpha 90.000000
_cell_angle_beta 133.770019
_cell_angle_gamma 90.000000
_cell_volume 1182.192772
_symmetry_space_group_name_H-M "C 2/C"
_symmetry_group_IT_number 15
_symmetry_cell_setting 'monoclinic'
loop_
_space_group_symop_operation_xyz
x,y,z
-x,y,1/2-z
-x,-y,-z
x,-y,1/2+z
1/2+x,1/2+y,z
1/2-x,1/2+y,1/2-z
1/2-x,1/2-y,-z
1/2+x,1/2-y,1/2+z
loop_
_atom_site_type_symbol
_atom_site_label
_atom_site_fract_x
_atom_site_fract_y
_atom_site_fract_z
Si Si1 0.080728 0.227875 0.311351
Si Si2 0.012049 0.304716 0.601331
Si Si3 0.831035 0.616076 0.063650
Si Si4 0.261114 0.397169 0.392442
O O1 0.121324 0.427304 0.389441
O O2 0.149414 0.098008 0.484473
O O3 0.000000 0.222625 0.250000
O O4 0.052390 0.188256 0.096200
O O5 0.000000 0.309398 0.750000
O O6 0.000000 0.500000 0.500000
O O7 0.898369 0.741033 0.250512
O O8 0.789469 0.654410 0.837413
O O9 0.772881 0.571455 0.088012
O O10 0.250000 0.250000 0.500000
#
# Coordination Sequence:
#
# PCOD9255261 Si02
#       4
#     8   8   8   8
#     4  10  20  36  56  82 111 144 184 230 275 327
#     4  10  17  29  54  84 107 134 176 229 279 321
#     4  10  18  35  58  83 111 142 180 233 280 323
#     4  10  21  36  57  85 113 144 185 230 275 329
#
# _framework density 27.068341
#
# number of rings (size 3 to 8) (size 9 to 14) (size 15 to 20)
#    0.000    2.000    0.000    9.000    0.000    0.000 
#    0.000   15.000    0.000    0.000    0.000    0.000 
#    0.000    0.000    0.000    0.000    0.000    0.000 
#
# Total GULP energy -89518.153988 kJ/mol
# GULP energy per Si atom -5594.884624 kJ/mol
# Density = 2.700673 g / cm^3
# Si number density = 27.068341 Si / 1000 Ang^3
#
#
#
# Elastic Constant Matrix: (Units=GPa)
#
#
# Indices 1 2 3 4 5 6 
#
# 1 169.3691 12.6330 86.0830 0.0000 15.9312 0.0000
# 2 12.6330 61.5350 29.5169 0.0000 5.2105 0.0000
# 3 86.0830 29.5169 299.7628 0.0000 5.9335 0.0000
# 4 0.0000 0.0000 0.0000 24.9345 0.0000 -12.0539
# 5 15.9312 5.2105 5.9335 0.0000 64.8027 0.0000
# 6 0.0000 0.0000 0.0000 -12.0539 0.0000 11.3242
#
#
#
# Elastic Compliance Matrix: (Units=1/GPa)
#
#
# Indices 1 2 3 4 5 6 
#
# 1 0.007075 -0.000381 -0.001964 0.000000 -0.001529 0.000000
# 2 -0.000381 0.017174 -0.001559 0.000000 -0.001144 0.000000
# 3 -0.001964 -0.001559 0.004049 0.000000 0.000237 0.000000
# 4 0.000000 0.000000 0.000000 0.082618 0.000000 0.087942
# 5 -0.001529 -0.001144 0.000237 0.000000 0.015878 0.000000
# 6 0.000000 0.000000 0.000000 0.087942 0.000000 0.181915
#
#
# Mechanical properties :
#
#
# Convention : Reuss Voigt Hill
#
# Bulk Modulus (GPa) = 48.80526 87.45922 68.13224
# Shear Modulus (GPa) = 15.46334 47.04121 31.25228
#
# Velocity S-wave (km/s) = 2.39272 4.17330 3.40158
# Velocity P-wave (km/s) = 5.06981 7.45671 6.37595
#
# Compressibility (1/GPa) = 0.02048960
#
# Stress axis : x y z
#
# Youngs Moduli (GPa) = 141.35033 58.22805 246.99021
#
# Poissons Ratio (x) = 0.02218 0.48505
# Poissons Ratio (y) = 0.05385 0.38506
# Poissons Ratio (z) = 0.27759 0.09078
#
# Static dielectric constant tensor:
#      x y z
#    x 2.264530 0.000000 0.143720 
#    y 0.000000 2.427330 0.000000 
#    z 0.143720 0.000000 2.158240 
# 
# From -- ./inp_files/61112.got.cif
#   From: 2010.05.17/outbox.cif.g08.bks.cpg/sg15_31_cif.got.tgz:61112.got - 2010.06.03 18:47:42.
