data_PCOD9255747
_publ_section_title
;
Structure prediction by ZEFSAII (Michael W. Deem and Ramdas Pophale) SiO2 
 PCOD9255747
Probable space group: C 2/C
;
_chemical_formula_sum "Si O2"
_cell_formula_units_Z 32
_cell_length_a 8.971835
_cell_length_b 20.388300
_cell_length_c 13.131243
_cell_angle_alpha 90.000000
_cell_angle_beta 34.081471
_cell_angle_gamma 90.000000
_cell_volume 1345.996469
_symmetry_space_group_name_H-M "C 2/C"
_symmetry_group_IT_number 15
_symmetry_cell_setting 'monoclinic'
loop_
_space_group_symop_operation_xyz
x,y,z
-x,y,1/2-z
-x,-y,-z
x,-y,1/2+z
1/2+x,1/2+y,z
1/2-x,1/2+y,1/2-z
1/2-x,1/2-y,-z
1/2+x,1/2-y,1/2+z
loop_
_atom_site_type_symbol
_atom_site_label
_atom_site_fract_x
_atom_site_fract_y
_atom_site_fract_z
Si Si1 0.316041 0.296313 0.757812
Si Si2 0.417639 0.974485 0.159985
Si Si3 0.264076 0.162630 0.667084
Si Si4 0.025252 0.927236 0.610751
O O1 0.500000 0.278651 0.750000
O O2 0.253850 0.230619 0.733425
O O3 0.485928 0.351611 0.602060
O O4 0.040471 0.330893 0.947405
O O5 0.285302 0.903263 0.220952
O O6 0.205548 0.029785 0.307630
O O7 0.690116 0.960475 0.065277
O O8 0.500000 0.000000 0.000000
O O9 0.000000 0.156914 0.750000
O O10 0.000000 0.925435 0.750000
#
# Coordination Sequence:
#
# PCOD9255747 Si02
#       4
#     8   8   8   8
#     4  11  22  39  59  85 120 154 191 237 292 345
#     4  10  17  32  56  84 108 143 200 240 271 327
#     4  12  23  37  59  90 117 154 192 242 286 342
#     4   9  17  31  53  83 107 143 191 243 270 328
#
# _framework density 23.774206
#
# number of rings (size 3 to 8) (size 9 to 14) (size 15 to 20)
#    0.000    1.500    7.500    3.750    0.000    0.000 
#    0.000    0.000    0.000    3.000    0.000    0.000 
#    0.000    0.000    0.000    0.000    0.000    0.000 
#
# Total GULP energy -89532.548224 kJ/mol
# GULP energy per Si atom -5595.784264 kJ/mol
# Density = 2.372009 g / cm^3
# Si number density = 23.774206 Si / 1000 Ang^3
#
#
#
# Elastic Constant Matrix: (Units=GPa)
#
#
# Indices 1 2 3 4 5 6 
#
# 1 64.3491 31.9345 16.5593 0.0000 -33.2386 0.0000
# 2 31.9345 148.3435 -16.6962 -0.0002 -19.2080 -0.0001
# 3 16.5593 -16.6962 67.7952 -0.0057 -25.4988 0.0032
# 4 0.0000 -0.0002 -0.0057 39.2805 0.0006 -13.4934
# 5 -33.2386 -19.2080 -25.4988 0.0006 52.8521 0.0001
# 6 0.0000 -0.0001 0.0032 -13.4934 0.0001 37.8446
#
#
#
# Elastic Compliance Matrix: (Units=1/GPa)
#
#
# Indices 1 2 3 4 5 6 
#
# 1 0.024805 -0.003858 -0.002039 -0.000001 0.013214 0.000000
# 2 -0.003858 0.008339 0.003938 0.000001 0.002504 0.000000
# 3 -0.002039 0.003938 0.019882 0.000003 0.009741 -0.000001
# 4 -0.000001 0.000001 0.000003 0.029011 0.000001 0.010344
# 5 0.013214 0.002504 0.009741 0.000001 0.032841 -0.000001
# 6 0.000000 0.000000 -0.000001 0.010344 -0.000001 0.030112
#
#
# Mechanical properties :
#
#
# Convention : Reuss Voigt Hill
#
# Bulk Modulus (GPa) = 20.36352 38.23144 29.29748
# Shear Modulus (GPa) = 30.25201 42.57477 36.41339
#
# Velocity S-wave (km/s) = 3.57104 4.23637 3.91786
# Velocity P-wave (km/s) = 5.05837 6.32812 5.72853
#
# Compressibility (1/GPa) = 0.04910742
#
# Stress axis : x y z
#
# Youngs Moduli (GPa) = 40.31399 119.91574 50.29695
#
# Poissons Ratio (x) = 0.46269 0.10256
# Poissons Ratio (y) = 0.15555 -0.19807
# Poissons Ratio (z) = 0.08220 -0.47223
#
# Static dielectric constant tensor:
#      x y z
#    x 1.997700 0.000000 0.114390 
#    y 0.000000 1.844880 0.000000 
#    z 0.114390 0.000000 1.971800 
# 
# From -- ./inp_files/28545.got.cif
#   From: 2010.05.17/outbox.cif.g08.bks.cpg/sg15_15_cif.got.tgz:28545.got - 2010.06.03 18:47:42.
