data_PCOD9255857
_publ_section_title
;
Structure prediction by ZEFSAII (Michael W. Deem and Ramdas Pophale) SiO2 
 PCOD9255857
Probable space group: C 2/C
;
_chemical_formula_sum "Si O2"
_cell_formula_units_Z 48
_cell_length_a 11.837108
_cell_length_b 15.330754
_cell_length_c 12.351138
_cell_angle_alpha 90.000000
_cell_angle_beta 107.884371
_cell_angle_gamma 90.000000
_cell_volume 2133.075483
_symmetry_space_group_name_H-M "C 2/C"
_symmetry_group_IT_number 15
_symmetry_cell_setting 'monoclinic'
loop_
_space_group_symop_operation_xyz
x,y,z
-x,y,1/2-z
-x,-y,-z
x,-y,1/2+z
1/2+x,1/2+y,z
1/2-x,1/2+y,1/2-z
1/2-x,1/2-y,-z
1/2+x,1/2-y,1/2+z
loop_
_atom_site_type_symbol
_atom_site_label
_atom_site_fract_x
_atom_site_fract_y
_atom_site_fract_z
Si Si1 0.242211 0.118278 0.242469
Si Si2 0.964279 0.407227 0.943118
Si Si3 0.113902 0.268044 0.863398
Si Si4 0.846229 0.080944 0.597366
Si Si5 0.261201 0.397198 0.525409
Si Si6 0.119013 0.947816 0.144875
O O1 0.281006 0.199246 0.183098
O O2 0.183848 0.134524 0.343695
O O3 0.371808 0.079571 0.315924
O O4 0.169141 0.046365 0.156572
O O5 0.874362 0.364836 0.005955
O O6 0.066030 0.343316 0.929999
O O7 0.000000 0.500000 0.000000
O O8 0.154231 0.181049 0.936302
O O9 0.000000 0.248121 0.750000
O O10 0.838944 0.084991 0.725694
O O11 0.977679 0.047824 0.605460
O O12 0.760006 0.003345 0.537135
O O13 0.331643 0.386268 0.435735
#
# Coordination Sequence:
#
# PCOD9255857 Si02
#       6
#     8   8   8   8   8   8
#     4   8  19  31  51  75 102 136 173 205 255 309
#     4   9  18  32  51  73 104 135 172 205 255 311
#     4  10  17  34  54  77 105 135 169 214 254 303
#     4  10  20  33  55  78 103 133 174 214 256 297
#     4   9  19  31  51  79 100 131 178 210 246 306
#     4  10  17  33  53  74 105 135 171 209 254 307
#
# _framework density 22.502721000000001
#
# number of rings (size 3 to 8) (size 9 to 14) (size 15 to 20)
#    1.000    1.667    1.667    1.500    0.000    0.000 
#    0.000    6.667    0.000    0.000    0.000    9.333 
#    0.000    0.000    0.000    0.000    0.000    0.000 
#
# Total GULP energy -133703.335706 kJ/mol
# GULP energy per Si atom -5570.972321 kJ/mol
# Density = 2.245150 g / cm^3
# Si number density = 22.502721 Si / 1000 Ang^3
#
#
#
# Elastic Constant Matrix: (Units=GPa)
#
#
# Indices 1 2 3 4 5 6 
#
# 1 66.1106 13.9928 23.5177 0.0000 -24.8120 0.0000
# 2 13.9928 88.3994 -0.6765 0.0000 2.5359 0.0000
# 3 23.5177 -0.6765 92.3629 0.0000 -24.0693 0.0000
# 4 0.0000 0.0000 0.0000 19.9129 0.0000 3.1531
# 5 -24.8120 2.5359 -24.0693 0.0000 44.1616 0.0000
# 6 0.0000 0.0000 0.0000 3.1531 0.0000 24.6912
#
#
#
# Elastic Compliance Matrix: (Units=1/GPa)
#
#
# Indices 1 2 3 4 5 6 
#
# 1 0.020727 -0.003600 -0.002582 0.000000 0.010445 0.000000
# 2 -0.003600 0.011957 0.000348 0.000000 -0.002520 0.000000
# 3 -0.002582 0.000348 0.012942 0.000000 0.005583 0.000000
# 4 0.000000 0.000000 0.000000 0.051255 0.000000 -0.006545
# 5 0.010445 -0.002520 0.005583 0.000000 0.031700 0.000000
# 6 0.000000 0.000000 0.000000 -0.006545 0.000000 0.041336
#
#
# Mechanical properties :
#
#
# Convention : Reuss Voigt Hill
#
# Bulk Modulus (GPa) = 29.44968 35.61562 32.53265
# Shear Modulus (GPa) = 25.91953 31.75574 28.83764
#
# Velocity S-wave (km/s) = 3.39756 3.76066 3.58371
# Velocity P-wave (km/s) = 5.33917 5.89223 5.62251
#
# Compressibility (1/GPa) = 0.03395623
#
# Stress axis : x y z
#
# Youngs Moduli (GPa) = 48.24702 83.63210 77.26939
#
# Poissons Ratio (x) = 0.30109 0.19951
# Poissons Ratio (y) = 0.17370 -0.02686
# Poissons Ratio (z) = 0.12458 -0.02907
#
# Static dielectric constant tensor:
#      x y z
#    x 1.855610 0.000000 -0.024370 
#    y 0.000000 1.856490 0.000000 
#    z -0.024370 0.000000 1.936010 
# 
# From -- ./inp_files/153015.got.cif
#   From: 2010.05.17/outbox.cif.g08.bks.cpg/sg15_77_cif.got.tgz:153015.got - 2010.06.03 18:47:42.
