data_PCOD9255206
_publ_section_title
;
Structure prediction by ZEFSAII (Michael W. Deem and Ramdas Pophale) SiO2 
 PCOD9255206
Probable space group: C 2/C
;
_chemical_formula_sum "Si O2"
_cell_formula_units_Z 60
_cell_length_a 21.868190
_cell_length_b 28.873953
_cell_length_c 12.700759
_cell_angle_alpha 90.000000
_cell_angle_beta 161.570992
_cell_angle_gamma 90.000000
_cell_volume 2535.208275
_symmetry_space_group_name_H-M "C 2/C"
_symmetry_group_IT_number 15
_symmetry_cell_setting 'monoclinic'
loop_
_space_group_symop_operation_xyz
x,y,z
-x,y,1/2-z
-x,-y,-z
x,-y,1/2+z
1/2+x,1/2+y,z
1/2-x,1/2+y,1/2-z
1/2-x,1/2-y,-z
1/2+x,1/2-y,1/2+z
loop_
_atom_site_type_symbol
_atom_site_label
_atom_site_fract_x
_atom_site_fract_y
_atom_site_fract_z
Si Si1 0.036336 0.894004 0.135326
Si Si2 0.056440 0.662022 0.694939
Si Si3 0.662481 0.062529 0.942414
Si Si4 0.689317 0.026784 0.772344
Si Si5 0.726196 0.706083 0.646696
Si Si6 0.672444 0.608624 0.622706
Si Si7 0.500000 0.458610 0.250000
Si Si8 0.315420 0.692563 0.317557
O O1 0.819018 0.914439 0.773200
O O2 0.000933 0.840440 0.108368
O O3 0.120246 0.903743 0.157172
O O4 0.114632 0.925377 0.356716
O O5 0.066004 0.606896 0.726291
O O6 0.166018 0.682550 0.774976
O O7 0.834781 0.677308 0.337828
O O8 0.186204 0.682710 0.002012
O O9 0.500000 0.038931 0.750000
O O10 0.769607 0.036899 0.021866
O O11 0.500000 0.000000 0.500000
O O12 0.673794 0.073611 0.678289
O O13 0.834861 0.994663 0.945011
O O14 0.722759 0.662706 0.718831
O O15 0.836691 0.752474 0.859331
O O16 0.500000 0.717524 0.250000
O O17 0.500000 0.607434 0.250000
#
# Coordination Sequence:
#
# PCOD9255206 Si02
#       8
#     8   8   8   8   8   8   4   8
#     4  11  23  41  64  83 132 170 214 265 324 373
#     4  10  17  29  49  84 132 155 198 253 320 394
#     4  11  18  36  59  89 125 164 200 266 320 384
#     4  12  25  42  67  98 127 167 220 261 342 394
#     4  11  19  28  53  89 134 160 196 263 335 401
#     4  11  21  41  62  95 133 164 201 274 338 390
#     4  12  28  46  62  92 124 176 228 274 310 388
#     4  10  19  30  52  89 117 168 206 244 322 392
#
# _framework density 23.666695000000001
#
# number of rings (size 3 to 8) (size 9 to 14) (size 15 to 20)
#    0.000    1.067    7.333    3.600    1.867    3.200 
#    0.000    0.000    0.000    0.800    0.000    0.000 
#    0.000    0.000    0.000    0.000    0.000    0.000 
#
# Total GULP energy -167295.534829 kJ/mol
# GULP energy per Si atom -5576.517828 kJ/mol
# Density = 2.361283 g / cm^3
# Si number density = 23.666695 Si / 1000 Ang^3
#
#
#
# Elastic Constant Matrix: (Units=GPa)
#
#
# Indices 1 2 3 4 5 6 
#
# 1 103.1705 13.8393 4.9518 0.0009 22.8516 -0.0004
# 2 13.8393 117.4142 10.6210 0.0002 0.3270 0.0000
# 3 4.9518 10.6210 23.9215 0.0047 7.8811 -0.0025
# 4 0.0009 0.0002 0.0047 55.6535 0.0020 -15.0044
# 5 22.8516 0.3270 7.8811 0.0020 27.2248 -0.0010
# 6 -0.0004 0.0000 -0.0025 -15.0044 -0.0010 19.9016
#
#
#
# Elastic Compliance Matrix: (Units=1/GPa)
#
#
# Indices 1 2 3 4 5 6 
#
# 1 0.012192 -0.001561 0.001696 0.000000 -0.010706 0.000000
# 2 -0.001561 0.009105 -0.004549 0.000000 0.002517 0.000000
# 3 0.001696 -0.004549 0.048554 -0.000003 -0.015425 0.000003
# 4 0.000000 0.000000 -0.000003 0.022552 0.000000 0.017003
# 5 -0.010706 0.002517 -0.015425 0.000000 0.050152 0.000000
# 6 0.000000 0.000000 0.000003 0.017003 0.000000 0.063066
#
#
# Mechanical properties :
#
#
# Convention : Reuss Voigt Hill
#
# Bulk Modulus (GPa) = 16.38695 33.70339 25.04517
# Shear Modulus (GPa) = 21.29560 34.89558 28.09559
#
# Velocity S-wave (km/s) = 3.00294 3.84403 3.44922
# Velocity P-wave (km/s) = 4.35461 5.82871 5.14473
#
# Compressibility (1/GPa) = 0.06102416
#
# Stress axis : x y z
#
# Youngs Moduli (GPa) = 82.02173 109.82624 20.59569
#
# Poissons Ratio (x) = 0.17140 -0.03494
# Poissons Ratio (y) = 0.12801 0.09369
# Poissons Ratio (z) = -0.13913 0.49961
#
# Static dielectric constant tensor:
#      x y z
#    x 1.964320 0.000000 -0.025570 
#    y 0.000000 1.985550 0.000000 
#    z -0.025570 0.000000 1.979000 
# 
# From -- ./inp_files/174952.got.cif
#   From: 2010.05.17/outbox.cif.g08.bks.cpg/sg15_88_cif.got.tgz:174952.got - 2010.06.03 18:47:42.
