data_PCOD9255083
_publ_section_title
;
Structure prediction by ZEFSAII (Michael W. Deem and Ramdas Pophale) SiO2 
 PCOD9255083
Probable space group: C 2/C
;
_chemical_formula_sum "Si O2"
_cell_formula_units_Z 64
_cell_length_a 25.279769
_cell_length_b 7.304516
_cell_length_c 17.885041
_cell_angle_alpha 90.000000
_cell_angle_beta 46.699758
_cell_angle_gamma 90.000000
_cell_volume 2403.524493
_symmetry_space_group_name_H-M "C 2/C"
_symmetry_group_IT_number 15
_symmetry_cell_setting 'monoclinic'
loop_
_space_group_symop_operation_xyz
x,y,z
-x,y,1/2-z
-x,-y,-z
x,-y,1/2+z
1/2+x,1/2+y,z
1/2-x,1/2+y,1/2-z
1/2-x,1/2-y,-z
1/2+x,1/2-y,1/2+z
loop_
_atom_site_type_symbol
_atom_site_label
_atom_site_fract_x
_atom_site_fract_y
_atom_site_fract_z
Si Si1 0.674310 0.464160 0.008309
Si Si2 0.027418 0.695790 0.502193
Si Si3 0.460773 0.358977 0.435489
Si Si4 0.557330 0.037628 0.627644
Si Si5 0.162021 0.540600 0.307715
Si Si6 0.663009 0.967859 0.150483
Si Si7 0.381424 0.601047 0.781533
Si Si8 0.237947 0.329997 0.357562
O O1 0.611583 0.477197 0.006984
O O2 0.631069 0.489552 0.126471
O O3 0.750653 0.568009 0.934430
O O4 0.705111 0.255126 0.965086
O O5 0.037166 0.675152 0.580571
O O6 0.104666 0.697326 0.384737
O O7 0.000000 0.500000 0.500000
O O8 0.973093 0.827155 0.511403
O O9 0.537601 0.427202 0.326840
O O10 0.447381 0.165552 0.404612
O O11 0.500000 0.042708 0.750000
O O12 0.629773 0.088720 0.603414
O O13 0.139540 0.413550 0.258606
O O14 0.178877 0.430539 0.365776
O O15 0.234196 0.649521 0.213304
O O16 0.634730 0.181166 0.187016
O O17 0.309664 0.550791 0.803446
#
# Coordination Sequence:
#
# PCOD9255083 Si02
#       8
#     8   8   8   8   8   8   8   8
#     4  10  19  26  49  76 107 138 169 224 276 320
#     4  10  19  28  46  75 107 136 173 218 278 327
#     4  11  17  29  43  75 111 130 168 224 284 315
#     4  11  18  26  45  69 106 141 167 221 272 324
#     4  10  20  34  52  77 106 145 174 227 266 324
#     4  10  18  31  43  73 106 136 177 211 271 322
#     4  10  17  28  45  74 104 133 167 221 273 312
#     4  10  20  34  51  76 109 139 184 215 270 320
#
# _framework density 26.627562999999999
#
# number of rings (size 3 to 8) (size 9 to 14) (size 15 to 20)
#    0.000    2.000    5.000    4.125    1.750    0.000 
#    0.000    0.000    0.000    3.750    0.000    0.000 
#    0.000    0.000    0.000    0.000    0.000    0.000 
#
# Total GULP energy -178710.483318 kJ/mol
# GULP energy per Si atom -5584.702604 kJ/mol
# Density = 2.656696 g / cm^3
# Si number density = 26.627563 Si / 1000 Ang^3
#
#
#
# Elastic Constant Matrix: (Units=GPa)
#
#
# Indices 1 2 3 4 5 6 
#
# 1 227.4819 29.8243 69.2856 0.0083 17.3069 -0.0074
# 2 29.8243 55.2275 11.1936 0.0015 0.9552 0.0037
# 3 69.2856 11.1936 125.3253 0.0024 -1.8961 -0.0073
# 4 0.0083 0.0015 0.0024 13.0353 -0.0060 -3.8646
# 5 17.3069 0.9552 -1.8961 -0.0060 58.9337 0.0054
# 6 -0.0074 0.0037 -0.0073 -3.8646 0.0054 0.3474
#
#
#
# Elastic Compliance Matrix: (Units=1/GPa)
#
#
# Indices 1 2 3 4 5 6 
#
# 1 0.005765 -0.002477 -0.002993 -0.000013 -0.001749 -0.000032
# 2 -0.002477 0.019512 -0.000368 0.000035 0.000399 0.000121
# 3 -0.002993 -0.000368 0.009685 -0.000016 0.001196 -0.000058
# 4 -0.000013 0.000035 -0.000016 -0.033390 0.000033 -0.371386
# 5 -0.001749 0.000399 0.001196 0.000033 0.017514 0.000082
# 6 -0.000032 0.000121 -0.000058 -0.371386 0.000082 -1.252703
#
#
# Mechanical properties :
#
#
# Convention : Reuss Voigt Hill
#
# Bulk Modulus (GPa) = 42.93980 69.84908 56.39444
# Shear Modulus (GPa) = -4.11800 34.31205 15.09702
#
# Velocity S-wave (km/s) = -1.24494 3.59359 2.38370
# Velocity P-wave (km/s) = 3.75427 6.59601 5.36665
#
# Compressibility (1/GPa) = 0.02328842
#
# Stress axis : x y z
#
# Youngs Moduli (GPa) = 173.45532 51.25076 103.25715
#
# Poissons Ratio (x) = 0.12693 0.30900
# Poissons Ratio (y) = 0.42957 0.03795
# Poissons Ratio (z) = 0.51907 0.01884
#
# Static dielectric constant tensor:
#      x y z
#    x 2.186680 -0.000080 -0.097260 
#    y -0.000080 2.250540 0.000260 
#    z -0.097260 0.000260 2.373790 
# 
# From -- ./inp_files/219110.got.cif
#   From: 2010.05.17/outbox.cif.g08.bks.cpg/sg15_110_cif.got.tgz:219110.got - 2010.06.03 18:47:42.
