data_PCOD9255478
_publ_section_title
;
Structure prediction by ZEFSAII (Michael W. Deem and Ramdas Pophale) SiO2 
 PCOD9255478
Probable space group: C 2/C
;
_chemical_formula_sum "Si O2"
_cell_formula_units_Z 48
_cell_length_a 20.689669
_cell_length_b 14.909236
_cell_length_c 24.001891
_cell_angle_alpha 90.000000
_cell_angle_beta 20.771107
_cell_angle_gamma 90.000000
_cell_volume 2625.648616
_symmetry_space_group_name_H-M "C 2/C"
_symmetry_group_IT_number 15
_symmetry_cell_setting 'monoclinic'
loop_
_space_group_symop_operation_xyz
x,y,z
-x,y,1/2-z
-x,-y,-z
x,-y,1/2+z
1/2+x,1/2+y,z
1/2-x,1/2+y,1/2-z
1/2-x,1/2-y,-z
1/2+x,1/2-y,1/2+z
loop_
_atom_site_type_symbol
_atom_site_label
_atom_site_fract_x
_atom_site_fract_y
_atom_site_fract_z
Si Si1 0.283023 0.495624 0.678991
Si Si2 0.942805 0.069886 0.858165
Si Si3 0.079500 0.670073 0.131522
Si Si4 0.143583 0.482358 0.174342
Si Si5 0.256654 0.127930 0.691022
Si Si6 0.583904 0.190815 0.353189
O O1 0.500000 0.500000 0.500000
O O2 0.200906 0.544487 0.690215
O O3 0.221913 0.546353 0.783826
O O4 0.221189 0.391585 0.731241
O O5 0.000000 0.038167 0.750000
O O6 0.116069 0.100304 0.754825
O O7 0.789820 0.146629 0.971041
O O8 0.824853 0.002039 0.991989
O O9 0.000000 0.718235 0.250000
O O10 0.966828 0.575243 0.223597
O O11 0.032456 0.706836 0.109393
O O12 0.000000 0.430979 0.250000
O O13 0.443986 0.159115 0.512514
O O14 0.177397 0.213946 0.787731
#
# Coordination Sequence:
#
# PCOD9255478 Si02
#       6
#     8   8   8   8   8   8
#     4  11  21  40  60  81 114 150 192 240 285 335
#     4  10  17  31  50  83 114 153 186 221 266 339
#     4   8  17  31  50  72 112 150 184 215 267 331
#     4   8  17  33  56  77 109 147 186 230 284 333
#     4  12  24  35  57  83 114 157 193 231 282 335
#     4  11  24  38  52  81 117 151 194 232 279 338
#
# _framework density 18.281198
#
# number of rings (size 3 to 8) (size 9 to 14) (size 15 to 20)
#    0.000    2.333    3.333    1.500    4.667    1.333 
#    0.000    0.000    0.000    0.000    0.000    5.833 
#    0.000    0.000    0.000    0.000    0.000    0.000 
#
# Total GULP energy -133742.168123 kJ/mol
# GULP energy per Si atom -5572.590338 kJ/mol
# Density = 1.823959 g / cm^3
# Si number density = 18.281198 Si / 1000 Ang^3
#
#
#
# Elastic Constant Matrix: (Units=GPa)
#
#
# Indices 1 2 3 4 5 6 
#
# 1 107.4603 21.4021 19.7100 -0.0027 1.5983 0.0012
# 2 21.4021 35.8732 -0.2654 0.0361 -4.2914 0.0005
# 3 19.7100 -0.2654 81.3621 0.0254 -1.4582 0.0006
# 4 -0.0027 0.0361 0.0254 22.7936 0.0050 0.6275
# 5 1.5983 -4.2914 -1.4582 0.0050 27.8449 -0.0020
# 6 0.0012 0.0005 0.0006 0.6275 -0.0020 19.4642
#
#
#
# Elastic Compliance Matrix: (Units=1/GPa)
#
#
# Indices 1 2 3 4 5 6 
#
# 1 0.011225 -0.006940 -0.002775 0.000016 -0.001859 -0.000001
# 2 -0.006940 0.032692 0.001887 -0.000056 0.005536 0.000002
# 3 -0.002775 0.001887 0.012989 -0.000018 0.001130 0.000000
# 4 0.000016 -0.000056 -0.000018 0.043911 -0.000018 -0.001416
# 5 -0.001859 0.005536 0.001130 -0.000018 0.036932 0.000004
# 6 -0.000001 0.000002 0.000000 -0.001416 0.000004 0.051422
#
#
# Mechanical properties :
#
#
# Convention : Reuss Voigt Hill
#
# Bulk Modulus (GPa) = 24.24186 34.04323 29.14254
# Shear Modulus (GPa) = 22.87521 26.27713 24.57617
#
# Velocity S-wave (km/s) = 3.54121 3.79540 3.67050
# Velocity P-wave (km/s) = 5.47809 6.15379 5.82575
#
# Compressibility (1/GPa) = 0.04125097
#
# Stress axis : x y z
#
# Youngs Moduli (GPa) = 89.09071 30.58819 76.98565
#
# Poissons Ratio (x) = 0.21227 0.21364
# Poissons Ratio (y) = 0.61825 -0.14527
# Poissons Ratio (z) = 0.24724 -0.05772
#
# Static dielectric constant tensor:
#      x y z
#    x 1.678700 0.000000 0.000590 
#    y 0.000000 1.659410 0.000010 
#    z 0.000590 0.000010 1.657990 
# 
# From -- ./inp_files/280252.got.cif
#   From: 2010.05.17/outbox.cif.g08.bks.cpg/sg15_141_cif.got.tgz:280252.got - 2010.06.03 18:47:42.
