data_PCOD9255926
_publ_section_title
;
Structure prediction by ZEFSAII (Michael W. Deem and Ramdas Pophale) SiO2 
 PCOD9255926
Probable space group: C 2/C
;
_chemical_formula_sum "Si O2"
_cell_formula_units_Z 52
_cell_length_a 11.961732
_cell_length_b 24.370408
_cell_length_c 9.443230
_cell_angle_alpha 90.000000
_cell_angle_beta 90.724311
_cell_angle_gamma 90.000000
_cell_volume 2752.597634
_symmetry_space_group_name_H-M "C 2/C"
_symmetry_group_IT_number 15
_symmetry_cell_setting 'monoclinic'
loop_
_space_group_symop_operation_xyz
x,y,z
-x,y,1/2-z
-x,-y,-z
x,-y,1/2+z
1/2+x,1/2+y,z
1/2-x,1/2+y,1/2-z
1/2-x,1/2-y,-z
1/2+x,1/2-y,1/2+z
loop_
_atom_site_type_symbol
_atom_site_label
_atom_site_fract_x
_atom_site_fract_y
_atom_site_fract_z
Si Si1 0.687929 0.133730 0.888070
Si Si2 0.500000 0.786959 0.250000
Si Si3 0.874870 0.462686 0.304770
Si Si4 0.628605 0.091081 0.192643
Si Si5 0.300367 0.878038 0.521189
Si Si6 0.881832 0.739478 0.015597
Si Si7 0.616563 0.338325 0.293008
O O1 0.595870 0.172572 0.811569
O O2 0.691286 0.073977 0.811294
O O3 0.804511 0.161821 0.844096
O O4 0.653824 0.123650 0.048991
O O5 0.449923 0.749746 0.374079
O O6 0.849968 0.526205 0.326578
O O7 0.860616 0.429803 0.450493
O O8 0.000000 0.459404 0.250000
O O9 0.500000 0.097254 0.250000
O O10 0.715192 0.110195 0.314956
O O11 0.384147 0.826201 0.524723
O O12 0.192782 0.864682 0.420991
O O13 0.914145 0.778498 0.144304
O O14 0.750000 0.750000 0.000000
O O15 0.500000 0.366443 0.250000
#
# Coordination Sequence:
#
# PCOD9255926 Si02
#       7
#     8   4   8   8   8   8   8
#     4  11  21  37  61  86 123 160 200 235 308 354
#     4  12  18  36  64  88 118 158 190 244 304 356
#     4  10  17  33  57  87 128 160 188 234 306 366
#     4  11  22  31  56  99 127 153 191 247 300 368
#     4  10  20  37  59  82 126 155 194 243 296 348
#     4  10  19  37  59  85 116 152 197 241 298 350
#     4  10  23  44  62  80 115 166 209 249 294 348
#
# _framework density 18.891245999999999
#
# number of rings (size 3 to 8) (size 9 to 14) (size 15 to 20)
#    0.000    1.538    5.385    2.769    0.000    4.308 
#    5.538    1.538    0.000   14.769    0.000    0.000 
#    0.000    0.000    0.000    0.000    0.000    0.000 
#
# Total GULP energy -144825.681525 kJ/mol
# GULP energy per Si atom -5570.218520 kJ/mol
# Density = 1.884825 g / cm^3
# Si number density = 18.891246 Si / 1000 Ang^3
#
#
#
# Elastic Constant Matrix: (Units=GPa)
#
#
# Indices 1 2 3 4 5 6 
#
# 1 84.7987 22.6876 46.4473 0.0000 -7.5140 0.0000
# 2 22.6876 41.6505 48.4238 0.0000 -3.7774 0.0000
# 3 46.4473 48.4238 150.1362 0.0000 -8.4507 0.0000
# 4 0.0000 0.0000 0.0000 38.9741 0.0000 -8.2281
# 5 -7.5140 -3.7774 -8.4507 0.0000 31.4172 0.0000
# 6 0.0000 0.0000 0.0000 -8.2281 0.0000 8.4551
#
#
#
# Elastic Compliance Matrix: (Units=1/GPa)
#
#
# Indices 1 2 3 4 5 6 
#
# 1 0.014822 -0.004299 -0.003075 0.000000 0.002201 0.000000
# 2 -0.004299 0.039714 -0.011441 0.000000 0.000669 0.000000
# 3 -0.003075 -0.011441 0.011355 0.000000 0.000943 0.000000
# 4 0.000000 0.000000 0.000000 0.032292 0.000000 0.031425
# 5 0.002201 0.000669 0.000943 0.000000 0.032690 0.000000
# 6 0.000000 0.000000 0.000000 0.031425 0.000000 0.148854
#
#
# Mechanical properties :
#
#
# Convention : Reuss Voigt Hill
#
# Bulk Modulus (GPa) = 35.38539 56.85585 46.12062
# Shear Modulus (GPa) = 15.30087 26.37105 20.83596
#
# Velocity S-wave (km/s) = 2.84904 3.74028 3.32466
# Velocity P-wave (km/s) = 5.44008 6.98675 6.26136
#
# Compressibility (1/GPa) = 0.02826025
#
# Stress axis : x y z
#
# Youngs Moduli (GPa) = 67.46646 25.18019 88.06525
#
# Poissons Ratio (x) = 0.10825 0.27080
# Poissons Ratio (y) = 0.29005 1.00758
# Poissons Ratio (z) = 0.20746 0.28809
#
# Static dielectric constant tensor:
#      x y z
#    x 1.680320 0.000000 0.021650 
#    y 0.000000 1.726810 0.000000 
#    z 0.021650 0.000000 1.707620 
# 
# From -- ./inp_files/33483.got.cif
#   From: 2010.05.17/outbox.cif.g08.bks.cpg/sg15_17_cif.got.tgz:33483.got - 2010.06.03 18:47:42.
