data_PCOD9255789
_publ_section_title
;
Structure prediction by ZEFSAII (Michael W. Deem and Ramdas Pophale) SiO2 
 PCOD9255789
Probable space group: C 2/C
;
_chemical_formula_sum "Si O2"
_cell_formula_units_Z 48
_cell_length_a 9.895696
_cell_length_b 27.598854
_cell_length_c 17.211832
_cell_angle_alpha 90.000000
_cell_angle_beta 32.648354
_cell_angle_gamma 90.000000
_cell_volume 2535.952442
_symmetry_space_group_name_H-M "C 2/C"
_symmetry_group_IT_number 15
_symmetry_cell_setting 'monoclinic'
loop_
_space_group_symop_operation_xyz
x,y,z
-x,y,1/2-z
-x,-y,-z
x,-y,1/2+z
1/2+x,1/2+y,z
1/2-x,1/2+y,1/2-z
1/2-x,1/2-y,-z
1/2+x,1/2-y,1/2+z
loop_
_atom_site_type_symbol
_atom_site_label
_atom_site_fract_x
_atom_site_fract_y
_atom_site_fract_z
Si Si1 0.250296 0.448910 0.182029
Si Si2 0.406649 0.150030 0.676892
Si Si3 0.183771 0.660555 0.234092
Si Si4 0.672656 0.300908 0.423316
Si Si5 0.768629 0.944170 0.663322
Si Si6 0.711594 0.188730 0.388226
O O1 0.194762 0.404577 0.266528
O O2 0.288950 0.503565 0.194961
O O3 0.000000 0.449770 0.250000
O O4 0.498326 0.439602 0.009644
O O5 0.645062 0.163357 0.616418
O O6 0.197783 0.183290 0.821061
O O7 0.514809 0.163485 0.541034
O O8 0.265127 0.605175 0.213419
O O9 0.106412 0.684499 0.352039
O O10 0.000000 0.657753 0.250000
O O11 0.410179 0.690859 0.089709
O O12 0.737368 0.244792 0.400743
O O13 0.500000 0.945795 0.750000
O O14 0.000000 0.169296 0.250000
#
# Coordination Sequence:
#
# PCOD9255789 Si02
#       6
#     8   8   8   8   8   8
#     4  10  17  32  58  90 110 147 205 247 291 351
#     4  11  19  33  59  92 114 143 197 257 285 345
#     4  11  23  40  57  82 121 161 197 236 299 364
#     4  11  20  37  61  86 119 153 198 241 299 349
#     4   9  19  34  57  82 116 156 196 240 296 363
#     4  12  23  36  59  91 118 156 197 252 299 342
#
# _framework density 18.927799
#
# number of rings (size 3 to 8) (size 9 to 14) (size 15 to 20)
#    0.000    1.333    6.667    1.500    0.000    0.667 
#    0.000    1.667    0.000    0.000    0.000    0.000 
#    0.000    0.000    0.000    0.000    0.000    0.000 
#
# Total GULP energy -133611.185811 kJ/mol
# GULP energy per Si atom -5567.132742 kJ/mol
# Density = 1.888472 g / cm^3
# Si number density = 18.927799 Si / 1000 Ang^3
#
#
#
# Elastic Constant Matrix: (Units=GPa)
#
#
# Indices 1 2 3 4 5 6 
#
# 1 48.1547 11.4394 37.1481 0.0000 12.0025 0.0002
# 2 11.4394 110.7579 49.1460 0.0000 0.6882 0.0000
# 3 37.1481 49.1460 145.4566 0.0002 18.4268 0.0001
# 4 0.0000 0.0000 0.0002 45.5559 -0.0001 5.7220
# 5 12.0025 0.6882 18.4268 -0.0001 23.5063 -0.0001
# 6 0.0002 0.0000 0.0001 5.7220 -0.0001 22.7952
#
#
#
# Elastic Compliance Matrix: (Units=1/GPa)
#
#
# Indices 1 2 3 4 5 6 
#
# 1 0.027666 -0.000238 -0.005769 0.000000 -0.009597 0.000000
# 2 -0.000238 0.010789 -0.003953 0.000000 0.002904 0.000000
# 3 -0.005769 -0.003953 0.010321 0.000000 -0.005029 0.000000
# 4 0.000000 0.000000 0.000000 0.022666 0.000000 -0.005689
# 5 -0.009597 0.002904 -0.005029 0.000000 0.051299 0.000000
# 6 0.000000 0.000000 0.000000 -0.005689 0.000000 0.045297
#
#
# Mechanical properties :
#
#
# Convention : Reuss Voigt Hill
#
# Bulk Modulus (GPa) = 34.65466 55.53736 45.09601
# Shear Modulus (GPa) = 25.30680 32.14720 28.72700
#
# Velocity S-wave (km/s) = 3.66049 4.12565 3.90001
# Velocity P-wave (km/s) = 6.01782 7.21804 6.64508
#
# Compressibility (1/GPa) = 0.02885615
#
# Stress axis : x y z
#
# Youngs Moduli (GPa) = 36.14604 92.68674 96.89078
#
# Poissons Ratio (x) = 0.02203 0.55901
# Poissons Ratio (y) = 0.00859 0.38296
# Poissons Ratio (z) = 0.20854 0.36634
#
# Static dielectric constant tensor:
#      x y z
#    x 1.705560 0.000000 -0.032320 
#    y 0.000000 1.710710 0.000000 
#    z -0.032320 0.000000 1.682010 
# 
# From -- ./inp_files/139400.got.cif
#   From: 2010.05.17/outbox.cif.g08.bks.cpg/sg15_70_cif.got.tgz:139400.got - 2010.06.03 18:47:42.
