data_PCOD9255397
_publ_section_title
;
Structure prediction by ZEFSAII (Michael W. Deem and Ramdas Pophale) SiO2 
 PCOD9255397
Probable space group: C 2/C
;
_chemical_formula_sum "Si O2"
_cell_formula_units_Z 64
_cell_length_a 11.431673
_cell_length_b 20.034394
_cell_length_c 17.726872
_cell_angle_alpha 90.000000
_cell_angle_beta 67.234582
_cell_angle_gamma 90.000000
_cell_volume 3743.645036
_symmetry_space_group_name_H-M "C 2/C"
_symmetry_group_IT_number 15
_symmetry_cell_setting 'monoclinic'
loop_
_space_group_symop_operation_xyz
x,y,z
-x,y,1/2-z
-x,-y,-z
x,-y,1/2+z
1/2+x,1/2+y,z
1/2-x,1/2+y,1/2-z
1/2-x,1/2-y,-z
1/2+x,1/2-y,1/2+z
loop_
_atom_site_type_symbol
_atom_site_label
_atom_site_fract_x
_atom_site_fract_y
_atom_site_fract_z
Si Si1 0.616368 0.836562 0.891151
Si Si2 0.641108 0.736187 0.188925
Si Si3 0.978938 0.783814 0.343760
Si Si4 0.713337 0.848542 0.401086
Si Si5 0.055956 0.316888 0.075347
Si Si6 0.393752 0.051468 0.838845
Si Si7 0.065704 0.450746 0.544014
Si Si8 0.219765 0.867617 0.282222
O O1 0.756534 0.821755 0.826093
O O2 0.527721 0.777142 0.881864
O O3 0.545990 0.905387 0.892671
O O4 0.623266 0.831319 0.979892
O O5 0.500000 0.720190 0.250000
O O6 0.623659 0.760274 0.106982
O O7 0.696725 0.801272 0.218457
O O8 0.075606 0.845445 0.332104
O O9 0.000000 0.765849 0.250000
O O10 0.834921 0.805438 0.394675
O O11 0.590482 0.804134 0.409984
O O12 0.660863 0.901532 0.475088
O O13 0.756616 0.882842 0.311534
O O14 0.057851 0.383538 0.126427
O O15 0.500000 0.034691 0.750000
O O16 0.270494 0.075120 0.823929
O O17 0.373417 0.993839 0.904693
O O18 0.000000 0.500000 0.500000
#
# Coordination Sequence:
#
# PCOD9255397 Si02
#       8
#     8   8   8   8   8   8   8   8
#     4  10  21  33  51  82 112 138 172 215 276 318
#     4  10  17  30  55  82 109 136 171 222 268 318
#     4   9  20  34  54  80 111 142 168 219 274 328
#     4  10  17  33  54  79 107 141 177 214 272 321
#     4  10  17  30  54  83 104 133 176 225 266 310
#     4  11  18  33  57  79  97 133 190 231 256 305
#     4  11  21  34  52  78 107 143 178 226 264 310
#     4   9  16  32  55  81 103 136 185 221 255 319
#
# _framework density 17.095638000000001
#
# number of rings (size 3 to 8) (size 9 to 14) (size 15 to 20)
#    0.000    2.000    5.000    1.125    0.000    2.500 
#    0.000    0.625    2.750    3.750    0.000    0.000 
#    0.000    0.000    0.000    0.000    0.000    0.000 
#
# Total GULP energy -178311.206724 kJ/mol
# GULP energy per Si atom -5572.225210 kJ/mol
# Density = 1.705673 g / cm^3
# Si number density = 17.095638 Si / 1000 Ang^3
#
#
#
# Elastic Constant Matrix: (Units=GPa)
#
#
# Indices 1 2 3 4 5 6 
#
# 1 83.2319 22.4284 6.9525 0.0000 -7.8878 0.0000
# 2 22.4284 49.7483 12.6783 0.0000 -0.9391 0.0000
# 3 6.9525 12.6783 48.7231 0.0000 7.9345 0.0000
# 4 0.0000 0.0000 0.0000 23.5799 0.0000 -0.1545
# 5 -7.8878 -0.9391 7.9345 0.0000 25.2421 0.0000
# 6 0.0000 0.0000 0.0000 -0.1545 0.0000 12.9577
#
#
#
# Elastic Compliance Matrix: (Units=1/GPa)
#
#
# Indices 1 2 3 4 5 6 
#
# 1 0.014164 -0.005991 -0.001209 0.000000 0.004583 0.000000
# 2 -0.005991 0.024239 -0.005580 0.000000 0.000784 0.000000
# 3 -0.001209 -0.005580 0.023444 0.000000 -0.007955 0.000000
# 4 0.000000 0.000000 0.000000 0.042412 0.000000 0.000506
# 5 0.004583 0.000784 -0.007955 0.000000 0.043578 0.000000
# 6 0.000000 0.000000 0.000000 0.000506 0.000000 0.077180
#
#
# Mechanical properties :
#
#
# Convention : Reuss Voigt Hill
#
# Bulk Modulus (GPa) = 27.55747 29.53577 28.54662
# Shear Modulus (GPa) = 19.03501 21.66553 20.35027
#
# Velocity S-wave (km/s) = 3.34045 3.56380 3.45393
# Velocity P-wave (km/s) = 5.57070 5.85222 5.71320
#
# Compressibility (1/GPa) = 0.03628780
#
# Stress axis : x y z
#
# Youngs Moduli (GPa) = 70.59959 41.25555 42.65487
#
# Poissons Ratio (x) = 0.24718 0.05155
# Poissons Ratio (y) = 0.42299 0.23801
# Poissons Ratio (z) = 0.08532 0.23021
#
# Static dielectric constant tensor:
#      x y z
#    x 1.593650 0.000000 0.001150 
#    y 0.000000 1.565920 0.000000 
#    z 0.001150 0.000000 1.602490 
# 
# From -- ./inp_files/199958.got.cif
#   From: 2010.05.17/outbox.cif.g08.bks.cpg/sg15_100_cif.got.tgz:199958.got - 2010.06.03 18:47:42.
