data_PCOD9255731
_publ_section_title
;
Structure prediction by ZEFSAII (Michael W. Deem and Ramdas Pophale) SiO2 
 PCOD9255731
Probable space group: C 2/C
;
_chemical_formula_sum "Si O2"
_cell_formula_units_Z 60
_cell_length_a 11.394983
_cell_length_b 26.594105
_cell_length_c 12.276029
_cell_angle_alpha 90.000000
_cell_angle_beta 110.931436
_cell_angle_gamma 90.000000
_cell_volume 3474.624231
_symmetry_space_group_name_H-M "C 2/C"
_symmetry_group_IT_number 15
_symmetry_cell_setting 'monoclinic'
loop_
_space_group_symop_operation_xyz
x,y,z
-x,y,1/2-z
-x,-y,-z
x,-y,1/2+z
1/2+x,1/2+y,z
1/2-x,1/2+y,1/2-z
1/2-x,1/2-y,-z
1/2+x,1/2-y,1/2+z
loop_
_atom_site_type_symbol
_atom_site_label
_atom_site_fract_x
_atom_site_fract_y
_atom_site_fract_z
Si Si1 0.643575 0.187493 0.256340
Si Si2 0.500000 0.533346 0.750000
Si Si3 0.205955 0.854655 0.488157
Si Si4 0.682175 0.463185 0.945337
Si Si5 0.855032 0.199662 0.744668
Si Si6 0.081799 0.891406 0.100979
Si Si7 0.638413 0.919056 0.670093
Si Si8 0.359572 0.949202 0.575542
O O1 0.500000 0.188878 0.250000
O O2 0.734102 0.171765 0.386231
O O3 0.676282 0.243777 0.230602
O O4 0.641689 0.141532 0.171161
O O5 0.573775 0.498964 0.860828
O O6 0.415646 0.570447 0.795312
O O7 0.216003 0.818397 0.387457
O O8 0.283152 0.905273 0.490627
O O9 0.062687 0.872789 0.461350
O O10 0.748048 0.437931 0.864095
O O11 0.630593 0.422304 0.013525
O O12 0.789554 0.498594 0.033321
O O13 0.844198 0.158340 0.835962
O O14 0.000000 0.198734 0.750000
O O15 0.504889 0.942858 0.590628
O O16 0.650367 0.935669 0.799805
#
# Coordination Sequence:
#
# PCOD9255731 Si02
#       8
#     8   4   8   8   8   8   8   8
#     4  10  18  33  57  81 106 139 183 228 267 313
#     4  12  22  36  54  80 114 146 182 220 264 326
#     4  10  17  32  55  83 110 134 180 226 266 318
#     4  12  24  33  56  80 112 153 174 216 282 319
#     4   9  18  33  55  81 108 138 179 229 273 311
#     4  11  21  37  53  85 113 139 181 225 269 334
#     4  10  21  37  54  81 106 138 188 227 257 324
#     4  10  19  37  55  75 110 142 184 222 258 317
#
# _framework density 17.268052999999998
#
# number of rings (size 3 to 8) (size 9 to 14) (size 15 to 20)
#    0.000    1.600    6.000    2.000    3.733    0.000 
#    0.000    0.667    0.000    0.000    3.467    0.000 
#    0.000    0.000    0.000    0.000    0.000    0.000 
#
# Total GULP energy -167215.072876 kJ/mol
# GULP energy per Si atom -5573.835763 kJ/mol
# Density = 1.722875 g / cm^3
# Si number density = 17.268053 Si / 1000 Ang^3
#
#
#
# Elastic Constant Matrix: (Units=GPa)
#
#
# Indices 1 2 3 4 5 6 
#
# 1 21.7175 13.7349 12.6170 0.0000 3.7926 0.0000
# 2 13.7349 117.8478 22.9986 0.0000 6.3891 0.0000
# 3 12.6170 22.9986 45.0333 0.0000 13.2801 0.0000
# 4 0.0000 0.0000 0.0000 5.8369 0.0000 -5.8827
# 5 3.7926 6.3891 13.2801 0.0000 25.8407 0.0000
# 6 0.0000 0.0000 0.0000 -5.8827 0.0000 -5.5453
#
#
#
# Elastic Compliance Matrix: (Units=1/GPa)
#
#
# Indices 1 2 3 4 5 6 
#
# 1 0.056558 -0.003888 -0.013785 0.000000 -0.000255 0.000000
# 2 -0.003888 0.009693 -0.003916 0.000000 0.000186 0.000000
# 3 -0.013785 -0.003916 0.032042 0.000000 -0.013475 0.000000
# 4 0.000000 0.000000 0.000000 0.082799 0.000000 -0.087836
# 5 -0.000255 0.000186 -0.013475 0.000000 0.045615 0.000000
# 6 0.000000 0.000000 0.000000 -0.087836 0.000000 -0.087152
#
#
# Mechanical properties :
#
#
# Convention : Reuss Voigt Hill
#
# Bulk Modulus (GPa) = 18.14398 31.47773 24.81086
# Shear Modulus (GPa) = 24.86298 14.24301 19.55299
#
# Velocity S-wave (km/s) = 3.79862 2.87508 3.36865
# Velocity P-wave (km/s) = 5.45613 5.41202 5.43412
#
# Compressibility (1/GPa) = 0.05511471
#
# Stress axis : x y z
#
# Youngs Moduli (GPa) = 17.68109 103.17050 31.20940
#
# Poissons Ratio (x) = 0.40108 0.43023
# Poissons Ratio (y) = 0.06874 0.12221
# Poissons Ratio (z) = 0.24374 0.40400
#
# Static dielectric constant tensor:
#      x y z
#    x 1.567920 0.000000 0.038020 
#    y 0.000000 1.618680 0.000000 
#    z 0.038020 0.000000 1.603570 
# 
# From -- ./inp_files/91845.got.cif
#   From: 2010.05.17/outbox.cif.g08.bks.cpg/sg15_46_cif.got.tgz:91845.got - 2010.06.03 18:47:42.
