data_PCOD9255913
_publ_section_title
;
Structure prediction by ZEFSAII (Michael W. Deem and Ramdas Pophale) SiO2 
 PCOD9255913
Probable space group: C 2/C
;
_chemical_formula_sum "Si O2"
_cell_formula_units_Z 40
_cell_length_a 10.676445
_cell_length_b 30.298583
_cell_length_c 11.281319
_cell_angle_alpha 90.000000
_cell_angle_beta 149.759374
_cell_angle_gamma 90.000000
_cell_volume 1837.903624
_symmetry_space_group_name_H-M "C 2/C"
_symmetry_group_IT_number 15
_symmetry_cell_setting 'monoclinic'
loop_
_space_group_symop_operation_xyz
x,y,z
-x,y,1/2-z
-x,-y,-z
x,-y,1/2+z
1/2+x,1/2+y,z
1/2-x,1/2+y,1/2-z
1/2-x,1/2-y,-z
1/2+x,1/2-y,1/2+z
loop_
_atom_site_type_symbol
_atom_site_label
_atom_site_fract_x
_atom_site_fract_y
_atom_site_fract_z
Si Si1 0.500000 0.787499 0.750000
Si Si2 0.576630 0.073691 0.072753
Si Si3 0.500000 0.446430 0.750000
Si Si4 0.731521 0.993742 0.336969
Si Si5 0.713595 0.649504 0.848638
Si Si6 0.699685 0.265787 0.189013
O O1 0.300883 0.817851 0.523692
O O2 0.379075 0.759774 0.755397
O O3 0.839945 0.079672 0.218118
O O4 0.609931 0.040792 0.210942
O O5 0.398652 0.045771 0.840199
O O6 0.437126 0.117678 0.995022
O O7 0.295413 0.477587 0.520132
O O8 0.000000 0.000000 0.500000
O O9 0.500000 0.624108 0.750000
O O10 0.666912 0.682258 0.697352
O O11 0.995393 0.251704 0.425046
#
# Coordination Sequence:
#
# PCOD9255913 Si02
#       6
#     4   8   4   8   8   8
#     4  10  18  34  52  81 128 166 190 227 316 376
#     4  10  22  39  59  88 114 151 207 249 304 355
#     4  10  20  42  66  73 114 164 204 247 302 370
#     4   9  20  42  59  82 108 155 202 247 310 357
#     4  11  20  34  52  89 122 150 193 250 295 368
#     4  10  17  33  57  78 123 170 197 228 311 382
#
# _framework density 21.763926999999999
#
# number of rings (size 3 to 8) (size 9 to 14) (size 15 to 20)
#    0.000    2.000    3.000    1.800    0.000    3.200 
#   30.600    0.000    0.000    0.000    0.000    5.600 
#    0.000    0.000    0.000    0.000    0.000    0.000 
#
# Total GULP energy -111383.437036 kJ/mol
# GULP energy per Si atom -5569.171852 kJ/mol
# Density = 2.171439 g / cm^3
# Si number density = 21.763927 Si / 1000 Ang^3
#
#
#
# Elastic Constant Matrix: (Units=GPa)
#
#
# Indices 1 2 3 4 5 6 
#
# 1 69.9527 23.5908 14.8716 0.0000 18.9124 0.0000
# 2 23.5908 73.6787 9.2118 0.0000 14.5965 0.0000
# 3 14.8716 9.2118 99.2207 0.0000 10.4071 0.0000
# 4 0.0000 0.0000 0.0000 20.1950 0.0000 21.2257
# 5 18.9124 14.5965 10.4071 0.0000 26.2925 0.0000
# 6 0.0000 0.0000 0.0000 21.2257 0.0000 17.4590
#
#
#
# Elastic Compliance Matrix: (Units=1/GPa)
#
#
# Indices 1 2 3 4 5 6 
#
# 1 0.018775 -0.003679 -0.001325 0.000000 -0.010938 0.000000
# 2 -0.003679 0.015999 -0.000292 0.000000 -0.006120 0.000000
# 3 -0.001325 -0.000292 0.010629 0.000000 -0.003092 0.000000
# 4 0.000000 0.000000 0.000000 -0.178250 0.000000 0.216707
# 5 -0.010938 -0.006120 -0.003092 0.000000 0.050523 0.000000
# 6 0.000000 0.000000 0.000000 0.216707 0.000000 -0.206183
#
#
# Mechanical properties :
#
#
# Convention : Reuss Voigt Hill
#
# Bulk Modulus (GPa) = 28.72682 37.57782 33.15232
# Shear Modulus (GPa) = -18.77497 25.80117 3.51310
#
# Velocity S-wave (km/s) = -2.94030 3.44685 1.27188
# Velocity P-wave (km/s) = 1.30414 5.75713 4.17405
#
# Compressibility (1/GPa) = 0.03481068
#
# Stress axis : x y z
#
# Youngs Moduli (GPa) = 53.26246 62.50246 94.08606
#
# Poissons Ratio (x) = 0.22993 0.12469
# Poissons Ratio (y) = 0.19594 0.02748
# Poissons Ratio (z) = 0.07059 0.01825
#
# Static dielectric constant tensor:
#      x y z
#    x 1.858680 0.000000 0.060680 
#    y 0.000000 1.789430 0.000000 
#    z 0.060680 0.000000 1.962340 
# 
# From -- ./inp_files/92697.got.cif
#   From: 2010.05.17/outbox.cif.g08.bks.cpg/sg15_47_cif.got.tgz:92697.got - 2010.06.03 18:47:42.
