data_PCOD9255719
_publ_section_title
;
Structure prediction by ZEFSAII (Michael W. Deem and Ramdas Pophale) SiO2 
 PCOD9255719
Probable space group: C 2/C
;
_chemical_formula_sum "Si O2"
_cell_formula_units_Z 44
_cell_length_a 11.938848
_cell_length_b 14.761867
_cell_length_c 10.495472
_cell_angle_alpha 90.000000
_cell_angle_beta 100.335133
_cell_angle_gamma 90.000000
_cell_volume 1819.707403
_symmetry_space_group_name_H-M "C 2/C"
_symmetry_group_IT_number 15
_symmetry_cell_setting 'monoclinic'
loop_
_space_group_symop_operation_xyz
x,y,z
-x,y,1/2-z
-x,-y,-z
x,-y,1/2+z
1/2+x,1/2+y,z
1/2-x,1/2+y,1/2-z
1/2-x,1/2-y,-z
1/2+x,1/2-y,1/2+z
loop_
_atom_site_type_symbol
_atom_site_label
_atom_site_fract_x
_atom_site_fract_y
_atom_site_fract_z
Si Si1 0.569038 0.888203 0.632755
Si Si2 0.626586 0.615569 0.312648
Si Si3 0.500000 0.558655 0.750000
Si Si4 0.332431 0.268681 0.899484
Si Si5 0.587085 0.916374 0.149326
Si Si6 0.584596 0.693988 0.559851
O O1 0.500000 0.880078 0.750000
O O2 0.482087 0.903495 0.496802
O O3 0.623617 0.791105 0.617385
O O4 0.639484 0.982452 0.652975
O O5 0.500000 0.655570 0.250000
O O6 0.593301 0.510783 0.326477
O O7 0.693759 0.647729 0.200683
O O8 0.655380 0.657464 0.454728
O O9 0.567816 0.619973 0.665084
O O10 0.337740 0.173696 0.823307
O O11 0.250000 0.250000 0.000000
O O12 0.454673 0.289842 0.986540
O O13 0.500000 0.917000 0.250000
#
# Coordination Sequence:
#
# PCOD9255719 Si02
#       6
#     8   8   4   8   8   8
#     4   9  16  27  49  78  99 120 161 219 256 294
#     4   8  18  30  52  76  94 132 177 216 253 297
#     4  10  18  30  58  78  96 128 178 236 254 292
#     4  10  19  32  52  74 106 140 169 202 256 323
#     4   9  17  30  51  74 100 130 172 211 250 304
#     4  10  17  32  55  77 102 127 173 222 262 303
#
# _framework density 24.17971
#
# number of rings (size 3 to 8) (size 9 to 14) (size 15 to 20)
#    0.545    2.182    0.909    3.273    0.000    0.000 
#    0.000    0.000   24.000    1.091    0.000    0.000 
#    0.000    0.000    0.000    0.000    0.000    0.000 
#
# Total GULP energy -122763.160186 kJ/mol
# GULP energy per Si atom -5580.143645 kJ/mol
# Density = 2.412468 g / cm^3
# Si number density = 24.179710 Si / 1000 Ang^3
#
#
#
# Elastic Constant Matrix: (Units=GPa)
#
#
# Indices 1 2 3 4 5 6 
#
# 1 58.9620 1.7453 16.7778 0.0000 -4.4809 0.0000
# 2 1.7453 187.6236 42.3617 0.0000 -17.3580 0.0000
# 3 16.7778 42.3617 145.4963 0.0000 -28.9488 0.0000
# 4 0.0000 0.0000 0.0000 50.0465 0.0000 1.0748
# 5 -4.4809 -17.3580 -28.9488 0.0000 33.4218 0.0000
# 6 0.0000 0.0000 0.0000 1.0748 0.0000 -0.6539
#
#
#
# Elastic Compliance Matrix: (Units=1/GPa)
#
#
# Indices 1 2 3 4 5 6 
#
# 1 0.017572 0.000358 -0.001963 0.000000 0.000841 0.000000
# 2 0.000358 0.005807 -0.001356 0.000000 0.001889 0.000000
# 3 -0.001963 -0.001356 0.008822 0.000000 0.006674 0.000000
# 4 0.000000 0.000000 0.000000 0.019300 0.000000 0.031725
# 5 0.000841 0.001889 0.006674 0.000000 0.036795 0.000000
# 6 0.000000 0.000000 0.000000 0.031725 0.000000 -1.477250
#
#
# Mechanical properties :
#
#
# Convention : Reuss Voigt Hill
#
# Bulk Modulus (GPa) = 38.05400 57.09459 47.57429
# Shear Modulus (GPa) = -3.63829 38.64270 17.50220
#
# Velocity S-wave (km/s) = -1.22799 4.00202 2.69334
# Velocity P-wave (km/s) = 3.70966 6.70960 5.42127
#
# Compressibility (1/GPa) = 0.02627845
#
# Stress axis : x y z
#
# Youngs Moduli (GPa) = 56.90868 172.19132 113.35145
#
# Poissons Ratio (x) = -0.06157 0.22251
# Poissons Ratio (y) = -0.02035 0.15372
# Poissons Ratio (z) = 0.11171 0.23352
#
# Static dielectric constant tensor:
#      x y z
#    x 2.125540 0.000000 0.069120 
#    y 0.000000 1.976290 0.000000 
#    z 0.069120 0.000000 1.901950 
# 
# From -- ./inp_files/104505.got.cif
#   From: 2010.05.17/outbox.cif.g08.bks.cpg/sg15_53_cif.got.tgz:104505.got - 2010.06.03 18:47:42.
