data_PCOD9255893
_publ_section_title
;
Structure prediction by ZEFSAII (Michael W. Deem and Ramdas Pophale) SiO2 
 PCOD9255893
Probable space group: C 2/C
;
_chemical_formula_sum "Si O2"
_cell_formula_units_Z 56
_cell_length_a 19.731491
_cell_length_b 9.556966
_cell_length_c 31.813911
_cell_angle_alpha 90.000000
_cell_angle_beta 149.682885
_cell_angle_gamma 90.000000
_cell_volume 3028.334787
_symmetry_space_group_name_H-M "C 2/C"
_symmetry_group_IT_number 15
_symmetry_cell_setting 'monoclinic'
loop_
_space_group_symop_operation_xyz
x,y,z
-x,y,1/2-z
-x,-y,-z
x,-y,1/2+z
1/2+x,1/2+y,z
1/2-x,1/2+y,1/2-z
1/2-x,1/2-y,-z
1/2+x,1/2-y,1/2+z
loop_
_atom_site_type_symbol
_atom_site_label
_atom_site_fract_x
_atom_site_fract_y
_atom_site_fract_z
Si Si1 0.974036 0.520577 0.103285
Si Si2 0.588535 0.031619 0.258477
Si Si3 0.940629 0.837673 0.351692
Si Si4 0.701727 0.375123 0.444131
Si Si5 0.327824 0.839432 0.345445
Si Si6 0.108210 0.976186 0.593912
Si Si7 0.357161 0.348364 0.182088
O O1 0.019600 0.505406 0.176441
O O2 0.013023 0.680659 0.112950
O O3 0.056152 0.423164 0.115851
O O4 0.813884 0.507085 0.011711
O O5 0.500000 0.977963 0.250000
O O6 0.741330 0.979093 0.339338
O O7 0.603551 0.199758 0.274982
O O8 0.794500 0.826598 0.252903
O O9 0.049714 0.901680 0.377600
O O10 0.933622 0.934572 0.388281
O O11 0.750000 0.250000 0.500000
O O12 0.702668 0.327428 0.396300
O O13 0.379420 0.687089 0.387068
O O14 0.255724 0.909913 0.347525
O O15 0.000000 0.000000 0.500000
O O16 0.500000 0.423638 0.250000
#
# Coordination Sequence:
#
# PCOD9255893 Si02
#       7
#     8   8   8   8   8   8   8
#     4  11  22  37  61  91 117 156 202 253 307 348
#     4  10  19  35  60  85 117 154 202 247 294 356
#     4  11  19  40  62  88 116 161 203 246 299 364
#     4  10  21  32  58  90 116 148 201 256 298 347
#     4  11  21  40  59  86 124 159 193 251 304 366
#     4  11  25  38  62  91 122 160 203 247 306 368
#     4  10  17  33  55  86 115 149 197 249 295 345
#
# _framework density 18.492011000000002
#
# number of rings (size 3 to 8) (size 9 to 14) (size 15 to 20)
#    0.000    1.429    5.714    2.571   10.000    0.571 
#    0.000    0.714    0.000    0.857    0.000    0.000 
#    0.000    0.000    0.000    0.000    0.000    0.000 
#
# Total GULP energy -156089.449605 kJ/mol
# GULP energy per Si atom -5574.623200 kJ/mol
# Density = 1.844992 g / cm^3
# Si number density = 18.492011 Si / 1000 Ang^3
#
#
#
# Elastic Constant Matrix: (Units=GPa)
#
#
# Indices 1 2 3 4 5 6 
#
# 1 142.9055 51.9525 40.7581 0.0000 -14.1900 0.0000
# 2 51.9525 43.0555 35.9653 0.0000 4.4115 -0.0001
# 3 40.7581 35.9653 116.1053 0.0000 -11.6568 0.0001
# 4 0.0000 0.0000 0.0000 20.3655 0.0000 4.4813
# 5 -14.1900 4.4115 -11.6568 0.0000 35.1355 0.0001
# 6 0.0000 -0.0001 0.0001 4.4813 0.0001 28.2346
#
#
#
# Elastic Compliance Matrix: (Units=1/GPa)
#
#
# Indices 1 2 3 4 5 6 
#
# 1 0.014785 -0.020543 0.002102 0.000000 0.009248 0.000000
# 2 -0.020543 0.061856 -0.014029 0.000000 -0.020718 0.000000
# 3 0.002102 -0.014029 0.012913 0.000000 0.006894 0.000000
# 4 0.000000 0.000000 0.000000 0.050880 0.000000 -0.008075
# 5 0.009248 -0.020718 0.006894 0.000000 0.037085 0.000000
# 6 0.000000 0.000000 0.000000 -0.008075 0.000000 0.036699
#
#
# Mechanical properties :
#
#
# Convention : Reuss Voigt Hill
#
# Bulk Modulus (GPa) = 40.62968 62.15757 51.39362
# Shear Modulus (GPa) = 17.39965 28.30649 22.85307
#
# Velocity S-wave (km/s) = 3.07078 3.91671 3.51926
# Velocity P-wave (km/s) = 5.88151 7.35801 6.66080
#
# Compressibility (1/GPa) = 0.02461255
#
# Stress axis : x y z
#
# Youngs Moduli (GPa) = 67.63710 16.16665 77.44181
#
# Poissons Ratio (x) = 0.33212 -0.16278
# Poissons Ratio (y) = 1.38948 1.08644
# Poissons Ratio (z) = -0.14217 0.22680
#
# Static dielectric constant tensor:
#      x y z
#    x 1.699400 0.000000 0.037400 
#    y 0.000000 1.650310 0.000000 
#    z 0.037400 0.000000 1.677460 
# 
# From -- ./inp_files/317554.got.cif
#   From: 2010.05.17/outbox.cif.g08.bks.cpg/sg15_159_cif.got.tgz:317554.got - 2010.06.03 18:47:42.
