data_PCOD9255247
_publ_section_title
;
Structure prediction by ZEFSAII (Michael W. Deem and Ramdas Pophale) SiO2 
 PCOD9255247
Probable space group: C 2/C
;
_chemical_formula_sum "Si O2"
_cell_formula_units_Z 60
_cell_length_a 11.720681
_cell_length_b 9.484102
_cell_length_c 28.356189
_cell_angle_alpha 90.000000
_cell_angle_beta 59.285153
_cell_angle_gamma 90.000000
_cell_volume 2709.904133
_symmetry_space_group_name_H-M "C 2/C"
_symmetry_group_IT_number 15
_symmetry_cell_setting 'monoclinic'
loop_
_space_group_symop_operation_xyz
x,y,z
-x,y,1/2-z
-x,-y,-z
x,-y,1/2+z
1/2+x,1/2+y,z
1/2-x,1/2+y,1/2-z
1/2-x,1/2-y,-z
1/2+x,1/2-y,1/2+z
loop_
_atom_site_type_symbol
_atom_site_label
_atom_site_fract_x
_atom_site_fract_y
_atom_site_fract_z
Si Si1 0.500000 0.947088 0.750000
Si Si2 0.940517 0.594050 0.946656
Si Si3 0.282709 0.362150 0.663824
Si Si4 0.437781 0.673463 0.942382
Si Si5 0.343034 0.403327 0.997982
Si Si6 0.315235 0.814835 0.061303
Si Si7 0.788623 0.832835 0.119103
Si Si8 0.004431 0.328522 0.330626
O O1 0.461958 0.055644 0.715774
O O2 0.628623 0.852934 0.711339
O O3 0.798062 0.526087 0.988629
O O4 0.974936 0.584253 0.884689
O O5 0.076173 0.568773 0.945989
O O6 0.892279 0.756477 0.965937
O O7 0.308403 0.285337 0.608572
O O8 0.294956 0.529211 0.650809
O O9 0.385602 0.288466 0.678736
O O10 0.336534 0.663171 0.920823
O O11 0.574692 0.747235 0.898948
O O12 0.451590 0.513469 0.958050
O O13 0.379724 0.744563 0.001500
O O14 0.313086 0.373828 0.058942
O O15 0.641921 0.767342 0.152632
#
# Coordination Sequence:
#
# PCOD9255247 Si02
#       8
#     4   8   8   8   8   8   8   8
#     4  10  22  42  70  84 104 156 200 250 322 338
#     4   9  18  32  54  77 113 150 189 235 275 332
#     4  10  20  41  64  83 110 148 195 246 290 349
#     4  11  19  29  50  83 122 153 184 219 274 350
#     4  10  17  29  53  80 113 158 194 216 263 345
#     4  10  20  32  49  81 117 152 184 227 283 340
#     4  10  18  33  58  86 115 157 194 220 278 348
#     4   9  20  37  63  88 107 138 200 252 286 352
#
# _framework density 22.141003999999999
#
# number of rings (size 3 to 8) (size 9 to 14) (size 15 to 20)
#    0.000    2.133    2.667    2.000    0.000    0.533 
#    4.800    0.000   11.733    0.000    0.000    0.000 
#    0.000    0.000    0.000    0.000    0.000    0.000 
#
# Total GULP energy -167136.329875 kJ/mol
# GULP energy per Si atom -5571.210996 kJ/mol
# Density = 2.209061 g / cm^3
# Si number density = 22.141004 Si / 1000 Ang^3
#
#
#
# Elastic Constant Matrix: (Units=GPa)
#
#
# Indices 1 2 3 4 5 6 
#
# 1 166.7533 13.7237 49.7595 0.0000 -18.7848 0.0000
# 2 13.7237 58.0607 18.4950 0.0000 -1.3584 0.0000
# 3 49.7595 18.4950 72.8454 0.0000 -24.8536 0.0000
# 4 0.0000 0.0000 0.0000 12.1802 0.0000 -0.8300
# 5 -18.7848 -1.3584 -24.8536 0.0000 36.9334 0.0000
# 6 0.0000 0.0000 0.0000 -0.8300 0.0000 28.9935
#
#
#
# Elastic Compliance Matrix: (Units=1/GPa)
#
#
# Indices 1 2 3 4 5 6 
#
# 1 0.007541 -0.000202 -0.004924 0.000000 0.000514 0.000000
# 2 -0.000202 0.019052 -0.005835 0.000000 -0.003328 0.000000
# 3 -0.004924 -0.005835 0.022904 0.000000 0.012693 0.000000
# 4 0.000000 0.000000 0.000000 0.082261 0.000000 0.002355
# 5 0.000514 -0.003328 0.012693 0.000000 0.035757 0.000000
# 6 0.000000 0.000000 0.000000 0.002355 0.000000 0.034558
#
#
# Mechanical properties :
#
#
# Convention : Reuss Voigt Hill
#
# Bulk Modulus (GPa) = 36.26568 51.29066 43.77817
# Shear Modulus (GPa) = 21.44218 30.00018 25.72118
#
# Velocity S-wave (km/s) = 3.11535 3.68497 3.41207
# Velocity P-wave (km/s) = 5.41807 6.42815 5.94460
#
# Compressibility (1/GPa) = 0.02757428
#
# Stress axis : x y z
#
# Youngs Moduli (GPa) = 132.61096 52.48829 43.66105
#
# Poissons Ratio (x) = 0.01059 0.21500
# Poissons Ratio (y) = 0.02675 0.25476
# Poissons Ratio (z) = 0.65303 0.30627
#
# Static dielectric constant tensor:
#      x y z
#    x 2.217860 0.000000 0.002870 
#    y 0.000000 1.895980 0.000000 
#    z 0.002870 0.000000 1.810190 
# 
# From -- ./inp_files/310632.got.cif
#   From: 2010.05.17/outbox.cif.g08.bks.cpg/sg15_156_cif.got.tgz:310632.got - 2010.06.03 18:47:42.
