data_PCOD9255649
_publ_section_title
;
Structure prediction by ZEFSAII (Michael W. Deem and Ramdas Pophale) SiO2 
 PCOD9255649
Probable space group: C 2/C
;
_chemical_formula_sum "Si O2"
_cell_formula_units_Z 52
_cell_length_a 11.645624
_cell_length_b 12.141269
_cell_length_c 17.171006
_cell_angle_alpha 90.000000
_cell_angle_beta 126.006377
_cell_angle_gamma 90.000000
_cell_volume 1964.016387
_symmetry_space_group_name_H-M "C 2/C"
_symmetry_group_IT_number 15
_symmetry_cell_setting 'monoclinic'
loop_
_space_group_symop_operation_xyz
x,y,z
-x,y,1/2-z
-x,-y,-z
x,-y,1/2+z
1/2+x,1/2+y,z
1/2-x,1/2+y,1/2-z
1/2-x,1/2-y,-z
1/2+x,1/2-y,1/2+z
loop_
_atom_site_type_symbol
_atom_site_label
_atom_site_fract_x
_atom_site_fract_y
_atom_site_fract_z
Si Si1 0.012096 0.895937 0.348722
Si Si2 0.304244 0.175375 0.927289
Si Si3 0.896207 0.659761 0.490676
Si Si4 0.384061 0.953602 0.316137
Si Si5 0.000000 0.303151 0.250000
Si Si6 0.912954 0.131224 0.091795
Si Si7 0.360283 0.809354 0.748019
O O1 0.170852 0.846704 0.429150
O O2 0.000000 0.915589 0.250000
O O3 0.899824 0.797489 0.316035
O O4 0.010601 0.014839 0.388078
O O5 0.468511 0.158206 0.014037
O O6 0.292566 0.087878 0.851645
O O7 0.268096 0.284794 0.862980
O O8 0.881377 0.789635 0.505942
O O9 0.736613 0.617102 0.421646
O O10 0.960725 0.582841 0.587098
O O11 0.379969 0.887874 0.233010
O O12 0.345416 0.078424 0.286858
O O13 0.997622 0.216740 0.178659
O O14 0.500000 0.822670 0.750000
#
# Coordination Sequence:
#
# PCOD9255649 Si02
#       7
#     8   8   8   8   4   8   8
#     4   9  18  30  49  77  96 131 162 207 247 292
#     4   8  18  30  47  74  97 129 159 202 257 276
#     4   8  19  32  48  74 102 135 157 216 255 280
#     4   9  17  32  49  75  98 127 169 205 251 299
#     4  10  18  28  54  78  88 134 172 210 238 300
#     4  10  17  32  51  74 102 128 175 203 248 300
#     4   9  17  31  50  73 100 130 163 206 251 296
#
# _framework density 26.476357
#
# number of rings (size 3 to 8) (size 9 to 14) (size 15 to 20)
#    0.923    2.462    1.538    0.000    0.000    4.308 
#    0.000    0.769    0.000    0.923    4.000    0.000 
#    0.000    0.000    0.000    0.000    0.000    0.000 
#
# Total GULP energy -144761.407131 kJ/mol
# GULP energy per Si atom -5567.746428 kJ/mol
# Density = 2.641610 g / cm^3
# Si number density = 26.476357 Si / 1000 Ang^3
#
#
#
# Elastic Constant Matrix: (Units=GPa)
#
#
# Indices 1 2 3 4 5 6 
#
# 1 61.1780 -9.3876 6.0163 0.0000 20.8971 0.0000
# 2 -9.3876 150.2039 34.4533 0.0000 5.6360 0.0000
# 3 6.0163 34.4533 44.7280 0.0000 2.5459 0.0000
# 4 0.0000 0.0000 0.0000 18.1391 0.0000 -9.1400
# 5 20.8971 5.6360 2.5459 0.0000 33.8646 0.0000
# 6 0.0000 0.0000 0.0000 -9.1400 0.0000 27.5701
#
#
#
# Elastic Compliance Matrix: (Units=1/GPa)
#
#
# Indices 1 2 3 4 5 6 
#
# 1 0.021885 0.002887 -0.004390 0.000000 -0.013655 0.000000
# 2 0.002887 0.008494 -0.006778 0.000000 -0.002686 0.000000
# 3 -0.004390 -0.006778 0.028071 0.000000 0.001727 0.000000
# 4 0.000000 0.000000 0.000000 0.066186 0.000000 0.021942
# 5 -0.013655 -0.002686 0.001727 0.000000 0.038273 0.000000
# 6 0.000000 0.000000 0.000000 0.021942 0.000000 0.043545
#
#
# Mechanical properties :
#
#
# Convention : Reuss Voigt Hill
#
# Bulk Modulus (GPa) = 23.87398 35.36377 29.61887
# Shear Modulus (GPa) = 21.09909 30.91663 26.00786
#
# Velocity S-wave (km/s) = 2.82601 3.42088 3.13757
# Velocity P-wave (km/s) = 4.43679 5.38414 4.93326
#
# Compressibility (1/GPa) = 0.04188661
#
# Stress axis : x y z
#
# Youngs Moduli (GPa) = 45.69379 117.73658 35.62450
#
# Poissons Ratio (x) = -0.33993 0.15641
# Poissons Ratio (y) = -0.13193 0.24146
# Poissons Ratio (z) = 0.20062 0.79801
#
# Static dielectric constant tensor:
#      x y z
#    x 2.097000 0.000000 -0.041410 
#    y 0.000000 2.096950 0.000000 
#    z -0.041410 0.000000 2.224300 
# 
# From -- ./inp_files/315823.got.cif
#   From: 2010.05.17/outbox.cif.g08.bks.cpg/sg15_158_cif.got.tgz:315823.got - 2010.06.03 18:47:42.
