data_PCOD9255190
_publ_section_title
;
Structure prediction by ZEFSAII (Michael W. Deem and Ramdas Pophale) SiO2 
 PCOD9255190
Probable space group: C 2/C
;
_chemical_formula_sum "Si O2"
_cell_formula_units_Z 36
_cell_length_a 14.287645
_cell_length_b 9.342147
_cell_length_c 18.266039
_cell_angle_alpha 90.000000
_cell_angle_beta 150.847044
_cell_angle_gamma 90.000000
_cell_volume 1187.703353
_symmetry_space_group_name_H-M "C 2/C"
_symmetry_group_IT_number 15
_symmetry_cell_setting 'monoclinic'
loop_
_space_group_symop_operation_xyz
x,y,z
-x,y,1/2-z
-x,-y,-z
x,-y,1/2+z
1/2+x,1/2+y,z
1/2-x,1/2+y,1/2-z
1/2-x,1/2-y,-z
1/2+x,1/2-y,1/2+z
loop_
_atom_site_type_symbol
_atom_site_label
_atom_site_fract_x
_atom_site_fract_y
_atom_site_fract_z
Si Si1 0.000000 0.722945 0.250000
Si Si2 0.447799 0.057646 0.809777
Si Si3 0.170753 0.073633 0.482909
Si Si4 0.605143 0.718467 0.019000
Si Si5 0.771069 0.099792 0.241367
O O1 0.998350 0.606535 0.182054
O O2 0.198396 0.802265 0.368947
O O3 0.302715 0.105779 0.645963
O O4 0.332851 0.050308 0.807548
O O5 0.666870 0.110562 0.966275
O O6 0.106060 0.908183 0.458624
O O7 0.956913 0.128494 0.319240
O O8 0.412316 0.804099 0.897656
O O9 0.636456 0.638008 0.116765
#
# Coordination Sequence:
#
# PCOD9255190 Si02
#       5
#     4   8   8   8   8
#     4   6  12  24  38  62  86 104 136 182 222 258
#     4   7  13  25  45  66  83 114 154 187 218 256
#     4   8  15  28  46  66  91 120 154 186 219 272
#     4   9  17  27  46  70  92 117 149 187 233 272
#     4  10  17  29  48  70  93 118 149 191 230 269
#
# _framework density 30.310599
#
# number of rings (size 3 to 8) (size 9 to 14) (size 15 to 20)
#    0.000    4.889    0.000    2.667    0.000    8.000 
#    0.000    1.111    0.000   12.000    0.000    0.000 
#    0.000    0.000    0.000    0.000    0.000    0.000 
#
# Total GULP energy -100379.162142 kJ/mol
# GULP energy per Si atom -5576.620119 kJ/mol
# Density = 3.024161 g / cm^3
# Si number density = 30.310599 Si / 1000 Ang^3
#
#
#
# Elastic Constant Matrix: (Units=GPa)
#
#
# Indices 1 2 3 4 5 6 
#
# 1 89.5399 16.5985 77.8198 0.0004 54.7512 0.0000
# 2 16.5985 50.5659 57.2136 0.0018 5.0990 0.0002
# 3 77.8198 57.2136 271.8855 0.0036 88.9353 0.0005
# 4 0.0004 0.0018 0.0036 67.9045 0.0003 8.0001
# 5 54.7512 5.0990 88.9353 0.0003 87.2767 -0.0003
# 6 0.0000 0.0002 0.0005 8.0001 -0.0003 35.9376
#
#
#
# Elastic Compliance Matrix: (Units=1/GPa)
#
#
# Indices 1 2 3 4 5 6 
#
# 1 0.019570 -0.003920 -0.001253 0.000000 -0.010771 0.000000
# 2 -0.003920 0.029082 -0.007869 0.000000 0.008779 0.000000
# 3 -0.001253 -0.007869 0.007928 0.000000 -0.006832 0.000000
# 4 0.000000 0.000000 0.000000 0.015123 0.000000 -0.003367
# 5 -0.010771 0.008779 -0.006832 0.000000 0.024664 0.000000
# 6 0.000000 0.000000 0.000000 -0.003367 0.000000 0.028575
#
#
# Mechanical properties :
#
#
# Convention : Reuss Voigt Hill
#
# Bulk Modulus (GPa) = 32.79304 79.47279 56.13292
# Shear Modulus (GPa) = 31.01903 55.58105 43.30004
#
# Velocity S-wave (km/s) = 3.20249 4.28684 3.78371
# Velocity P-wave (km/s) = 4.95147 7.12594 6.13580
#
# Compressibility (1/GPa) = 0.03049427
#
# Stress axis : x y z
#
# Youngs Moduli (GPa) = 51.09819 34.38608 126.14141
#
# Poissons Ratio (x) = 0.13478 0.15811
# Poissons Ratio (y) = 0.20029 0.99266
# Poissons Ratio (z) = 0.06405 0.27060
#
# Static dielectric constant tensor:
#      x y z
#    x 2.702410 0.000000 0.177380 
#    y 0.000000 2.837920 0.000000 
#    z 0.177380 0.000000 2.432320 
# 
# From -- ./inp_files/103006.got.cif
#   From: 2010.05.17/outbox.cif.g08.bks.cpg/sg15_52_cif.got.tgz:103006.got - 2010.06.03 18:47:42.
