data_PCOD9255961
_publ_section_title
;
Structure prediction by ZEFSAII (Michael W. Deem and Ramdas Pophale) SiO2 
 PCOD9255961
Probable space group: C 2/C
;
_chemical_formula_sum "Si O2"
_cell_formula_units_Z 52
_cell_length_a 17.110695
_cell_length_b 14.353181
_cell_length_c 13.336634
_cell_angle_alpha 90.000000
_cell_angle_beta 145.320502
_cell_angle_gamma 90.000000
_cell_volume 1863.644585
_symmetry_space_group_name_H-M "C 2/C"
_symmetry_group_IT_number 15
_symmetry_cell_setting 'monoclinic'
loop_
_space_group_symop_operation_xyz
x,y,z
-x,y,1/2-z
-x,-y,-z
x,-y,1/2+z
1/2+x,1/2+y,z
1/2-x,1/2+y,1/2-z
1/2-x,1/2-y,-z
1/2+x,1/2-y,1/2+z
loop_
_atom_site_type_symbol
_atom_site_label
_atom_site_fract_x
_atom_site_fract_y
_atom_site_fract_z
Si Si1 0.475638 0.930044 0.880352
Si Si2 0.230273 0.907430 0.365391
Si Si3 0.668814 0.653813 0.518483
Si Si4 0.000000 0.997105 0.250000
Si Si5 0.216788 0.064852 0.199077
Si Si6 0.375347 0.851160 0.055126
Si Si7 0.137691 0.737302 0.605161
O O1 0.609439 0.940465 0.949167
O O2 0.503281 0.823237 0.941401
O O3 0.312689 0.945213 0.701206
O O4 0.500000 0.000000 0.000000
O O5 0.255526 0.799296 0.367747
O O6 0.184009 0.966461 0.216692
O O7 0.118001 0.934729 0.326330
O O8 0.568347 0.564674 0.406266
O O9 0.576930 0.746596 0.422213
O O10 0.747321 0.647637 0.495364
O O11 0.790666 0.687018 0.722839
O O12 0.313278 0.109317 0.388230
O O13 0.115169 0.152363 0.078954
O O14 0.500000 0.893472 0.250000
#
# Coordination Sequence:
#
# PCOD9255961 Si02
#       7
#     8   8   8   4   8   8   8
#     4   8  17  35  54  77 112 146 188 237 277 337
#     4   9  21  36  54  83 112 153 190 231 288 338
#     4  10  20  30  48  80 115 150 179 225 289 350
#     4  12  20  36  54  74 124 152 180 240 292 342
#     4  10  17  33  60  81 115 148 186 240 280 339
#     4  10  18  29  49  84 116 142 180 224 290 358
#     4   9  20  34  54  87 109 151 198 225 293 338
#
# _framework density 27.902317
#
# number of rings (size 3 to 8) (size 9 to 14) (size 15 to 20)
#    0.923    1.538    2.308    0.923    0.000    3.077 
#    0.000    0.000    0.000    0.923    0.000    0.000 
#    0.000    0.000    0.000    0.000    0.000    0.000 
#
# Total GULP energy -144918.866649 kJ/mol
# GULP energy per Si atom -5573.802563 kJ/mol
# Density = 2.783881 g / cm^3
# Si number density = 27.902317 Si / 1000 Ang^3
#
#
#
# Elastic Constant Matrix: (Units=GPa)
#
#
# Indices 1 2 3 4 5 6 
#
# 1 133.7116 -5.7365 15.1077 0.0000 21.3465 0.0000
# 2 -5.7365 84.2029 -5.1888 0.0000 17.0816 0.0000
# 3 15.1077 -5.1888 106.0493 0.0000 1.3140 0.0000
# 4 0.0000 0.0000 0.0000 27.9590 0.0000 23.2736
# 5 21.3465 17.0816 1.3140 0.0000 22.6749 0.0000
# 6 0.0000 0.0000 0.0000 23.2736 0.0000 31.9263
#
#
#
# Elastic Compliance Matrix: (Units=1/GPa)
#
#
# Indices 1 2 3 4 5 6 
#
# 1 0.009471 0.002804 -0.001076 0.000000 -0.010966 0.000000
# 2 0.002804 0.014919 0.000503 0.000000 -0.013908 0.000000
# 3 -0.001076 0.000503 0.009607 0.000000 0.000078 0.000000
# 4 0.000000 0.000000 0.000000 0.090967 0.000000 -0.066313
# 5 -0.010966 -0.013908 0.000078 0.000000 0.064898 0.000000
# 6 0.000000 0.000000 0.000000 -0.066313 0.000000 0.079663
#
#
# Mechanical properties :
#
#
# Convention : Reuss Voigt Hill
#
# Bulk Modulus (GPa) = 26.00259 36.92540 31.46400
# Shear Modulus (GPa) = 17.99317 37.83080 27.91199
#
# Velocity S-wave (km/s) = 2.54217 3.68615 3.16626
# Velocity P-wave (km/s) = 4.23748 5.60174 4.96668
#
# Compressibility (1/GPa) = 0.03845770
#
# Stress axis : x y z
#
# Youngs Moduli (GPa) = 105.58162 67.02683 104.09572
#
# Poissons Ratio (x) = -0.18791 0.11203
# Poissons Ratio (y) = -0.29600 -0.05235
# Poissons Ratio (z) = 0.11363 -0.03371
#
# Static dielectric constant tensor:
#      x y z
#    x 2.263520 0.000000 -0.006300 
#    y 0.000000 2.347890 0.000000 
#    z -0.006300 0.000000 2.285490 
# 
# From -- ./inp_files/215345.got.cif
#   From: 2010.05.17/outbox.cif.g08.bks.cpg/sg15_108_cif.got.tgz:215345.got - 2010.06.03 18:47:42.
