data_PCOD9255332
_publ_section_title
;
Structure prediction by ZEFSAII (Michael W. Deem and Ramdas Pophale) SiO2 
 PCOD9255332
Probable space group: C 2/C
;
_chemical_formula_sum "Si O2"
_cell_formula_units_Z 56
_cell_length_a 10.980975
_cell_length_b 25.539748
_cell_length_c 14.182603
_cell_angle_alpha 90.000000
_cell_angle_beta 39.912475
_cell_angle_gamma 90.000000
_cell_volume 2552.049437
_symmetry_space_group_name_H-M "C 2/C"
_symmetry_group_IT_number 15
_symmetry_cell_setting 'monoclinic'
loop_
_space_group_symop_operation_xyz
x,y,z
-x,y,1/2-z
-x,-y,-z
x,-y,1/2+z
1/2+x,1/2+y,z
1/2-x,1/2+y,1/2-z
1/2-x,1/2-y,-z
1/2+x,1/2-y,1/2+z
loop_
_atom_site_type_symbol
_atom_site_label
_atom_site_fract_x
_atom_site_fract_y
_atom_site_fract_z
Si Si1 0.539658 0.213519 0.525670
Si Si2 0.002208 0.395491 0.966148
Si Si3 0.500000 0.204235 0.250000
Si Si4 0.000000 0.326320 0.250000
Si Si5 0.197979 0.461165 0.693203
Si Si6 0.651442 0.925739 0.239899
Si Si7 0.892590 0.786946 0.172922
Si Si8 0.189485 0.127385 0.494564
O O1 0.597106 0.160017 0.437752
O O2 0.574248 0.205559 0.616282
O O3 0.310822 0.215076 0.657478
O O4 0.618290 0.264053 0.426131
O O5 0.933654 0.420350 0.105146
O O6 0.818425 0.384393 0.009310
O O7 0.141327 0.433135 0.825028
O O8 0.514894 0.242201 0.152617
O O9 0.319066 0.166538 0.354956
O O10 0.166367 0.365133 0.194532
O O11 0.268830 0.520321 0.667592
O O12 0.337885 0.424728 0.549820
O O13 0.000000 0.456852 0.750000
O O14 0.500000 0.941131 0.250000
O O15 0.996949 0.841673 0.126794
#
# Coordination Sequence:
#
# PCOD9255332 Si02
#       8
#     8   8   4   4   8   8   8   8
#     4  11  22  37  55  79 108 146 182 220 267 318
#     4  10  17  30  50  77 108 132 173 219 265 315
#     4  12  18  33  48  78 110 146 175 212 266 330
#     4   8  20  37  56  78 104 140 187 228 260 316
#     4   9  16  28  51  80 107 131 177 224 271 312
#     4   8  16  30  51  78 102 135 178 231 260 306
#     4  12  23  34  54  77 113 147 177 218 273 323
#     4  11  19  31  50  81 112 137 174 223 268 326
#
# _framework density 21.943148999999998
#
# number of rings (size 3 to 8) (size 9 to 14) (size 15 to 20)
#    0.429    1.429    5.000    1.714    0.000    0.571 
#    0.000    0.000    0.000    3.429    3.714    0.000 
#    0.000    0.000    0.000    0.000    0.000    0.000 
#
# Total GULP energy -156028.124228 kJ/mol
# GULP energy per Si atom -5572.433008 kJ/mol
# Density = 2.189321 g / cm^3
# Si number density = 21.943149 Si / 1000 Ang^3
#
#
#
# Elastic Constant Matrix: (Units=GPa)
#
#
# Indices 1 2 3 4 5 6 
#
# 1 84.0921 28.7584 31.6301 0.0000 31.0618 0.0000
# 2 28.7584 120.2527 38.8149 0.0000 17.5857 0.0000
# 3 31.6301 38.8149 65.8588 0.0000 19.8847 0.0000
# 4 0.0000 0.0000 0.0000 52.8606 0.0000 14.4781
# 5 31.0618 17.5857 19.8847 0.0000 45.9378 0.0000
# 6 0.0000 0.0000 0.0000 14.4781 0.0000 21.8550
#
#
#
# Elastic Compliance Matrix: (Units=1/GPa)
#
#
# Indices 1 2 3 4 5 6 
#
# 1 0.017602 -0.001269 -0.004899 0.000000 -0.009296 0.000000
# 2 -0.001269 0.010453 -0.005294 0.000000 -0.000852 0.000000
# 3 -0.004899 -0.005294 0.021908 0.000000 -0.004144 0.000000
# 4 0.000000 0.000000 0.000000 0.023111 0.000000 -0.015310
# 5 -0.009296 -0.000852 -0.004144 0.000000 0.030174 0.000000
# 6 0.000000 0.000000 0.000000 -0.015310 0.000000 0.055899
#
#
# Mechanical properties :
#
#
# Convention : Reuss Voigt Hill
#
# Bulk Modulus (GPa) = 36.98374 52.06782 44.52578
# Shear Modulus (GPa) = 26.16664 35.53069 30.84866
#
# Velocity S-wave (km/s) = 3.45697 4.02831 3.75353
# Velocity P-wave (km/s) = 5.72932 6.73917 6.25466
#
# Compressibility (1/GPa) = 0.02703891
#
# Stress axis : x y z
#
# Youngs Moduli (GPa) = 56.81152 95.67043 45.64503
#
# Poissons Ratio (x) = 0.12138 0.22364
# Poissons Ratio (y) = 0.07208 0.24164
# Poissons Ratio (z) = 0.27834 0.50646
#
# Static dielectric constant tensor:
#      x y z
#    x 1.858360 0.000000 0.006810 
#    y 0.000000 1.893430 0.000000 
#    z 0.006810 0.000000 1.772560 
# 
# From -- ./inp_files/148541.got.cif
#   From: 2010.05.17/outbox.cif.g08.bks.cpg/sg15_75_cif.got.tgz:148541.got - 2010.06.03 18:47:42.
