data_PCOD9255742
_publ_section_title
;
Structure prediction by ZEFSAII (Michael W. Deem and Ramdas Pophale) SiO2 
 PCOD9255742
Probable space group: C 2/C
;
_chemical_formula_sum "Si O2"
_cell_formula_units_Z 40
_cell_length_a 9.811161
_cell_length_b 11.800650
_cell_length_c 16.869137
_cell_angle_alpha 90.000000
_cell_angle_beta 113.960402
_cell_angle_gamma 90.000000
_cell_volume 1784.772518
_symmetry_space_group_name_H-M "C 2/C"
_symmetry_group_IT_number 15
_symmetry_cell_setting 'monoclinic'
loop_
_space_group_symop_operation_xyz
x,y,z
-x,y,1/2-z
-x,-y,-z
x,-y,1/2+z
1/2+x,1/2+y,z
1/2-x,1/2+y,1/2-z
1/2-x,1/2-y,-z
1/2+x,1/2-y,1/2+z
loop_
_atom_site_type_symbol
_atom_site_label
_atom_site_fract_x
_atom_site_fract_y
_atom_site_fract_z
Si Si1 0.617266 0.742268 0.584893
Si Si2 0.828740 0.315478 0.724245
Si Si3 0.460379 0.439483 0.827657
Si Si4 0.235246 0.084620 0.492760
Si Si5 0.153773 0.145807 0.910971
O O1 0.673887 0.773582 0.685731
O O2 0.649377 0.844397 0.531740
O O3 0.711346 0.634781 0.573960
O O4 0.439437 0.721059 0.549501
O O5 0.708031 0.414623 0.690918
O O6 0.000000 0.350041 0.750000
O O7 0.789423 0.219930 0.648954
O O8 0.500000 0.395029 0.750000
O O9 0.572723 0.384542 0.916820
O O10 0.517742 0.568411 0.843351
O O11 0.249841 0.950628 0.478546
#
# Coordination Sequence:
#
# PCOD9255742 Si02
#       5
#     8   8   8   8   8
#     4  10  17  32  56  80 103 144 174 217 268 312
#     4  10  19  33  59  81 106 140 182 220 263 314
#     4  10  18  35  56  79 105 142 178 215 263 320
#     4   9  20  32  56  78 107 140 178 214 267 316
#     4   9  20  34  56  75 108 141 178 216 266 315
#
# _framework density 22.411819999999999
#
# number of rings (size 3 to 8) (size 9 to 14) (size 15 to 20)
#    1.200    1.200    2.000    2.400    0.000    0.000 
#    0.000    4.000   22.000    2.400    0.000    0.000 
#    0.000    0.000    0.000    0.000    0.000    0.000 
#
# Total GULP energy -111447.553827 kJ/mol
# GULP energy per Si atom -5572.377691 kJ/mol
# Density = 2.236081 g / cm^3
# Si number density = 22.411820 Si / 1000 Ang^3
#
#
#
# Elastic Constant Matrix: (Units=GPa)
#
#
# Indices 1 2 3 4 5 6 
#
# 1 49.1031 22.2465 27.3683 0.0000 -11.5705 0.0000
# 2 22.2465 72.0313 20.1540 0.0000 -6.4700 0.0000
# 3 27.3683 20.1540 97.5666 0.0000 -29.6905 0.0000
# 4 0.0000 0.0000 0.0000 13.0384 0.0000 -9.0459
# 5 -11.5705 -6.4700 -29.6905 0.0000 30.1591 0.0000
# 6 0.0000 0.0000 0.0000 -9.0459 0.0000 35.4763
#
#
#
# Elastic Compliance Matrix: (Units=1/GPa)
#
#
# Indices 1 2 3 4 5 6 
#
# 1 0.027103 -0.006606 -0.005004 0.000000 0.004054 0.000000
# 2 -0.006606 0.016346 -0.001753 0.000000 -0.000753 0.000000
# 3 -0.005004 -0.001753 0.016157 0.000000 0.013610 0.000000
# 4 0.000000 0.000000 0.000000 0.093181 0.000000 0.023760
# 5 0.004054 -0.000753 0.013610 0.000000 0.047950 0.000000
# 6 0.000000 0.000000 0.000000 0.023760 0.000000 0.034246
#
#
# Mechanical properties :
#
#
# Convention : Reuss Voigt Hill
#
# Bulk Modulus (GPa) = 30.41420 39.80427 35.10924
# Shear Modulus (GPa) = 18.33730 25.66357 22.00044
#
# Velocity S-wave (km/s) = 2.86352 3.38759 3.13652
# Velocity P-wave (km/s) = 4.95309 5.75326 5.36810
#
# Compressibility (1/GPa) = 0.03287938
#
# Stress axis : x y z
#
# Youngs Moduli (GPa) = 36.89656 61.17747 61.89353
#
# Poissons Ratio (x) = 0.40415 0.30973
# Poissons Ratio (y) = 0.24375 0.10847
# Poissons Ratio (z) = 0.18464 0.10722
#
# Static dielectric constant tensor:
#      x y z
#    x 1.882110 0.000000 0.023900 
#    y 0.000000 1.918340 0.000000 
#    z 0.023900 0.000000 1.872200 
# 
# From -- ./inp_files/188406.got.cif
#   From: 2010.05.17/outbox.cif.g08.bks.cpg/sg15_95_cif.got.tgz:188406.got - 2010.06.03 18:47:42.
