data_PCOD9255573
_publ_section_title
;
Structure prediction by ZEFSAII (Michael W. Deem and Ramdas Pophale) SiO2 
 PCOD9255573
Probable space group: C 2/C
;
_chemical_formula_sum "Si O2"
_cell_formula_units_Z 52
_cell_length_a 10.292740
_cell_length_b 16.670192
_cell_length_c 14.724819
_cell_angle_alpha 90.000000
_cell_angle_beta 100.936609
_cell_angle_gamma 90.000000
_cell_volume 2480.625872
_symmetry_space_group_name_H-M "C 2/C"
_symmetry_group_IT_number 15
_symmetry_cell_setting 'monoclinic'
loop_
_space_group_symop_operation_xyz
x,y,z
-x,y,1/2-z
-x,-y,-z
x,-y,1/2+z
1/2+x,1/2+y,z
1/2-x,1/2+y,1/2-z
1/2-x,1/2-y,-z
1/2+x,1/2-y,1/2+z
loop_
_atom_site_type_symbol
_atom_site_label
_atom_site_fract_x
_atom_site_fract_y
_atom_site_fract_z
Si Si1 0.464512 0.677673 0.543360
Si Si2 0.000000 0.131747 0.750000
Si Si3 0.091079 0.339290 0.903092
Si Si4 0.694510 0.853901 0.724506
Si Si5 0.769765 0.974006 0.992638
Si Si6 0.646911 0.493942 0.690847
Si Si7 0.389203 0.615380 0.107689
O O1 0.504178 0.677690 0.655552
O O2 0.401521 0.765649 0.525998
O O3 0.371820 0.599169 0.524869
O O4 0.568348 0.664531 0.475914
O O5 0.881441 0.068480 0.748578
O O6 0.178936 0.318331 0.824288
O O7 0.138886 0.423104 0.953211
O O8 0.942136 0.347770 0.846596
O O9 0.731431 0.944566 0.755167
O O10 0.816968 0.831438 0.674981
O O11 0.818411 0.017196 0.906698
O O12 0.786124 0.044663 0.066703
O O13 0.520209 0.433466 0.659652
#
# Coordination Sequence:
#
# PCOD9255573 Si02
#       7
#     8   4   8   8   8   8   8
#     4  11  21  34  56  85 111 146 190 239 286 335
#     4  12  16  30  56  84 112 130 190 248 278 314
#     4  10  23  37  51  79 121 160 176 215 302 363
#     4  10  20  36  53  77 114 152 186 223 285 350
#     4  10  19  36  56  85 115 141 190 242 282 331
#     4  10  17  31  56  86 109 138 189 248 279 312
#     4  11  19  34  60  88 104 142 198 249 271 319
#
# _framework density 20.962451000000001
#
# number of rings (size 3 to 8) (size 9 to 14) (size 15 to 20)
#    0.000    1.538    4.615    2.308    0.000    1.231 
#    0.000    0.000    0.000    0.000    4.000    0.000 
#    0.000    0.000    0.000    0.000    0.000    0.000 
#
# Total GULP energy -144744.075891 kJ/mol
# GULP energy per Si atom -5567.079842 kJ/mol
# Density = 2.091474 g / cm^3
# Si number density = 20.962451 Si / 1000 Ang^3
#
#
#
# Elastic Constant Matrix: (Units=GPa)
#
#
# Indices 1 2 3 4 5 6 
#
# 1 50.0752 33.7851 16.9577 0.0000 -6.0163 0.0000
# 2 33.7851 70.6588 20.4729 0.0000 -9.1649 0.0000
# 3 16.9577 20.4729 81.2733 0.0000 -16.9682 0.0000
# 4 0.0000 0.0000 0.0000 22.4502 0.0000 -21.9693
# 5 -6.0163 -9.1649 -16.9682 0.0000 33.9223 0.0000
# 6 0.0000 0.0000 0.0000 -21.9693 0.0000 -43.0731
#
#
#
# Elastic Compliance Matrix: (Units=1/GPa)
#
#
# Indices 1 2 3 4 5 6 
#
# 1 0.030087 -0.013536 -0.002811 0.000000 0.000273 0.000000
# 2 -0.013536 0.021543 -0.002109 0.000000 0.002365 0.000000
# 3 -0.002811 -0.002109 0.014738 0.000000 0.006304 0.000000
# 4 0.000000 0.000000 0.000000 0.029713 0.000000 -0.015155
# 5 0.000273 0.002365 0.006304 0.000000 0.033320 0.000000
# 6 0.000000 0.000000 0.000000 -0.015155 0.000000 -0.015487
#
#
# Mechanical properties :
#
#
# Convention : Reuss Voigt Hill
#
# Bulk Modulus (GPa) = 33.94859 38.27099 36.10979
# Shear Modulus (GPa) = 31.12470 11.37929 21.25200
#
# Velocity S-wave (km/s) = 3.85747 2.33242 3.18750
# Velocity P-wave (km/s) = 6.00585 5.05472 5.55069
#
# Compressibility (1/GPa) = 0.02945631
#
# Stress axis : x y z
#
# Youngs Moduli (GPa) = 33.23645 46.41985 67.85207
#
# Poissons Ratio (x) = 0.62835 0.19073
# Poissons Ratio (y) = 0.44990 0.14307
# Poissons Ratio (z) = 0.09343 0.09788
#
# Static dielectric constant tensor:
#      x y z
#    x 1.800890 0.000000 -0.004880 
#    y 0.000000 1.770830 0.000000 
#    z -0.004880 0.000000 1.849950 
# 
# From -- ./inp_files/145139.got.cif
#   From: 2010.05.17/outbox.cif.g08.bks.cpg/sg15_73_cif.got.tgz:145139.got - 2010.06.03 18:47:42.
