data_PCOD9255457
_publ_section_title
;
Structure prediction by ZEFSAII (Michael W. Deem and Ramdas Pophale) SiO2 
 PCOD9255457
Probable space group: C 2/C
;
_chemical_formula_sum "Si O2"
_cell_formula_units_Z 44
_cell_length_a 28.212877
_cell_length_b 19.076489
_cell_length_c 5.200722
_cell_angle_alpha 90.000000
_cell_angle_beta 105.541990
_cell_angle_gamma 90.000000
_cell_volume 2696.693484
_symmetry_space_group_name_H-M "C 2/C"
_symmetry_group_IT_number 15
_symmetry_cell_setting 'monoclinic'
loop_
_space_group_symop_operation_xyz
x,y,z
-x,y,1/2-z
-x,-y,-z
x,-y,1/2+z
1/2+x,1/2+y,z
1/2-x,1/2+y,1/2-z
1/2-x,1/2-y,-z
1/2+x,1/2-y,1/2+z
loop_
_atom_site_type_symbol
_atom_site_label
_atom_site_fract_x
_atom_site_fract_y
_atom_site_fract_z
Si Si1 0.297903 0.702273 0.066382
Si Si2 0.799898 0.040014 0.069698
Si Si3 0.361424 0.696118 0.644333
Si Si4 0.597165 0.576760 0.111369
Si Si5 0.000000 0.068999 0.750000
Si Si6 0.547484 0.682216 0.436622
O O1 0.285234 0.620383 0.094595
O O2 0.164707 0.775486 0.650048
O O3 0.250000 0.750000 0.000000
O O4 0.324353 0.702540 0.827965
O O5 0.859973 0.040067 0.167462
O O6 0.783209 0.990128 0.275028
O O7 0.375335 0.615635 0.586381
O O8 0.413869 0.723278 0.828694
O O9 0.577527 0.641950 0.256598
O O10 0.547988 0.535158 0.954107
O O11 0.023588 0.120749 0.573747
O O12 0.500000 0.720917 0.250000
#
# Coordination Sequence:
#
# PCOD9255457 Si02
#       6
#     8   8   8   8   4   8
#     4  11  22  36  53  71  94 123 163 208 251 297
#     4  11  22  34  51  69  92 122 160 207 253 286
#     4  10  17  31  49  70  91 120 162 204 242 291
#     4   9  17  30  46  62  94 121 165 202 249 270
#     4   8  16  24  46  62  86 126 164 204 234 284
#     4   9  15  27  46  68  91 125 161 204 243 283
#
# _framework density 16.316278000000001
#
# number of rings (size 3 to 8) (size 9 to 14) (size 15 to 20)
#    0.000    2.182    3.636    2.727    2.545    0.000 
#    0.000    0.909    0.000    0.000    0.000    0.000 
#    0.000    0.000    0.000    0.000    0.000   18.182 
#
# Total GULP energy -122628.037127 kJ/mol
# GULP energy per Si atom -5574.001688 kJ/mol
# Density = 1.627914 g / cm^3
# Si number density = 16.316278 Si / 1000 Ang^3
#
#
#
# Elastic Constant Matrix: (Units=GPa)
#
#
# Indices 1 2 3 4 5 6 
#
# 1 82.9794 35.2492 43.5563 0.0000 5.3862 0.0000
# 2 35.2492 37.6207 14.0560 0.0000 5.6380 0.0000
# 3 43.5563 14.0560 105.9390 0.0000 -3.9517 0.0000
# 4 0.0000 0.0000 0.0000 14.2033 0.0000 4.1822
# 5 5.3862 5.6380 -3.9517 0.0000 32.2803 0.0000
# 6 0.0000 0.0000 0.0000 4.1822 0.0000 16.2841
#
#
#
# Elastic Compliance Matrix: (Units=1/GPa)
#
#
# Indices 1 2 3 4 5 6 
#
# 1 0.024593 -0.020006 -0.007514 0.000000 -0.001529 0.000000
# 2 -0.020006 0.045198 0.002068 0.000000 -0.004303 0.000000
# 3 -0.007514 0.002068 0.012344 0.000000 0.002404 0.000000
# 4 0.000000 0.000000 0.000000 0.076166 0.000000 -0.019561
# 5 -0.001529 -0.004303 0.002404 0.000000 0.032280 0.000000
# 6 0.000000 0.000000 0.000000 -0.019561 0.000000 0.066433
#
#
# Mechanical properties :
#
#
# Convention : Reuss Voigt Hill
#
# Bulk Modulus (GPa) = 32.01931 45.80690 38.91311
# Shear Modulus (GPa) = 15.70700 21.46537 18.58618
#
# Velocity S-wave (km/s) = 3.10604 3.63103 3.37875
# Velocity P-wave (km/s) = 5.70351 6.76125 6.25478
#
# Compressibility (1/GPa) = 0.03123115
#
# Stress axis : x y z
#
# Youngs Moduli (GPa) = 40.66175 22.12467 81.01113
#
# Poissons Ratio (x) = 0.44263 0.60871
# Poissons Ratio (y) = 0.81349 -0.16754
# Poissons Ratio (z) = 0.30553 -0.04576
#
# Static dielectric constant tensor:
#      x y z
#    x 1.597470 0.000000 0.021750 
#    y 0.000000 1.508980 0.000000 
#    z 0.021750 0.000000 1.678330 
# 
# From -- ./inp_files/15328.got.cif
#   From: 2010.05.17/outbox.cif.g08.bks.cpg/sg15_8_cif.got.tgz:15328.got - 2010.06.03 18:47:42.
