data_PCOD9255916
_publ_section_title
;
Structure prediction by ZEFSAII (Michael W. Deem and Ramdas Pophale) SiO2 
 PCOD9255916
Probable space group: C 2/C
;
_chemical_formula_sum "Si O2"
_cell_formula_units_Z 64
_cell_length_a 30.479401
_cell_length_b 20.271335
_cell_length_c 12.149228
_cell_angle_alpha 90.000000
_cell_angle_beta 28.748692
_cell_angle_gamma 90.000000
_cell_volume 3610.391719
_symmetry_space_group_name_H-M "C 2/C"
_symmetry_group_IT_number 15
_symmetry_cell_setting 'monoclinic'
loop_
_space_group_symop_operation_xyz
x,y,z
-x,y,1/2-z
-x,-y,-z
x,-y,1/2+z
1/2+x,1/2+y,z
1/2-x,1/2+y,1/2-z
1/2-x,1/2-y,-z
1/2+x,1/2-y,1/2+z
loop_
_atom_site_type_symbol
_atom_site_label
_atom_site_fract_x
_atom_site_fract_y
_atom_site_fract_z
Si Si1 0.857241 0.697689 0.560869
Si Si2 0.922475 0.286079 0.327361
Si Si3 0.329884 0.358767 0.997911
Si Si4 0.573744 0.637421 0.786801
Si Si5 0.885566 0.917469 0.645102
Si Si6 0.010232 0.711751 0.408019
Si Si7 0.408521 0.435499 0.022594
Si Si8 0.227021 0.159439 0.289045
O O1 0.777525 0.652095 0.780065
O O2 0.927992 0.714041 0.501647
O O3 0.808545 0.765685 0.636553
O O4 0.910941 0.674142 0.333621
O O5 0.881649 0.212403 0.391433
O O6 0.836275 0.332431 0.549468
O O7 0.000000 0.280852 0.250000
O O8 0.970998 0.312236 0.109786
O O9 0.343809 0.396798 0.081302
O O10 0.366044 0.399853 0.814956
O O11 0.547873 0.714525 0.845879
O O12 0.574443 0.608332 0.907186
O O13 0.671945 0.628153 0.512816
O O14 0.491999 0.603225 0.897979
O O15 0.816151 0.875860 0.722649
O O16 0.875615 0.993596 0.636250
O O17 0.500000 0.444508 0.750000
#
# Coordination Sequence:
#
# PCOD9255916 Si02
#       8
#     8   8   8   8   8   8   8   8
#     4   9  19  33  56  83 109 142 183 234 271 329
#     4  11  21  36  56  81 117 146 179 226 285 328
#     4  11  22  37  53  81 115 149 185 223 277 326
#     4  11  20  35  55  81 118 147 179 220 269 327
#     4  12  22  35  59  78 115 152 186 222 263 330
#     4  10  17  33  57  82 109 143 181 222 285 322
#     4  12  24  36  52  80 116 157 183 215 266 330
#     4  10  21  34  55  85 110 145 187 225 269 327
#
# _framework density 17.726609
#
# number of rings (size 3 to 8) (size 9 to 14) (size 15 to 20)
#    0.000    1.250    3.750    3.375    1.750    3.000 
#    0.000    3.750    0.000    0.000    3.250    5.250 
#    0.000    0.000    0.000    0.000    0.000    0.000 
#
# Total GULP energy -178481.725319 kJ/mol
# GULP energy per Si atom -5577.553916 kJ/mol
# Density = 1.768626 g / cm^3
# Si number density = 17.726609 Si / 1000 Ang^3
#
#
#
# Elastic Constant Matrix: (Units=GPa)
#
#
# Indices 1 2 3 4 5 6 
#
# 1 86.6315 14.2869 62.7253 0.0000 16.6504 0.0000
# 2 14.2869 30.5171 11.3042 0.0000 10.8565 0.0000
# 3 62.7253 11.3042 106.5079 0.0000 19.0977 0.0000
# 4 0.0000 0.0000 0.0000 18.5001 0.0000 2.8870
# 5 16.6504 10.8565 19.0977 0.0000 24.8683 0.0000
# 6 0.0000 0.0000 0.0000 2.8870 0.0000 22.1264
#
#
#
# Elastic Compliance Matrix: (Units=1/GPa)
#
#
# Indices 1 2 3 4 5 6 
#
# 1 0.021190 -0.004459 -0.011378 0.000000 -0.003503 0.000000
# 2 -0.004459 0.039877 0.001137 0.000000 -0.015296 0.000000
# 3 -0.011378 0.001137 0.017038 0.000000 -0.005963 0.000000
# 4 0.000000 0.000000 0.000000 0.055177 0.000000 -0.007200
# 5 -0.003503 -0.015296 -0.005963 0.000000 0.053814 0.000000
# 6 0.000000 0.000000 0.000000 -0.007200 0.000000 0.046134
#
#
# Mechanical properties :
#
#
# Convention : Reuss Voigt Hill
#
# Bulk Modulus (GPa) = 20.53246 44.47659 32.50453
# Shear Modulus (GPa) = 17.92974 22.12164 20.02569
#
# Velocity S-wave (km/s) = 3.18379 3.53644 3.36474
# Velocity P-wave (km/s) = 5.01232 6.46684 5.78547
#
# Compressibility (1/GPa) = 0.04870336
#
# Stress axis : x y z
#
# Youngs Moduli (GPa) = 47.19210 25.07731 58.69150
#
# Poissons Ratio (x) = 0.11183 0.66779
# Poissons Ratio (y) = 0.21045 -0.06671
# Poissons Ratio (z) = 0.53695 -0.02850
#
# Static dielectric constant tensor:
#      x y z
#    x 1.610560 0.000000 0.009720 
#    y 0.000000 1.585830 0.000000 
#    z 0.009720 0.000000 1.669260 
# 
# From -- ./inp_files/99785.got.cif
#   From: 2010.05.17/outbox.cif.g08.bks.cpg/sg15_50_cif.got.tgz:99785.got - 2010.06.03 18:47:42.
