data_PCOD9255587
_publ_section_title
;
Structure prediction by ZEFSAII (Michael W. Deem and Ramdas Pophale) SiO2 
 PCOD9255587
Probable space group: C 2/C
;
_chemical_formula_sum "Si O2"
_cell_formula_units_Z 56
_cell_length_a 11.546115
_cell_length_b 14.294635
_cell_length_c 15.882473
_cell_angle_alpha 90.000000
_cell_angle_beta 71.917964
_cell_angle_gamma 90.000000
_cell_volume 2491.901468
_symmetry_space_group_name_H-M "C 2/C"
_symmetry_group_IT_number 15
_symmetry_cell_setting 'monoclinic'
loop_
_space_group_symop_operation_xyz
x,y,z
-x,y,1/2-z
-x,-y,-z
x,-y,1/2+z
1/2+x,1/2+y,z
1/2-x,1/2+y,1/2-z
1/2-x,1/2-y,-z
1/2+x,1/2-y,1/2+z
loop_
_atom_site_type_symbol
_atom_site_label
_atom_site_fract_x
_atom_site_fract_y
_atom_site_fract_z
Si Si1 0.107882 0.506083 0.779615
Si Si2 0.711171 0.757057 0.867473
Si Si3 0.035731 0.367514 0.416685
Si Si4 0.724856 0.423157 0.894699
Si Si5 0.464137 0.830240 0.891027
Si Si6 0.231374 0.406512 0.012585
Si Si7 0.920799 0.809614 0.692969
O O1 0.139511 0.571773 0.849829
O O2 0.216502 0.484369 0.693695
O O3 0.000000 0.554580 0.750000
O O4 0.042307 0.414223 0.831064
O O5 0.570675 0.752419 0.866872
O O6 0.733588 0.668623 0.923110
O O7 0.800664 0.770503 0.768064
O O8 0.736038 0.848557 0.923293
O O9 0.062668 0.340695 0.504581
O O10 0.011378 0.277360 0.365244
O O11 0.912758 0.428012 0.446845
O O12 0.828842 0.342400 0.883826
O O13 0.708201 0.493727 0.977044
O O14 0.609277 0.376212 0.878195
O O15 0.000000 0.852606 0.750000
#
# Coordination Sequence:
#
# PCOD9255587 Si02
#       7
#     8   8   8   8   8   8   8
#     4  10  17  31  57  92 116 143 189 250 294 337
#     4  10  21  36  63  88 119 154 202 241 295 354
#     4  11  20  34  64  91 118 149 206 249 291 353
#     4  11  23  37  62  89 123 151 197 252 302 346
#     4  10  21  35  61  92 118 147 193 256 304 339
#     4  10  20  38  62  90 114 159 200 244 290 355
#     4  12  24  39  59  86 122 161 198 243 295 359
#
# _framework density 22.472798000000001
#
# number of rings (size 3 to 8) (size 9 to 14) (size 15 to 20)
#    0.000    1.429    5.714    1.714    2.000    0.571 
#    0.000    0.714    6.286    0.000    0.000    0.000 
#    0.000    0.000    0.000    0.000    0.000    0.000 
#
# Total GULP energy -156076.802723 kJ/mol
# GULP energy per Si atom -5574.171526 kJ/mol
# Density = 2.242165 g / cm^3
# Si number density = 22.472798 Si / 1000 Ang^3
#
#
#
# Elastic Constant Matrix: (Units=GPa)
#
#
# Indices 1 2 3 4 5 6 
#
# 1 67.5963 18.7988 -9.2288 0.0000 26.0125 0.0000
# 2 18.7988 33.3869 -2.8327 0.0000 12.2123 0.0000
# 3 -9.2288 -2.8327 66.5612 0.0000 8.3758 0.0000
# 4 0.0000 0.0000 0.0000 33.0395 0.0000 11.4987
# 5 26.0125 12.2123 8.3758 0.0000 20.1310 0.0000
# 6 0.0000 0.0000 0.0000 11.4987 0.0000 26.7997
#
#
#
# Elastic Compliance Matrix: (Units=1/GPa)
#
#
# Indices 1 2 3 4 5 6 
#
# 1 0.036233 -0.000729 0.011427 0.000000 -0.051131 0.000000
# 2 -0.000729 0.040038 0.004792 0.000000 -0.025340 0.000000
# 3 0.011427 0.004792 0.020088 0.000000 -0.026030 0.000000
# 4 0.000000 0.000000 0.000000 0.035580 0.000000 -0.015266
# 5 -0.051131 -0.025340 -0.026030 0.000000 0.141947 0.000000
# 6 0.000000 0.000000 0.000000 -0.015266 0.000000 0.043864
#
#
# Mechanical properties :
#
#
# Convention : Reuss Voigt Hill
#
# Bulk Modulus (GPa) = 7.85318 20.11322 13.98320
# Shear Modulus (GPa) = 15.18763 26.71450 20.95107
#
# Velocity S-wave (km/s) = 2.60248 3.45156 3.05665
# Velocity P-wave (km/s) = 3.54015 4.98536 4.32357
#
# Compressibility (1/GPa) = 0.12733695
#
# Stress axis : x y z
#
# Youngs Moduli (GPa) = 27.59933 24.97627 49.78218
#
# Poissons Ratio (x) = 0.01821 -0.56885
# Poissons Ratio (y) = 0.02012 -0.23854
# Poissons Ratio (z) = -0.31537 -0.11968
#
# Static dielectric constant tensor:
#      x y z
#    x 1.901420 0.000000 0.045400 
#    y 0.000000 1.912340 0.000000 
#    z 0.045400 0.000000 1.868880 
# 
# From -- ./inp_files/197788.got.cif
#   From: 2010.05.17/outbox.cif.g08.bks.cpg/sg15_99_cif.got.tgz:197788.got - 2010.06.03 18:47:42.
