data_PCOD9255347
_publ_section_title
;
Structure prediction by ZEFSAII (Michael W. Deem and Ramdas Pophale) SiO2 
 PCOD9255347
Probable space group: C 2/C
;
_chemical_formula_sum "Si O2"
_cell_formula_units_Z 40
_cell_length_a 17.065165
_cell_length_b 7.822343
_cell_length_c 14.890884
_cell_angle_alpha 90.000000
_cell_angle_beta 47.627654
_cell_angle_gamma 90.000000
_cell_volume 1468.531864
_symmetry_space_group_name_H-M "C 2/C"
_symmetry_group_IT_number 15
_symmetry_cell_setting 'monoclinic'
loop_
_space_group_symop_operation_xyz
x,y,z
-x,y,1/2-z
-x,-y,-z
x,-y,1/2+z
1/2+x,1/2+y,z
1/2-x,1/2+y,1/2-z
1/2-x,1/2-y,-z
1/2+x,1/2-y,1/2+z
loop_
_atom_site_type_symbol
_atom_site_label
_atom_site_fract_x
_atom_site_fract_y
_atom_site_fract_z
Si Si1 0.082917 0.894712 0.616826
Si Si2 0.686138 0.557520 0.865700
Si Si3 0.102143 0.583609 0.234369
Si Si4 0.767584 0.912124 0.379080
Si Si5 0.944415 0.759382 0.459131
O O1 0.118381 0.830088 0.490558
O O2 0.185718 0.938459 0.596422
O O3 0.000000 0.812477 0.750000
O O4 0.964387 0.083046 0.873656
O O5 0.804470 0.548434 0.816408
O O6 0.706325 0.578577 0.745932
O O7 0.616401 0.379438 0.921263
O O8 0.172322 0.737873 0.139742
O O9 0.000000 0.552243 0.250000
O O10 0.051950 0.652147 0.367305
O O11 0.644278 0.883590 0.487004
#
# Coordination Sequence:
#
# PCOD9255347 Si02
#       5
#     8   8   8   8   8
#     4  10  17  30  51  79 100 136 171 217 257 305
#     4   9  22  30  47  86 103 135 174 221 257 309
#     4  11  17  33  54  76 104 137 174 220 260 303
#     4  11  17  32  53  74 115 134 170 219 264 304
#     4   9  18  30  49  75 101 138 173 210 260 300
#
# _framework density 27.238087
#
# number of rings (size 3 to 8) (size 9 to 14) (size 15 to 20)
#    1.200    0.800    4.000    1.800    0.000    4.000 
#    0.000    0.000    0.000    4.800    0.000   14.000 
#    0.000    0.000    0.000    0.000    0.000    0.000 
#
# Total GULP energy -111370.344197 kJ/mol
# GULP energy per Si atom -5568.517210 kJ/mol
# Density = 2.717609 g / cm^3
# Si number density = 27.238087 Si / 1000 Ang^3
#
#
#
# Elastic Constant Matrix: (Units=GPa)
#
#
# Indices 1 2 3 4 5 6 
#
# 1 98.8891 6.8101 45.2928 0.0000 -12.5849 0.0000
# 2 6.8101 47.9306 16.9350 0.0000 -3.0946 0.0001
# 3 45.2928 16.9350 238.4207 0.0000 5.0797 0.0000
# 4 0.0000 0.0000 0.0000 15.0636 0.0000 -0.6716
# 5 -12.5849 -3.0946 5.0797 0.0000 66.4500 0.0000
# 6 0.0000 0.0001 0.0000 -0.6716 0.0000 7.9745
#
#
#
# Elastic Compliance Matrix: (Units=1/GPa)
#
#
# Indices 1 2 3 4 5 6 
#
# 1 0.011450 -0.000710 -0.002174 0.000000 0.002302 0.000000
# 2 -0.000710 0.021527 -0.001415 0.000000 0.000976 0.000000
# 3 -0.002174 -0.001415 0.004726 0.000000 -0.000839 0.000000
# 4 0.000000 0.000000 0.000000 0.066635 0.000000 0.005612
# 5 0.002302 0.000976 -0.000839 0.000000 0.015594 0.000000
# 6 0.000000 0.000000 0.000000 0.005612 0.000000 0.125873
#
#
# Mechanical properties :
#
#
# Convention : Reuss Voigt Hill
#
# Bulk Modulus (GPa) = 34.35837 58.14624 46.25231
# Shear Modulus (GPa) = 18.93189 38.97779 28.95484
#
# Velocity S-wave (km/s) = 2.63924 3.78696 3.26395
# Velocity P-wave (km/s) = 4.68284 6.36516 5.58767
#
# Compressibility (1/GPa) = 0.02910499
#
# Stress axis : x y z
#
# Youngs Moduli (GPa) = 87.33829 46.45244 211.61414
#
# Poissons Ratio (x) = 0.03299 0.45999
# Poissons Ratio (y) = 0.06203 0.29943
# Poissons Ratio (z) = 0.18985 0.06573
#
# Static dielectric constant tensor:
#      x y z
#    x 2.230430 0.000000 0.051310 
#    y 0.000000 2.159440 0.000000 
#    z 0.051310 0.000000 2.079930 
# 
# From -- ./inp_files/112243.got.cif
#   From: 2010.05.17/outbox.cif.g08.bks.cpg/sg15_57_cif.got.tgz:112243.got - 2010.06.03 18:47:42.
