data_PCOD9255361
_publ_section_title
;
Structure prediction by ZEFSAII (Michael W. Deem and Ramdas Pophale) SiO2 
 PCOD9255361
Probable space group: C 2/C
;
_chemical_formula_sum "Si O2"
_cell_formula_units_Z 52
_cell_length_a 14.802960
_cell_length_b 15.614989
_cell_length_c 14.170820
_cell_angle_alpha 90.000000
_cell_angle_beta 112.092298
_cell_angle_gamma 90.000000
_cell_volume 3035.063452
_symmetry_space_group_name_H-M "C 2/C"
_symmetry_group_IT_number 15
_symmetry_cell_setting 'monoclinic'
loop_
_space_group_symop_operation_xyz
x,y,z
-x,y,1/2-z
-x,-y,-z
x,-y,1/2+z
1/2+x,1/2+y,z
1/2-x,1/2+y,1/2-z
1/2-x,1/2-y,-z
1/2+x,1/2-y,1/2+z
loop_
_atom_site_type_symbol
_atom_site_label
_atom_site_fract_x
_atom_site_fract_y
_atom_site_fract_z
Si Si1 0.246216 0.217244 0.359036
Si Si2 0.459204 0.608328 0.431888
Si Si3 0.171698 0.042733 0.277498
Si Si4 0.920977 0.262709 0.065720
Si Si5 0.847436 0.989843 0.509258
Si Si6 0.000000 0.394547 0.250000
Si Si7 0.212259 0.415784 0.306950
O O1 0.232018 0.131958 0.292841
O O2 0.156071 0.210770 0.398479
O O3 0.350416 0.212629 0.451942
O O4 0.230891 0.312826 0.310813
O O5 0.424621 0.565605 0.320192
O O6 0.486090 0.706731 0.427346
O O7 0.379419 0.581683 0.478455
O O8 0.564550 0.568586 0.496526
O O9 0.156876 0.017053 0.380303
O O10 0.226011 0.965918 0.246293
O O11 0.960452 0.337414 0.147638
O O12 0.751641 0.951354 0.422811
O O13 0.098482 0.438761 0.253833
#
# Coordination Sequence:
#
# PCOD9255361 Si02
#       7
#     8   8   8   8   8   4   8
#     4  10  18  32  50  74 107 130 170 219 256 294
#     4  10  18  29  50  80 109 131 164 204 260 320
#     4  11  20  32  55  78 105 141 170 207 268 314
#     4  10  17  30  52  77 102 131 168 218 261 298
#     4  10  19  31  49  80 110 132 159 213 266 313
#     4  10  20  32  54  74  96 138 186 218 250 298
#     4  10  21  35  52  78 104 133 176 223 254 302
#
# _framework density 17.133084
#
# number of rings (size 3 to 8) (size 9 to 14) (size 15 to 20)
#    0.000    1.846    3.077    4.154    0.000    0.000 
#    0.000    3.077    0.000   10.154    0.000    0.000 
#    0.000    0.000    0.000    0.000    0.000    0.000 
#
# Total GULP energy -144743.654019 kJ/mol
# GULP energy per Si atom -5567.063616 kJ/mol
# Density = 1.709409 g / cm^3
# Si number density = 17.133084 Si / 1000 Ang^3
#
#
#
# Elastic Constant Matrix: (Units=GPa)
#
#
# Indices 1 2 3 4 5 6 
#
# 1 55.7757 25.2840 36.0906 0.0000 13.6903 0.0000
# 2 25.2840 69.0632 14.7741 0.0000 -5.1184 0.0000
# 3 36.0906 14.7741 76.3715 0.0000 5.7974 0.0000
# 4 0.0000 0.0000 0.0000 12.7608 0.0000 0.8712
# 5 13.6903 -5.1184 5.7974 0.0000 23.8154 0.0000
# 6 0.0000 0.0000 0.0000 0.8712 0.0000 25.6248
#
#
#
# Elastic Compliance Matrix: (Units=1/GPa)
#
#
# Indices 1 2 3 4 5 6 
#
# 1 0.037580 -0.012359 -0.013781 0.000000 -0.020904 0.000000
# 2 -0.012359 0.019559 0.001221 0.000000 0.011011 0.000000
# 3 -0.013781 0.001221 0.019102 0.000000 0.003535 0.000000
# 4 0.000000 0.000000 0.000000 0.078547 0.000000 -0.002670
# 5 -0.020904 0.011011 0.003535 0.000000 0.055512 0.000000
# 6 0.000000 0.000000 0.000000 -0.002670 0.000000 0.039115
#
#
# Mechanical properties :
#
#
# Convention : Reuss Voigt Hill
#
# Bulk Modulus (GPa) = 37.87595 39.27865 38.57730
# Shear Modulus (GPa) = 16.23082 20.77764 18.50423
#
# Velocity S-wave (km/s) = 3.08122 3.48619 3.28994
# Velocity P-wave (km/s) = 5.90030 6.25940 6.08250
#
# Compressibility (1/GPa) = 0.02640198
#
# Stress axis : x y z
#
# Youngs Moduli (GPa) = 26.60994 51.12722 52.35060
#
# Poissons Ratio (x) = 0.63189 0.72146
# Poissons Ratio (y) = 0.32888 -0.06392
# Poissons Ratio (z) = 0.36672 -0.06242
#
# Static dielectric constant tensor:
#      x y z
#    x 1.594640 0.000000 0.002970 
#    y 0.000000 1.637170 0.000000 
#    z 0.002970 0.000000 1.623560 
# 
# From -- ./inp_files/153359.got.cif
#   From: 2010.05.17/outbox.cif.g08.bks.cpg/sg15_77_cif.got.tgz:153359.got - 2010.06.03 18:47:42.
