data_PCOD9255445
_publ_section_title
;
Structure prediction by ZEFSAII (Michael W. Deem and Ramdas Pophale) SiO2 
 PCOD9255445
Probable space group: C 2/C
;
_chemical_formula_sum "Si O2"
_cell_formula_units_Z 52
_cell_length_a 15.951117
_cell_length_b 15.203119
_cell_length_c 20.862914
_cell_angle_alpha 90.000000
_cell_angle_beta 31.953227
_cell_angle_gamma 90.000000
_cell_volume 2677.568459
_symmetry_space_group_name_H-M "C 2/C"
_symmetry_group_IT_number 15
_symmetry_cell_setting 'monoclinic'
loop_
_space_group_symop_operation_xyz
x,y,z
-x,y,1/2-z
-x,-y,-z
x,-y,1/2+z
1/2+x,1/2+y,z
1/2-x,1/2+y,1/2-z
1/2-x,1/2-y,-z
1/2+x,1/2-y,1/2+z
loop_
_atom_site_type_symbol
_atom_site_label
_atom_site_fract_x
_atom_site_fract_y
_atom_site_fract_z
Si Si1 0.168560 0.797133 0.216959
Si Si2 0.231051 0.406186 0.460249
Si Si3 0.916821 0.097291 0.958672
Si Si4 0.000000 0.045002 0.250000
Si Si5 0.031140 0.093592 0.373283
Si Si6 0.504777 0.263086 0.983067
Si Si7 0.885865 0.361885 0.664553
O O1 0.202359 0.820910 0.121434
O O2 0.343945 0.795716 0.134162
O O3 0.100190 0.703695 0.283343
O O4 0.057568 0.870779 0.319703
O O5 0.260983 0.394979 0.516185
O O6 0.344102 0.484687 0.362882
O O7 0.047630 0.417099 0.560875
O O8 0.928905 0.163037 0.009999
O O9 0.948680 0.995408 0.951757
O O10 0.020690 0.095720 0.303228
O O11 0.953183 0.179154 0.456557
O O12 0.217017 0.091494 0.272474
O O13 0.391367 0.201964 0.098425
#
# Coordination Sequence:
#
# PCOD9255445 Si02
#       7
#     8   8   8   4   8   8   8
#     4   9  16  30  45  73 107 130 158 192 237 294
#     4  10  17  31  46  75 103 128 163 193 243 294
#     4  10  18  30  51  74 103 139 162 193 242 299
#     4  10  20  34  52  70  96 130 168 212 240 290
#     4  10  19  36  51  72  98 128 173 207 245 292
#     4   9  19  32  50  74 103 133 164 200 247 296
#     4   9  20  31  51  76 102 131 162 203 249 291
#
# _framework density 19.420605999999999
#
# number of rings (size 3 to 8) (size 9 to 14) (size 15 to 20)
#    0.000    2.462    3.077    0.462    0.000    7.385 
#    0.000    3.077    0.000    0.000    0.000    0.000 
#    0.000    0.000    0.000    0.000    0.000    0.000 
#
# Total GULP energy -144827.972891 kJ/mol
# GULP energy per Si atom -5570.306650 kJ/mol
# Density = 1.937640 g / cm^3
# Si number density = 19.420606 Si / 1000 Ang^3
#
#
#
# Elastic Constant Matrix: (Units=GPa)
#
#
# Indices 1 2 3 4 5 6 
#
# 1 78.1302 23.9137 11.9116 -0.0002 9.0954 0.0002
# 2 23.9137 38.7161 4.0850 -0.0001 -7.8513 0.0005
# 3 11.9116 4.0850 56.5308 0.0011 -7.9097 0.0010
# 4 -0.0002 -0.0001 0.0011 17.9628 0.0002 -0.6298
# 5 9.0954 -7.8513 -7.9097 0.0002 21.6006 -0.0004
# 6 0.0002 0.0005 0.0010 -0.6298 -0.0004 27.8923
#
#
#
# Elastic Compliance Matrix: (Units=1/GPa)
#
#
# Indices 1 2 3 4 5 6 
#
# 1 0.020075 -0.015056 -0.005365 0.000001 -0.015891 0.000000
# 2 -0.015056 0.039198 0.003394 0.000000 0.021830 0.000000
# 3 -0.005365 0.003394 0.020093 -0.000001 0.010851 -0.000001
# 4 0.000001 0.000000 -0.000001 0.055715 -0.000001 0.001258
# 5 -0.015891 0.021830 0.010851 -0.000001 0.064894 0.000000
# 6 0.000000 0.000000 -0.000001 0.001258 0.000000 0.035881
#
#
# Mechanical properties :
#
#
# Convention : Reuss Voigt Hill
#
# Bulk Modulus (GPa) = 22.06950 28.13310 25.10130
# Shear Modulus (GPa) = 17.54299 22.38890 19.96595
#
# Velocity S-wave (km/s) = 3.00879 3.39904 3.20985
# Velocity P-wave (km/s) = 4.84345 5.47012 5.16630
#
# Compressibility (1/GPa) = 0.04531141
#
# Stress axis : x y z
#
# Youngs Moduli (GPa) = 49.81226 25.51171 49.76877
#
# Poissons Ratio (x) = 0.38411 0.26703
# Poissons Ratio (y) = 0.74999 -0.16894
# Poissons Ratio (z) = 0.26727 -0.08660
#
# Static dielectric constant tensor:
#      x y z
#    x 1.719590 0.000000 0.030280 
#    y 0.000000 1.683790 0.000000 
#    z 0.030280 0.000000 1.709290 
# 
# From -- ./inp_files/277455.got.cif
#   From: 2010.05.17/outbox.cif.g08.bks.cpg/sg15_139_cif.got.tgz:277455.got - 2010.06.03 18:47:42.
