data_PCOD9255881
_publ_section_title
;
Structure prediction by ZEFSAII (Michael W. Deem and Ramdas Pophale) SiO2 
 PCOD9255881
Probable space group: C 2/C
;
_chemical_formula_sum "Si O2"
_cell_formula_units_Z 44
_cell_length_a 11.682724
_cell_length_b 21.555200
_cell_length_c 9.156797
_cell_angle_alpha 90.000000
_cell_angle_beta 77.456407
_cell_angle_gamma 90.000000
_cell_volume 2250.856907
_symmetry_space_group_name_H-M "C 2/C"
_symmetry_group_IT_number 15
_symmetry_cell_setting 'monoclinic'
loop_
_space_group_symop_operation_xyz
x,y,z
-x,y,1/2-z
-x,-y,-z
x,-y,1/2+z
1/2+x,1/2+y,z
1/2-x,1/2+y,1/2-z
1/2-x,1/2-y,-z
1/2+x,1/2-y,1/2+z
loop_
_atom_site_type_symbol
_atom_site_label
_atom_site_fract_x
_atom_site_fract_y
_atom_site_fract_z
Si Si1 0.425557 0.180995 0.148383
Si Si2 0.520543 0.696949 0.001714
Si Si3 0.327504 0.731025 0.277628
Si Si4 0.621722 0.427322 0.429023
Si Si5 0.000000 0.023851 0.250000
Si Si6 0.376714 0.128117 0.846764
O O1 0.500000 0.146384 0.250000
O O2 0.300984 0.209477 0.228144
O O3 0.500170 0.241980 0.085985
O O4 0.402005 0.142992 0.008908
O O5 0.415349 0.695854 0.145137
O O6 0.636807 0.710061 0.068378
O O7 0.547625 0.634465 0.910686
O O8 0.351668 0.805090 0.273274
O O9 0.580876 0.481975 0.333589
O O10 0.581829 0.440158 0.609135
O O11 0.759200 0.412606 0.371682
O O12 0.500000 0.103154 0.750000
#
# Coordination Sequence:
#
# PCOD9255881 Si02
#       6
#     8   8   8   8   4   8
#     4  11  21  32  50  93 134 156 194 229 277 381
#     4  10  18  32  61  84 121 159 187 232 304 350
#     4  10  17  33  54  87 123 161 192 221 280 384
#     4  11  22  43  66  87 117 156 202 261 304 338
#     4  10  26  44  64  94 106 144 224 272 292 336
#     4  11  20  39  61  85 124 167 190 231 304 368
#
# _framework density 19.548112
#
# number of rings (size 3 to 8) (size 9 to 14) (size 15 to 20)
#    0.000    1.455    7.273    2.182    1.273    0.727 
#    3.273    0.909    0.000    0.000    0.000    0.000 
#    0.000    0.000    0.000    0.000    0.000    0.000 
#
# Total GULP energy -122695.025709 kJ/mol
# GULP energy per Si atom -5577.046623 kJ/mol
# Density = 1.950362 g / cm^3
# Si number density = 19.548112 Si / 1000 Ang^3
#
#
#
# Elastic Constant Matrix: (Units=GPa)
#
#
# Indices 1 2 3 4 5 6 
#
# 1 123.8082 21.2518 61.4911 0.0000 -14.8425 0.0000
# 2 21.2518 41.5124 12.4240 0.0000 -8.4860 0.0000
# 3 61.4911 12.4240 67.0073 0.0000 -12.1710 0.0000
# 4 0.0000 0.0000 0.0000 9.4366 0.0000 -7.8988
# 5 -14.8425 -8.4860 -12.1710 0.0000 34.4135 0.0000
# 6 0.0000 0.0000 0.0000 -7.8988 0.0000 17.8453
#
#
#
# Elastic Compliance Matrix: (Units=1/GPa)
#
#
# Indices 1 2 3 4 5 6 
#
# 1 0.015441 -0.003714 -0.013292 0.000000 0.001043 0.000000
# 2 -0.003714 0.027206 -0.000758 0.000000 0.004839 0.000000
# 3 -0.013292 -0.000758 0.027984 0.000000 0.003978 0.000000
# 4 0.000000 0.000000 0.000000 0.168340 0.000000 0.074511
# 5 0.001043 0.004839 0.003978 0.000000 0.032108 0.000000
# 6 0.000000 0.000000 0.000000 0.074511 0.000000 0.089018
#
#
# Mechanical properties :
#
#
# Convention : Reuss Voigt Hill
#
# Bulk Modulus (GPa) = 28.48546 46.96240 37.72393
# Shear Modulus (GPa) = 12.27518 21.48312 16.87915
#
# Velocity S-wave (km/s) = 2.50861 3.31869 2.94167
# Velocity P-wave (km/s) = 4.79525 6.22584 5.55678
#
# Compressibility (1/GPa) = 0.03510563
#
# Stress axis : x y z
#
# Youngs Moduli (GPa) = 64.76195 36.75621 35.73409
#
# Poissons Ratio (x) = 0.13650 0.47498
# Poissons Ratio (y) = 0.24050 0.02707
# Poissons Ratio (z) = 0.86082 0.02784
#
# Static dielectric constant tensor:
#      x y z
#    x 1.691020 0.000000 -0.009530 
#    y 0.000000 1.702020 0.000000 
#    z -0.009530 0.000000 1.736490 
# 
# From -- ./inp_files/30685.got.cif
#   From: 2010.05.17/outbox.cif.g08.bks.cpg/sg15_16_cif.got.tgz:30685.got - 2010.06.03 18:47:42.
