data_PCOD9255679
_publ_section_title
;
Structure prediction by ZEFSAII (Michael W. Deem and Ramdas Pophale) SiO2 
 PCOD9255679
Probable space group: C 2/C
;
_chemical_formula_sum "Si O2"
_cell_formula_units_Z 48
_cell_length_a 23.528085
_cell_length_b 15.997720
_cell_length_c 16.037911
_cell_angle_alpha 90.000000
_cell_angle_beta 162.207555
_cell_angle_gamma 90.000000
_cell_volume 1844.602686
_symmetry_space_group_name_H-M "C 2/C"
_symmetry_group_IT_number 15
_symmetry_cell_setting 'monoclinic'
loop_
_space_group_symop_operation_xyz
x,y,z
-x,y,1/2-z
-x,-y,-z
x,-y,1/2+z
1/2+x,1/2+y,z
1/2-x,1/2+y,1/2-z
1/2-x,1/2-y,-z
1/2+x,1/2-y,1/2+z
loop_
_atom_site_type_symbol
_atom_site_label
_atom_site_fract_x
_atom_site_fract_y
_atom_site_fract_z
Si Si1 0.542166 0.395087 0.929631
Si Si2 0.043092 0.289793 0.217093
Si Si3 0.579064 0.914092 0.775456
Si Si4 0.319702 0.060873 0.686039
Si Si5 0.558196 0.348676 0.133574
Si Si6 0.140397 0.240992 0.017369
O O1 0.574048 0.295735 0.956471
O O2 0.356097 0.425087 0.623627
O O3 0.716612 0.438695 0.130325
O O4 0.524184 0.401819 0.003471
O O5 0.250000 0.250000 0.500000
O O6 0.047102 0.362387 0.153819
O O7 0.000000 0.322353 0.250000
O O8 0.500000 0.956188 0.750000
O O9 0.452659 0.831284 0.589629
O O10 0.588068 0.974199 0.710105
O O11 0.789113 0.888766 0.092858
O O12 0.665196 0.264464 0.252331
O O13 0.376885 0.321455 0.930073
O O14 0.000000 0.208209 0.750000
#
# Coordination Sequence:
#
# PCOD9255679 Si02
#       6
#     8   8   8   8   8   8
#     4  10  21  35  54  86 115 146 187 242 272 332
#     4  10  17  32  53  75 104 150 191 216 270 330
#     4   9  19  39  59  80 113 153 190 232 289 342
#     4  10  20  36  57  78 119 158 181 227 290 337
#     4  10  21  36  63  87 116 142 194 241 278 337
#     4   9  19  39  61  88 112 148 189 234 291 339
#
# _framework density 26.021863
#
# number of rings (size 3 to 8) (size 9 to 14) (size 15 to 20)
#    0.000    2.667    3.333    2.500    2.333    0.667 
#    9.000    3.333    3.667    0.000    0.000    0.000 
#    0.000    0.000    0.000    0.000    0.000    0.000 
#
# Total GULP energy -134289.392316 kJ/mol
# GULP energy per Si atom -5595.391346 kJ/mol
# Density = 2.596264 g / cm^3
# Si number density = 26.021863 Si / 1000 Ang^3
#
#
#
# Elastic Constant Matrix: (Units=GPa)
#
#
# Indices 1 2 3 4 5 6 
#
# 1 112.2515 46.2924 12.1264 0.0000 21.6008 0.0000
# 2 46.2924 65.6346 10.0147 0.0000 16.2873 0.0000
# 3 12.1264 10.0147 94.7699 0.0000 5.1283 0.0000
# 4 0.0000 0.0000 0.0000 22.9183 0.0000 14.0792
# 5 21.6008 16.2873 5.1283 0.0000 42.2158 0.0000
# 6 0.0000 0.0000 0.0000 14.0792 0.0000 43.9479
#
#
#
# Elastic Compliance Matrix: (Units=1/GPa)
#
#
# Indices 1 2 3 4 5 6 
#
# 1 0.013035 -0.008254 -0.000611 0.000000 -0.003411 0.000000
# 2 -0.008254 0.022272 -0.001068 0.000000 -0.004240 0.000000
# 3 -0.000611 -0.001068 0.010775 0.000000 -0.000584 0.000000
# 4 0.000000 0.000000 0.000000 0.054325 0.000000 -0.017404
# 5 -0.003411 -0.004240 -0.000584 0.000000 0.027140 0.000000
# 6 0.000000 0.000000 0.000000 -0.017404 0.000000 0.028330
#
#
# Mechanical properties :
#
#
# Convention : Reuss Voigt Hill
#
# Bulk Modulus (GPa) = 38.14491 45.50257 41.82374
# Shear Modulus (GPa) = 27.10309 35.43122 31.26716
#
# Velocity S-wave (km/s) = 3.23081 3.69398 3.47013
# Velocity P-wave (km/s) = 5.34865 5.97647 5.67126
#
# Compressibility (1/GPa) = 0.02621582
#
# Stress axis : x y z
#
# Youngs Moduli (GPa) = 76.71739 44.89850 92.81138
#
# Poissons Ratio (x) = 0.37059 0.05672
# Poissons Ratio (y) = 0.63322 0.09913
# Poissons Ratio (z) = 0.04688 0.04795
#
# Static dielectric constant tensor:
#      x y z
#    x 2.079840 0.000000 -0.103830 
#    y 0.000000 2.029760 0.000000 
#    z -0.103830 0.000000 2.113210 
# 
# From -- ./inp_files/219995.got.cif
#   From: 2010.05.17/outbox.cif.g08.bks.cpg/sg15_110_cif.got.tgz:219995.got - 2010.06.03 18:47:42.
