data_PCOD9255300
_publ_section_title
;
Structure prediction by ZEFSAII (Michael W. Deem and Ramdas Pophale) SiO2 
 PCOD9255300
Probable space group: C 2/C
;
_chemical_formula_sum "Si O2"
_cell_formula_units_Z 56
_cell_length_a 24.247885
_cell_length_b 13.053474
_cell_length_c 10.973481
_cell_angle_alpha 90.000000
_cell_angle_beta 103.070449
_cell_angle_gamma 90.000000
_cell_volume 3383.332596
_symmetry_space_group_name_H-M "C 2/C"
_symmetry_group_IT_number 15
_symmetry_cell_setting 'monoclinic'
loop_
_space_group_symop_operation_xyz
x,y,z
-x,y,1/2-z
-x,-y,-z
x,-y,1/2+z
1/2+x,1/2+y,z
1/2-x,1/2+y,1/2-z
1/2-x,1/2-y,-z
1/2+x,1/2-y,1/2+z
loop_
_atom_site_type_symbol
_atom_site_label
_atom_site_fract_x
_atom_site_fract_y
_atom_site_fract_z
Si Si1 0.435080 0.617895 0.725803
Si Si2 0.658561 0.616504 0.995106
Si Si3 0.234160 0.398842 0.355147
Si Si4 0.172754 0.798674 0.741197
Si Si5 0.864975 0.113478 0.930966
Si Si6 0.935008 0.130267 0.206531
Si Si7 0.258302 0.509525 0.120156
O O1 0.500000 0.650956 0.750000
O O2 0.398049 0.657327 0.594882
O O3 0.401093 0.642158 0.831301
O O4 0.434652 0.493255 0.719559
O O5 0.687247 0.691292 0.105815
O O6 0.642314 0.510263 0.057045
O O7 0.700355 0.579654 0.909092
O O8 0.192478 0.305159 0.312191
O O9 0.299073 0.354814 0.392453
O O10 0.230919 0.471149 0.232948
O O11 0.225164 0.455907 0.480594
O O12 0.105686 0.817603 0.715849
O O13 0.203189 0.893273 0.824020
O O14 0.901981 0.150771 0.063736
O O15 0.000000 0.163075 0.250000
#
# Coordination Sequence:
#
# PCOD9255300 Si02
#       7
#     8   8   8   8   8   8   8
#     4  10  18  27  45  66  98 145 167 187 242 300
#     4  10  17  30  48  66 108 131 166 207 238 289
#     4  11  22  34  57  72 104 137 170 213 262 297
#     4  12  20  33  53  77 100 142 171 203 256 305
#     4  10  17  32  43  67 101 136 167 199 245 294
#     4  10  20  28  45  70 100 132 170 206 235 299
#     4  11  19  38  48  75 107 134 170 218 246 301
#
# _framework density 16.551729000000002
#
# number of rings (size 3 to 8) (size 9 to 14) (size 15 to 20)
#    0.000    1.429   10.000    0.429    2.000    2.286 
#    0.000    0.000    0.000    0.000    0.000    1.000 
#    0.000    0.000    0.000    0.000    0.000    0.000 
#
# Total GULP energy -155939.732230 kJ/mol
# GULP energy per Si atom -5569.276151 kJ/mol
# Density = 1.651406 g / cm^3
# Si number density = 16.551729 Si / 1000 Ang^3
#
#
#
# Elastic Constant Matrix: (Units=GPa)
#
#
# Indices 1 2 3 4 5 6 
#
# 1 31.9256 8.2195 9.4832 0.0000 2.1985 0.0000
# 2 8.2195 22.3989 15.2816 0.0000 5.3461 0.0000
# 3 9.4832 15.2816 96.0199 0.0000 -4.9827 0.0000
# 4 0.0000 0.0000 0.0000 12.6106 0.0000 2.4048
# 5 2.1985 5.3461 -4.9827 0.0000 20.9666 0.0000
# 6 0.0000 0.0000 0.0000 2.4048 0.0000 9.3630
#
#
#
# Elastic Compliance Matrix: (Units=1/GPa)
#
#
# Indices 1 2 3 4 5 6 
#
# 1 0.034827 -0.011347 -0.001694 0.000000 -0.001161 0.000000
# 2 -0.011347 0.058803 -0.009066 0.000000 -0.015958 0.000000
# 3 -0.001694 -0.009066 0.012306 0.000000 0.005414 0.000000
# 4 0.000000 0.000000 0.000000 0.083383 0.000000 -0.021416
# 5 -0.001161 -0.015958 0.005414 0.000000 0.053172 0.000000
# 6 0.000000 0.000000 0.000000 -0.021416 0.000000 0.112304
#
#
# Mechanical properties :
#
#
# Convention : Reuss Voigt Hill
#
# Bulk Modulus (GPa) = 16.20179 24.03476 20.11828
# Shear Modulus (GPa) = 11.91658 16.41204 14.16431
#
# Velocity S-wave (km/s) = 2.68612 3.15232 2.92851
# Velocity P-wave (km/s) = 4.40796 5.27276 4.85964
#
# Compressibility (1/GPa) = 0.06172157
#
# Stress axis : x y z
#
# Youngs Moduli (GPa) = 28.71299 17.00591 81.26397
#
# Poissons Ratio (x) = 0.19297 0.13766
# Poissons Ratio (y) = 0.32582 0.73673
# Poissons Ratio (z) = 0.04864 0.15417
#
# Static dielectric constant tensor:
#      x y z
#    x 1.577090 0.000000 -0.033400 
#    y 0.000000 1.538830 0.000000 
#    z -0.033400 0.000000 1.639030 
# 
# From -- ./inp_files/112347.got.cif
#   From: 2010.05.17/outbox.cif.g08.bks.cpg/sg15_57_cif.got.tgz:112347.got - 2010.06.03 18:47:42.
