data_PCOD9255493
_publ_section_title
;
Structure prediction by ZEFSAII (Michael W. Deem and Ramdas Pophale) SiO2 
 PCOD9255493
Probable space group: C 2/C
;
_chemical_formula_sum "Si O2"
_cell_formula_units_Z 64
_cell_length_a 26.493971
_cell_length_b 9.730867
_cell_length_c 25.707959
_cell_angle_alpha 90.000000
_cell_angle_beta 150.894679
_cell_angle_gamma 90.000000
_cell_volume 3223.847667
_symmetry_space_group_name_H-M "C 2/C"
_symmetry_group_IT_number 15
_symmetry_cell_setting 'monoclinic'
loop_
_space_group_symop_operation_xyz
x,y,z
-x,y,1/2-z
-x,-y,-z
x,-y,1/2+z
1/2+x,1/2+y,z
1/2-x,1/2+y,1/2-z
1/2-x,1/2-y,-z
1/2+x,1/2-y,1/2+z
loop_
_atom_site_type_symbol
_atom_site_label
_atom_site_fract_x
_atom_site_fract_y
_atom_site_fract_z
Si Si1 0.001398 0.494712 0.812894
Si Si2 0.750233 0.564982 0.809797
Si Si3 0.027984 0.343113 0.009558
Si Si4 0.717988 0.479826 0.161513
Si Si5 0.467605 0.651290 0.050895
Si Si6 0.178319 0.624969 0.033550
Si Si7 0.611536 0.201840 0.216633
Si Si8 0.857477 0.261691 0.228579
O O1 0.951017 0.355867 0.790535
O O2 0.929910 0.618723 0.770795
O O3 0.000000 0.495571 0.750000
O O4 0.116078 0.524723 0.939427
O O5 0.711934 0.516735 0.718552
O O6 0.800218 0.451459 0.892379
O O7 0.662553 0.649021 0.761374
O O8 0.848881 0.662836 0.886245
O O9 0.966777 0.311588 0.902094
O O10 0.000000 0.500000 0.000000
O O11 0.991131 0.240996 0.021017
O O12 0.792684 0.598947 0.208515
O O13 0.779324 0.340806 0.198098
O O14 0.603998 0.474241 0.032627
O O15 0.574685 0.649698 0.179020
O O16 0.394840 0.744919 0.021963
O O17 0.290822 0.688702 0.123440
#
# Coordination Sequence:
#
# PCOD9255493 Si02
#       8
#     8   8   8   8   8   8   8   8
#     4  10  21  41  65  80 101 145 194 240 286 331
#     4  12  21  31  55  81 116 156 184 216 275 332
#     4  12  17  31  53  74 110 154 189 214 260 331
#     4  10  19  30  51  79 115 155 179 217 267 325
#     4  10  17  31  51  80 114 149 182 221 267 326
#     4  10  20  35  56  82 110 144 183 229 290 329
#     4  11  22  37  51  82 113 146 195 231 267 334
#     4   9  19  34  55  84 114 137 183 234 271 332
#
# _framework density 19.852056000000001
#
# number of rings (size 3 to 8) (size 9 to 14) (size 15 to 20)
#    0.000    1.500    6.250    0.750    1.750    0.500 
#    2.250    1.875    0.000    0.750    0.000    0.000 
#    0.000    0.000    0.000    0.000    0.000    0.000 
#
# Total GULP energy -178579.728461 kJ/mol
# GULP energy per Si atom -5580.616514 kJ/mol
# Density = 1.980687 g / cm^3
# Si number density = 19.852056 Si / 1000 Ang^3
#
#
#
# Elastic Constant Matrix: (Units=GPa)
#
#
# Indices 1 2 3 4 5 6 
#
# 1 41.6565 9.3223 34.6513 0.0000 -10.6669 0.0000
# 2 9.3223 45.0338 14.6491 0.0000 -2.0713 0.0000
# 3 34.6513 14.6491 86.4324 0.0000 -3.3866 0.0000
# 4 0.0000 0.0000 0.0000 22.4580 0.0000 9.0899
# 5 -10.6669 -2.0713 -3.3866 0.0000 20.8414 0.0000
# 6 0.0000 0.0000 0.0000 9.0899 0.0000 12.4065
#
#
#
# Elastic Compliance Matrix: (Units=1/GPa)
#
#
# Indices 1 2 3 4 5 6 
#
# 1 0.042738 -0.002796 -0.015915 0.000000 0.019010 0.000000
# 2 -0.002796 0.023744 -0.002885 0.000000 0.000460 0.000000
# 3 -0.015915 -0.002885 0.018225 0.000000 -0.005471 0.000000
# 4 0.000000 0.000000 0.000000 0.063299 0.000000 -0.046377
# 5 0.019010 0.000460 -0.005471 0.000000 0.056868 0.000000
# 6 0.000000 0.000000 0.000000 -0.046377 0.000000 0.114582
#
#
# Mechanical properties :
#
#
# Convention : Reuss Voigt Hill
#
# Bulk Modulus (GPa) = 24.08802 32.26311 28.17556
# Shear Modulus (GPa) = 13.28064 18.77449 16.02757
#
# Velocity S-wave (km/s) = 2.58927 3.07859 2.84447
# Velocity P-wave (km/s) = 4.59339 5.37811 5.00116
#
# Compressibility (1/GPa) = 0.04151442
#
# Stress axis : x y z
#
# Youngs Moduli (GPa) = 23.39814 42.11581 54.86967
#
# Poissons Ratio (x) = 0.11774 0.87327
# Poissons Ratio (y) = 0.06541 0.15832
# Poissons Ratio (z) = 0.37239 0.12152
#
# Static dielectric constant tensor:
#      x y z
#    x 1.685230 0.000000 0.059310 
#    y 0.000000 1.758960 0.000000 
#    z 0.059310 0.000000 1.748370 
# 
# From -- ./inp_files/283510.got.cif
#   From: 2010.05.17/outbox.cif.g08.bks.cpg/sg15_142_cif.got.tgz:283510.got - 2010.06.03 18:47:42.
