data_PCOD9255495
_publ_section_title
;
Structure prediction by ZEFSAII (Michael W. Deem and Ramdas Pophale) SiO2 
 PCOD9255495
Probable space group: C 2/C
;
_chemical_formula_sum "Si O2"
_cell_formula_units_Z 64
_cell_length_a 7.830464
_cell_length_b 18.092438
_cell_length_c 20.492041
_cell_angle_alpha 90.000000
_cell_angle_beta 77.453572
_cell_angle_gamma 90.000000
_cell_volume 2833.825811
_symmetry_space_group_name_H-M "C 2/C"
_symmetry_group_IT_number 15
_symmetry_cell_setting 'monoclinic'
loop_
_space_group_symop_operation_xyz
x,y,z
-x,y,1/2-z
-x,-y,-z
x,-y,1/2+z
1/2+x,1/2+y,z
1/2-x,1/2+y,1/2-z
1/2-x,1/2-y,-z
1/2+x,1/2-y,1/2+z
loop_
_atom_site_type_symbol
_atom_site_label
_atom_site_fract_x
_atom_site_fract_y
_atom_site_fract_z
Si Si1 0.642606 0.194270 0.679973
Si Si2 0.877825 0.718455 0.543173
Si Si3 0.063789 0.413836 0.904471
Si Si4 0.792110 0.082446 0.254491
Si Si5 0.054017 0.582257 0.895003
Si Si6 0.361511 0.679563 0.423863
Si Si7 0.759040 0.164403 0.135015
Si Si8 0.802795 0.076049 0.749437
O O1 0.500000 0.206515 0.750000
O O2 0.588296 0.134099 0.628999
O O3 0.675341 0.268607 0.636768
O O4 0.787082 0.148549 0.707149
O O5 0.750000 0.750000 0.500000
O O6 0.883532 0.631349 0.549272
O O7 0.791731 0.749463 0.617797
O O8 0.062554 0.763156 0.527520
O O9 0.188245 0.416260 0.830120
O O10 0.012908 0.499199 0.919464
O O11 0.194882 0.373351 0.944812
O O12 0.893071 0.367515 0.897694
O O13 0.726088 0.145818 0.212119
O O14 0.000000 0.090554 0.250000
O O15 0.746960 0.003323 0.223494
O O16 0.196733 0.580555 0.825403
O O17 0.543410 0.633923 0.396521
O O18 0.000000 0.064659 0.750000
#
# Coordination Sequence:
#
# PCOD9255495 Si02
#       8
#     8   8   8   8   8   8   8   8
#     4   9  17  32  48  68 110 146 178 215 264 323
#     4   9  20  42  62  75 109 151 188 240 292 324
#     4  11  20  34  57  84 116 141 180 229 274 339
#     4  10  17  31  51  82 119 151 175 222 275 334
#     4   9  19  35  55  80 110 149 185 223 277 332
#     4   9  21  34  55  77 108 142 181 231 282 322
#     4  10  21  34  57  82 108 147 195 223 276 334
#     4   9  18  28  50  83 117 148 182 216 270 337
#
# _framework density 22.584309000000001
#
# number of rings (size 3 to 8) (size 9 to 14) (size 15 to 20)
#    0.750    1.750    1.250    1.125    1.750    3.000 
#    0.000    1.875    0.000    0.000    0.000    0.000 
#    0.000    0.000    0.000    0.000    0.000    0.000 
#
# Total GULP energy -178283.118706 kJ/mol
# GULP energy per Si atom -5571.347460 kJ/mol
# Density = 2.253291 g / cm^3
# Si number density = 22.584309 Si / 1000 Ang^3
#
#
#
# Elastic Constant Matrix: (Units=GPa)
#
#
# Indices 1 2 3 4 5 6 
#
# 1 85.7559 44.3510 5.0114 0.0000 10.1870 0.0000
# 2 44.3510 129.0362 8.8627 0.0000 5.0611 0.0000
# 3 5.0114 8.8627 42.8693 0.0000 9.8959 0.0000
# 4 0.0000 0.0000 0.0000 26.9456 0.0000 7.5742
# 5 10.1870 5.0611 9.8959 0.0000 22.8457 0.0000
# 6 0.0000 0.0000 0.0000 7.5742 0.0000 26.3225
#
#
#
# Elastic Compliance Matrix: (Units=1/GPa)
#
#
# Indices 1 2 3 4 5 6 
#
# 1 0.014860 -0.004922 0.000620 0.000000 -0.005804 0.000000
# 2 -0.004922 0.009519 -0.001569 0.000000 0.000766 0.000000
# 3 0.000620 -0.001569 0.026180 0.000000 -0.011269 0.000000
# 4 0.000000 0.000000 0.000000 0.040378 0.000000 -0.011618
# 5 -0.005804 0.000766 -0.011269 0.000000 0.051072 0.000000
# 6 0.000000 0.000000 0.000000 -0.011618 0.000000 0.041334
#
#
# Mechanical properties :
#
#
# Convention : Reuss Voigt Hill
#
# Bulk Modulus (GPa) = 25.76219 41.56795 33.66507
# Shear Modulus (GPa) = 24.03565 28.51851 26.27708
#
# Velocity S-wave (km/s) = 3.26584 3.55739 3.41473
# Velocity P-wave (km/s) = 5.06487 5.94298 5.52140
#
# Compressibility (1/GPa) = 0.03881657
#
# Stress axis : x y z
#
# Youngs Moduli (GPa) = 67.29446 105.04833 38.19706
#
# Poissons Ratio (x) = 0.51710 -0.02370
# Poissons Ratio (y) = 0.33126 0.05995
# Poissons Ratio (z) = -0.04175 0.16486
#
# Static dielectric constant tensor:
#      x y z
#    x 1.858690 0.000000 0.002710 
#    y 0.000000 1.920070 0.000000 
#    z 0.002710 0.000000 1.913810 
# 
# From -- ./inp_files/265266.got.cif
#   From: 2010.05.17/outbox.cif.g08.bks.cpg/sg15_133_cif.got.tgz:265266.got - 2010.06.03 18:47:42.
