data_PCOD9255638
_publ_section_title
;
Structure prediction by ZEFSAII (Michael W. Deem and Ramdas Pophale) SiO2 
 PCOD9255638
Probable space group: C 2/C
;
_chemical_formula_sum "Si O2"
_cell_formula_units_Z 52
_cell_length_a 21.499543
_cell_length_b 7.557598
_cell_length_c 15.031000
_cell_angle_alpha 90.000000
_cell_angle_beta 125.580699
_cell_angle_gamma 90.000000
_cell_volume 1986.323409
_symmetry_space_group_name_H-M "C 2/C"
_symmetry_group_IT_number 15
_symmetry_cell_setting 'monoclinic'
loop_
_space_group_symop_operation_xyz
x,y,z
-x,y,1/2-z
-x,-y,-z
x,-y,1/2+z
1/2+x,1/2+y,z
1/2-x,1/2+y,1/2-z
1/2-x,1/2-y,-z
1/2+x,1/2-y,1/2+z
loop_
_atom_site_type_symbol
_atom_site_label
_atom_site_fract_x
_atom_site_fract_y
_atom_site_fract_z
Si Si1 0.300957 0.716098 0.850485
Si Si2 0.862361 0.026793 0.735469
Si Si3 0.366374 0.904602 0.344876
Si Si4 0.396161 0.926573 0.700806
Si Si5 0.777339 0.002256 0.493689
Si Si6 0.588472 0.261297 0.445569
Si Si7 0.500000 0.470207 0.750000
O O1 0.341432 0.568049 0.819776
O O2 0.335861 0.907552 0.858516
O O3 0.211025 0.700793 0.747936
O O4 0.310337 0.655388 0.960067
O O5 0.891263 0.223428 0.730339
O O6 0.791627 0.987676 0.610524
O O7 0.927720 0.899685 0.747242
O O8 0.416071 0.957663 0.301397
O O9 0.414699 0.796060 0.456317
O O10 0.309681 0.983121 0.605966
O O11 0.434151 0.903899 0.636526
O O12 0.823790 0.176087 0.499083
O O13 0.541039 0.422579 0.365296
#
# Coordination Sequence:
#
# PCOD9255638 Si02
#       7
#     8   8   8   8   8   8   4
#     4  10  19  31  49  76 101 124 152 192 245 294
#     4   9  16  31  48  67  96 128 159 197 230 278
#     4  10  18  30  49  73 101 125 152 194 243 291
#     4   8  15  27  46  69  91 123 155 184 238 292
#     4   9  16  29  50  71  93 124 159 193 239 289
#     4  10  17  32  50  68  94 126 164 204 227 271
#     4   8  18  32  52  70  86 130 180 192 218 282
#
# _framework density 26.179019
#
# number of rings (size 3 to 8) (size 9 to 14) (size 15 to 20)
#    0.000    3.077    0.000    5.538    0.000    0.000 
#    0.000   18.462    0.000    3.692    0.000    0.000 
#    0.000    0.000    0.000    0.000    0.000    0.000 
#
# Total GULP energy -145124.275594 kJ/mol
# GULP energy per Si atom -5581.702907 kJ/mol
# Density = 2.611943 g / cm^3
# Si number density = 26.179019 Si / 1000 Ang^3
#
#
#
# Elastic Constant Matrix: (Units=GPa)
#
#
# Indices 1 2 3 4 5 6 
#
# 1 49.6261 5.0361 -8.3647 0.0000 7.3012 0.0000
# 2 5.0361 116.5162 28.2332 0.0000 -19.1884 0.0000
# 3 -8.3647 28.2332 98.9582 0.0000 -20.4381 0.0000
# 4 0.0000 0.0000 0.0000 16.8867 0.0000 -14.7817
# 5 7.3012 -19.1884 -20.4381 0.0000 21.8806 0.0000
# 6 0.0000 0.0000 0.0000 -14.7817 0.0000 17.6125
#
#
#
# Elastic Compliance Matrix: (Units=1/GPa)
#
#
# Indices 1 2 3 4 5 6 
#
# 1 0.021842 -0.002585 0.000756 0.000000 -0.008849 0.000000
# 2 -0.002585 0.010473 -0.001402 0.000000 0.008737 0.000000
# 3 0.000756 -0.001402 0.012716 0.000000 0.010396 0.000000
# 4 0.000000 0.000000 0.000000 0.223176 0.000000 0.187306
# 5 -0.008849 0.008737 0.010396 0.000000 0.066028 0.000000
# 6 0.000000 0.000000 0.000000 0.187306 0.000000 0.213979
#
#
# Mechanical properties :
#
#
# Convention : Reuss Voigt Hill
#
# Bulk Modulus (GPa) = 25.92637 34.98998 30.45817
# Shear Modulus (GPa) = 8.81007 27.28900 18.04953
#
# Velocity S-wave (km/s) = 1.83647 3.23212 2.62862
# Velocity P-wave (km/s) = 3.79761 5.22719 4.56866
#
# Compressibility (1/GPa) = 0.03857077
#
# Stress axis : x y z
#
# Youngs Moduli (GPa) = 45.78279 95.48564 78.63899
#
# Poissons Ratio (x) = 0.24679 -0.05946
# Poissons Ratio (y) = 0.11833 0.11024
# Poissons Ratio (z) = -0.03462 0.13386
#
# Static dielectric constant tensor:
#      x y z
#    x 2.168020 0.000000 0.013620 
#    y 0.000000 2.173310 0.000000 
#    z 0.013620 0.000000 2.011540 
# 
# From -- ./inp_files/176701.got.cif
#   From: 2010.05.17/outbox.cif.g08.bks.cpg/sg15_89_cif.got.tgz:176701.got - 2010.06.03 18:47:42.
