data_PCOD9255884
_publ_section_title
;
Structure prediction by ZEFSAII (Michael W. Deem and Ramdas Pophale) SiO2 
 PCOD9255884
Probable space group: C 2/C
;
_chemical_formula_sum "Si O2"
_cell_formula_units_Z 52
_cell_length_a 11.895365
_cell_length_b 16.929575
_cell_length_c 14.203891
_cell_angle_alpha 90.000000
_cell_angle_beta 128.558442
_cell_angle_gamma 90.000000
_cell_volume 2236.777553
_symmetry_space_group_name_H-M "C 2/C"
_symmetry_group_IT_number 15
_symmetry_cell_setting 'monoclinic'
loop_
_space_group_symop_operation_xyz
x,y,z
-x,y,1/2-z
-x,-y,-z
x,-y,1/2+z
1/2+x,1/2+y,z
1/2-x,1/2+y,1/2-z
1/2-x,1/2-y,-z
1/2+x,1/2-y,1/2+z
loop_
_atom_site_type_symbol
_atom_site_label
_atom_site_fract_x
_atom_site_fract_y
_atom_site_fract_z
Si Si1 0.679381 0.519180 0.514435
Si Si2 0.549756 0.066305 0.950442
Si Si3 0.947092 0.281762 0.627548
Si Si4 0.238535 0.066622 0.739748
Si Si5 0.851010 0.839621 0.944718
Si Si6 0.299924 0.881368 0.804164
Si Si7 0.500000 0.473847 0.250000
O O1 0.846399 0.524901 0.570743
O O2 0.673427 0.576785 0.601502
O O3 0.633240 0.431472 0.522777
O O4 0.577428 0.527829 0.369869
O O5 0.398269 0.102263 0.836466
O O6 0.658969 0.123291 0.064800
O O7 0.500000 0.000000 0.000000
O O8 0.959008 0.222994 0.545837
O O9 0.791627 0.315862 0.570139
O O10 0.000000 0.240051 0.750000
O O11 0.052163 0.354804 0.666541
O O12 0.124234 0.077569 0.763894
O O13 0.265803 0.972011 0.762842
O O14 0.818379 0.832462 0.816393
#
# Coordination Sequence:
#
# PCOD9255884 Si02
#       7
#     8   8   8   8   8   8   4
#     4  11  21  34  54  78 118 151 188 231 292 356
#     4  10  17  33  55  78 104 149 193 228 277 344
#     4   9  17  29  48  75 107 141 190 233 285 333
#     4  10  21  35  53  81 114 151 191 232 287 347
#     4   9  18  30  47  75 109 144 179 234 287 336
#     4   9  17  32  51  73 106 144 189 227 276 337
#     4  12  22  34  50  80 122 154 180 228 294 360
#
# _framework density 23.247727999999999
#
# number of rings (size 3 to 8) (size 9 to 14) (size 15 to 20)
#    0.000    2.154    3.077    2.769    1.077    3.692 
#    0.000    0.000    0.000    0.000    0.000    4.308 
#   18.462    0.615    0.000    0.000    0.000    0.000 
#
# Total GULP energy -144831.953808 kJ/mol
# GULP energy per Si atom -5570.459762 kJ/mol
# Density = 2.319482 g / cm^3
# Si number density = 23.247728 Si / 1000 Ang^3
#
#
#
# Elastic Constant Matrix: (Units=GPa)
#
#
# Indices 1 2 3 4 5 6 
#
# 1 111.1843 10.1395 23.2239 0.0000 12.4285 0.0000
# 2 10.1395 38.3914 9.4850 0.0000 0.9372 0.0000
# 3 23.2239 9.4850 164.7033 0.0000 -11.0265 0.0000
# 4 0.0000 0.0000 0.0000 17.3987 0.0000 -4.4666
# 5 12.4285 0.9372 -11.0265 0.0000 27.0897 0.0000
# 6 0.0000 0.0000 0.0000 -4.4666 0.0000 15.6914
#
#
#
# Elastic Compliance Matrix: (Units=1/GPa)
#
#
# Indices 1 2 3 4 5 6 
#
# 1 0.010121 -0.002136 -0.001655 0.000000 -0.005243 0.000000
# 2 -0.002136 0.026940 -0.001282 0.000000 -0.000474 0.000000
# 3 -0.001655 -0.001282 0.006613 0.000000 0.003495 0.000000
# 4 0.000000 0.000000 0.000000 0.062007 0.000000 0.017651
# 5 -0.005243 -0.000474 0.003495 0.000000 0.040759 0.000000
# 6 0.000000 0.000000 0.000000 0.017651 0.000000 0.068754
#
#
# Mechanical properties :
#
#
# Convention : Reuss Voigt Hill
#
# Bulk Modulus (GPa) = 29.82654 44.44175 37.13415
# Shear Modulus (GPa) = 21.14034 30.13132 25.63583
#
# Velocity S-wave (km/s) = 3.01882 3.60404 3.32433
# Velocity P-wave (km/s) = 5.00087 6.03961 5.54462
#
# Compressibility (1/GPa) = 0.03352718
#
# Stress axis : x y z
#
# Youngs Moduli (GPa) = 98.80776 37.11959 151.22360
#
# Poissons Ratio (x) = 0.07929 0.25028
# Poissons Ratio (y) = 0.21106 0.19386
# Poissons Ratio (z) = 0.16353 0.04759
#
# Static dielectric constant tensor:
#      x y z
#    x 1.963300 0.000000 -0.067520 
#    y 0.000000 1.872860 0.000000 
#    z -0.067520 0.000000 2.184650 
# 
# From -- ./inp_files/147232.got.cif
#   From: 2010.05.17/outbox.cif.g08.bks.cpg/sg15_74_cif.got.tgz:147232.got - 2010.06.03 18:47:42.
