data_PCOD9255697
_publ_section_title
;
Structure prediction by ZEFSAII (Michael W. Deem and Ramdas Pophale) SiO2 
 PCOD9255697
Probable space group: C 2/C
;
_chemical_formula_sum "Si O2"
_cell_formula_units_Z 56
_cell_length_a 30.480421
_cell_length_b 9.433970
_cell_length_c 22.255391
_cell_angle_alpha 90.000000
_cell_angle_beta 156.982083
_cell_angle_gamma 90.000000
_cell_volume 2502.352561
_symmetry_space_group_name_H-M "C 2/C"
_symmetry_group_IT_number 15
_symmetry_cell_setting 'monoclinic'
loop_
_space_group_symop_operation_xyz
x,y,z
-x,y,1/2-z
-x,-y,-z
x,-y,1/2+z
1/2+x,1/2+y,z
1/2-x,1/2+y,1/2-z
1/2-x,1/2-y,-z
1/2+x,1/2-y,1/2+z
loop_
_atom_site_type_symbol
_atom_site_label
_atom_site_fract_x
_atom_site_fract_y
_atom_site_fract_z
Si Si1 0.979912 0.775227 0.157510
Si Si2 0.798966 0.978695 0.209769
Si Si3 0.935269 0.543547 0.011912
Si Si4 0.239814 0.033272 0.107393
Si Si5 0.699605 0.226993 0.741574
Si Si6 0.293683 0.408756 0.066905
Si Si7 0.386203 0.207643 0.377096
O O1 0.071676 0.896243 0.262028
O O2 0.000000 0.722783 0.250000
O O3 0.001384 0.642009 0.141656
O O4 0.860247 0.854604 0.004810
O O5 0.683996 0.971053 0.103101
O O6 0.764350 0.954120 0.097055
O O7 0.887230 0.863674 0.347592
O O8 0.840021 0.138160 0.271084
O O9 0.906503 0.648502 0.920843
O O10 0.962806 0.388821 0.019114
O O11 0.348064 0.107340 0.273615
O O12 0.230983 0.885457 0.131352
O O13 0.242368 0.009721 0.038966
O O14 0.777496 0.274710 0.784365
O O15 0.250000 0.250000 0.000000
#
# Coordination Sequence:
#
# PCOD9255697 Si02
#       7
#     8   8   8   8   8   8   8
#     4  10  19  33  55  80 110 149 190 228 274 338
#     4  10  17  32  53  85 102 145 179 222 280 325
#     4   9  17  33  55  80 105 141 185 226 270 324
#     4  10  18  34  54  82 105 143 186 227 269 331
#     4   9  18  29  58  78 106 138 182 224 271 331
#     4  11  21  34  54  77 112 149 188 230 280 336
#     4   9  16  30  58  80 106 134 183 226 269 327
#
# _framework density 22.378941000000001
#
# number of rings (size 3 to 8) (size 9 to 14) (size 15 to 20)
#    0.000    2.286    4.286    1.714    0.000    0.571 
#    0.000    1.429    0.000   22.286    0.000    0.000 
#    0.000    0.000    0.000    0.000    0.000    0.000 
#
# Total GULP energy -156117.019455 kJ/mol
# GULP energy per Si atom -5575.607838 kJ/mol
# Density = 2.232801 g / cm^3
# Si number density = 22.378941 Si / 1000 Ang^3
#
#
#
# Elastic Constant Matrix: (Units=GPa)
#
#
# Indices 1 2 3 4 5 6 
#
# 1 122.3620 54.9066 29.5659 0.0000 -41.8438 0.0000
# 2 54.9066 109.2336 38.4861 0.0000 -35.7485 0.0000
# 3 29.5659 38.4861 74.8275 0.0000 -26.3199 0.0000
# 4 0.0000 0.0000 0.0000 1.5477 0.0000 19.7722
# 5 -41.8438 -35.7485 -26.3199 0.0000 40.4683 0.0000
# 6 0.0000 0.0000 0.0000 19.7722 0.0000 -16.2997
#
#
#
# Elastic Compliance Matrix: (Units=1/GPa)
#
#
# Indices 1 2 3 4 5 6 
#
# 1 0.013347 -0.003140 0.000285 0.000000 0.011212 0.000000
# 2 -0.003140 0.014320 -0.003653 0.000000 0.007027 0.000000
# 3 0.000285 -0.003653 0.018281 0.000000 0.008958 0.000000
# 4 0.000000 0.000000 0.000000 0.039166 0.000000 0.047510
# 5 0.011212 0.007027 0.008958 0.000000 0.048338 0.000000
# 6 0.000000 0.000000 0.000000 0.047510 0.000000 -0.003719
#
#
# Mechanical properties :
#
#
# Convention : Reuss Voigt Hill
#
# Bulk Modulus (GPa) = 30.36507 61.37115 45.86811
# Shear Modulus (GPa) = 32.52576 17.37422 24.94999
#
# Velocity S-wave (km/s) = 3.81650 2.78935 3.34261
# Velocity P-wave (km/s) = 5.74621 6.15282 5.95299
#
# Compressibility (1/GPa) = 0.03293257
#
# Stress axis : x y z
#
# Youngs Moduli (GPa) = 74.92505 69.83374 54.70195
#
# Poissons Ratio (x) = 0.21927 -0.01560
# Poissons Ratio (y) = 0.23525 0.19981
# Poissons Ratio (z) = -0.02136 0.25508
#
# Static dielectric constant tensor:
#      x y z
#    x 1.934570 0.000000 0.087480 
#    y 0.000000 1.839690 0.000000 
#    z 0.087480 0.000000 1.898530 
# 
# From -- ./inp_files/259029.got.cif
#   From: 2010.05.17/outbox.cif.g08.bks.cpg/sg15_130_cif.got.tgz:259029.got - 2010.06.03 18:47:42.
