data_PCOD9255581
_publ_section_title
;
Structure prediction by ZEFSAII (Michael W. Deem and Ramdas Pophale) SiO2 
 PCOD9255581
Probable space group: C 2/C
;
_chemical_formula_sum "Si O2"
_cell_formula_units_Z 56
_cell_length_a 23.396857
_cell_length_b 9.007086
_cell_length_c 18.209832
_cell_angle_alpha 90.000000
_cell_angle_beta 54.360110
_cell_angle_gamma 90.000000
_cell_volume 3118.713702
_symmetry_space_group_name_H-M "C 2/C"
_symmetry_group_IT_number 15
_symmetry_cell_setting 'monoclinic'
loop_
_space_group_symop_operation_xyz
x,y,z
-x,y,1/2-z
-x,-y,-z
x,-y,1/2+z
1/2+x,1/2+y,z
1/2-x,1/2+y,1/2-z
1/2-x,1/2-y,-z
1/2+x,1/2-y,1/2+z
loop_
_atom_site_type_symbol
_atom_site_label
_atom_site_fract_x
_atom_site_fract_y
_atom_site_fract_z
Si Si1 0.404096 0.073006 0.503937
Si Si2 0.947253 0.040499 0.191523
Si Si3 0.906893 0.893027 0.444381
Si Si4 0.156221 0.121657 0.102517
Si Si5 0.304522 0.811524 0.562408
Si Si6 0.493702 0.815503 0.062460
Si Si7 0.109646 0.889988 0.406183
O O1 0.399173 0.218260 0.458300
O O2 0.426958 0.129619 0.567015
O O3 0.335416 0.972374 0.556808
O O4 0.466295 0.958460 0.436118
O O5 0.906508 0.093619 0.293871
O O6 0.974177 0.191963 0.134859
O O7 0.896814 0.955616 0.170436
O O8 0.016845 0.938144 0.145534
O O9 0.845310 0.967940 0.442317
O O10 0.903886 0.975211 0.526266
O O11 0.224893 0.168232 0.096499
O O12 0.152167 0.242859 0.039853
O O13 0.321563 0.698354 0.616415
O O14 0.547491 0.730960 0.966404
#
# Coordination Sequence:
#
# PCOD9255581 Si02
#       7
#     8   8   8   8   8   8   8
#     4  10  17  31  57  79 104 138 174 225 262 330
#     4  11  18  34  55  84 105 139 181 232 270 316
#     4  10  18  32  56  82 106 137 178 220 277 326
#     4  10  22  38  53  72 110 153 182 219 261 339
#     4   9  21  39  55  72 105 155 188 204 273 336
#     4   9  17  30  55  83 106 132 172 222 284 314
#     4   9  16  33  57  77 102 138 178 221 264 332
#
# _framework density 17.956121
#
# number of rings (size 3 to 8) (size 9 to 14) (size 15 to 20)
#    0.000    2.286    2.857    2.143    0.000    0.571 
#    2.571    2.857    0.000    0.000    0.000    0.000 
#    0.000    0.000    0.000    0.000    0.000    0.000 
#
# Total GULP energy -155899.697676 kJ/mol
# GULP energy per Si atom -5567.846346 kJ/mol
# Density = 1.791525 g / cm^3
# Si number density = 17.956121 Si / 1000 Ang^3
#
#
#
# Elastic Constant Matrix: (Units=GPa)
#
#
# Indices 1 2 3 4 5 6 
#
# 1 48.8177 1.1578 -14.4280 -0.0001 2.6715 0.0001
# 2 1.1578 105.2798 -0.5278 -0.0003 -3.0879 0.0003
# 3 -14.4280 -0.5278 21.6978 -0.0002 1.2165 0.0002
# 4 -0.0001 -0.0003 -0.0002 8.5194 0.0000 1.8042
# 5 2.6715 -3.0879 1.2165 0.0000 9.6832 -0.0001
# 6 0.0001 0.0003 0.0002 1.8042 -0.0001 24.2471
#
#
#
# Elastic Compliance Matrix: (Units=1/GPa)
#
#
# Indices 1 2 3 4 5 6 
#
# 1 0.026365 -0.000484 0.018064 0.000001 -0.009698 0.000000
# 2 -0.000484 0.009597 -0.000269 0.000000 0.003228 0.000000
# 3 0.018064 -0.000269 0.058791 0.000001 -0.012456 -0.000001
# 4 0.000001 0.000000 0.000001 0.119258 -0.000001 -0.008874
# 5 -0.009698 0.003228 -0.012456 -0.000001 0.108541 0.000000
# 6 0.000000 0.000000 -0.000001 -0.008874 0.000000 0.041902
#
#
# Mechanical properties :
#
#
# Convention : Reuss Voigt Hill
#
# Bulk Modulus (GPa) = 7.72952 16.46658 12.09805
# Shear Modulus (GPa) = 13.40631 21.12950 17.26791
#
# Velocity S-wave (km/s) = 2.73539 3.43407 3.10445
# Velocity P-wave (km/s) = 3.78028 4.99141 4.42745
#
# Compressibility (1/GPa) = 0.12937422
#
# Stress axis : x y z
#
# Youngs Moduli (GPa) = 37.92878 104.19771 17.00946
#
# Poissons Ratio (x) = 0.05041 -0.30725
# Poissons Ratio (y) = 0.01835 0.00458
# Poissons Ratio (z) = -0.68513 0.02805
#
# Static dielectric constant tensor:
#      x y z
#    x 1.671100 0.000000 0.018300 
#    y 0.000000 1.606370 0.000000 
#    z 0.018300 0.000000 1.612070 
# 
# From -- ./inp_files/218178.got.cif
#   From: 2010.05.17/outbox.cif.g08.bks.cpg/sg15_110_cif.got.tgz:218178.got - 2010.06.03 18:47:42.
