data_PCOD9255965
_publ_section_title
;
Structure prediction by ZEFSAII (Michael W. Deem and Ramdas Pophale) SiO2 
 PCOD9255965
Probable space group: C 2/C
;
_chemical_formula_sum "Si O2"
_cell_formula_units_Z 52
_cell_length_a 17.085283
_cell_length_b 13.579897
_cell_length_c 16.612535
_cell_angle_alpha 90.000000
_cell_angle_beta 136.852221
_cell_angle_gamma 90.000000
_cell_volume 2635.942916
_symmetry_space_group_name_H-M "C 2/C"
_symmetry_group_IT_number 15
_symmetry_cell_setting 'monoclinic'
loop_
_space_group_symop_operation_xyz
x,y,z
-x,y,1/2-z
-x,-y,-z
x,-y,1/2+z
1/2+x,1/2+y,z
1/2-x,1/2+y,1/2-z
1/2-x,1/2-y,-z
1/2+x,1/2-y,1/2+z
loop_
_atom_site_type_symbol
_atom_site_label
_atom_site_fract_x
_atom_site_fract_y
_atom_site_fract_z
Si Si1 0.195314 0.375662 0.302124
Si Si2 0.446729 0.892946 0.464613
Si Si3 0.120158 0.374291 0.921463
Si Si4 0.666211 0.231060 0.185330
Si Si5 0.292421 0.412393 0.903116
Si Si6 0.500000 0.043415 0.750000
Si Si7 0.494498 0.339457 0.157494
O O1 0.111152 0.369918 0.162690
O O2 0.274172 0.281665 0.346465
O O3 0.269022 0.476074 0.357977
O O4 0.109607 0.390611 0.312744
O O5 0.351844 0.883232 0.463835
O O6 0.552544 0.824317 0.569459
O O7 0.500000 0.000000 0.500000
O O8 0.213048 0.391050 0.922367
O O9 0.068670 0.265667 0.872829
O O10 0.028336 0.463069 0.840510
O O11 0.748821 0.159456 0.299071
O O12 0.615826 0.312313 0.209370
O O13 0.418477 0.393126 0.032583
O O14 0.500000 0.388737 0.250000
#
# Coordination Sequence:
#
# PCOD9255965 Si02
#       7
#     8   8   8   8   8   4   8
#     4  11  23  39  60  88 121 158 201 254 297 358
#     4  11  19  36  62  90 118 151 201 246 291 357
#     4  10  17  33  60  89 116 147 199 253 298 344
#     4  11  22  37  60  92 121 161 196 245 305 356
#     4  11  22  37  59  90 124 159 197 249 308 355
#     4  10  18  36  58  84 118 158 204 250 290 346
#     4  11  20  32  54  90 127 154 192 247 310 364
#
# _framework density 19.727285999999999
#
# number of rings (size 3 to 8) (size 9 to 14) (size 15 to 20)
#    0.000    1.231    5.385    4.154    2.154    0.615 
#    0.000    0.769    0.000    0.000    2.000    0.000 
#    0.000    0.000    0.000    0.000    0.000    0.000 
#
# Total GULP energy -144976.112130 kJ/mol
# GULP energy per Si atom -5576.004313 kJ/mol
# Density = 1.968239 g / cm^3
# Si number density = 19.727286 Si / 1000 Ang^3
#
#
#
# Elastic Constant Matrix: (Units=GPa)
#
#
# Indices 1 2 3 4 5 6 
#
# 1 42.6966 37.5967 3.5378 0.0000 -0.6585 0.0000
# 2 37.5967 68.1436 29.3172 0.0000 1.5410 0.0000
# 3 3.5378 29.3172 104.7166 0.0000 -2.0500 0.0000
# 4 0.0000 0.0000 0.0000 18.0205 0.0000 -9.1770
# 5 -0.6585 1.5410 -2.0500 0.0000 18.3960 0.0000
# 6 0.0000 0.0000 0.0000 -9.1770 0.0000 17.5848
#
#
#
# Elastic Compliance Matrix: (Units=1/GPa)
#
#
# Indices 1 2 3 4 5 6 
#
# 1 0.049935 -0.030679 0.007003 0.000000 0.005138 0.000000
# 2 -0.030679 0.035602 -0.009030 0.000000 -0.005087 0.000000
# 3 0.007003 -0.009030 0.011887 0.000000 0.002332 0.000000
# 4 0.000000 0.000000 0.000000 0.075578 0.000000 0.039442
# 5 0.005138 -0.005087 0.002332 0.000000 0.055230 0.000000
# 6 0.000000 0.000000 0.000000 0.039442 0.000000 0.077451
#
#
# Mechanical properties :
#
#
# Convention : Reuss Voigt Hill
#
# Bulk Modulus (GPa) = 31.24081 39.60669 35.42375
# Shear Modulus (GPa) = 13.09702 20.47394 16.78548
#
# Velocity S-wave (km/s) = 2.57943 3.22506 2.92014
# Velocity P-wave (km/s) = 4.97413 5.82998 5.41898
#
# Compressibility (1/GPa) = 0.03200941
#
# Stress axis : x y z
#
# Youngs Moduli (GPa) = 20.02605 28.08850 84.12648
#
# Poissons Ratio (x) = 0.86174 -0.58912
# Poissons Ratio (y) = 0.61439 0.75970
# Poissons Ratio (z) = -0.14024 0.25365
#
# Static dielectric constant tensor:
#      x y z
#    x 1.772110 0.000000 0.004230 
#    y 0.000000 1.703410 0.000000 
#    z 0.004230 0.000000 1.772030 
# 
# From -- ./inp_files/215111.got.cif
#   From: 2010.05.17/outbox.cif.g08.bks.cpg/sg15_108_cif.got.tgz:215111.got - 2010.06.03 18:47:42.
