data_PCOD9255098
_publ_section_title
;
Structure prediction by ZEFSAII (Michael W. Deem and Ramdas Pophale) SiO2 
 PCOD9255098
Probable space group: C 2/C
;
_chemical_formula_sum "Si O2"
_cell_formula_units_Z 56
_cell_length_a 5.414888
_cell_length_b 30.452190
_cell_length_c 17.545937
_cell_angle_alpha 90.000000
_cell_angle_beta 126.097034
_cell_angle_gamma 90.000000
_cell_volume 2337.797508
_symmetry_space_group_name_H-M "C 2/C"
_symmetry_group_IT_number 15
_symmetry_cell_setting 'monoclinic'
loop_
_space_group_symop_operation_xyz
x,y,z
-x,y,1/2-z
-x,-y,-z
x,-y,1/2+z
1/2+x,1/2+y,z
1/2-x,1/2+y,1/2-z
1/2-x,1/2-y,-z
1/2+x,1/2-y,1/2+z
loop_
_atom_site_type_symbol
_atom_site_label
_atom_site_fract_x
_atom_site_fract_y
_atom_site_fract_z
Si Si1 0.906370 0.118751 0.405702
Si Si2 0.185202 0.342818 0.383177
Si Si3 0.380502 0.751575 0.937194
Si Si4 0.160992 0.518699 0.604495
Si Si5 0.256369 0.527089 0.349633
Si Si6 0.698559 0.620623 0.889982
Si Si7 0.625757 0.151197 0.109748
O O1 0.897680 0.067066 0.423705
O O2 0.572530 0.139223 0.353327
O O3 0.121635 0.144800 0.504741
O O4 0.073302 0.123892 0.355334
O O5 0.249229 0.292340 0.375560
O O6 0.347321 0.372095 0.348464
O O7 0.841605 0.352057 0.346491
O O8 0.295693 0.797743 0.883801
O O9 0.250000 0.750000 0.000000
O O10 0.750000 0.750000 0.000000
O O11 0.491680 0.495520 0.657655
O O12 0.219584 0.570348 0.610687
O O13 0.000000 0.500000 0.500000
O O14 0.932519 0.505905 0.631166
O O15 0.000000 0.548738 0.250000
O O16 0.886093 0.637275 0.998706
#
# Coordination Sequence:
#
# PCOD9255098 Si02
#       7
#     8   8   8   8   8   8   8
#     4  10  18  32  49  69 103 147 194 225 277 353
#     4  10  17  28  46  75 115 149 181 225 293 342
#     4  12  16  27  43  74 118 156 174 222 294 351
#     4  12  23  40  64  89 116 156 205 255 309 364
#     4  12  26  43  61  86 122 162 204 257 318 379
#     4  10  18  29  46  73 105 138 183 238 277 340
#     4  10  18  29  47  78 113 152 179 226 288 345
#
# _framework density 23.954173000000001
#
# number of rings (size 3 to 8) (size 9 to 14) (size 15 to 20)
#    0.000    1.143    5.714    6.000    0.000    0.000 
#    0.000    0.000    0.000    0.000    0.000    0.000 
#    0.000   38.857    0.000    0.000    0.000    0.000 
#
# Total GULP energy -156522.347310 kJ/mol
# GULP energy per Si atom -5590.083833 kJ/mol
# Density = 2.389965 g / cm^3
# Si number density = 23.954173 Si / 1000 Ang^3
#
#
#
# Elastic Constant Matrix: (Units=GPa)
#
#
# Indices 1 2 3 4 5 6 
#
# 1 216.9043 17.0293 7.9497 0.0000 -9.1342 0.0000
# 2 17.0293 140.6959 -10.9977 0.0000 -4.2528 0.0000
# 3 7.9497 -10.9977 49.3930 0.0000 0.4883 0.0000
# 4 0.0000 0.0000 0.0000 -5.2601 0.0000 -6.9860
# 5 -9.1342 -4.2528 0.4883 0.0000 25.3626 0.0000
# 6 0.0000 0.0000 0.0000 -6.9860 0.0000 47.1092
#
#
#
# Elastic Compliance Matrix: (Units=1/GPa)
#
#
# Indices 1 2 3 4 5 6 
#
# 1 0.004760 -0.000598 -0.000915 0.000000 0.001631 0.000000
# 2 -0.000598 0.007344 0.001722 0.000000 0.000983 0.000000
# 3 -0.000915 0.001722 0.020781 0.000000 -0.000441 0.000000
# 4 0.000000 0.000000 0.000000 -0.158829 0.000000 -0.023553
# 5 0.001631 0.000983 -0.000441 0.000000 0.040189 0.000000
# 6 0.000000 0.000000 0.000000 -0.023553 0.000000 0.017734
#
#
# Mechanical properties :
#
#
# Convention : Reuss Voigt Hill
#
# Bulk Modulus (GPa) = 30.02922 48.32840 39.17881
# Shear Modulus (GPa) = -87.20346 39.64312 -23.78017
#
# Velocity S-wave (km/s) = -6.04014 4.07253 -3.15419
# Velocity P-wave (km/s) = 6.00675 6.50639 1.76806
#
# Compressibility (1/GPa) = 0.03330090
#
# Stress axis : x y z
#
# Youngs Moduli (GPa) = 210.10366 136.16103 48.12124
#
# Poissons Ratio (x) = 0.08147 0.04405
# Poissons Ratio (y) = 0.12571 -0.08286
# Poissons Ratio (z) = 0.19233 -0.23445
#
# Static dielectric constant tensor:
#      x y z
#    x 1.951600 0.000000 -0.042340 
#    y 0.000000 1.864940 0.000000 
#    z -0.042340 0.000000 1.985710 
# 
# From -- ./inp_files/186807.got.cif
#   From: 2010.05.17/outbox.cif.g08.bks.cpg/sg15_94_cif.got.tgz:186807.got - 2010.06.03 18:47:42.
