data_PCOD9255368
_publ_section_title
;
Structure prediction by ZEFSAII (Michael W. Deem and Ramdas Pophale) SiO2 
 PCOD9255368
Probable space group: C 2/C
;
_chemical_formula_sum "Si O2"
_cell_formula_units_Z 64
_cell_length_a 26.962280
_cell_length_b 7.950258
_cell_length_c 19.560731
_cell_angle_alpha 90.000000
_cell_angle_beta 48.741008
_cell_angle_gamma 90.000000
_cell_volume 3152.016277
_symmetry_space_group_name_H-M "C 2/C"
_symmetry_group_IT_number 15
_symmetry_cell_setting 'monoclinic'
loop_
_space_group_symop_operation_xyz
x,y,z
-x,y,1/2-z
-x,-y,-z
x,-y,1/2+z
1/2+x,1/2+y,z
1/2-x,1/2+y,1/2-z
1/2-x,1/2-y,-z
1/2+x,1/2-y,1/2+z
loop_
_atom_site_type_symbol
_atom_site_label
_atom_site_fract_x
_atom_site_fract_y
_atom_site_fract_z
Si Si1 0.453984 0.298798 0.230204
Si Si2 0.229228 0.696232 0.928202
Si Si3 0.800351 0.547684 0.156159
Si Si4 0.627992 0.348916 0.483726
Si Si5 0.846995 0.657655 0.248364
Si Si6 0.652072 0.530795 0.324010
Si Si7 0.987094 0.063719 0.088653
Si Si8 0.164506 0.950801 0.080921
O O1 0.500000 0.243900 0.250000
O O2 0.413723 0.150106 0.230351
O O3 0.490012 0.409338 0.139806
O O4 0.398582 0.420446 0.314384
O O5 0.199118 0.621509 0.887397
O O6 0.284548 0.832462 0.855501
O O7 0.270970 0.549737 0.929110
O O8 0.177461 0.781588 0.024941
O O9 0.834417 0.688137 0.079026
O O10 0.836003 0.532409 0.196470
O O11 0.724546 0.597590 0.241323
O O12 0.642804 0.494542 0.413257
O O13 0.548872 0.321175 0.552852
O O14 0.652165 0.406169 0.536276
O O15 0.849359 0.842792 0.209352
O O16 0.589044 0.623167 0.347920
O O17 0.000000 0.000000 0.000000
#
# Coordination Sequence:
#
# PCOD9255368 Si02
#       8
#     8   8   8   8   8   8   8   8
#     4  10  17  30  52  81 106 141 185 238 274 323
#     4   9  19  33  49  75 111 145 176 224 274 339
#     4  10  18  32  52  79 111 147 178 231 286 329
#     4  10  18  29  52  83 104 140 189 236 274 327
#     4   8  16  29  49  75 104 141 182 225 269 321
#     4   8  16  29  48  76 110 144 179 227 282 322
#     4   9  17  31  50  81 108 136 185 244 275 314
#     4  10  19  32  51  79 107 142 184 223 276 334
#
# _framework density 20.304463999999999
#
# number of rings (size 3 to 8) (size 9 to 14) (size 15 to 20)
#    0.000    2.750    1.250    2.250    0.000    0.500 
#    0.000    0.000    0.000    0.750   19.500    0.000 
#    0.000    0.000    0.000    0.000    0.000    0.000 
#
# Total GULP energy -178365.997095 kJ/mol
# GULP energy per Si atom -5573.937409 kJ/mol
# Density = 2.025825 g / cm^3
# Si number density = 20.304464 Si / 1000 Ang^3
#
#
#
# Elastic Constant Matrix: (Units=GPa)
#
#
# Indices 1 2 3 4 5 6 
#
# 1 110.9534 17.6650 23.3828 0.0108 14.7205 -0.0103
# 2 17.6650 15.8841 8.7573 -0.0010 -2.5633 -0.0013
# 3 23.3828 8.7573 83.9116 0.0014 8.6602 -0.0003
# 4 0.0108 -0.0010 0.0014 22.3496 -0.0031 7.7604
# 5 14.7205 -2.5633 8.6602 -0.0031 41.9539 0.0024
# 6 -0.0103 -0.0013 -0.0003 7.7604 0.0024 23.7191
#
#
#
# Elastic Compliance Matrix: (Units=1/GPa)
#
#
# Indices 1 2 3 4 5 6 
#
# 1 0.012088 -0.013395 -0.001480 -0.000010 -0.004754 0.000008
# 2 -0.013395 0.082974 -0.006064 0.000014 0.011021 -0.000007
# 3 -0.001480 -0.006064 0.013229 -0.000001 -0.002582 0.000000
# 4 -0.000010 0.000014 -0.000001 0.050478 0.000009 -0.016515
# 5 -0.004754 0.011021 -0.002582 0.000009 0.026710 -0.000007
# 6 0.000008 -0.000007 0.000000 -0.016515 -0.000007 0.047564
#
#
# Mechanical properties :
#
#
# Convention : Reuss Voigt Hill
#
# Bulk Modulus (GPa) = 15.05714 34.48437 24.77075
# Shear Modulus (GPa) = 16.83167 28.33409 22.58288
#
# Velocity S-wave (km/s) = 2.88230 3.73964 3.33860
# Velocity P-wave (km/s) = 4.30217 5.97219 5.20460
#
# Compressibility (1/GPa) = 0.06641368
#
# Stress axis : x y z
#
# Youngs Moduli (GPa) = 82.72664 12.05193 75.59114
#
# Poissons Ratio (x) = 0.16143 0.11187
# Poissons Ratio (y) = 1.10809 0.45841
# Poissons Ratio (z) = 0.12243 0.07309
#
# Static dielectric constant tensor:
#      x y z
#    x 1.799990 0.000000 -0.001970 
#    y 0.000000 1.716500 0.000000 
#    z -0.001970 0.000000 1.742190 
# 
# From -- ./inp_files/256995.got.cif
#   From: 2010.05.17/outbox.cif.g08.bks.cpg/sg15_129_cif.got.tgz:256995.got - 2010.06.03 18:47:42.
