data_PCOD9255653
_publ_section_title
;
Structure prediction by ZEFSAII (Michael W. Deem and Ramdas Pophale) SiO2 
 PCOD9255653
Probable space group: C 2/C
;
_chemical_formula_sum "Si O2"
_cell_formula_units_Z 48
_cell_length_a 20.421483
_cell_length_b 12.885017
_cell_length_c 25.079928
_cell_angle_alpha 90.000000
_cell_angle_beta 21.654111
_cell_angle_gamma 90.000000
_cell_volume 2435.161940
_symmetry_space_group_name_H-M "C 2/C"
_symmetry_group_IT_number 15
_symmetry_cell_setting 'monoclinic'
loop_
_space_group_symop_operation_xyz
x,y,z
-x,y,1/2-z
-x,-y,-z
x,-y,1/2+z
1/2+x,1/2+y,z
1/2-x,1/2+y,1/2-z
1/2-x,1/2-y,-z
1/2+x,1/2-y,1/2+z
loop_
_atom_site_type_symbol
_atom_site_label
_atom_site_fract_x
_atom_site_fract_y
_atom_site_fract_z
Si Si1 0.539489 0.641149 0.572877
Si Si2 0.679325 0.841359 0.404139
Si Si3 0.812454 0.135251 0.640165
Si Si4 0.865959 0.796379 0.656969
Si Si5 0.152503 0.351550 0.595422
Si Si6 0.442916 0.053598 0.155613
O O1 0.625502 0.749082 0.485737
O O2 0.386644 0.650633 0.733465
O O3 0.438553 0.603876 0.595802
O O4 0.703632 0.586202 0.477604
O O5 0.603314 0.802054 0.405472
O O6 0.582999 0.941828 0.500693
O O7 0.718501 0.244633 0.727007
O O8 0.946864 0.145138 0.488691
O O9 0.660007 0.050586 0.752708
O O10 0.712990 0.865676 0.744372
O O11 0.250000 0.250000 0.500000
O O12 0.000000 0.315705 0.750000
O O13 0.056672 0.411584 0.620455
#
# Coordination Sequence:
#
# PCOD9255653 Si02
#       6
#     8   8   8   8   8   8
#     4  10  19  33  50  75 117 147 174 220 284 319
#     4  10  17  32  51  76 113 147 178 213 275 334
#     4  10  21  36  57  81 114 148 191 234 274 342
#     4  10  18  37  51  76 121 148 182 234 287 309
#     4  12  22  33  55  80 117 151 175 222 287 341
#     4  12  22  32  58  85 113 150 196 220 282 348
#
# _framework density 19.711213999999998
#
# number of rings (size 3 to 8) (size 9 to 14) (size 15 to 20)
#    0.000    1.333    6.667    3.500    0.000    2.667 
#    0.000    0.000    0.000    0.000    0.000    4.667 
#    0.000    0.000    0.000    0.000    0.000    0.000 
#
# Total GULP energy -133691.315566 kJ/mol
# GULP energy per Si atom -5570.471482 kJ/mol
# Density = 1.966635 g / cm^3
# Si number density = 19.711214 Si / 1000 Ang^3
#
#
#
# Elastic Constant Matrix: (Units=GPa)
#
#
# Indices 1 2 3 4 5 6 
#
# 1 38.1090 4.3282 17.0398 0.0223 -13.4210 -0.0053
# 2 4.3282 41.9296 28.9735 0.0735 -14.5619 0.0109
# 3 17.0398 28.9735 171.1538 0.0912 9.0903 0.0146
# 4 0.0223 0.0735 0.0912 27.3859 0.0463 -9.6500
# 5 -13.4210 -14.5619 9.0903 0.0463 30.0930 0.0063
# 6 -0.0053 0.0109 0.0146 -9.6500 0.0063 14.8777
#
#
#
# Elastic Compliance Matrix: (Units=1/GPa)
#
#
# Indices 1 2 3 4 5 6 
#
# 1 0.035642 0.008001 -0.006050 -0.000085 0.021595 -0.000051
# 2 0.008001 0.037170 -0.008368 -0.000166 0.024083 -0.000134
# 3 -0.006050 -0.008368 0.008354 0.000020 -0.009271 0.000012
# 4 -0.000085 -0.000166 0.000020 0.047335 -0.000203 0.030703
# 5 0.021595 0.024083 -0.009271 -0.000203 0.057316 -0.000157
# 6 -0.000051 -0.000134 0.000012 0.030703 -0.000157 0.087129
#
#
# Mechanical properties :
#
#
# Convention : Reuss Voigt Hill
#
# Bulk Modulus (GPa) = 14.63409 39.09728 26.86568
# Shear Modulus (GPa) = 16.20445 27.86136 22.03291
#
# Velocity S-wave (km/s) = 2.87033 3.76370 3.34696
# Velocity P-wave (km/s) = 4.29248 6.22619 5.34747
#
# Compressibility (1/GPa) = 0.06833361
#
# Stress axis : x y z
#
# Youngs Moduli (GPa) = 28.05655 26.90339 119.70375
#
# Poissons Ratio (x) = -0.21527 0.72420
# Poissons Ratio (y) = -0.22449 1.00167
# Poissons Ratio (z) = 0.16974 0.22512
#
# Static dielectric constant tensor:
#      x y z
#    x 1.765640 0.000010 0.014160 
#    y 0.000010 1.774240 0.000000 
#    z 0.014160 0.000000 1.767390 
# 
# From -- ./inp_files/301078.got.cif
#   From: 2010.05.17/outbox.cif.g08.bks.cpg/sg15_151_cif.got.tgz:301078.got - 2010.06.03 18:47:42.
