data_PCOD9255989
_publ_section_title
;
Structure prediction by ZEFSAII (Michael W. Deem and Ramdas Pophale) SiO2 
 PCOD9255989
Probable space group: C 2/C
;
_chemical_formula_sum "Si O2"
_cell_formula_units_Z 36
_cell_length_a 7.207450
_cell_length_b 27.283854
_cell_length_c 9.323742
_cell_angle_alpha 90.000000
_cell_angle_beta 65.428678
_cell_angle_gamma 90.000000
_cell_volume 1667.453509
_symmetry_space_group_name_H-M "C 2/C"
_symmetry_group_IT_number 15
_symmetry_cell_setting 'monoclinic'
loop_
_space_group_symop_operation_xyz
x,y,z
-x,y,1/2-z
-x,-y,-z
x,-y,1/2+z
1/2+x,1/2+y,z
1/2-x,1/2+y,1/2-z
1/2-x,1/2-y,-z
1/2+x,1/2-y,1/2+z
loop_
_atom_site_type_symbol
_atom_site_label
_atom_site_fract_x
_atom_site_fract_y
_atom_site_fract_z
Si Si1 0.428447 0.839094 0.060110
Si Si2 0.000000 0.400037 0.750000
Si Si3 0.519970 0.731231 0.078252
Si Si4 0.344064 0.360125 0.106816
Si Si5 0.565508 0.451483 0.893820
O O1 0.395343 0.780143 0.079517
O O2 0.635970 0.849552 0.083621
O O3 0.238430 0.863015 0.205133
O O4 0.472114 0.863781 0.894391
O O5 0.801837 0.434959 0.813703
O O6 0.500000 0.714677 0.250000
O O7 0.750000 0.750000 0.000000
O O8 0.507588 0.685693 0.975587
O O9 0.445851 0.407822 0.010832
O O10 0.500000 0.455987 0.750000
O O11 0.500000 0.500000 0.000000
#
# Coordination Sequence:
#
# PCOD9255989 Si02
#       5
#     8   4   8   8   8
#     4  10  21  40  67 108 138 185 231 276 340 423
#     4  12  28  46  74 106 142 174 234 290 350 422
#     4  10  17  33  66 102 137 191 232 269 342 410
#     4  10  21  42  72  95 143 189 229 284 345 406
#     4  12  29  50  74 103 136 182 231 293 355 411
#
# _framework density 21.589807
#
# number of rings (size 3 to 8) (size 9 to 14) (size 15 to 20)
#    0.000    1.333    6.667    0.667    6.222    2.667 
#    0.000    4.444    0.000    0.000    0.000    0.000 
#    0.000    0.000    0.000    0.000    0.000    0.000 
#
# Total GULP energy -100608.639896 kJ/mol
# GULP energy per Si atom -5589.368883 kJ/mol
# Density = 2.154067 g / cm^3
# Si number density = 21.589807 Si / 1000 Ang^3
#
#
#
# Elastic Constant Matrix: (Units=GPa)
#
#
# Indices 1 2 3 4 5 6 
#
# 1 75.6910 44.4868 52.2583 0.0000 -5.4622 0.0000
# 2 44.4868 177.2534 90.1308 0.0000 -11.3014 0.0000
# 3 52.2583 90.1308 217.8762 0.0000 -6.8504 0.0000
# 4 0.0000 0.0000 0.0000 48.8226 0.0000 -7.2102
# 5 -5.4622 -11.3014 -6.8504 0.0000 33.4643 0.0000
# 6 0.0000 0.0000 0.0000 -7.2102 0.0000 18.1100
#
#
#
# Elastic Compliance Matrix: (Units=1/GPa)
#
#
# Indices 1 2 3 4 5 6 
#
# 1 0.016881 -0.002682 -0.002900 0.000000 0.001256 0.000000
# 2 -0.002682 0.007682 -0.002483 0.000000 0.001648 0.000000
# 3 -0.002900 -0.002483 0.006312 0.000000 -0.000020 0.000000
# 4 0.000000 0.000000 0.000000 0.021762 0.000000 0.008664
# 5 0.001256 0.001648 -0.000020 0.000000 0.030640 0.000000
# 6 0.000000 0.000000 0.000000 0.008664 0.000000 0.058668
#
#
# Mechanical properties :
#
#
# Convention : Reuss Voigt Hill
#
# Bulk Modulus (GPa) = 67.81865 93.84137 80.83001
# Shear Modulus (GPa) = 30.67683 39.00903 34.84293
#
# Velocity S-wave (km/s) = 3.77356 4.25529 4.02165
# Velocity P-wave (km/s) = 7.10401 8.22820 7.68668
#
# Compressibility (1/GPa) = 0.01474521
#
# Stress axis : x y z
#
# Youngs Moduli (GPa) = 59.23910 130.16744 158.43293
#
# Poissons Ratio (x) = 0.34912 0.45944
# Poissons Ratio (y) = 0.15888 0.39338
# Poissons Ratio (z) = 0.17179 0.32320
#
# Static dielectric constant tensor:
#      x y z
#    x 1.784420 0.000000 -0.006130 
#    y 0.000000 1.806990 0.000000 
#    z -0.006130 0.000000 1.738950 
# 
# From -- ./inp_files/24343.got.cif
#   From: 2010.05.17/outbox.cif.g08.bks.cpg/sg15_13_cif.got.tgz:24343.got - 2010.06.03 18:47:42.
