data_PCOD9255591
_publ_section_title
;
Structure prediction by ZEFSAII (Michael W. Deem and Ramdas Pophale) SiO2 
 PCOD9255591
Probable space group: C 2/C
;
_chemical_formula_sum "Si O2"
_cell_formula_units_Z 52
_cell_length_a 9.299883
_cell_length_b 18.346399
_cell_length_c 13.802971
_cell_angle_alpha 90.000000
_cell_angle_beta 107.516543
_cell_angle_gamma 90.000000
_cell_volume 2245.850483
_symmetry_space_group_name_H-M "C 2/C"
_symmetry_group_IT_number 15
_symmetry_cell_setting 'monoclinic'
loop_
_space_group_symop_operation_xyz
x,y,z
-x,y,1/2-z
-x,-y,-z
x,-y,1/2+z
1/2+x,1/2+y,z
1/2-x,1/2+y,1/2-z
1/2-x,1/2-y,-z
1/2+x,1/2-y,1/2+z
loop_
_atom_site_type_symbol
_atom_site_label
_atom_site_fract_x
_atom_site_fract_y
_atom_site_fract_z
Si Si1 0.407896 0.606541 0.132870
Si Si2 0.078269 0.332387 0.619436
Si Si3 0.258314 0.698960 0.795065
Si Si4 0.748529 0.962691 0.310600
Si Si5 0.987850 0.265506 0.097751
Si Si6 0.517006 0.011339 0.117192
Si Si7 0.000000 0.000000 0.000000
O O1 0.500000 0.589493 0.250000
O O2 0.242790 0.634230 0.130304
O O3 0.487381 0.677665 0.099901
O O4 0.385820 0.546587 0.045725
O O5 0.117660 0.261623 0.690719
O O6 0.010081 0.300357 0.506958
O O7 0.986572 0.403178 0.635010
O O8 0.318628 0.617215 0.810605
O O9 0.165417 0.712045 0.876486
O O10 0.130181 0.706934 0.687901
O O11 0.871029 0.011192 0.388898
O O12 0.678904 0.989892 0.195217
O O13 0.603343 0.961819 0.351221
O O14 0.500000 0.000000 0.000000
#
# Coordination Sequence:
#
# PCOD9255591 Si02
#       7
#     8   8   8   8   8   8   4
#     4  11  20  36  55  90 124 159 198 258 313 371
#     4  11  20  34  61  90 117 155 201 262 316 369
#     4  10  18  34  55  88 114 147 198 260 309 351
#     4  11  24  39  61  93 130 161 208 260 312 382
#     4  10  17  31  58  84 116 141 202 260 310 346
#     4  11  22  40  62  92 126 166 207 260 324 373
#     4  12  24  36  58  90 130 166 204 246 320 376
#
# _framework density 23.153811000000001
#
# number of rings (size 3 to 8) (size 9 to 14) (size 15 to 20)
#    0.000    1.231    3.077    9.231    0.000    0.000 
#    0.000    0.000    0.000    3.692   40.000    0.000 
#    0.000    0.000    0.000    0.000    0.000    0.000 
#
# Total GULP energy -144869.495169 kJ/mol
# GULP energy per Si atom -5571.903660 kJ/mol
# Density = 2.310111 g / cm^3
# Si number density = 23.153811 Si / 1000 Ang^3
#
#
#
# Elastic Constant Matrix: (Units=GPa)
#
#
# Indices 1 2 3 4 5 6 
#
# 1 23.4053 9.1738 23.2330 0.0000 4.7367 0.0000
# 2 9.1738 94.1647 26.7181 0.0000 -17.0182 0.0000
# 3 23.2330 26.7181 155.3339 0.0000 6.6180 0.0000
# 4 0.0000 0.0000 0.0000 24.3534 0.0000 2.6191
# 5 4.7367 -17.0182 6.6180 0.0000 31.1476 0.0000
# 6 0.0000 0.0000 0.0000 2.6191 0.0000 10.0543
#
#
#
# Elastic Compliance Matrix: (Units=1/GPa)
#
#
# Indices 1 2 3 4 5 6 
#
# 1 0.053234 -0.004981 -0.006705 0.000000 -0.009392 0.000000
# 2 -0.004981 0.013142 -0.001871 0.000000 0.008335 0.000000
# 3 -0.006705 -0.001871 0.007833 0.000000 -0.001667 0.000000
# 4 0.000000 0.000000 0.000000 0.042246 0.000000 -0.011005
# 5 -0.009392 0.008335 -0.001667 0.000000 0.038442 0.000000
# 6 0.000000 0.000000 0.000000 -0.011005 0.000000 0.102327
#
#
# Mechanical properties :
#
#
# Convention : Reuss Voigt Hill
#
# Bulk Modulus (GPa) = 21.23328 43.46152 32.34740
# Shear Modulus (GPa) = 16.66462 27.36300 22.01381
#
# Velocity S-wave (km/s) = 2.68570 3.44145 3.08679
# Velocity P-wave (km/s) = 4.33679 5.88243 5.16772
#
# Compressibility (1/GPa) = 0.04709589
#
# Stress axis : x y z
#
# Youngs Moduli (GPa) = 18.78487 76.09079 127.65851
#
# Poissons Ratio (x) = 0.37902 0.85598
# Poissons Ratio (y) = 0.09357 0.23880
# Poissons Ratio (z) = 0.12596 0.14234
#
# Static dielectric constant tensor:
#      x y z
#    x 2.540490 0.000000 -0.135810 
#    y 0.000000 1.746040 0.000000 
#    z -0.135810 0.000000 1.881940 
# 
# From -- ./inp_files/145814.got.cif
#   From: 2010.05.17/outbox.cif.g08.bks.cpg/sg15_73_cif.got.tgz:145814.got - 2010.06.03 18:47:42.
