data_PCOD9255902
_publ_section_title
;
Structure prediction by ZEFSAII (Michael W. Deem and Ramdas Pophale) SiO2 
 PCOD9255902
Probable space group: C 2/C
;
_chemical_formula_sum "Si O2"
_cell_formula_units_Z 44
_cell_length_a 18.063355
_cell_length_b 9.580079
_cell_length_c 15.520870
_cell_angle_alpha 90.000000
_cell_angle_beta 59.355991
_cell_angle_gamma 90.000000
_cell_volume 2310.782790
_symmetry_space_group_name_H-M "C 2/C"
_symmetry_group_IT_number 15
_symmetry_cell_setting 'monoclinic'
loop_
_space_group_symop_operation_xyz
x,y,z
-x,y,1/2-z
-x,-y,-z
x,-y,1/2+z
1/2+x,1/2+y,z
1/2-x,1/2+y,1/2-z
1/2-x,1/2-y,-z
1/2+x,1/2-y,1/2+z
loop_
_atom_site_type_symbol
_atom_site_label
_atom_site_fract_x
_atom_site_fract_y
_atom_site_fract_z
Si Si1 0.873973 0.861785 0.423144
Si Si2 0.733479 0.507804 0.238334
Si Si3 0.500000 0.305828 0.750000
Si Si4 0.963389 0.976515 0.117752
Si Si5 0.681289 0.669627 0.098587
Si Si6 0.244743 0.264571 0.644898
O O1 0.837492 0.789579 0.359406
O O2 0.819982 0.799587 0.533410
O O3 0.975570 0.856468 0.378930
O O4 0.848832 0.025677 0.429955
O O5 0.638510 0.459112 0.325870
O O6 0.721991 0.610687 0.163058
O O7 0.774891 0.599443 0.288066
O O8 0.777037 0.364794 0.183460
O O9 0.524682 0.399225 0.819313
O O10 0.406690 0.243149 0.830429
O O11 0.000000 0.000000 0.000000
O O12 0.750000 0.750000 0.000000
#
# Coordination Sequence:
#
# PCOD9255902 Si02
#       6
#     8   8   4   8   8   8
#     4   9  19  35  54  79 112 151 196 242 296 346
#     4  10  21  33  56  88 109 148 201 243 289 367
#     4   8  18  30  46  84 112 136 208 242 276 352
#     4  10  17  33  56  81 106 153 200 244 279 346
#     4   9  18  32  54  80 111 151 192 246 294 350
#     4  10  20  34  53  84 113 145 190 251 293 350
#
# _framework density 19.041167000000002
#
# number of rings (size 3 to 8) (size 9 to 14) (size 15 to 20)
#    0.000    2.545    1.818    1.091    2.545    0.000 
#    0.000    0.000    0.000    7.636    0.000    0.000 
#    0.000    0.000    0.000    0.000    0.000    0.000 
#
# Total GULP energy -122497.629233 kJ/mol
# GULP energy per Si atom -5568.074056 kJ/mol
# Density = 1.899783 g / cm^3
# Si number density = 19.041167 Si / 1000 Ang^3
#
#
#
# Elastic Constant Matrix: (Units=GPa)
#
#
# Indices 1 2 3 4 5 6 
#
# 1 62.3769 34.7095 28.2958 0.0000 -12.2913 0.0000
# 2 34.7095 59.2530 36.0736 0.0000 5.8681 0.0000
# 3 28.2958 36.0736 120.6484 0.0000 -6.6353 0.0000
# 4 0.0000 0.0000 0.0000 42.1158 0.0000 2.4992
# 5 -12.2913 5.8681 -6.6353 0.0000 31.5942 0.0000
# 6 0.0000 0.0000 0.0000 2.4992 0.0000 21.0297
#
#
#
# Elastic Compliance Matrix: (Units=1/GPa)
#
#
# Indices 1 2 3 4 5 6 
#
# 1 0.029389 -0.018299 -0.000613 0.000000 0.014704 0.000000
# 2 -0.018299 0.032902 -0.006347 0.000000 -0.014563 0.000000
# 3 -0.000613 -0.006347 0.010503 0.000000 0.003146 0.000000
# 4 0.000000 0.000000 0.000000 0.023913 0.000000 -0.002842
# 5 0.014704 -0.014563 0.003146 0.000000 0.040737 0.000000
# 6 0.000000 0.000000 0.000000 -0.002842 0.000000 0.047890
#
#
# Mechanical properties :
#
#
# Convention : Reuss Voigt Hill
#
# Bulk Modulus (GPa) = 44.88857 48.93735 46.91296
# Shear Modulus (GPa) = 20.55268 28.49457 24.52362
#
# Velocity S-wave (km/s) = 3.28896 3.87262 3.59266
# Velocity P-wave (km/s) = 6.16836 6.76409 6.47308
#
# Compressibility (1/GPa) = 0.02227738
#
# Stress axis : x y z
#
# Youngs Moduli (GPa) = 34.02601 30.39289 95.21075
#
# Poissons Ratio (x) = 0.55616 0.05833
# Poissons Ratio (y) = 0.62264 0.60430
# Poissons Ratio (z) = 0.02085 0.19290
#
# Static dielectric constant tensor:
#      x y z
#    x 1.764910 0.000000 0.038910 
#    y 0.000000 1.661140 0.000000 
#    z 0.038910 0.000000 1.704800 
# 
# From -- ./inp_files/159807.got.cif
#   From: 2010.05.17/outbox.cif.g08.bks.cpg/sg15_80_cif.got.tgz:159807.got - 2010.06.03 18:47:42.
