data_PCOD9255603
_publ_section_title
;
Structure prediction by ZEFSAII (Michael W. Deem and Ramdas Pophale) SiO2 
 PCOD9255603
Probable space group: C 2/C
;
_chemical_formula_sum "Si O2"
_cell_formula_units_Z 48
_cell_length_a 14.453217
_cell_length_b 18.163972
_cell_length_c 14.246923
_cell_angle_alpha 90.000000
_cell_angle_beta 131.727833
_cell_angle_gamma 90.000000
_cell_volume 2791.377412
_symmetry_space_group_name_H-M "C 2/C"
_symmetry_group_IT_number 15
_symmetry_cell_setting 'monoclinic'
loop_
_space_group_symop_operation_xyz
x,y,z
-x,y,1/2-z
-x,-y,-z
x,-y,1/2+z
1/2+x,1/2+y,z
1/2-x,1/2+y,1/2-z
1/2-x,1/2-y,-z
1/2+x,1/2-y,1/2+z
loop_
_atom_site_type_symbol
_atom_site_label
_atom_site_fract_x
_atom_site_fract_y
_atom_site_fract_z
Si Si1 0.645021 0.474199 0.375976
Si Si2 0.912083 0.793499 0.819649
Si Si3 0.177000 0.145555 0.428335
Si Si4 0.678731 0.454778 0.190803
Si Si5 0.096155 0.899175 0.529035
Si Si6 0.374575 0.861830 0.210704
O O1 0.500000 0.476669 0.250000
O O2 0.676148 0.556599 0.429929
O O3 0.710100 0.455394 0.322169
O O4 0.657849 0.417493 0.470495
O O5 0.823854 0.828981 0.680070
O O6 0.879644 0.823475 0.900490
O O7 0.907640 0.706624 0.800173
O O8 0.048692 0.824603 0.885814
O O9 0.291590 0.169630 0.569065
O O10 0.641741 0.536102 0.129995
O O11 0.790288 0.420088 0.207828
O O12 0.551918 0.408932 0.086771
O O13 0.500000 0.892397 0.250000
#
# Coordination Sequence:
#
# PCOD9255603 Si02
#       6
#     8   8   8   8   8   8
#     4  10  17  31  60  87 104 131 182 245 275 307
#     4  11  20  32  56  85 111 143 180 231 281 320
#     4  11  18  34  53  81 111 136 187 225 274 324
#     4  10  19  33  55  85 110 139 189 230 276 323
#     4  10  17  33  60  82 107 139 185 244 269 308
#     4  12  24  34  51  82 123 151 174 223 281 340
#
# _framework density 17.195810999999999
#
# number of rings (size 3 to 8) (size 9 to 14) (size 15 to 20)
#    0.000    1.333    8.333    1.500    0.000    0.000 
#    0.000    1.667    0.000    0.000    0.000    0.000 
#    0.000    0.000    0.000    0.000    0.000    0.000 
#
# Total GULP energy -133851.982659 kJ/mol
# GULP energy per Si atom -5577.165944 kJ/mol
# Density = 1.715667 g / cm^3
# Si number density = 17.195811 Si / 1000 Ang^3
#
#
#
# Elastic Constant Matrix: (Units=GPa)
#
#
# Indices 1 2 3 4 5 6 
#
# 1 91.6809 30.6663 36.0399 0.0000 -8.9230 0.0000
# 2 30.6663 50.3158 14.2979 0.0000 -0.7515 0.0000
# 3 36.0399 14.2979 61.8256 0.0000 -10.9510 0.0000
# 4 0.0000 0.0000 0.0000 15.2229 0.0000 -8.4745
# 5 -8.9230 -0.7515 -10.9510 0.0000 29.3523 0.0000
# 6 0.0000 0.0000 0.0000 -8.4745 0.0000 22.9290
#
#
#
# Elastic Compliance Matrix: (Units=1/GPa)
#
#
# Indices 1 2 3 4 5 6 
#
# 1 0.016766 -0.008043 -0.007546 0.000000 0.002076 0.000000
# 2 -0.008043 0.025184 -0.001557 0.000000 -0.002381 0.000000
# 3 -0.007546 -0.001557 0.021972 0.000000 0.005864 0.000000
# 4 0.000000 0.000000 0.000000 0.082708 0.000000 0.030569
# 5 0.002076 -0.002381 0.005864 0.000000 0.036827 0.000000
# 6 0.000000 0.000000 0.000000 0.030569 0.000000 0.054911
#
#
# Mechanical properties :
#
#
# Convention : Reuss Voigt Hill
#
# Bulk Modulus (GPa) = 33.75037 40.64785 37.19911
# Shear Modulus (GPa) = 17.69692 21.68873 19.69282
#
# Velocity S-wave (km/s) = 3.21150 3.55530 3.38777
# Velocity P-wave (km/s) = 5.78112 6.36735 6.08130
#
# Compressibility (1/GPa) = 0.02962931
#
# Stress axis : x y z
#
# Youngs Moduli (GPa) = 59.64447 39.70841 45.51289
#
# Poissons Ratio (x) = 0.31939 0.34342
# Poissons Ratio (y) = 0.47974 0.07087
# Poissons Ratio (z) = 0.45005 0.06183
#
# Static dielectric constant tensor:
#      x y z
#    x 1.603870 0.000000 -0.031770 
#    y 0.000000 1.589230 0.000000 
#    z -0.031770 0.000000 1.601150 
# 
# From -- ./inp_files/113384.got.cif
#   From: 2010.05.17/outbox.cif.g08.bks.cpg/sg15_57_cif.got.tgz:113384.got - 2010.06.03 18:47:42.
