data_PCOD9255765
_publ_section_title
;
Structure prediction by ZEFSAII (Michael W. Deem and Ramdas Pophale) SiO2 
 PCOD9255765
Probable space group: C 2/C
;
_chemical_formula_sum "Si O2"
_cell_formula_units_Z 64
_cell_length_a 20.159152
_cell_length_b 15.561801
_cell_length_c 13.610616
_cell_angle_alpha 90.000000
_cell_angle_beta 140.271563
_cell_angle_gamma 90.000000
_cell_volume 2729.055853
_symmetry_space_group_name_H-M "C 2/C"
_symmetry_group_IT_number 15
_symmetry_cell_setting 'monoclinic'
loop_
_space_group_symop_operation_xyz
x,y,z
-x,y,1/2-z
-x,-y,-z
x,-y,1/2+z
1/2+x,1/2+y,z
1/2-x,1/2+y,1/2-z
1/2-x,1/2-y,-z
1/2+x,1/2-y,1/2+z
loop_
_atom_site_type_symbol
_atom_site_label
_atom_site_fract_x
_atom_site_fract_y
_atom_site_fract_z
Si Si1 0.859542 0.509503 0.135050
Si Si2 0.015910 0.622698 0.092561
Si Si3 0.633601 0.444229 0.067642
Si Si4 0.364339 0.408160 0.062466
Si Si5 0.101242 0.815323 0.191127
Si Si6 0.337399 0.864802 0.256462
Si Si7 0.820604 0.554988 0.376724
Si Si8 0.291244 0.282858 0.810097
O O1 0.939974 0.581252 0.259581
O O2 0.882496 0.422596 0.222431
O O3 0.748597 0.551217 0.039558
O O4 0.854672 0.480518 0.018826
O O5 0.041064 0.724472 0.123885
O O6 0.086638 0.572423 0.093725
O O7 0.898063 0.605857 0.925366
O O8 0.570442 0.386953 0.073759
O O9 0.714044 0.379428 0.106253
O O10 0.719926 0.501857 0.223778
O O11 0.581858 0.509769 0.931259
O O12 0.400635 0.361450 0.204151
O O13 0.350619 0.336333 0.961811
O O14 0.217181 0.783351 0.287846
O O15 0.353450 0.765047 0.294482
O O16 0.778005 0.651864 0.330398
#
# Coordination Sequence:
#
# PCOD9255765 Si02
#       8
#     8   8   8   8   8   8   8   8
#     4  11  20  33  56  82 111 149 182 228 277 338
#     4  11  22  37  50  86 117 152 177 226 284 341
#     4   9  18  33  54  83 107 142 177 238 271 323
#     4  10  17  32  57  83 104 137 193 229 274 313
#     4  10  18  33  58  78 112 142 186 231 273 322
#     4  10  21  36  52  76 122 149 177 218 289 337
#     4  10  19  34  55  81 109 140 196 226 278 321
#     4   9  19  34  53  78 111 144 183 240 261 327
#
# _framework density 23.451332000000001
#
# number of rings (size 3 to 8) (size 9 to 14) (size 15 to 20)
#    0.000    2.000    6.250    0.750    0.000    1.000 
#    0.000    1.875    0.000    3.000    3.250    0.000 
#    0.000    0.000    0.000    0.000    0.000    0.000 
#
# Total GULP energy -178297.705156 kJ/mol
# GULP energy per Si atom -5571.803286 kJ/mol
# Density = 2.339796 g / cm^3
# Si number density = 23.451332 Si / 1000 Ang^3
#
#
#
# Elastic Constant Matrix: (Units=GPa)
#
#
# Indices 1 2 3 4 5 6 
#
# 1 69.3991 54.3419 28.6056 0.0000 -17.2300 0.0000
# 2 54.3419 133.1388 42.0807 0.0000 -21.2151 0.0000
# 3 28.6056 42.0807 91.0316 0.0000 -16.8844 0.0000
# 4 0.0000 0.0000 0.0000 35.8999 0.0000 -0.7383
# 5 -17.2300 -21.2151 -16.8844 0.0000 29.1434 0.0000
# 6 0.0000 0.0000 0.0000 -0.7383 0.0000 7.4512
#
#
#
# Elastic Compliance Matrix: (Units=1/GPa)
#
#
# Indices 1 2 3 4 5 6 
#
# 1 0.022994 -0.007531 -0.002509 0.000000 0.006658 0.000000
# 2 -0.007531 0.011832 -0.002612 0.000000 0.002648 0.000000
# 3 -0.002509 -0.002612 0.013841 0.000000 0.004634 0.000000
# 4 0.000000 0.000000 0.000000 0.027912 0.000000 0.002766
# 5 0.006658 0.002648 0.004634 0.000000 0.042861 0.000000
# 6 0.000000 0.000000 0.000000 0.002766 0.000000 0.134481
#
#
# Mechanical properties :
#
#
# Convention : Reuss Voigt Hill
#
# Bulk Modulus (GPa) = 42.80444 60.40286 51.60365
# Shear Modulus (GPa) = 17.42081 25.73499 21.57790
#
# Velocity S-wave (km/s) = 2.72848 3.31626 3.03663
# Velocity P-wave (km/s) = 5.31208 6.36208 5.86065
#
# Compressibility (1/GPa) = 0.02336206
#
# Stress axis : x y z
#
# Youngs Moduli (GPa) = 43.48981 84.51429 72.25122
#
# Poissons Ratio (x) = 0.63649 0.18129
# Poissons Ratio (y) = 0.32753 0.18872
# Poissons Ratio (z) = 0.10913 0.22075
#
# Static dielectric constant tensor:
#      x y z
#    x 1.952480 0.000000 0.032950 
#    y 0.000000 1.977140 0.000000 
#    z 0.032950 0.000000 1.896120 
# 
# From -- ./inp_files/178179.got.cif
#   From: 2010.05.17/outbox.cif.g08.bks.cpg/sg15_90_cif.got.tgz:178179.got - 2010.06.03 18:47:42.
