data_PCOD9255634
_publ_section_title
;
Structure prediction by ZEFSAII (Michael W. Deem and Ramdas Pophale) SiO2 
 PCOD9255634
Probable space group: C 2/C
;
_chemical_formula_sum "Si O2"
_cell_formula_units_Z 64
_cell_length_a 28.993612
_cell_length_b 17.862376
_cell_length_c 14.821439
_cell_angle_alpha 90.000000
_cell_angle_beta 32.632709
_cell_angle_gamma 90.000000
_cell_volume 4139.266534
_symmetry_space_group_name_H-M "C 2/C"
_symmetry_group_IT_number 15
_symmetry_cell_setting 'monoclinic'
loop_
_space_group_symop_operation_xyz
x,y,z
-x,y,1/2-z
-x,-y,-z
x,-y,1/2+z
1/2+x,1/2+y,z
1/2-x,1/2+y,1/2-z
1/2-x,1/2-y,-z
1/2+x,1/2-y,1/2+z
loop_
_atom_site_type_symbol
_atom_site_label
_atom_site_fract_x
_atom_site_fract_y
_atom_site_fract_z
Si Si1 0.419449 0.704911 0.444418
Si Si2 0.514600 0.579399 0.622662
Si Si3 0.227021 0.085180 0.851257
Si Si4 0.840207 0.695019 0.760286
Si Si5 0.689777 0.817814 0.984136
Si Si6 0.380327 0.453220 0.796266
Si Si7 0.521608 0.313268 0.951658
Si Si8 0.203384 0.039831 0.249778
O O1 0.500000 0.679813 0.250000
O O2 0.344185 0.644061 0.566024
O O3 0.382078 0.779765 0.459857
O O4 0.453480 0.711413 0.489607
O O5 0.500000 0.600814 0.750000
O O6 0.461796 0.503774 0.687616
O O7 0.487305 0.640221 0.593086
O O8 0.615344 0.566596 0.441986
O O9 0.312493 0.127840 0.741290
O O10 0.240745 0.023687 0.752337
O O11 0.182042 0.053459 0.016027
O O12 0.763529 0.755141 0.874591
O O13 0.925128 0.742104 0.602710
O O14 0.842328 0.668933 0.861014
O O15 0.732621 0.891414 0.872231
O O16 0.413909 0.371594 0.707055
O O17 0.329413 0.486461 0.794705
#
# Coordination Sequence:
#
# PCOD9255634 Si02
#       8
#     8   8   8   8   8   8   8   8
#     4  11  19  29  51  81 105 126 160 215 260 294
#     4  11  21  30  47  72 106 143 166 194 247 312
#     4  11  20  29  50  74 111 134 160 202 255 306
#     4  10  17  32  49  73 100 137 165 210 251 300
#     4  10  18  31  49  73 106 133 167 204 256 301
#     4  11  18  29  46  73 107 133 160 200 247 310
#     4  11  19  32  50  74 104 133 171 208 252 296
#     4  11  20  32  46  70 107 143 164 199 249 308
#
# _framework density 15.461677
#
# number of rings (size 3 to 8) (size 9 to 14) (size 15 to 20)
#    0.000    1.250    7.500    3.750    0.000    0.000 
#    0.000    0.000    0.000    3.000    0.000    0.000 
#    0.000    0.000    0.000    0.000    0.000    0.000 
#
# Total GULP energy -178445.997487 kJ/mol
# GULP energy per Si atom -5576.437421 kJ/mol
# Density = 1.542649 g / cm^3
# Si number density = 15.461677 Si / 1000 Ang^3
#
#
#
# Elastic Constant Matrix: (Units=GPa)
#
#
# Indices 1 2 3 4 5 6 
#
# 1 120.0013 48.5853 19.1295 0.0000 4.3413 0.0000
# 2 48.5853 77.9268 26.5940 0.0000 -1.1100 0.0000
# 3 19.1295 26.5940 22.3079 0.0000 1.7892 0.0000
# 4 0.0000 0.0000 0.0000 23.5626 0.0000 -2.3464
# 5 4.3413 -1.1100 1.7892 0.0000 12.0678 0.0000
# 6 0.0000 0.0000 0.0000 -2.3464 0.0000 30.5953
#
#
#
# Elastic Compliance Matrix: (Units=1/GPa)
#
#
# Indices 1 2 3 4 5 6 
#
# 1 0.011442 -0.006698 -0.001464 0.000000 -0.004515 0.000000
# 2 -0.006698 0.025976 -0.025916 0.000000 0.008642 0.000000
# 3 -0.001464 -0.025916 0.078055 0.000000 -0.013430 0.000000
# 4 0.000000 0.000000 0.000000 0.042767 0.000000 0.003280
# 5 -0.004515 0.008642 -0.013430 0.000000 0.087276 0.000000
# 6 0.000000 0.000000 0.000000 0.003280 0.000000 0.032936
#
#
# Mechanical properties :
#
#
# Convention : Reuss Voigt Hill
#
# Bulk Modulus (GPa) = 21.13451 45.42818 33.28135
# Shear Modulus (GPa) = 13.79759 21.64030 17.71894
#
# Velocity S-wave (km/s) = 2.99050 3.74519 3.38892
# Velocity P-wave (km/s) = 5.06190 6.93880 6.07329
#
# Compressibility (1/GPa) = 0.04731598
#
# Stress axis : x y z
#
# Youngs Moduli (GPa) = 87.39727 38.49663 12.81142
#
# Poissons Ratio (x) = 0.25787 0.01876
# Poissons Ratio (y) = 0.58542 0.33202
# Poissons Ratio (z) = 0.12797 0.99769
#
# Static dielectric constant tensor:
#      x y z
#    x 1.538470 0.000000 -0.001000 
#    y 0.000000 1.520850 0.000000 
#    z -0.001000 0.000000 1.504540 
# 
# From -- ./inp_files/162795.got.cif
#   From: 2010.05.17/outbox.cif.g08.bks.cpg/sg15_82_cif.got.tgz:162795.got - 2010.06.03 18:47:42.
