data_PCOD9255677
_publ_section_title
;
Structure prediction by ZEFSAII (Michael W. Deem and Ramdas Pophale) SiO2 
 PCOD9255677
Probable space group: C 2/C
;
_chemical_formula_sum "Si O2"
_cell_formula_units_Z 60
_cell_length_a 5.901626
_cell_length_b 31.119090
_cell_length_c 15.765816
_cell_angle_alpha 90.000000
_cell_angle_beta 63.970770
_cell_angle_gamma 90.000000
_cell_volume 2601.759094
_symmetry_space_group_name_H-M "C 2/C"
_symmetry_group_IT_number 15
_symmetry_cell_setting 'monoclinic'
loop_
_space_group_symop_operation_xyz
x,y,z
-x,y,1/2-z
-x,-y,-z
x,-y,1/2+z
1/2+x,1/2+y,z
1/2-x,1/2+y,1/2-z
1/2-x,1/2-y,-z
1/2+x,1/2-y,1/2+z
loop_
_atom_site_type_symbol
_atom_site_label
_atom_site_fract_x
_atom_site_fract_y
_atom_site_fract_z
Si Si1 0.633379 0.552076 0.908104
Si Si2 0.508997 0.355189 0.872793
Si Si3 0.163263 0.531213 0.107115
Si Si4 0.128199 0.239935 0.111658
Si Si5 0.133329 0.866078 0.052372
Si Si6 0.500000 0.109200 0.250000
Si Si7 0.132800 0.770204 0.105875
Si Si8 0.122351 0.424897 0.961767
O O1 0.749638 0.508643 0.849877
O O2 0.384262 0.539002 0.002337
O O3 0.557423 0.597325 0.879348
O O4 0.830097 0.562149 0.949991
O O5 0.373918 0.311045 0.874458
O O6 0.557714 0.354750 0.967281
O O7 0.763614 0.359850 0.777463
O O8 0.351902 0.398432 0.885352
O O9 0.109484 0.575232 0.164816
O O10 0.919458 0.532125 0.086687
O O11 0.332356 0.258979 0.145430
O O12 0.832785 0.254292 0.145427
O O13 0.250000 0.250000 0.000000
O O14 0.400762 0.889752 0.002849
O O15 0.147043 0.821847 0.100024
O O16 0.250000 0.750000 0.000000
#
# Coordination Sequence:
#
# PCOD9255677 Si02
#       8
#     8   8   8   8   8   4   8   8
#     4   9  19  34  52  73 106 141 190 237 276 336
#     4  11  21  33  49  78 113 148 181 220 287 350
#     4  10  20  35  50  74 105 147 186 227 284 345
#     4  10  19  31  51  76 113 148 180 225 273 338
#     4  10  18  31  52  79 110 137 185 233 285 323
#     4  12  22  38  50  78 116 152 174 232 294 360
#     4  10  18  29  51  80 110 141 178 231 278 331
#     4  10  17  32  53  73 103 148 187 234 279 337
#
# _framework density 23.061321
#
# number of rings (size 3 to 8) (size 9 to 14) (size 15 to 20)
#    0.000    1.867    6.667    2.000    1.867    0.533 
#    0.000    0.000    0.000    0.000    0.000    1.867 
#    0.000    0.000    0.000    0.000    0.000    0.000 
#
# Total GULP energy -167007.986904 kJ/mol
# GULP energy per Si atom -5566.932897 kJ/mol
# Density = 2.300883 g / cm^3
# Si number density = 23.061321 Si / 1000 Ang^3
#
#
#
# Elastic Constant Matrix: (Units=GPa)
#
#
# Indices 1 2 3 4 5 6 
#
# 1 110.7150 14.3871 14.6441 0.0000 -24.3401 0.0000
# 2 14.3871 113.7548 18.3015 0.0000 -18.9888 0.0000
# 3 14.6441 18.3015 43.2329 0.0000 -1.0983 0.0000
# 4 0.0000 0.0000 0.0000 12.8052 0.0000 -18.5925
# 5 -24.3401 -18.9888 -1.0983 0.0000 18.3832 0.0000
# 6 0.0000 0.0000 0.0000 -18.5925 0.0000 29.6569
#
#
#
# Elastic Compliance Matrix: (Units=1/GPa)
#
#
# Indices 1 2 3 4 5 6 
#
# 1 0.013981 0.002562 -0.005291 0.000000 0.020842 0.000000
# 2 0.002562 0.011923 -0.005524 0.000000 0.015378 0.000000
# 3 -0.005291 -0.005524 0.026979 0.000000 -0.011100 0.000000
# 4 0.000000 0.000000 0.000000 0.870203 0.000000 0.545548
# 5 0.020842 0.015378 -0.011100 0.000000 0.097214 0.000000
# 6 0.000000 0.000000 0.000000 0.545548 0.000000 0.375734
#
#
# Mechanical properties :
#
#
# Convention : Reuss Voigt Hill
#
# Bulk Modulus (GPa) = 27.49015 40.26313 33.87664
# Shear Modulus (GPa) = 3.50959 26.86037 15.18498
#
# Velocity S-wave (km/s) = 1.23497 3.41653 2.56883
# Velocity P-wave (km/s) = 3.73897 5.74983 4.84977
#
# Compressibility (1/GPa) = 0.03637667
#
# Stress axis : x y z
#
# Youngs Moduli (GPa) = 71.52545 83.87489 37.06554
#
# Poissons Ratio (x) = -0.21489 0.19611
# Poissons Ratio (y) = -0.18325 0.20476
# Poissons Ratio (z) = 0.37843 0.46335
#
# Static dielectric constant tensor:
#      x y z
#    x 2.054620 0.000000 0.020160 
#    y 0.000000 1.868660 0.000000 
#    z 0.020160 0.000000 1.893920 
# 
# From -- ./inp_files/262051.got.cif
#   From: 2010.05.17/outbox.cif.g08.bks.cpg/sg15_132_cif.got.tgz:262051.got - 2010.06.03 18:47:42.
