data_PCOD9255251
_publ_section_title
;
Structure prediction by ZEFSAII (Michael W. Deem and Ramdas Pophale) SiO2 
 PCOD9255251
Probable space group: C 2/C
;
_chemical_formula_sum "Si O2"
_cell_formula_units_Z 48
_cell_length_a 9.770811
_cell_length_b 14.960029
_cell_length_c 25.534593
_cell_angle_alpha 90.000000
_cell_angle_beta 36.446331
_cell_angle_gamma 90.000000
_cell_volume 2217.324636
_symmetry_space_group_name_H-M "C 2/C"
_symmetry_group_IT_number 15
_symmetry_cell_setting 'monoclinic'
loop_
_space_group_symop_operation_xyz
x,y,z
-x,y,1/2-z
-x,-y,-z
x,-y,1/2+z
1/2+x,1/2+y,z
1/2-x,1/2+y,1/2-z
1/2-x,1/2-y,-z
1/2+x,1/2-y,1/2+z
loop_
_atom_site_type_symbol
_atom_site_label
_atom_site_fract_x
_atom_site_fract_y
_atom_site_fract_z
Si Si1 0.250631 0.516150 0.052552
Si Si2 0.630483 0.778308 0.607140
Si Si3 0.101340 0.712267 0.420267
Si Si4 0.237557 0.114626 0.041021
Si Si5 0.473292 0.858234 0.320670
Si Si6 0.868738 0.260994 0.134800
O O1 0.195639 0.618714 0.077342
O O2 0.076739 0.454342 0.139081
O O3 0.500000 0.500000 0.000000
O O4 0.254308 0.479013 0.991736
O O5 0.405687 0.772992 0.639717
O O6 0.660769 0.755190 0.658624
O O7 0.836633 0.718768 0.519143
O O8 0.212359 0.624365 0.412335
O O9 0.247669 0.794872 0.398346
O O10 0.997877 0.166008 0.103635
O O11 0.440261 0.175214 0.952560
O O12 0.500000 0.864204 0.250000
O O13 0.661154 0.810180 0.300269
#
# Coordination Sequence:
#
# PCOD9255251 Si02
#       6
#     8   8   8   8   8   8
#     4  11  17  29  53  80 102 129 170 214 257 299
#     4  10  17  29  53  82 100 119 166 224 252 284
#     4   9  18  31  49  76 103 127 167 210 252 298
#     4   8  14  26  46  71 100 129 159 197 246 301
#     4  10  20  35  51  68  98 142 174 202 255 321
#     4   8  14  28  47  69  94 129 166 197 239 303
#
# _framework density 21.64771
#
# number of rings (size 3 to 8) (size 9 to 14) (size 15 to 20)
#    0.000    2.667    3.333    2.000    0.000    0.667 
#    0.000    2.500    0.000    0.000    0.000    0.000 
#    0.000    0.000    0.000    0.000    0.000    0.000 
#
# Total GULP energy -133644.869854 kJ/mol
# GULP energy per Si atom -5568.536244 kJ/mol
# Density = 2.159844 g / cm^3
# Si number density = 21.647710 Si / 1000 Ang^3
#
#
#
# Elastic Constant Matrix: (Units=GPa)
#
#
# Indices 1 2 3 4 5 6 
#
# 1 190.2200 34.2265 22.6923 -0.0003 34.2445 -0.0004
# 2 34.2265 69.5615 3.1690 -0.0019 9.4372 -0.0008
# 3 22.6923 3.1690 53.7639 -0.0043 32.4366 -0.0052
# 4 -0.0003 -0.0019 -0.0043 4.2009 -0.0013 5.2469
# 5 34.2445 9.4372 32.4366 -0.0013 29.5923 0.0004
# 6 -0.0004 -0.0008 -0.0052 5.2469 0.0004 28.3602
#
#
#
# Elastic Compliance Matrix: (Units=1/GPa)
#
#
# Indices 1 2 3 4 5 6 
#
# 1 0.007479 -0.002049 0.005289 -0.000001 -0.013799 0.000001
# 2 -0.002049 0.016254 0.004735 0.000010 -0.008002 0.000000
# 3 0.005289 0.004735 0.061093 0.000033 -0.074596 0.000006
# 4 -0.000001 0.000010 0.000033 0.309581 -0.000024 -0.057275
# 5 -0.013799 -0.008002 -0.074596 -0.000024 0.134078 -0.000011
# 6 0.000001 0.000000 0.000006 -0.057275 -0.000011 0.045857
#
#
# Mechanical properties :
#
#
# Convention : Reuss Voigt Hill
#
# Bulk Modulus (GPa) = 9.92304 48.19121 29.05713
# Shear Modulus (GPa) = 8.44618 29.32786 18.88702
#
# Velocity S-wave (km/s) = 1.97740 3.68473 2.95697
# Velocity P-wave (km/s) = 3.13166 6.35711 5.01100
#
# Compressibility (1/GPa) = 0.10077555
#
# Stress axis : x y z
#
# Youngs Moduli (GPa) = 133.71016 61.52417 16.36846
#
# Poissons Ratio (x) = 0.12605 -0.08657
# Poissons Ratio (y) = 0.27394 -0.07750
# Poissons Ratio (z) = -0.70721 -0.29129
#
# Static dielectric constant tensor:
#      x y z
#    x 1.925860 0.000000 0.035910 
#    y 0.000000 1.752200 0.000000 
#    z 0.035910 0.000000 1.905870 
# 
# From -- ./inp_files/265134.got.cif
#   From: 2010.05.17/outbox.cif.g08.bks.cpg/sg15_133_cif.got.tgz:265134.got - 2010.06.03 18:47:42.
