data_PCOD9255646
_publ_section_title
;
Structure prediction by ZEFSAII (Michael W. Deem and Ramdas Pophale) SiO2 
 PCOD9255646
Probable space group: C 2/C
;
_chemical_formula_sum "Si O2"
_cell_formula_units_Z 40
_cell_length_a 25.461869
_cell_length_b 7.141061
_cell_length_c 9.436210
_cell_angle_alpha 90.000000
_cell_angle_beta 67.161568
_cell_angle_gamma 90.000000
_cell_volume 1581.228033
_symmetry_space_group_name_H-M "C 2/C"
_symmetry_group_IT_number 15
_symmetry_cell_setting 'monoclinic'
loop_
_space_group_symop_operation_xyz
x,y,z
-x,y,1/2-z
-x,-y,-z
x,-y,1/2+z
1/2+x,1/2+y,z
1/2-x,1/2+y,1/2-z
1/2-x,1/2-y,-z
1/2+x,1/2-y,1/2+z
loop_
_atom_site_type_symbol
_atom_site_label
_atom_site_fract_x
_atom_site_fract_y
_atom_site_fract_z
Si Si1 0.705882 0.617206 0.633040
Si Si2 0.373845 0.118677 0.743699
Si Si3 0.806604 0.386752 0.596143
Si Si4 0.916251 0.796918 0.270099
Si Si5 0.518178 0.779035 0.506020
O O1 0.750000 0.750000 0.500000
O O2 0.742289 0.434783 0.622597
O O3 0.694686 0.718304 0.793566
O O4 0.642129 0.591503 0.642249
O O5 0.430099 0.243895 0.659384
O O6 0.334478 0.070319 0.647100
O O7 0.395765 0.910676 0.753746
O O8 0.340651 0.163202 0.920609
O O9 0.950215 0.765817 0.379577
O O10 0.959450 0.836431 0.092248
O O11 0.500000 0.000000 0.500000
#
# Coordination Sequence:
#
# PCOD9255646 Si02
#       5
#     8   8   8   8   8
#     4  11  21  38  55  82 125 155 194 243 295 359
#     4  10  17  32  50  82 114 144 189 241 293 342
#     4  11  21  35  59  82 119 158 194 239 296 358
#     4   9  17  29  49  78 115 153 176 237 306 342
#     4   9  16  27  50  80 113 142 189 242 300 343
#
# _framework density 25.296792
#
# number of rings (size 3 to 8) (size 9 to 14) (size 15 to 20)
#    0.000    2.000    6.000    0.000    0.000    0.800 
#    0.000    0.000    0.000    0.000    0.000   12.600 
#    0.000    0.200    0.000    0.000    0.000    0.000 
#
# Total GULP energy -111588.205209 kJ/mol
# GULP energy per Si atom -5579.410260 kJ/mol
# Density = 2.523921 g / cm^3
# Si number density = 25.296792 Si / 1000 Ang^3
#
#
#
# Elastic Constant Matrix: (Units=GPa)
#
#
# Indices 1 2 3 4 5 6 
#
# 1 132.2824 27.8702 70.5515 0.0000 -34.2611 0.0000
# 2 27.8702 57.0575 33.1589 0.0000 -14.9157 0.0000
# 3 70.5515 33.1589 211.0043 0.0000 -50.7441 0.0000
# 4 0.0000 0.0000 0.0000 15.5015 0.0000 -16.4201
# 5 -34.2611 -14.9157 -50.7441 0.0000 47.3597 0.0000
# 6 0.0000 0.0000 0.0000 -16.4201 0.0000 33.1896
#
#
#
# Elastic Compliance Matrix: (Units=1/GPa)
#
#
# Indices 1 2 3 4 5 6 
#
# 1 0.010347 -0.002740 -0.001935 0.000000 0.004549 0.000000
# 2 -0.002740 0.020537 -0.001660 0.000000 0.002707 0.000000
# 3 -0.001935 -0.001660 0.006984 0.000000 0.005561 0.000000
# 4 0.000000 0.000000 0.000000 0.135540 0.000000 0.067056
# 5 0.004549 0.002707 0.005561 0.000000 0.031217 0.000000
# 6 0.000000 0.000000 0.000000 0.067056 0.000000 0.063305
#
#
# Mechanical properties :
#
#
# Convention : Reuss Voigt Hill
#
# Bulk Modulus (GPa) = 39.68641 73.72283 56.70462
# Shear Modulus (GPa) = 17.30101 37.12774 27.21437
#
# Velocity S-wave (km/s) = 2.61803 3.83519 3.28350
# Velocity P-wave (km/s) = 4.98609 6.98699 6.06956
#
# Compressibility (1/GPa) = 0.02519754
#
# Stress axis : x y z
#
# Youngs Moduli (GPa) = 96.64471 48.69228 143.17515
#
# Poissons Ratio (x) = 0.13344 0.27705
# Poissons Ratio (y) = 0.26485 0.23769
# Poissons Ratio (z) = 0.18701 0.08083
#
# Static dielectric constant tensor:
#      x y z
#    x 2.282790 0.000000 0.074030 
#    y 0.000000 2.115880 0.000000 
#    z 0.074030 0.000000 2.066020 
# 
# From -- ./inp_files/60268.got.cif
#   From: 2010.05.17/outbox.cif.g08.bks.cpg/sg15_31_cif.got.tgz:60268.got - 2010.06.03 18:47:42.
