data_PCOD9255498
_publ_section_title
;
Structure prediction by ZEFSAII (Michael W. Deem and Ramdas Pophale) SiO2 
 PCOD9255498
Probable space group: C 2/C
;
_chemical_formula_sum "Si O2"
_cell_formula_units_Z 44
_cell_length_a 14.140290
_cell_length_b 15.990087
_cell_length_c 8.558808
_cell_angle_alpha 90.000000
_cell_angle_beta 75.268227
_cell_angle_gamma 90.000000
_cell_volume 1871.569172
_symmetry_space_group_name_H-M "C 2/C"
_symmetry_group_IT_number 15
_symmetry_cell_setting 'monoclinic'
loop_
_space_group_symop_operation_xyz
x,y,z
-x,y,1/2-z
-x,-y,-z
x,-y,1/2+z
1/2+x,1/2+y,z
1/2-x,1/2+y,1/2-z
1/2-x,1/2-y,-z
1/2+x,1/2-y,1/2+z
loop_
_atom_site_type_symbol
_atom_site_label
_atom_site_fract_x
_atom_site_fract_y
_atom_site_fract_z
Si Si1 0.880778 0.379814 0.092892
Si Si2 0.500000 0.522498 0.750000
Si Si3 0.614926 0.995627 0.165161
Si Si4 0.451516 0.765848 0.595959
Si Si5 0.777466 0.337252 0.835130
Si Si6 0.932932 0.882624 0.548486
O O1 0.857396 0.404056 0.280769
O O2 0.881188 0.472738 0.015088
O O3 0.808994 0.328608 0.006359
O O4 0.986280 0.336685 0.021823
O O5 0.446799 0.461265 0.653335
O O6 0.574553 0.579986 0.622749
O O7 0.500000 0.007229 0.250000
O O8 0.685374 0.067408 0.206134
O O9 0.500000 0.763827 0.750000
O O10 0.340366 0.783812 0.687217
O O11 0.475122 0.679601 0.498333
O O12 0.662686 0.333269 0.863535
#
# Coordination Sequence:
#
# PCOD9255498 Si02
#       6
#     8   4   8   8   8   8
#     4   9  19  32  53  87 126 161 196 244 299 353
#     4  10  26  46  64  88 116 166 204 260 308 346
#     4  10  17  31  51  84 129 156 198 242 293 358
#     4  10  19  39  57  92 125 158 197 249 305 360
#     4   9  21  34  64  89 116 159 208 240 305 357
#     4  11  23  45  67  85 124 157 209 257 300 366
#
# _framework density 23.509684
#
# number of rings (size 3 to 8) (size 9 to 14) (size 15 to 20)
#    1.091    1.091    2.727    0.545    2.545    2.909 
#    1.636    0.909    0.000    0.000    0.000    0.000 
#    0.000    0.000    0.000    0.000    0.000    0.000 
#
# Total GULP energy -122529.677258 kJ/mol
# GULP energy per Si atom -5569.530784 kJ/mol
# Density = 2.345617 g / cm^3
# Si number density = 23.509684 Si / 1000 Ang^3
#
#
#
# Elastic Constant Matrix: (Units=GPa)
#
#
# Indices 1 2 3 4 5 6 
#
# 1 53.3886 5.7076 19.8854 0.0000 -26.0467 0.0000
# 2 5.7076 86.3707 37.3387 0.0000 -7.5835 0.0000
# 3 19.8854 37.3387 51.6702 0.0000 -14.3919 0.0000
# 4 0.0000 0.0000 0.0000 4.2015 0.0000 0.2051
# 5 -26.0467 -7.5835 -14.3919 0.0000 27.6097 0.0000
# 6 0.0000 0.0000 0.0000 0.2051 0.0000 17.2001
#
#
#
# Elastic Compliance Matrix: (Units=1/GPa)
#
#
# Indices 1 2 3 4 5 6 
#
# 1 0.036682 0.003861 -0.008157 0.000000 0.031414 0.000000
# 2 0.003861 0.017340 -0.013659 0.000000 0.001285 0.000000
# 3 -0.008157 -0.013659 0.034130 0.000000 0.006344 0.000000
# 4 0.000000 0.000000 0.000000 0.238148 0.000000 -0.002839
# 5 0.031414 0.001285 0.006344 0.000000 0.069514 0.000000
# 6 0.000000 0.000000 0.000000 -0.002839 0.000000 0.058173
#
#
# Mechanical properties :
#
#
# Convention : Reuss Voigt Hill
#
# Bulk Modulus (GPa) = 19.14165 35.25476 27.19820
# Shear Modulus (GPa) = 9.85587 18.36880 14.11233
#
# Velocity S-wave (km/s) = 2.04972 2.79826 2.45271
# Velocity P-wave (km/s) = 3.70965 5.04666 4.42890
#
# Compressibility (1/GPa) = 0.05224211
#
# Stress axis : x y z
#
# Youngs Moduli (GPa) = 27.26135 57.66876 29.29988
#
# Poissons Ratio (x) = -0.22263 0.23900
# Poissons Ratio (y) = -0.10524 0.40019
# Poissons Ratio (z) = 0.22237 0.78767
#
# Static dielectric constant tensor:
#      x y z
#    x 1.877550 0.000000 0.050830 
#    y 0.000000 1.936070 0.000000 
#    z 0.050830 0.000000 1.941350 
# 
# From -- ./inp_files/39542.got.cif
#   From: 2010.05.17/outbox.cif.g08.bks.cpg/sg15_20_cif.got.tgz:39542.got - 2010.06.03 18:47:42.
