data_PCOD9255430
_publ_section_title
;
Structure prediction by ZEFSAII (Michael W. Deem and Ramdas Pophale) SiO2 
 PCOD9255430
Probable space group: C 2/C
;
_chemical_formula_sum "Si O2"
_cell_formula_units_Z 64
_cell_length_a 27.305507
_cell_length_b 15.544606
_cell_length_c 17.411447
_cell_angle_alpha 90.000000
_cell_angle_beta 20.748274
_cell_angle_gamma 90.000000
_cell_volume 2618.125510
_symmetry_space_group_name_H-M "C 2/C"
_symmetry_group_IT_number 15
_symmetry_cell_setting 'monoclinic'
loop_
_space_group_symop_operation_xyz
x,y,z
-x,y,1/2-z
-x,-y,-z
x,-y,1/2+z
1/2+x,1/2+y,z
1/2-x,1/2+y,1/2-z
1/2-x,1/2-y,-z
1/2+x,1/2-y,1/2+z
loop_
_atom_site_type_symbol
_atom_site_label
_atom_site_fract_x
_atom_site_fract_y
_atom_site_fract_z
Si Si1 0.426171 0.221375 0.987054
Si Si2 0.164509 0.335276 0.422334
Si Si3 0.844599 0.950721 0.465587
Si Si4 0.671825 0.496988 0.353707
Si Si5 0.479492 0.753055 0.994897
Si Si6 0.736800 0.131840 0.394383
Si Si7 0.601720 0.390845 0.701080
Si Si8 0.231149 0.841087 0.067996
O O1 0.481236 0.189926 0.989048
O O2 0.527441 0.297787 0.806604
O O3 0.285822 0.267644 0.223169
O O4 0.394773 0.154308 0.965458
O O5 0.215906 0.423046 0.310833
O O6 0.035394 0.302384 0.563189
O O7 0.164221 0.349537 0.514187
O O8 0.777821 0.909335 0.488076
O O9 0.000000 0.914584 0.250000
O O10 0.789945 0.940299 0.631502
O O11 0.855645 0.054143 0.435807
O O12 0.691009 0.548575 0.247951
O O13 0.519698 0.453847 0.585873
O O14 0.336131 0.712032 0.231137
O O15 0.582523 0.672459 0.828554
O O16 0.759255 0.119157 0.451902
O O17 0.250000 0.750000 0.000000
#
# Coordination Sequence:
#
# PCOD9255430 Si02
#       8
#     8   8   8   8   8   8   8   8
#     4   8  17  30  53  80 104 137 184 230 268 324
#     4   9  19  35  51  76 109 148 177 219 267 332
#     4  10  21  33  54  81 113 142 179 231 277 317
#     4  10  19  31  54  78 110 142 185 220 267 328
#     4   9  18  33  52  76 109 141 176 219 276 329
#     4  10  17  30  57  77 107 140 183 227 271 323
#     4   9  17  33  52  81 110 143 180 231 274 323
#     4  11  23  32  54  84 117 139 180 228 283 334
#
# _framework density 24.444970999999999
#
# number of rings (size 3 to 8) (size 9 to 14) (size 15 to 20)
#    0.000    2.500    0.000    3.375    7.000    0.000 
#    0.000    0.625    0.000   30.000    0.000    0.000 
#    0.000    0.000    0.000    0.000    0.000    0.000 
#
# Total GULP energy -178440.908030 kJ/mol
# GULP energy per Si atom -5576.278376 kJ/mol
# Density = 2.438933 g / cm^3
# Si number density = 24.444971 Si / 1000 Ang^3
#
#
#
# Elastic Constant Matrix: (Units=GPa)
#
#
# Indices 1 2 3 4 5 6 
#
# 1 146.2485 34.0717 15.6290 -0.0001 -9.3168 0.0000
# 2 34.0717 48.6158 -0.6583 -0.0002 -4.8760 0.0001
# 3 15.6290 -0.6583 24.6621 -0.0001 8.8532 0.0001
# 4 -0.0001 -0.0002 -0.0001 16.0457 0.0001 5.4708
# 5 -9.3168 -4.8760 8.8532 0.0001 26.7912 0.0000
# 6 0.0000 0.0001 0.0001 5.4708 0.0000 47.6020
#
#
#
# Elastic Compliance Matrix: (Units=1/GPa)
#
#
# Indices 1 2 3 4 5 6 
#
# 1 0.009432 -0.006241 -0.007844 0.000000 0.004736 0.000000
# 2 -0.006241 0.025100 0.004271 0.000000 0.000986 0.000000
# 3 -0.007844 0.004271 0.052569 0.000001 -0.019322 0.000000
# 4 0.000000 0.000000 0.000001 0.064864 0.000000 -0.007455
# 5 0.004736 0.000986 -0.019322 0.000000 0.045537 0.000000
# 6 0.000000 0.000000 0.000000 -0.007455 0.000000 0.021864
#
#
# Mechanical properties :
#
#
# Convention : Reuss Voigt Hill
#
# Bulk Modulus (GPa) = 14.82070 35.29013 25.05541
# Shear Modulus (GPa) = 19.12155 29.45339 24.28747
#
# Velocity S-wave (km/s) = 2.79987 3.47491 3.15549
# Velocity P-wave (km/s) = 4.06551 5.52883 4.85264
#
# Compressibility (1/GPa) = 0.06747321
#
# Stress axis : x y z
#
# Youngs Moduli (GPa) = 106.02610 39.84024 19.02255
#
# Poissons Ratio (x) = 0.24865 0.14921
# Poissons Ratio (y) = 0.66173 -0.08125
# Poissons Ratio (z) = 0.83165 -0.17016
#
# Static dielectric constant tensor:
#      x y z
#    x 2.033800 0.000000 -0.027340 
#    y 0.000000 1.960780 0.000000 
#    z -0.027340 0.000000 2.051230 
# 
# From -- ./inp_files/174209.got.cif
#   From: 2010.05.17/outbox.cif.g08.bks.cpg/sg15_88_cif.got.tgz:174209.got - 2010.06.03 18:47:42.
