data_PCOD9255265
_publ_section_title
;
Structure prediction by ZEFSAII (Michael W. Deem and Ramdas Pophale) SiO2 
 PCOD9255265
Probable space group: C 2/C
;
_chemical_formula_sum "Si O2"
_cell_formula_units_Z 44
_cell_length_a 17.784881
_cell_length_b 6.653158
_cell_length_c 17.334113
_cell_angle_alpha 90.000000
_cell_angle_beta 45.303091
_cell_angle_gamma 90.000000
_cell_volume 1457.977111
_symmetry_space_group_name_H-M "C 2/C"
_symmetry_group_IT_number 15
_symmetry_cell_setting 'monoclinic'
loop_
_space_group_symop_operation_xyz
x,y,z
-x,y,1/2-z
-x,-y,-z
x,-y,1/2+z
1/2+x,1/2+y,z
1/2-x,1/2+y,1/2-z
1/2-x,1/2-y,-z
1/2+x,1/2-y,1/2+z
loop_
_atom_site_type_symbol
_atom_site_label
_atom_site_fract_x
_atom_site_fract_y
_atom_site_fract_z
Si Si1 0.339990 0.805004 0.471582
Si Si2 0.000000 0.723034 0.250000
Si Si3 0.897512 0.270285 0.598045
Si Si4 0.883098 0.231133 0.976073
Si Si5 0.590507 0.815139 0.225709
Si Si6 0.684102 0.783273 0.320220
O O1 0.391710 0.718063 0.512762
O O2 0.453754 0.776449 0.335952
O O3 0.210449 0.726965 0.585376
O O4 0.338505 0.048917 0.483736
O O5 0.922214 0.845981 0.363072
O O6 0.924580 0.562559 0.258839
O O7 0.803121 0.168642 0.711607
O O8 0.874822 0.507702 0.619313
O O9 0.006728 0.225537 0.558260
O O10 0.810923 0.170703 0.100796
O O11 0.630909 0.720981 0.277158
#
# Coordination Sequence:
#
# PCOD9255265 Si02
#       6
#     8   4   8   8   8   8
#     4  10  17  29  54  88 115 145 206 258 287 348
#     4   8  16  30  56  74 108 150 206 232 294 352
#     4  11  21  36  57  89 126 154 205 252 312 365
#     4  10  20  35  56  83 119 163 195 255 308 359
#     4   9  15  28  51  82 109 142 196 246 290 338
#     4  11  20  34  57  87 116 159 202 247 304 375
#
# _framework density 30.178802999999998
#
# number of rings (size 3 to 8) (size 9 to 14) (size 15 to 20)
#    0.545    1.455    3.636    3.273    0.000    0.000 
#    0.000    1.818    0.000    0.000    2.364    0.000 
#    0.000    0.000    0.000    0.000    0.000    0.000 
#
# Total GULP energy -122803.748552 kJ/mol
# GULP energy per Si atom -5581.988571 kJ/mol
# Density = 3.011011 g / cm^3
# Si number density = 30.178803 Si / 1000 Ang^3
#
#
#
# Elastic Constant Matrix: (Units=GPa)
#
#
# Indices 1 2 3 4 5 6 
#
# 1 207.1736 37.6136 102.3208 0.0010 3.8144 -0.0008
# 2 37.6136 99.0755 24.0726 0.0048 17.8634 -0.0037
# 3 102.3208 24.0726 290.0674 0.0014 50.0409 -0.0010
# 4 0.0010 0.0048 0.0014 4.7659 -0.0010 -8.8826
# 5 3.8144 17.8634 50.0409 -0.0010 107.4033 0.0006
# 6 -0.0008 -0.0037 -0.0010 -8.8826 0.0006 26.6428
#
#
#
# Elastic Compliance Matrix: (Units=1/GPa)
#
#
# Indices 1 2 3 4 5 6 
#
# 1 0.006289 -0.002051 -0.002249 0.000003 0.001166 0.000001
# 2 -0.002051 0.011176 0.000113 -0.000022 -0.001839 -0.000006
# 3 -0.002249 0.000113 0.004590 -0.000003 -0.002077 -0.000001
# 4 0.000003 -0.000022 -0.000003 0.554157 0.000009 0.184753
# 5 0.001166 -0.001839 -0.002077 0.000009 0.010543 0.000002
# 6 0.000001 -0.000006 -0.000001 0.184753 0.000002 0.099129
#
#
# Mechanical properties :
#
#
# Convention : Reuss Voigt Hill
#
# Bulk Modulus (GPa) = 73.09752 102.70339 87.90046
# Shear Modulus (GPa) = 7.15493 56.58304 31.86899
#
# Velocity S-wave (km/s) = 1.54143 4.33474 3.25315
# Velocity P-wave (km/s) = 5.23852 7.69148 6.58031
#
# Compressibility (1/GPa) = 0.01368036
#
# Stress axis : x y z
#
# Youngs Moduli (GPa) = 159.01635 89.47722 217.87124
#
# Poissons Ratio (x) = 0.18353 0.49004
# Poissons Ratio (y) = 0.32617 -0.02467
# Poissons Ratio (z) = 0.35766 -0.01013
#
# Static dielectric constant tensor:
#      x y z
#    x 2.191140 0.000000 -0.016890 
#    y 0.000000 2.347420 0.000000 
#    z -0.016890 0.000000 2.710770 
# 
# From -- ./inp_files/122290.got.cif
#   From: 2010.05.17/outbox.cif.g08.bks.cpg/sg15_62_cif.got.tgz:122290.got - 2010.06.03 18:47:42.
