data_PCOD9255828
_publ_section_title
;
Structure prediction by ZEFSAII (Michael W. Deem and Ramdas Pophale) SiO2 
 PCOD9255828
Probable space group: C 2/C
;
_chemical_formula_sum "Si O2"
_cell_formula_units_Z 48
_cell_length_a 8.629810
_cell_length_b 18.283096
_cell_length_c 15.496213
_cell_angle_alpha 90.000000
_cell_angle_beta 122.523741
_cell_angle_gamma 90.000000
_cell_volume 2061.536589
_symmetry_space_group_name_H-M "C 2/C"
_symmetry_group_IT_number 15
_symmetry_cell_setting 'monoclinic'
loop_
_space_group_symop_operation_xyz
x,y,z
-x,y,1/2-z
-x,-y,-z
x,-y,1/2+z
1/2+x,1/2+y,z
1/2-x,1/2+y,1/2-z
1/2-x,1/2-y,-z
1/2+x,1/2-y,1/2+z
loop_
_atom_site_type_symbol
_atom_site_label
_atom_site_fract_x
_atom_site_fract_y
_atom_site_fract_z
Si Si1 0.884672 0.301588 0.124155
Si Si2 0.202812 0.486402 0.594937
Si Si3 0.761282 0.348310 0.365755
Si Si4 0.544342 0.363124 0.866731
Si Si5 0.441902 0.712723 0.864739
Si Si6 0.345577 0.871817 0.771301
O O1 0.869890 0.215931 0.097211
O O2 0.675749 0.321779 0.091230
O O3 0.000000 0.307505 0.250000
O O4 0.020997 0.336498 0.092321
O O5 0.281446 0.566535 0.633739
O O6 0.331426 0.433023 0.576265
O O7 0.179341 0.441411 0.675752
O O8 0.000000 0.500000 0.500000
O O9 0.661414 0.318709 0.250627
O O10 0.655415 0.307489 0.412747
O O11 0.500000 0.367928 0.750000
O O12 0.338788 0.359240 0.839523
O O13 0.402558 0.799862 0.843563
O O14 0.500000 0.886671 0.750000
#
# Coordination Sequence:
#
# PCOD9255828 Si02
#       6
#     8   8   8   8   8   8
#     4   9  14  31  57  86 115 142 193 259 298 341
#     4  11  25  41  56  87 138 171 191 248 331 378
#     4  10  20  33  57  90 119 147 204 258 300 357
#     4   9  16  34  61  83 113 162 200 244 308 364
#     4  10  17  32  63  94 115 139 210 275 295 341
#     4  11  19  37  68  92 112 160 217 257 305 373
#
# _framework density 23.283604
#
# number of rings (size 3 to 8) (size 9 to 14) (size 15 to 20)
#    0.000    2.000    8.333    0.000    7.000    2.000 
#    0.000    2.500    0.000    0.000    0.000    0.000 
#    0.000    0.000    0.000    0.000    0.000    0.000 
#
# Total GULP energy -133825.708730 kJ/mol
# GULP energy per Si atom -5576.071197 kJ/mol
# Density = 2.323061 g / cm^3
# Si number density = 23.283604 Si / 1000 Ang^3
#
#
#
# Elastic Constant Matrix: (Units=GPa)
#
#
# Indices 1 2 3 4 5 6 
#
# 1 226.7992 49.2640 11.2998 0.0000 14.5395 0.0000
# 2 49.2640 139.5087 11.3334 0.0000 14.0947 0.0000
# 3 11.2998 11.3334 45.4400 0.0000 5.4222 0.0000
# 4 0.0000 0.0000 0.0000 -537.1849 0.0000 -84.5933
# 5 14.5395 14.0947 5.4222 0.0000 14.0478 0.0000
# 6 0.0000 0.0000 0.0000 -84.5933 0.0000 22.8532
#
#
#
# Elastic Compliance Matrix: (Units=1/GPa)
#
#
# Indices 1 2 3 4 5 6 
#
# 1 0.004956 -0.001349 -0.000467 0.000000 -0.003596 0.000000
# 2 -0.001349 0.008395 -0.000964 0.000000 -0.006655 0.000000
# 3 -0.000467 -0.000964 0.023262 0.000000 -0.007528 0.000000
# 4 0.000000 0.000000 0.000000 -0.001176 0.000000 -0.004353
# 5 -0.003596 -0.006655 -0.007528 0.000000 0.084490 0.000000
# 6 0.000000 0.000000 0.000000 -0.004353 0.000000 0.027644
#
#
# Mechanical properties :
#
#
# Convention : Reuss Voigt Hill
#
# Bulk Modulus (GPa) = 32.20331 61.72692 46.96512
# Shear Modulus (GPa) = 30.58452 -77.40007 -23.40777
#
# Velocity S-wave (km/s) = 3.62825 -5.77187 -3.17414
# Velocity P-wave (km/s) = 5.60474 4.22503 2.60406
#
# Compressibility (1/GPa) = 0.03105271
#
# Stress axis : x y z
#
# Youngs Moduli (GPa) = 201.77725 119.11856 42.98865
#
# Poissons Ratio (x) = 0.16067 0.02007
# Poissons Ratio (y) = 0.27217 0.04146
# Poissons Ratio (z) = 0.09421 0.11487
#
# Static dielectric constant tensor:
#      x y z
#    x 2.109330 0.000000 0.088460 
#    y 0.000000 1.941980 0.000000 
#    z 0.088460 0.000000 2.002830 
# 
# From -- ./inp_files/232306.got.cif
#   From: 2010.05.17/outbox.cif.g08.bks.cpg/sg15_117_cif.got.tgz:232306.got - 2010.06.03 18:47:42.
