data_PCOD9255182
_publ_section_title
;
Structure prediction by ZEFSAII (Michael W. Deem and Ramdas Pophale) SiO2 
 PCOD9255182
Probable space group: C 2/C
;
_chemical_formula_sum "Si O2"
_cell_formula_units_Z 64
_cell_length_a 25.006499
_cell_length_b 14.610243
_cell_length_c 9.669219
_cell_angle_alpha 90.000000
_cell_angle_beta 106.540368
_cell_angle_gamma 90.000000
_cell_volume 3386.475513
_symmetry_space_group_name_H-M "C 2/C"
_symmetry_group_IT_number 15
_symmetry_cell_setting 'monoclinic'
loop_
_space_group_symop_operation_xyz
x,y,z
-x,y,1/2-z
-x,-y,-z
x,-y,1/2+z
1/2+x,1/2+y,z
1/2-x,1/2+y,1/2-z
1/2-x,1/2-y,-z
1/2+x,1/2-y,1/2+z
loop_
_atom_site_type_symbol
_atom_site_label
_atom_site_fract_x
_atom_site_fract_y
_atom_site_fract_z
Si Si1 0.402980 0.153152 0.476116
Si Si2 0.629183 0.201112 0.534921
Si Si3 0.989168 0.405538 0.578823
Si Si4 0.267365 0.059169 0.192771
Si Si5 0.186200 0.258235 0.798097
Si Si6 0.669684 0.990125 0.017476
Si Si7 0.661575 0.752347 0.346882
Si Si8 0.773704 0.127467 0.901617
O O1 0.462325 0.158004 0.449705
O O2 0.357348 0.192350 0.336747
O O3 0.385212 0.048855 0.496697
O O4 0.390544 0.206860 0.607046
O O5 0.568385 0.152733 0.476228
O O6 0.653010 0.250011 0.416060
O O7 0.640005 0.261812 0.676860
O O8 0.666748 0.109818 0.580167
O O9 0.000000 0.423606 0.750000
O O10 0.000000 0.500000 0.500000
O O11 0.263585 0.166417 0.155849
O O12 0.281625 0.042355 0.363457
O O13 0.224707 0.981968 0.112395
O O14 0.320307 0.027627 0.136539
O O15 0.207338 0.170691 0.731415
O O16 0.712502 0.827066 0.386119
O O17 0.686630 0.667060 0.449053
#
# Coordination Sequence:
#
# PCOD9255182 Si02
#       8
#     8   8   8   8   8   8   8   8
#     4  10  18  34  47  70 103 139 183 217 262 306
#     4  11  20  34  46  72 106 135 184 234 258 304
#     4  12  25  32  49  73 102 147 191 227 268 312
#     4  10  19  32  49  72 100 139 179 225 260 316
#     4   9  21  33  53  74 108 143 185 226 267 318
#     4  10  17  29  47  70 100 135 180 217 261 295
#     4  10  21  32  52  71  94 136 184 227 261 315
#     4  10  19  37  53  72 100 144 189 219 278 330
#
# _framework density 18.898703000000001
#
# number of rings (size 3 to 8) (size 9 to 14) (size 15 to 20)
#    0.000    1.750    5.000    0.000    3.500    0.500 
#    0.000    0.000    0.000    0.000    0.000    0.000 
#    0.000    0.000    0.000   20.250    1.500    4.250 
#
# Total GULP energy -178331.016600 kJ/mol
# GULP energy per Si atom -5572.844269 kJ/mol
# Density = 1.885569 g / cm^3
# Si number density = 18.898703 Si / 1000 Ang^3
#
#
#
# Elastic Constant Matrix: (Units=GPa)
#
#
# Indices 1 2 3 4 5 6 
#
# 1 79.8018 22.0512 34.4815 0.0000 -15.1168 0.0000
# 2 22.0512 41.8907 22.4499 0.0000 -3.7645 0.0000
# 3 34.4815 22.4499 121.2316 0.0000 -24.1506 0.0000
# 4 0.0000 0.0000 0.0000 11.6108 0.0000 -0.5570
# 5 -15.1168 -3.7645 -24.1506 0.0000 27.2476 0.0000
# 6 0.0000 0.0000 0.0000 -0.5570 0.0000 19.2264
#
#
#
# Elastic Compliance Matrix: (Units=1/GPa)
#
#
# Indices 1 2 3 4 5 6 
#
# 1 0.016601 -0.007011 -0.002164 0.000000 0.006324 0.000000
# 2 -0.007011 0.029478 -0.004163 0.000000 -0.003507 0.000000
# 3 -0.002164 -0.004163 0.011272 0.000000 0.008215 0.000000
# 4 0.000000 0.000000 0.000000 0.086247 0.000000 0.002499
# 5 0.006324 -0.003507 0.008215 0.000000 0.047005 0.000000
# 6 0.000000 0.000000 0.000000 0.002499 0.000000 0.052084
#
#
# Mechanical properties :
#
#
# Convention : Reuss Voigt Hill
#
# Bulk Modulus (GPa) = 32.60005 44.54326 38.57165
# Shear Modulus (GPa) = 17.88343 22.54639 20.21491
#
# Velocity S-wave (km/s) = 3.07950 3.45775 3.27409
# Velocity P-wave (km/s) = 5.47099 6.28983 5.89465
#
# Compressibility (1/GPa) = 0.03067480
#
# Stress axis : x y z
#
# Youngs Moduli (GPa) = 60.23658 33.92330 88.71885
#
# Poissons Ratio (x) = 0.23784 0.19197
# Poissons Ratio (y) = 0.42232 0.36937
# Poissons Ratio (z) = 0.13034 0.14124
#
# Static dielectric constant tensor:
#      x y z
#    x 1.687360 0.000000 -0.011680 
#    y 0.000000 1.683560 0.000000 
#    z -0.011680 0.000000 1.701460 
# 
# From -- ./inp_files/62515.got.cif
#   From: 2010.05.17/outbox.cif.g08.bks.cpg/sg15_32_cif.got.tgz:62515.got - 2010.06.03 18:47:42.
