data_PCOD9255609
_publ_section_title
;
Structure prediction by ZEFSAII (Michael W. Deem and Ramdas Pophale) SiO2 
 PCOD9255609
Probable space group: C 2/C
;
_chemical_formula_sum "Si O2"
_cell_formula_units_Z 64
_cell_length_a 11.722967
_cell_length_b 15.648436
_cell_length_c 29.179612
_cell_angle_alpha 90.000000
_cell_angle_beta 39.503291
_cell_angle_gamma 90.000000
_cell_volume 3405.091432
_symmetry_space_group_name_H-M "C 2/C"
_symmetry_group_IT_number 15
_symmetry_cell_setting 'monoclinic'
loop_
_space_group_symop_operation_xyz
x,y,z
-x,y,1/2-z
-x,-y,-z
x,-y,1/2+z
1/2+x,1/2+y,z
1/2-x,1/2+y,1/2-z
1/2-x,1/2-y,-z
1/2+x,1/2-y,1/2+z
loop_
_atom_site_type_symbol
_atom_site_label
_atom_site_fract_x
_atom_site_fract_y
_atom_site_fract_z
Si Si1 0.485978 0.803746 0.975561
Si Si2 0.759196 0.429619 0.982655
Si Si3 0.390776 0.276398 0.358803
Si Si4 0.830942 0.553792 0.034446
Si Si5 0.849607 0.412894 0.849448
Si Si6 0.785519 0.490287 0.285502
Si Si7 0.105130 0.164272 0.874938
Si Si8 0.971522 0.969322 0.310664
O O1 0.301017 0.772759 0.055796
O O2 0.410432 0.867209 0.958731
O O3 0.605473 0.851184 0.976063
O O4 0.603482 0.729855 0.916810
O O5 0.769182 0.426876 0.924945
O O6 0.790208 0.521789 0.996063
O O7 0.568892 0.395631 0.060651
O O8 0.400393 0.187107 0.329355
O O9 0.548403 0.282555 0.347549
O O10 0.405633 0.369655 0.330479
O O11 0.672473 0.524899 0.117121
O O12 0.000000 0.500000 0.000000
O O13 0.730574 0.444119 0.843384
O O14 0.026288 0.472636 0.790391
O O15 0.771531 0.397043 0.313679
O O16 0.651213 0.479925 0.284714
O O17 0.000000 0.997565 0.250000
#
# Coordination Sequence:
#
# PCOD9255609 Si02
#       8
#     8   8   8   8   8   8   8   8
#     4  10  17  31  62  93 118 147 200 253 294 353
#     4  10  17  33  63  88 117 153 199 248 299 338
#     4  10  18  35  60  96 112 146 213 258 284 353
#     4  10  19  34  58  99 123 146 203 259 287 371
#     4  11  22  38  63  84 123 164 206 248 308 358
#     4  10  25  39  54  87 128 156 206 249 299 380
#     4  10  17  37  58  87 119 155 200 249 292 370
#     4  11  23  38  62  89 129 160 195 253 323 350
#
# _framework density 18.795383000000001
#
# number of rings (size 3 to 8) (size 9 to 14) (size 15 to 20)
#    0.000    1.750    7.500    0.750    5.250    0.500 
#    0.000    0.000   13.750    1.500    0.000    0.000 
#    0.000    0.000    0.000    0.000    0.000    0.000 
#
# Total GULP energy -178223.743684 kJ/mol
# GULP energy per Si atom -5569.491990 kJ/mol
# Density = 1.875260 g / cm^3
# Si number density = 18.795383 Si / 1000 Ang^3
#
#
#
# Elastic Constant Matrix: (Units=GPa)
#
#
# Indices 1 2 3 4 5 6 
#
# 1 59.1852 28.3020 15.4400 0.0001 19.3065 -0.0001
# 2 28.3020 97.7829 12.2754 0.0000 -1.0870 0.0000
# 3 15.4400 12.2754 58.1451 -0.0004 11.0168 0.0000
# 4 0.0001 0.0000 -0.0004 25.6019 0.0001 5.4179
# 5 19.3065 -1.0870 11.0168 0.0001 30.0946 0.0001
# 6 -0.0001 0.0000 0.0000 5.4179 0.0001 24.7137
#
#
#
# Elastic Compliance Matrix: (Units=1/GPa)
#
#
# Indices 1 2 3 4 5 6 
#
# 1 0.026462 -0.007549 -0.002326 0.000000 -0.016397 0.000000
# 2 -0.007549 0.012705 -0.001808 0.000000 0.005964 0.000000
# 3 -0.002326 -0.001808 0.019263 0.000000 -0.005625 0.000000
# 4 0.000000 0.000000 0.000000 0.040960 0.000000 -0.008979
# 5 -0.016397 0.005964 -0.005625 0.000000 0.046022 0.000000
# 6 0.000000 0.000000 0.000000 -0.008979 0.000000 0.042432
#
#
# Mechanical properties :
#
#
# Convention : Reuss Voigt Hill
#
# Bulk Modulus (GPa) = 28.51914 36.34976 32.43445
# Shear Modulus (GPa) = 22.43178 26.68843 24.56010
#
# Velocity S-wave (km/s) = 3.45842 3.77230 3.61877
# Velocity P-wave (km/s) = 5.58157 6.19318 5.89531
#
# Compressibility (1/GPa) = 0.03506417
#
# Stress axis : x y z
#
# Youngs Moduli (GPa) = 37.79035 78.70927 51.91203
#
# Poissons Ratio (x) = 0.59420 0.12076
# Poissons Ratio (y) = 0.28529 0.09383
# Poissons Ratio (z) = 0.08791 0.14227
#
# Static dielectric constant tensor:
#      x y z
#    x 1.644720 0.000000 0.015520 
#    y 0.000000 2.337580 0.000000 
#    z 0.015520 0.000000 1.655320 
# 
# From -- ./inp_files/311182.got.cif
#   From: 2010.05.17/outbox.cif.g08.bks.cpg/sg15_156_cif.got.tgz:311182.got - 2010.06.03 18:47:42.
