data_PCOD9255257
_publ_section_title
;
Structure prediction by ZEFSAII (Michael W. Deem and Ramdas Pophale) SiO2 
 PCOD9255257
Probable space group: C 2/C
;
_chemical_formula_sum "Si O2"
_cell_formula_units_Z 40
_cell_length_a 25.003732
_cell_length_b 7.232319
_cell_length_c 20.299192
_cell_angle_alpha 90.000000
_cell_angle_beta 27.053281
_cell_angle_gamma 90.000000
_cell_volume 1669.550811
_symmetry_space_group_name_H-M "C 2/C"
_symmetry_group_IT_number 15
_symmetry_cell_setting 'monoclinic'
loop_
_space_group_symop_operation_xyz
x,y,z
-x,y,1/2-z
-x,-y,-z
x,-y,1/2+z
1/2+x,1/2+y,z
1/2-x,1/2+y,1/2-z
1/2-x,1/2-y,-z
1/2+x,1/2-y,1/2+z
loop_
_atom_site_type_symbol
_atom_site_label
_atom_site_fract_x
_atom_site_fract_y
_atom_site_fract_z
Si Si1 0.446143 0.435462 0.737800
Si Si2 0.789053 0.336824 0.783008
Si Si3 0.306628 0.964321 0.006293
Si Si4 0.583363 0.601631 0.961497
Si Si5 0.557082 0.879616 0.772131
O O1 0.500000 0.385856 0.750000
O O2 0.305890 0.404879 0.883083
O O3 0.508547 0.345861 0.607021
O O4 0.469755 0.658493 0.703189
O O5 0.742421 0.177383 0.884220
O O6 0.682752 0.464477 0.879344
O O7 0.849025 0.259135 0.652004
O O8 0.889517 0.430867 0.716520
O O9 0.439507 0.993482 0.886124
O O10 0.342058 0.902245 0.893596
O O11 0.500000 0.500000 0.000000
#
# Coordination Sequence:
#
# PCOD9255257 Si02
#       5
#     8   8   8   8   8
#     4  11  18  30  56  87 110 155 195 244 297 348
#     4  11  21  36  57  86 121 156 198 236 298 355
#     4  10  17  29  53  88 120 139 187 256 300 337
#     4  12  22  39  61  87 122 160 195 245 300 355
#     4  10  17  29  53  88 119 140 190 254 301 330
#
# _framework density 23.958538999999998
#
# number of rings (size 3 to 8) (size 9 to 14) (size 15 to 20)
#    0.000    1.200    8.000    3.600    0.000    0.000 
#    0.000    4.000    0.000    1.200    5.200    0.000 
#    0.000    0.000    0.000    0.000    0.000    0.000 
#
# Total GULP energy -111751.276424 kJ/mol
# GULP energy per Si atom -5587.563821 kJ/mol
# Density = 2.390401 g / cm^3
# Si number density = 23.958539 Si / 1000 Ang^3
#
#
#
# Elastic Constant Matrix: (Units=GPa)
#
#
# Indices 1 2 3 4 5 6 
#
# 1 168.4943 18.9338 77.8940 0.0020 11.5896 -0.0011
# 2 18.9338 49.9476 36.4234 0.0056 11.4317 -0.0044
# 3 77.8940 36.4234 220.1974 0.0038 13.0243 -0.0048
# 4 0.0020 0.0056 0.0038 -1.7624 -0.0024 13.9636
# 5 11.5896 11.4317 13.0243 -0.0024 45.5574 0.0031
# 6 -0.0011 -0.0044 -0.0048 13.9636 0.0031 9.2383
#
#
#
# Elastic Compliance Matrix: (Units=1/GPa)
#
#
# Indices 1 2 3 4 5 6 
#
# 1 0.007176 -0.000786 -0.002352 0.000000 -0.000956 0.000000
# 2 -0.000786 0.023895 -0.003389 0.000013 -0.004827 -0.000008
# 3 -0.002352 -0.003389 0.005949 0.000001 -0.000252 0.000000
# 4 0.000000 0.000013 0.000001 -0.043729 -0.000010 0.066096
# 5 -0.000956 -0.004827 -0.000252 -0.000010 0.023477 0.000005
# 6 0.000000 -0.000008 0.000000 0.066096 0.000005 0.008342
#
#
# Mechanical properties :
#
#
# Convention : Reuss Voigt Hill
#
# Bulk Modulus (GPa) = 41.72610 78.34908 60.03759
# Shear Modulus (GPa) = 108.33343 30.96586 69.64964
#
# Velocity S-wave (km/s) = 6.73166 3.59900 5.39759
# Velocity P-wave (km/s) = 8.82463 7.07413 7.99742
#
# Compressibility (1/GPa) = 0.02396581
#
# Stress axis : x y z
#
# Youngs Moduli (GPa) = 139.34660 41.84953 168.09983
#
# Poissons Ratio (x) = 0.03291 0.39537
# Poissons Ratio (y) = 0.10959 0.56966
# Poissons Ratio (z) = 0.32774 0.14182
#
# Static dielectric constant tensor:
#      x y z
#    x 2.121920 -0.000260 -0.386000 
#    y -0.000260 2.202740 0.000450 
#    z -0.386000 0.000450 2.470090 
# 
# From -- ./inp_files/218771.got.cif
#   From: 2010.05.17/outbox.cif.g08.bks.cpg/sg15_110_cif.got.tgz:218771.got - 2010.06.03 18:47:42.
