data_PCOD9255599
_publ_section_title
;
Structure prediction by ZEFSAII (Michael W. Deem and Ramdas Pophale) SiO2 
 PCOD9255599
Probable space group: C 2/C
;
_chemical_formula_sum "Si O2"
_cell_formula_units_Z 48
_cell_length_a 12.475983
_cell_length_b 12.673138
_cell_length_c 20.642362
_cell_angle_alpha 90.000000
_cell_angle_beta 66.761045
_cell_angle_gamma 90.000000
_cell_volume 2998.963080
_symmetry_space_group_name_H-M "C 2/C"
_symmetry_group_IT_number 15
_symmetry_cell_setting 'monoclinic'
loop_
_space_group_symop_operation_xyz
x,y,z
-x,y,1/2-z
-x,-y,-z
x,-y,1/2+z
1/2+x,1/2+y,z
1/2-x,1/2+y,1/2-z
1/2-x,1/2-y,-z
1/2+x,1/2-y,1/2+z
loop_
_atom_site_type_symbol
_atom_site_label
_atom_site_fract_x
_atom_site_fract_y
_atom_site_fract_z
Si Si1 0.410434 0.059333 0.615882
Si Si2 0.580778 0.757605 0.590370
Si Si3 0.112109 0.070009 0.483140
Si Si4 0.217211 0.777822 0.854095
Si Si5 0.902670 0.371527 0.716926
Si Si6 0.151306 0.518074 0.013261
O O1 0.362042 0.176046 0.640581
O O2 0.351426 0.014975 0.563757
O O3 0.387209 0.978394 0.679807
O O4 0.548992 0.055191 0.566529
O O5 0.582198 0.659604 0.542815
O O6 0.680893 0.742377 0.620189
O O7 0.461276 0.785373 0.655299
O O8 0.614276 0.862489 0.542051
O O9 0.148926 0.131161 0.409085
O O10 0.223027 0.005034 0.484129
O O11 0.000000 0.000000 0.500000
O O12 0.285780 0.827508 0.777239
O O13 0.000000 0.389749 0.750000
#
# Coordination Sequence:
#
# PCOD9255599 Si02
#       6
#     8   8   8   8   8   8
#     4  10  17  31  60  74 101 131 179 214 250 306
#     4   9  16  34  54  79  97 130 184 217 244 297
#     4  11  20  32  54  81 108 131 172 220 258 300
#     4  10  18  34  54  76 103 139 174 214 253 300
#     4   9  20  32  53  77 102 136 177 214 255 302
#     4   9  17  32  56  81  95 132 177 214 252 302
#
# _framework density 16.005531999999999
#
# number of rings (size 3 to 8) (size 9 to 14) (size 15 to 20)
#    0.000    2.333    3.333    2.000    0.000    1.333 
#    0.000    0.833    3.667    0.000    0.000    0.000 
#    0.000    0.000    0.000    0.000    0.000    0.000 
#
# Total GULP energy -133779.238312 kJ/mol
# GULP energy per Si atom -5574.134930 kJ/mol
# Density = 1.596910 g / cm^3
# Si number density = 16.005532 Si / 1000 Ang^3
#
#
#
# Elastic Constant Matrix: (Units=GPa)
#
#
# Indices 1 2 3 4 5 6 
#
# 1 93.8993 54.3042 46.9752 0.0000 -22.9029 0.0000
# 2 54.3042 54.6724 44.5522 0.0000 -17.5113 0.0000
# 3 46.9752 44.5522 115.8335 0.0000 -15.3207 0.0000
# 4 0.0000 0.0000 0.0000 24.4027 0.0000 1.2693
# 5 -22.9029 -17.5113 -15.3207 0.0000 19.6686 0.0000
# 6 0.0000 0.0000 0.0000 1.2693 0.0000 29.6715
#
#
#
# Elastic Compliance Matrix: (Units=1/GPa)
#
#
# Indices 1 2 3 4 5 6 
#
# 1 0.026501 -0.022386 -0.000771 0.000000 0.010327 0.000000
# 2 -0.022386 0.052373 -0.009304 0.000000 0.013313 0.000000
# 3 -0.000771 -0.009304 0.012609 0.000000 0.000640 0.000000
# 4 0.000000 0.000000 0.000000 0.041071 0.000000 -0.001757
# 5 0.010327 0.013313 0.000640 0.000000 0.075219 0.000000
# 6 0.000000 0.000000 0.000000 -0.001757 0.000000 0.033778
#
#
# Mechanical properties :
#
#
# Convention : Reuss Voigt Hill
#
# Bulk Modulus (GPa) = 37.65170 61.78539 49.71854
# Shear Modulus (GPa) = 15.85659 22.65344 19.25502
#
# Velocity S-wave (km/s) = 3.15094 3.76620 3.47222
# Velocity P-wave (km/s) = 6.06739 7.58938 6.87066
#
# Compressibility (1/GPa) = 0.02655923
#
# Stress axis : x y z
#
# Youngs Moduli (GPa) = 37.73454 19.09399 79.30829
#
# Poissons Ratio (x) = 0.42745 0.06114
# Poissons Ratio (y) = 0.84474 0.73790
# Poissons Ratio (z) = 0.02909 0.17765
#
# Static dielectric constant tensor:
#      x y z
#    x 1.541110 0.000000 -0.003820 
#    y 0.000000 1.509970 0.000000 
#    z -0.003820 0.000000 1.559480 
# 
# From -- ./inp_files/196017.got.cif
#   From: 2010.05.17/outbox.cif.g08.bks.cpg/sg15_99_cif.got.tgz:196017.got - 2010.06.03 18:47:42.
