data_PCOD9255130
_publ_section_title
;
Structure prediction by ZEFSAII (Michael W. Deem and Ramdas Pophale) SiO2 
 PCOD9255130
Probable space group: C 2/C
;
_chemical_formula_sum "Si O2"
_cell_formula_units_Z 48
_cell_length_a 23.695521
_cell_length_b 18.510578
_cell_length_c 16.984187
_cell_angle_alpha 90.000000
_cell_angle_beta 161.671308
_cell_angle_gamma 90.000000
_cell_volume 2342.649257
_symmetry_space_group_name_H-M "C 2/C"
_symmetry_group_IT_number 15
_symmetry_cell_setting 'monoclinic'
loop_
_space_group_symop_operation_xyz
x,y,z
-x,y,1/2-z
-x,-y,-z
x,-y,1/2+z
1/2+x,1/2+y,z
1/2-x,1/2+y,1/2-z
1/2-x,1/2-y,-z
1/2+x,1/2-y,1/2+z
loop_
_atom_site_type_symbol
_atom_site_label
_atom_site_fract_x
_atom_site_fract_y
_atom_site_fract_z
Si Si1 0.148151 0.280528 0.290522
Si Si2 0.736749 0.302267 0.754300
Si Si3 0.796377 0.341606 0.387719
Si Si4 0.222102 0.336049 0.965048
Si Si5 0.266268 0.079629 0.174276
Si Si6 0.795346 0.416386 0.230639
O O1 0.250000 0.250000 0.500000
O O2 0.139106 0.224909 0.204097
O O3 0.242536 0.352108 0.380476
O O4 0.948519 0.300913 0.052922
O O5 0.715037 0.240525 0.658647
O O6 0.695881 0.377635 0.657561
O O7 0.711518 0.356289 0.359988
O O8 0.727578 0.391548 0.226380
O O9 0.009776 0.352278 0.680082
O O10 0.292849 0.377839 0.982564
O O11 0.250000 0.250000 0.000000
O O12 0.485554 0.082976 0.472324
O O13 0.225155 0.995037 0.116039
#
# Coordination Sequence:
#
# PCOD9255130 Si02
#       6
#     8   8   8   8   8   8
#     4  10  20  35  55  79  99 133 178 218 252 300
#     4  10  19  33  56  76 102 136 171 212 260 303
#     4   9  18  30  48  75 102 133 163 209 259 302
#     4  10  17  28  50  77 104 127 170 210 252 304
#     4   9  16  31  50  75 101 134 169 209 253 304
#     4   8  17  32  50  71 104 133 167 213 259 293
#
# _framework density 20.489623999999999
#
# number of rings (size 3 to 8) (size 9 to 14) (size 15 to 20)
#    0.000    2.667    1.667    1.500    0.000    0.000 
#    3.000    0.000    0.000   12.000    0.000    0.000 
#    0.000    0.000    0.000    0.000    0.000    0.000 
#
# Total GULP energy -133866.622888 kJ/mol
# GULP energy per Si atom -5577.775954 kJ/mol
# Density = 2.044299 g / cm^3
# Si number density = 20.489624 Si / 1000 Ang^3
#
#
#
# Elastic Constant Matrix: (Units=GPa)
#
#
# Indices 1 2 3 4 5 6 
#
# 1 95.4609 61.6277 35.6522 0.0000 -26.9060 0.0000
# 2 61.6277 140.4317 13.7877 0.0000 -33.4512 0.0000
# 3 35.6522 13.7877 46.7504 0.0000 -11.6728 0.0000
# 4 0.0000 0.0000 0.0000 22.0556 0.0000 -3.8059
# 5 -26.9060 -33.4512 -11.6728 0.0000 38.4371 0.0000
# 6 0.0000 0.0000 0.0000 -3.8059 0.0000 20.8275
#
#
#
# Elastic Compliance Matrix: (Units=1/GPa)
#
#
# Indices 1 2 3 4 5 6 
#
# 1 0.021037 -0.006804 -0.012809 0.000000 0.004915 0.000000
# 2 -0.006804 0.011208 0.003386 0.000000 0.006020 0.000000
# 3 -0.012809 0.003386 0.031008 0.000000 0.003397 0.000000
# 4 0.000000 0.000000 0.000000 0.046816 0.000000 0.008555
# 5 0.004915 0.006020 0.003397 0.000000 0.035728 0.000000
# 6 0.000000 0.000000 0.000000 0.008555 0.000000 0.049577
#
#
# Mechanical properties :
#
#
# Convention : Reuss Voigt Hill
#
# Bulk Modulus (GPa) = 32.46779 56.08645 44.27712
# Shear Modulus (GPa) = 21.00007 27.70238 24.35123
#
# Velocity S-wave (km/s) = 3.20490 3.68097 3.45115
# Velocity P-wave (km/s) = 5.43834 6.74526 6.12675
#
# Compressibility (1/GPa) = 0.03079976
#
# Stress axis : x y z
#
# Youngs Moduli (GPa) = 47.53539 89.22052 32.24952
#
# Poissons Ratio (x) = 0.60702 0.41309
# Poissons Ratio (y) = 0.32341 -0.10920
# Poissons Ratio (z) = 0.60889 -0.30211
#
# Static dielectric constant tensor:
#      x y z
#    x 1.839910 0.000000 0.084100 
#    y 0.000000 1.718890 0.000000 
#    z 0.084100 0.000000 1.813380 
# 
# From -- ./inp_files/127119.got.cif
#   From: 2010.05.17/outbox.cif.g08.bks.cpg/sg15_64_cif.got.tgz:127119.got - 2010.06.03 18:47:42.
