data_PCOD9255298
_publ_section_title
;
Structure prediction by ZEFSAII (Michael W. Deem and Ramdas Pophale) SiO2 
 PCOD9255298
Probable space group: C 2/C
;
_chemical_formula_sum "Si O2"
_cell_formula_units_Z 56
_cell_length_a 21.070620
_cell_length_b 21.070273
_cell_length_c 17.030725
_cell_angle_alpha 90.000000
_cell_angle_beta 27.224517
_cell_angle_gamma 90.000000
_cell_volume 3459.005658
_symmetry_space_group_name_H-M "C 2/C"
_symmetry_group_IT_number 15
_symmetry_cell_setting 'monoclinic'
loop_
_space_group_symop_operation_xyz
x,y,z
-x,y,1/2-z
-x,-y,-z
x,-y,1/2+z
1/2+x,1/2+y,z
1/2-x,1/2+y,1/2-z
1/2-x,1/2-y,-z
1/2+x,1/2-y,1/2+z
loop_
_atom_site_type_symbol
_atom_site_label
_atom_site_fract_x
_atom_site_fract_y
_atom_site_fract_z
Si Si1 0.020398 0.430672 0.514843
Si Si2 0.252782 0.612601 0.640483
Si Si3 0.649772 0.530844 0.103410
Si Si4 0.670709 0.127152 0.387059
Si Si5 0.047030 0.291954 0.286823
Si Si6 0.107184 0.503076 0.563385
Si Si7 0.567712 0.352852 0.806404
O O1 0.151412 0.401277 0.324464
O O2 0.054341 0.445729 0.567420
O O3 0.000000 0.500000 0.500000
O O4 0.885268 0.390459 0.637753
O O5 0.273332 0.551451 0.561267
O O6 0.177180 0.665854 0.670924
O O7 0.405902 0.633132 0.498279
O O8 0.500000 0.501910 0.250000
O O9 0.617228 0.596604 0.186163
O O10 0.747408 0.491113 0.053066
O O11 0.581305 0.186126 0.517431
O O12 0.831403 0.138141 0.229839
O O13 0.626002 0.066390 0.489902
O O14 0.080969 0.218267 0.259961
O O15 0.000000 0.305196 0.250000
O O16 0.000000 0.517955 0.750000
#
# Coordination Sequence:
#
# PCOD9255298 Si02
#       7
#     8   8   8   8   8   8   8
#     4   9  18  31  45  60  79 112 149 180 218 258
#     4  10  19  30  42  61  92 119 144 178 210 245
#     4   9  17  28  40  60  90 117 143 175 209 246
#     4   9  18  30  42  62  91 116 146 178 207 245
#     4  11  18  26  42  63  90 125 154 171 194 238
#     4  10  17  30  48  62  79 109 147 183 219 256
#     4  10  19  28  41  63  91 122 149 172 201 243
#
# _framework density 16.189623999999998
#
# number of rings (size 3 to 8) (size 9 to 14) (size 15 to 20)
#    0.000    2.286    0.000    6.857    0.000    1.714 
#    0.000   12.857    0.000    0.000    0.000    0.000 
#    0.000   18.286    0.000    0.000    0.000    0.000 
#
# Total GULP energy -156069.989104 kJ/mol
# GULP energy per Si atom -5573.928182 kJ/mol
# Density = 1.615278 g / cm^3
# Si number density = 16.189624 Si / 1000 Ang^3
#
#
#
# Elastic Constant Matrix: (Units=GPa)
#
#
# Indices 1 2 3 4 5 6 
#
# 1 112.8141 28.5622 38.5740 -0.0004 -34.0474 0.0011
# 2 28.5622 30.5014 9.2158 -0.0003 -7.4028 0.0006
# 3 38.5740 9.2158 52.4496 0.0005 -26.1158 -0.0004
# 4 -0.0004 -0.0003 0.0005 7.8691 -0.0002 -2.5945
# 5 -34.0474 -7.4028 -26.1158 -0.0002 28.4403 -0.0001
# 6 0.0011 0.0006 -0.0004 -2.5945 -0.0001 20.9142
#
#
#
# Elastic Compliance Matrix: (Units=1/GPa)
#
#
# Indices 1 2 3 4 5 6 
#
# 1 0.017438 -0.011728 -0.003481 0.000001 0.014627 0.000000
# 2 -0.011728 0.043137 -0.000653 0.000001 -0.003411 -0.000001
# 3 -0.003481 -0.000653 0.036076 -0.000001 0.028790 0.000001
# 4 0.000001 0.000001 -0.000001 0.132499 0.000001 0.016437
# 5 0.014627 -0.003411 0.028790 0.000001 0.078221 0.000000
# 6 0.000000 -0.000001 0.000001 0.016437 0.000000 0.049853
#
#
# Mechanical properties :
#
#
# Convention : Reuss Voigt Hill
#
# Bulk Modulus (GPa) = 15.40182 38.71879 27.06031
# Shear Modulus (GPa) = 12.17761 19.40560 15.79161
#
# Velocity S-wave (km/s) = 2.74558 3.46590 3.12655
# Velocity P-wave (km/s) = 4.42549 6.32332 5.45753
#
# Compressibility (1/GPa) = 0.06492738
#
# Stress axis : x y z
#
# Youngs Moduli (GPa) = 57.34615 23.18214 27.71925
#
# Poissons Ratio (x) = 0.27187 0.09649
# Poissons Ratio (y) = 0.67253 0.01810
# Poissons Ratio (z) = 0.19963 0.01514
#
# Static dielectric constant tensor:
#      x y z
#    x 1.589010 0.000000 -0.031160 
#    y 0.000000 1.532300 0.000000 
#    z -0.031160 0.000000 1.570980 
# 
# From -- ./inp_files/156233.got.cif
#   From: 2010.05.17/outbox.cif.g08.bks.cpg/sg15_79_cif.got.tgz:156233.got - 2010.06.03 18:47:42.
