data_PCOD9255914
_publ_section_title
;
Structure prediction by ZEFSAII (Michael W. Deem and Ramdas Pophale) SiO2 
 PCOD9255914
Probable space group: C 2/C
;
_chemical_formula_sum "Si O2"
_cell_formula_units_Z 48
_cell_length_a 9.912427
_cell_length_b 16.631210
_cell_length_c 18.236309
_cell_angle_alpha 90.000000
_cell_angle_beta 45.901429
_cell_angle_gamma 90.000000
_cell_volume 2158.997398
_symmetry_space_group_name_H-M "C 2/C"
_symmetry_group_IT_number 15
_symmetry_cell_setting 'monoclinic'
loop_
_space_group_symop_operation_xyz
x,y,z
-x,y,1/2-z
-x,-y,-z
x,-y,1/2+z
1/2+x,1/2+y,z
1/2-x,1/2+y,1/2-z
1/2-x,1/2-y,-z
1/2+x,1/2-y,1/2+z
loop_
_atom_site_type_symbol
_atom_site_label
_atom_site_fract_x
_atom_site_fract_y
_atom_site_fract_z
Si Si1 0.224685 0.847755 0.728577
Si Si2 0.183452 0.285966 0.948300
Si Si3 0.158078 0.697699 0.097872
Si Si4 0.771297 0.453543 0.842927
Si Si5 0.772574 0.369959 0.325559
Si Si6 0.183993 0.699146 0.836813
O O1 0.204395 0.846435 0.648311
O O2 0.447661 0.827173 0.655889
O O3 0.192196 0.922512 0.794582
O O4 0.122684 0.771529 0.804489
O O5 0.173532 0.204825 0.902592
O O6 0.250000 0.250000 0.000000
O O7 0.989068 0.327222 0.047106
O O8 0.261858 0.615614 0.084178
O O9 0.178758 0.756270 0.159631
O O10 0.250000 0.750000 0.000000
O O11 0.711323 0.544326 0.880686
O O12 0.000000 0.456146 0.750000
O O13 0.740601 0.365073 0.249783
O O14 0.000000 0.363112 0.250000
#
# Coordination Sequence:
#
# PCOD9255914 Si02
#       6
#     8   8   8   8   8   8
#     4   9  19  34  54  76 103 134 171 223 259 305
#     4  11  20  32  52  81 104 137 181 209 252 316
#     4  10  17  33  57  80 100 129 181 221 262 307
#     4   8  17  33  52  76 107 137 169 215 267 307
#     4  10  19  34  52  75 110 141 171 213 262 310
#     4  10  19  32  53  77 101 139 174 212 255 311
#
# _framework density 22.23254
#
# number of rings (size 3 to 8) (size 9 to 14) (size 15 to 20)
#    0.000    2.333    3.333    1.500    0.000    0.000 
#    0.000    5.833    0.000    0.000   17.333    0.000 
#    0.000    0.000    0.000    0.000    0.000    0.000 
#
# Total GULP energy -133691.638733 kJ/mol
# GULP energy per Si atom -5570.484947 kJ/mol
# Density = 2.218194 g / cm^3
# Si number density = 22.232540 Si / 1000 Ang^3
#
#
#
# Elastic Constant Matrix: (Units=GPa)
#
#
# Indices 1 2 3 4 5 6 
#
# 1 56.2574 5.0189 11.5811 -0.0004 24.5777 0.0003
# 2 5.0189 107.6548 25.1024 -0.0004 15.3516 0.0003
# 3 11.5811 25.1024 116.3802 -0.0005 25.7474 0.0005
# 4 -0.0004 -0.0004 -0.0005 21.6830 0.0004 -1.9544
# 5 24.5777 15.3516 25.7474 0.0004 38.6608 -0.0004
# 6 0.0003 0.0003 0.0005 -1.9544 -0.0004 8.4409
#
#
#
# Elastic Compliance Matrix: (Units=1/GPa)
#
#
# Indices 1 2 3 4 5 6 
#
# 1 0.024852 0.001006 0.001048 0.000001 -0.016896 -0.000001
# 2 0.001006 0.010108 -0.001467 0.000000 -0.003677 0.000000
# 3 0.001048 -0.001467 0.010348 0.000000 -0.006975 -0.000001
# 4 0.000001 0.000000 0.000000 0.047102 -0.000001 0.010906
# 5 -0.016896 -0.003677 -0.006975 -0.000001 0.042713 0.000003
# 6 -0.000001 0.000000 -0.000001 0.010906 0.000003 0.120995
#
#
# Mechanical properties :
#
#
# Convention : Reuss Voigt Hill
#
# Bulk Modulus (GPa) = 21.51341 40.41081 30.96211
# Shear Modulus (GPa) = 18.48855 29.66294 24.07574
#
# Velocity S-wave (km/s) = 2.88687 3.65665 3.29432
# Velocity P-wave (km/s) = 4.56175 6.00367 5.33168
#
# Compressibility (1/GPa) = 0.04648263
#
# Stress axis : x y z
#
# Youngs Moduli (GPa) = 40.23886 98.92754 96.63879
#
# Poissons Ratio (x) = -0.09957 -0.10128
# Poissons Ratio (y) = -0.04050 0.14177
# Poissons Ratio (z) = -0.04217 0.14513
#
# Static dielectric constant tensor:
#      x y z
#    x 2.003920 0.000000 -0.005820 
#    y 0.000000 1.790560 0.000000 
#    z -0.005820 0.000000 1.911710 
# 
# From -- ./inp_files/87355.got.cif
#   From: 2010.05.17/outbox.cif.g08.bks.cpg/sg15_44_cif.got.tgz:87355.got - 2010.06.03 18:47:42.
