data_PCOD9255136
_publ_section_title
;
Structure prediction by ZEFSAII (Michael W. Deem and Ramdas Pophale) SiO2 
 PCOD9255136
Probable space group: C 2/C
;
_chemical_formula_sum "Si O2"
_cell_formula_units_Z 56
_cell_length_a 27.712475
_cell_length_b 14.690178
_cell_length_c 12.475361
_cell_angle_alpha 90.000000
_cell_angle_beta 153.479982
_cell_angle_gamma 90.000000
_cell_volume 2267.707986
_symmetry_space_group_name_H-M "C 2/C"
_symmetry_group_IT_number 15
_symmetry_cell_setting 'monoclinic'
loop_
_space_group_symop_operation_xyz
x,y,z
-x,y,1/2-z
-x,-y,-z
x,-y,1/2+z
1/2+x,1/2+y,z
1/2-x,1/2+y,1/2-z
1/2-x,1/2-y,-z
1/2+x,1/2-y,1/2+z
loop_
_atom_site_type_symbol
_atom_site_label
_atom_site_fract_x
_atom_site_fract_y
_atom_site_fract_z
Si Si1 0.906934 0.567749 0.980116
Si Si2 0.305059 0.875090 0.697312
Si Si3 0.163872 0.170516 0.305892
Si Si4 0.001009 0.242764 0.369108
Si Si5 0.628467 0.095065 0.813047
Si Si6 0.772290 0.430989 0.393744
Si Si7 0.125527 0.087182 0.015102
O O1 0.000000 0.582215 0.250000
O O2 0.874833 0.464674 0.876628
O O3 0.938299 0.610505 0.927704
O O4 0.807577 0.612172 0.850330
O O5 0.198698 0.883429 0.559842
O O6 0.270903 0.878425 0.503565
O O7 0.384496 0.789162 0.875537
O O8 0.250000 0.250000 0.500000
O O9 0.249035 0.089233 0.492565
O O10 0.139333 0.164706 0.132533
O O11 0.055366 0.176697 0.157264
O O12 0.000000 0.200261 0.250000
O O13 0.913392 0.326180 0.192728
O O14 0.632404 0.005421 0.890701
O O15 0.671819 0.493854 0.159453
O O16 0.000000 0.075635 0.750000
#
# Coordination Sequence:
#
# PCOD9255136 Si02
#       7
#     8   8   8   8   8   8   8
#     4  10  17  28  50  84 120 145 172 224 291 345
#     4  10  19  32  54  85 113 142 185 236 285 337
#     4   9  19  37  55  75 105 148 192 225 267 325
#     4  11  19  32  56  82 108 146 192 234 275 326
#     4   9  18  32  52  78 113 150 180 218 285 350
#     4   9  18  32  53  83 114 141 177 228 283 343
#     4  10  21  39  59  78 110 154 189 225 284 350
#
# _framework density 24.694538000000001
#
# number of rings (size 3 to 8) (size 9 to 14) (size 15 to 20)
#    0.000    2.286    0.000    5.571    0.000    2.857 
#    0.000    7.857    0.000    6.000    0.000    0.000 
#    0.000    0.000    0.000    0.000    0.000    0.000 
#
# Total GULP energy -156008.009175 kJ/mol
# GULP energy per Si atom -5571.714613 kJ/mol
# Density = 2.463833 g / cm^3
# Si number density = 24.694538 Si / 1000 Ang^3
#
#
#
# Elastic Constant Matrix: (Units=GPa)
#
#
# Indices 1 2 3 4 5 6 
#
# 1 115.4988 -4.3909 22.9554 0.0000 0.4174 0.0000
# 2 -4.3909 12.3100 5.5249 0.0000 3.0584 0.0000
# 3 22.9554 5.5249 119.6131 0.0000 8.2763 0.0000
# 4 0.0000 0.0000 0.0000 17.3058 0.0000 -0.5230
# 5 0.4174 3.0584 8.2763 0.0000 41.3150 0.0000
# 6 0.0000 0.0000 0.0000 -0.5230 0.0000 27.6779
#
#
#
# Elastic Compliance Matrix: (Units=1/GPa)
#
#
# Indices 1 2 3 4 5 6 
#
# 1 0.009206 0.004165 -0.001958 0.000000 -0.000009 0.000000
# 2 0.004165 0.086066 -0.004392 0.000000 -0.005533 0.000000
# 3 -0.001958 -0.004392 0.009040 0.000000 -0.001466 0.000000
# 4 0.000000 0.000000 0.000000 0.057817 0.000000 0.001093
# 5 -0.000009 -0.005533 -0.001466 0.000000 0.024908 0.000000
# 6 0.000000 0.000000 0.000000 0.001093 0.000000 0.036151
#
#
# Mechanical properties :
#
#
# Convention : Reuss Voigt Hill
#
# Bulk Modulus (GPa) = 10.00584 32.84450 21.42517
# Shear Modulus (GPa) = 19.16646 32.14858 25.65752
#
# Velocity S-wave (km/s) = 2.78895 3.61203 3.22684
# Velocity P-wave (km/s) = 3.79890 5.54300 4.75166
#
# Compressibility (1/GPa) = 0.09994163
#
# Stress axis : x y z
#
# Youngs Moduli (GPa) = 108.62822 11.61896 110.61416
#
# Poissons Ratio (x) = -0.04839 0.21663
# Poissons Ratio (y) = -0.45242 0.48579
# Poissons Ratio (z) = 0.21274 0.05103
#
# Static dielectric constant tensor:
#      x y z
#    x 2.097460 0.000000 0.076740 
#    y 0.000000 2.243730 0.000000 
#    z 0.076740 0.000000 2.146180 
# 
# From -- ./inp_files/119847.got.cif
#   From: 2010.05.17/outbox.cif.g08.bks.cpg/sg15_60_cif.got.tgz:119847.got - 2010.06.03 18:47:42.
