data_PCOD9255851
_publ_section_title
;
Structure prediction by ZEFSAII (Michael W. Deem and Ramdas Pophale) SiO2 
 PCOD9255851
Probable space group: C 2/C
;
_chemical_formula_sum "Si O2"
_cell_formula_units_Z 64
_cell_length_a 18.364408
_cell_length_b 7.698563
_cell_length_c 23.715396
_cell_angle_alpha 90.000000
_cell_angle_beta 45.038418
_cell_angle_gamma 90.000000
_cell_volume 2372.427734
_symmetry_space_group_name_H-M "C 2/C"
_symmetry_group_IT_number 15
_symmetry_cell_setting 'monoclinic'
loop_
_space_group_symop_operation_xyz
x,y,z
-x,y,1/2-z
-x,-y,-z
x,-y,1/2+z
1/2+x,1/2+y,z
1/2-x,1/2+y,1/2-z
1/2-x,1/2-y,-z
1/2+x,1/2-y,1/2+z
loop_
_atom_site_type_symbol
_atom_site_label
_atom_site_fract_x
_atom_site_fract_y
_atom_site_fract_z
Si Si1 0.859479 0.661730 0.420948
Si Si2 0.860605 0.026498 0.713713
Si Si3 0.205718 0.435711 0.950018
Si Si4 0.919299 0.234044 0.572097
Si Si5 0.357387 0.722279 0.087119
Si Si6 0.129212 0.531135 0.827420
Si Si7 0.446313 0.507392 0.340017
Si Si8 0.853154 0.620577 0.294942
O O1 0.750000 0.750000 0.500000
O O2 0.853310 0.483300 0.459469
O O3 0.929782 0.833715 0.387733
O O4 0.888539 0.621387 0.339830
O O5 0.876461 0.111281 0.644123
O O6 0.857669 0.192506 0.759926
O O7 0.957096 0.910007 0.680269
O O8 0.744414 0.955069 0.777033
O O9 0.152753 0.285759 0.941631
O O10 0.183696 0.611813 0.926239
O O11 0.329819 0.420006 0.893177
O O12 0.941765 0.414806 0.593818
O O13 0.031105 0.172143 0.493045
O O14 0.267632 0.586148 0.128696
O O15 0.366417 0.783698 0.146294
O O16 0.105632 0.508943 0.774946
O O17 0.500000 0.478164 0.250000
#
# Coordination Sequence:
#
# PCOD9255851 Si02
#       8
#     8   8   8   8   8   8   8   8
#     4  10  18  29  47  71 108 138 161 219 282 319
#     4  10  20  33  52  79 110 140 182 228 276 325
#     4  10  19  30  47  75 107 138 172 211 273 332
#     4  10  20  33  53  75 110 148 183 220 275 334
#     4  10  17  33  52  75 108 142 180 220 268 337
#     4   9  19  33  51  77 106 138 182 226 270 321
#     4  11  17  28  48  76 111 131 167 222 277 322
#     4  10  18  33  50  78 109 138 172 227 281 319
#
# _framework density 26.976586999999999
#
# number of rings (size 3 to 8) (size 9 to 14) (size 15 to 20)
#    0.000    2.000    3.750    3.750    1.750    1.000 
#    0.000    0.625    0.000    0.750    0.000    0.000 
#   15.000    0.000    0.000    1.125    0.000    0.000 
#
# Total GULP energy -178644.013758 kJ/mol
# GULP energy per Si atom -5582.625430 kJ/mol
# Density = 2.691519 g / cm^3
# Si number density = 26.976587 Si / 1000 Ang^3
#
#
#
# Elastic Constant Matrix: (Units=GPa)
#
#
# Indices 1 2 3 4 5 6 
#
# 1 148.1281 6.5129 32.4963 0.0001 -2.4365 0.0004
# 2 6.5129 27.4805 -8.8648 0.0000 -3.1773 0.0004
# 3 32.4963 -8.8648 131.7624 0.0000 -4.6087 0.0001
# 4 0.0001 0.0000 0.0000 12.9048 0.0000 12.7225
# 5 -2.4365 -3.1773 -4.6087 0.0000 57.8522 0.0000
# 6 0.0004 0.0004 0.0001 12.7225 0.0000 31.8106
#
#
#
# Elastic Compliance Matrix: (Units=1/GPa)
#
#
# Indices 1 2 3 4 5 6 
#
# 1 0.007283 -0.002354 -0.001954 0.000000 0.000022 0.000000
# 2 -0.002354 0.038252 0.003233 0.000001 0.002259 -0.000001
# 3 -0.001954 0.003233 0.008315 0.000000 0.000758 0.000000
# 4 0.000000 0.000001 0.000000 0.127935 0.000000 -0.051167
# 5 0.000022 0.002259 0.000758 0.000000 0.017471 0.000000
# 6 0.000000 -0.000001 0.000000 -0.051167 0.000000 0.051900
#
#
# Mechanical properties :
#
#
# Convention : Reuss Voigt Hill
#
# Bulk Modulus (GPa) = 19.34209 40.85108 30.09658
# Shear Modulus (GPa) = 18.48163 38.99531 28.73847
#
# Velocity S-wave (km/s) = 2.62028 3.80613 3.26745
# Velocity P-wave (km/s) = 4.04228 5.87295 5.04141
#
# Compressibility (1/GPa) = 0.05170073
#
# Stress axis : x y z
#
# Youngs Moduli (GPa) = 137.29825 26.14274 120.25989
#
# Poissons Ratio (x) = 0.06154 0.23498
# Poissons Ratio (y) = 0.32319 -0.38881
# Poissons Ratio (z) = 0.26827 -0.08452
#
# Static dielectric constant tensor:
#      x y z
#    x 2.233990 0.000000 0.015800 
#    y 0.000000 2.242270 0.000000 
#    z 0.015800 0.000000 2.110680 
# 
# From -- ./inp_files/279888.got.cif
#   From: 2010.05.17/outbox.cif.g08.bks.cpg/sg15_140_cif.got.tgz:279888.got - 2010.06.03 18:47:42.
