data_PCOD9255693
_publ_section_title
;
Structure prediction by ZEFSAII (Michael W. Deem and Ramdas Pophale) SiO2 
 PCOD9255693
Probable space group: C 2/C
;
_chemical_formula_sum "Si O2"
_cell_formula_units_Z 44
_cell_length_a 9.759283
_cell_length_b 14.869649
_cell_length_c 13.696849
_cell_angle_alpha 90.000000
_cell_angle_beta 116.288255
_cell_angle_gamma 90.000000
_cell_volume 1782.079215
_symmetry_space_group_name_H-M "C 2/C"
_symmetry_group_IT_number 15
_symmetry_cell_setting 'monoclinic'
loop_
_space_group_symop_operation_xyz
x,y,z
-x,y,1/2-z
-x,-y,-z
x,-y,1/2+z
1/2+x,1/2+y,z
1/2-x,1/2+y,1/2-z
1/2-x,1/2-y,-z
1/2+x,1/2-y,1/2+z
loop_
_atom_site_type_symbol
_atom_site_label
_atom_site_fract_x
_atom_site_fract_y
_atom_site_fract_z
Si Si1 0.664572 0.143810 0.184621
Si Si2 0.500000 0.008212 0.750000
Si Si3 0.707525 0.549360 0.571274
Si Si4 0.547380 0.616683 0.122966
Si Si5 0.382052 0.794714 0.468854
Si Si6 0.153955 0.845620 0.251480
O O1 0.607027 0.056653 0.222324
O O2 0.849042 0.127386 0.246932
O O3 0.649295 0.237527 0.239878
O O4 0.530998 0.160296 0.063646
O O5 0.389752 0.056146 0.637996
O O6 0.624607 0.580075 0.446697
O O7 0.641656 0.451318 0.579879
O O8 0.662265 0.613757 0.647155
O O9 0.552039 0.713814 0.074869
O O10 0.250000 0.750000 0.500000
O O11 0.291979 0.862653 0.369174
O O12 0.000000 0.880626 0.250000
#
# Coordination Sequence:
#
# PCOD9255693 Si02
#       6
#     8   4   8   8   8   8
#     4  10  17  32  53  82 106 141 187 228 277 326
#     4  10  20  34  56  78 114 150 182 226 280 340
#     4  10  19  34  51  83 114 148 183 224 287 336
#     4   9  19  31  51  76 111 147 173 228 280 333
#     4  11  17  29  53  82 108 138 185 234 280 323
#     4  11  19  30  53  87 112 137 183 238 274 325
#
# _framework density 24.690261
#
# number of rings (size 3 to 8) (size 9 to 14) (size 15 to 20)
#    0.000    1.818    4.545    2.182    0.000    1.455 
#    0.000    3.636    0.000    4.364   21.273    0.000 
#    0.000    0.000    0.000    0.000    0.000    0.000 
#
# Total GULP energy -122622.204543 kJ/mol
# GULP energy per Si atom -5573.736570 kJ/mol
# Density = 2.463407 g / cm^3
# Si number density = 24.690261 Si / 1000 Ang^3
#
#
#
# Elastic Constant Matrix: (Units=GPa)
#
#
# Indices 1 2 3 4 5 6 
#
# 1 57.6780 17.6824 60.1541 0.0000 33.3688 0.0000
# 2 17.6824 37.7985 38.2066 0.0000 10.5347 0.0000
# 3 60.1541 38.2066 282.1935 0.0000 63.7566 0.0000
# 4 0.0000 0.0000 0.0000 58.7392 0.0000 12.5180
# 5 33.3688 10.5347 63.7566 0.0000 57.9035 0.0000
# 6 0.0000 0.0000 0.0000 12.5180 0.0000 7.6418
#
#
#
# Elastic Compliance Matrix: (Units=1/GPa)
#
#
# Indices 1 2 3 4 5 6 
#
# 1 0.029805 -0.007943 -0.002295 0.000000 -0.013204 0.000000
# 2 -0.007943 0.032846 -0.003245 0.000000 0.002175 0.000000
# 3 -0.002295 -0.003245 0.005378 0.000000 -0.004009 0.000000
# 4 0.000000 0.000000 0.000000 0.026155 0.000000 -0.042845
# 5 -0.013204 0.002175 -0.004009 0.000000 0.028898 0.000000
# 6 0.000000 0.000000 0.000000 -0.042845 0.000000 0.201044
#
#
# Mechanical properties :
#
#
# Convention : Reuss Voigt Hill
#
# Bulk Modulus (GPa) = 24.35308 67.75070 46.05189
# Shear Modulus (GPa) = 13.70688 42.29868 28.00278
#
# Velocity S-wave (km/s) = 2.35873 4.14354 3.37139
# Velocity P-wave (km/s) = 4.15968 7.09871 5.81785
#
# Compressibility (1/GPa) = 0.04106257
#
# Stress axis : x y z
#
# Youngs Moduli (GPa) = 33.55105 30.44493 185.94654
#
# Poissons Ratio (x) = 0.24184 0.42669
# Poissons Ratio (y) = 0.26651 0.60344
# Poissons Ratio (z) = 0.07699 0.09880
#
# Static dielectric constant tensor:
#      x y z
#    x 1.915090 0.000000 0.009660 
#    y 0.000000 1.918620 0.000000 
#    z 0.009660 0.000000 2.079740 
# 
# From -- ./inp_files/198063.got.cif
#   From: 2010.05.17/outbox.cif.g08.bks.cpg/sg15_100_cif.got.tgz:198063.got - 2010.06.03 18:47:42.
