data_PCOD9255331
_publ_section_title
;
Structure prediction by ZEFSAII (Michael W. Deem and Ramdas Pophale) SiO2 
 PCOD9255331
Probable space group: C 2/C
;
_chemical_formula_sum "Si O2"
_cell_formula_units_Z 56
_cell_length_a 10.859163
_cell_length_b 18.870175
_cell_length_c 20.267645
_cell_angle_alpha 90.000000
_cell_angle_beta 52.038767
_cell_angle_gamma 90.000000
_cell_volume 3274.440721
_symmetry_space_group_name_H-M "C 2/C"
_symmetry_group_IT_number 15
_symmetry_cell_setting 'monoclinic'
loop_
_space_group_symop_operation_xyz
x,y,z
-x,y,1/2-z
-x,-y,-z
x,-y,1/2+z
1/2+x,1/2+y,z
1/2-x,1/2+y,1/2-z
1/2-x,1/2-y,-z
1/2+x,1/2-y,1/2+z
loop_
_atom_site_type_symbol
_atom_site_label
_atom_site_fract_x
_atom_site_fract_y
_atom_site_fract_z
Si Si1 0.677524 0.134278 0.012686
Si Si2 0.317252 0.480249 0.290629
Si Si3 0.207768 0.024127 0.989038
Si Si4 0.391350 0.931288 0.544743
Si Si5 0.178818 0.827327 0.166111
Si Si6 0.825345 0.326711 0.836180
Si Si7 0.161556 0.025042 0.364361
O O1 0.506915 0.128498 0.034569
O O2 0.668789 0.171607 0.086046
O O3 0.797600 0.166021 0.920280
O O4 0.736987 0.054452 0.007550
O O5 0.500000 0.481127 0.250000
O O6 0.232714 0.541672 0.360109
O O7 0.253182 0.401722 0.329630
O O8 0.300131 0.493220 0.219051
O O9 0.304689 0.077893 0.003167
O O10 0.024938 0.030049 0.065298
O O11 0.225318 0.022565 0.904186
O O12 0.500000 0.000000 0.500000
O O13 0.242054 0.749593 0.163983
O O14 0.000000 0.826739 0.250000
O O15 0.730594 0.396018 0.846485
O O16 0.000000 0.333461 0.750000
#
# Coordination Sequence:
#
# PCOD9255331 Si02
#       7
#     8   8   8   8   8   8   8
#     4  10  18  33  55  79 107 135 171 217 272 307
#     4  11  18  31  53  81  97 132 180 218 266 303
#     4   9  17  31  49  78 104 131 167 220 258 303
#     4  10  17  30  50  77 107 128 167 223 257 305
#     4  10  19  32  52  76 107 134 177 218 262 319
#     4  10  21  34  49  79 111 137 168 216 275 317
#     4  10  19  31  51  75 107 134 173 217 261 308
#
# _framework density 17.102157999999999
#
# number of rings (size 3 to 8) (size 9 to 14) (size 15 to 20)
#    0.000    2.000    4.286    2.143    0.000    0.000 
#    0.000    0.000    0.000    0.857    3.714    0.000 
#    0.000    0.000    0.000    0.000    0.000    0.000 
#
# Total GULP energy -155879.126162 kJ/mol
# GULP energy per Si atom -5567.111649 kJ/mol
# Density = 1.706323 g / cm^3
# Si number density = 17.102158 Si / 1000 Ang^3
#
#
#
# Elastic Constant Matrix: (Units=GPa)
#
#
# Indices 1 2 3 4 5 6 
#
# 1 83.5248 24.6441 34.1202 0.0001 17.0668 0.0000
# 2 24.6441 56.1166 26.4156 0.0000 12.1927 0.0000
# 3 34.1202 26.4156 118.0767 0.0002 20.9343 0.0000
# 4 0.0001 0.0000 0.0002 86.2188 -0.0001 -44.4824
# 5 17.0668 12.1927 20.9343 -0.0001 29.7680 0.0000
# 6 0.0000 0.0000 0.0000 -44.4824 0.0000 33.8731
#
#
#
# Elastic Compliance Matrix: (Units=1/GPa)
#
#
# Indices 1 2 3 4 5 6 
#
# 1 0.015379 -0.004429 -0.002527 0.000000 -0.005226 0.000000
# 2 -0.004429 0.022090 -0.002865 0.000000 -0.004494 0.000000
# 3 -0.002527 -0.002865 0.010711 0.000000 -0.004910 0.000000
# 4 0.000000 0.000000 0.000000 0.035966 0.000000 0.047231
# 5 -0.005226 -0.004494 -0.004910 0.000000 0.041883 0.000000
# 6 0.000000 0.000000 0.000000 0.047231 0.000000 0.091546
#
#
# Mechanical properties :
#
#
# Convention : Reuss Voigt Hill
#
# Bulk Modulus (GPa) = 35.04083 47.56423 41.30253
# Shear Modulus (GPa) = 20.26508 41.47454 30.86981
#
# Velocity S-wave (km/s) = 3.44603 4.92988 4.25317
# Velocity P-wave (km/s) = 6.03052 7.76384 6.95141
#
# Compressibility (1/GPa) = 0.02853813
#
# Stress axis : x y z
#
# Youngs Moduli (GPa) = 65.02225 45.26884 93.36411
#
# Poissons Ratio (x) = 0.20050 0.23590
# Poissons Ratio (y) = 0.28799 0.26753
# Poissons Ratio (z) = 0.16429 0.12971
#
# Static dielectric constant tensor:
#      x y z
#    x 1.603170 0.000000 0.009180 
#    y 0.000000 1.586920 0.000000 
#    z 0.009180 0.000000 1.608790 
# 
# From -- ./inp_files/239518.got.cif
#   From: 2010.05.17/outbox.cif.g08.bks.cpg/sg15_120_cif.got.tgz:239518.got - 2010.06.03 18:47:42.
