data_PCOD9255358
_publ_section_title
;
Structure prediction by ZEFSAII (Michael W. Deem and Ramdas Pophale) SiO2 
 PCOD9255358
Probable space group: C 2/C
;
_chemical_formula_sum "Si O2"
_cell_formula_units_Z 64
_cell_length_a 13.839386
_cell_length_b 17.975883
_cell_length_c 25.514774
_cell_angle_alpha 90.000000
_cell_angle_beta 35.931306
_cell_angle_gamma 90.000000
_cell_volume 3724.773696
_symmetry_space_group_name_H-M "C 2/C"
_symmetry_group_IT_number 15
_symmetry_cell_setting 'monoclinic'
loop_
_space_group_symop_operation_xyz
x,y,z
-x,y,1/2-z
-x,-y,-z
x,-y,1/2+z
1/2+x,1/2+y,z
1/2-x,1/2+y,1/2-z
1/2-x,1/2-y,-z
1/2+x,1/2-y,1/2+z
loop_
_atom_site_type_symbol
_atom_site_label
_atom_site_fract_x
_atom_site_fract_y
_atom_site_fract_z
Si Si1 0.820367 0.587803 0.307345
Si Si2 0.919838 0.130787 0.732586
Si Si3 0.657603 0.739767 0.340108
Si Si4 0.745996 0.827826 0.471633
Si Si5 0.846162 0.283275 0.278913
Si Si6 0.127272 0.092970 0.493747
Si Si7 0.013962 0.745847 0.480735
Si Si8 0.209954 0.944526 0.307697
O O1 0.734457 0.658962 0.318600
O O2 0.716046 0.562032 0.404012
O O3 0.816813 0.517102 0.271004
O O4 0.000000 0.608420 0.250000
O O5 0.795033 0.198957 0.795878
O O6 0.829364 0.071589 0.735689
O O7 0.000000 0.100273 0.750000
O O8 0.075662 0.162735 0.632497
O O9 0.625327 0.750940 0.292352
O O10 0.507164 0.752970 0.446997
O O11 0.750000 0.750000 0.500000
O O12 0.741709 0.892017 0.517279
O O13 0.600567 0.818709 0.493838
O O14 0.692437 0.244273 0.375871
O O15 0.795730 0.369725 0.291880
O O16 0.000000 0.278141 0.250000
O O17 0.061605 0.174660 0.504878
O O18 0.969327 0.050070 0.585414
#
# Coordination Sequence:
#
# PCOD9255358 Si02
#       8
#     8   8   8   8   8   8   8   8
#     4  11  21  29  49  77 106 129 163 212 266 300
#     4  10  17  30  52  76 102 131 167 209 252 300
#     4  10  20  32  51  82 104 128 173 220 259 305
#     4   9  15  25  46  75 106 127 155 203 265 303
#     4  10  21  36  53  70 103 140 178 212 251 306
#     4   8  17  29  47  71 101 133 159 204 256 304
#     4   9  17  29  49  75 105 131 165 213 256 308
#     4   9  19  35  49  71 100 137 172 202 249 315
#
# _framework density 17.182251999999998
#
# number of rings (size 3 to 8) (size 9 to 14) (size 15 to 20)
#    0.000    2.500    1.250    3.375    5.250    0.500 
#    0.000    0.625    0.000    0.000    0.000    5.250 
#    0.000    0.000    0.000    0.000    0.000    0.000 
#
# Total GULP energy -178171.077216 kJ/mol
# GULP energy per Si atom -5567.846163 kJ/mol
# Density = 1.714314 g / cm^3
# Si number density = 17.182252 Si / 1000 Ang^3
#
#
#
# Elastic Constant Matrix: (Units=GPa)
#
#
# Indices 1 2 3 4 5 6 
#
# 1 125.5649 30.6231 48.5531 0.0001 12.4877 0.0001
# 2 30.6231 34.7560 7.8244 0.0003 9.5657 0.0000
# 3 48.5531 7.8244 63.8039 0.0014 19.8175 -0.0001
# 4 0.0001 0.0003 0.0014 9.5975 -0.0002 0.9397
# 5 12.4877 9.5657 19.8175 -0.0002 23.9425 -0.0001
# 6 0.0001 0.0000 -0.0001 0.9397 -0.0001 12.5888
#
#
#
# Elastic Compliance Matrix: (Units=1/GPa)
#
#
# Indices 1 2 3 4 5 6 
#
# 1 0.014954 -0.012428 -0.012081 0.000002 0.007165 0.000000
# 2 -0.012428 0.042656 0.010104 -0.000003 -0.018923 0.000000
# 3 -0.012081 0.010104 0.030857 -0.000005 -0.023276 0.000001
# 4 0.000002 -0.000003 -0.000005 0.104961 0.000005 -0.007835
# 5 0.007165 -0.018923 -0.023276 0.000005 0.064856 0.000000
# 6 0.000000 0.000000 0.000001 -0.007835 0.000000 0.080021
#
#
# Mechanical properties :
#
#
# Convention : Reuss Voigt Hill
#
# Bulk Modulus (GPa) = 16.76265 44.23621 30.49943
# Shear Modulus (GPa) = 12.91991 18.36735 15.64363
#
# Velocity S-wave (km/s) = 2.74512 3.27306 3.02064
# Velocity P-wave (km/s) = 4.45247 6.33128 5.47310
#
# Compressibility (1/GPa) = 0.05965643
#
# Stress axis : x y z
#
# Youngs Moduli (GPa) = 66.87260 23.44353 32.40766
#
# Poissons Ratio (x) = 0.29136 0.39152
# Poissons Ratio (y) = 0.83109 -0.32745
# Poissons Ratio (z) = 0.80789 -0.23687
#
# Static dielectric constant tensor:
#      x y z
#    x 1.614460 0.000000 0.032850 
#    y 0.000000 1.557580 0.000000 
#    z 0.032850 0.000000 1.612940 
# 
# From -- ./inp_files/270835.got.cif
#   From: 2010.05.17/outbox.cif.g08.bks.cpg/sg15_136_cif.got.tgz:270835.got - 2010.06.03 18:47:42.
