data_PCOD9255735
_publ_section_title
;
Structure prediction by ZEFSAII (Michael W. Deem and Ramdas Pophale) SiO2 
 PCOD9255735
Probable space group: C 2/C
;
_chemical_formula_sum "Si O2"
_cell_formula_units_Z 48
_cell_length_a 7.138118
_cell_length_b 30.352281
_cell_length_c 8.756009
_cell_angle_alpha 90.000000
_cell_angle_beta 69.953979
_cell_angle_gamma 90.000000
_cell_volume 1782.132332
_symmetry_space_group_name_H-M "C 2/C"
_symmetry_group_IT_number 15
_symmetry_cell_setting 'monoclinic'
loop_
_space_group_symop_operation_xyz
x,y,z
-x,y,1/2-z
-x,-y,-z
x,-y,1/2+z
1/2+x,1/2+y,z
1/2-x,1/2+y,1/2-z
1/2-x,1/2-y,-z
1/2+x,1/2-y,1/2+z
loop_
_atom_site_type_symbol
_atom_site_label
_atom_site_fract_x
_atom_site_fract_y
_atom_site_fract_z
Si Si1 0.151738 0.870318 0.415215
Si Si2 0.827243 0.245478 0.148118
Si Si3 0.778321 0.535688 0.890971
Si Si4 0.720954 0.850581 0.769937
Si Si5 0.000000 0.809055 0.250000
Si Si6 0.224239 0.446612 0.746740
Si Si7 0.500000 0.815391 0.250000
O O1 0.151786 0.921681 0.381027
O O2 0.246233 0.858493 0.555550
O O3 0.966286 0.842422 0.401913
O O4 0.324980 0.849079 0.260061
O O5 0.822261 0.196109 0.206988
O O6 0.656886 0.274532 0.277847
O O7 0.014441 0.278306 0.112674
O O8 0.750000 0.250000 0.000000
O O9 0.691043 0.488850 0.863363
O O10 0.000000 0.538924 0.750000
O O11 0.789883 0.540612 0.071034
O O12 0.500000 0.847774 0.750000
O O13 0.815477 0.898095 0.691020
O O14 0.000000 0.442019 0.750000
#
# Coordination Sequence:
#
# PCOD9255735 Si02
#       7
#     8   8   8   8   4   8   4
#     4  10  21  38  60  82 122 151 198 239 298 347
#     4  11  23  38  58  85 117 153 199 234 296 342
#     4  10  17  32  55  85 117 148 195 247 297 352
#     4  10  20  36  58  82 117 155 189 243 292 344
#     4  10  24  40  56  86 114 164 192 242 290 354
#     4   9  18  30  52  85 116 151 186 243 304 338
#     4  10  22  34  56  86 106 156 194 236 276 348
#
# _framework density 26.934027
#
# number of rings (size 3 to 8) (size 9 to 14) (size 15 to 20)
#    0.000    2.000    1.667    3.000    2.333    1.333 
#    6.000    0.000    0.000    5.000    0.000    0.000 
#    0.000    0.000    0.000    0.000    0.000    0.000 
#
# Total GULP energy -133771.797969 kJ/mol
# GULP energy per Si atom -5573.824915 kJ/mol
# Density = 2.687272 g / cm^3
# Si number density = 26.934027 Si / 1000 Ang^3
#
#
#
# Elastic Constant Matrix: (Units=GPa)
#
#
# Indices 1 2 3 4 5 6 
#
# 1 104.8163 36.9113 21.1991 0.0000 33.3600 0.0000
# 2 36.9113 312.7647 75.1233 0.0000 10.1276 0.0000
# 3 21.1991 75.1233 102.1256 0.0000 34.1826 0.0000
# 4 0.0000 0.0000 0.0000 46.4654 0.0000 13.8482
# 5 33.3600 10.1276 34.1826 0.0000 45.5739 0.0000
# 6 0.0000 0.0000 0.0000 13.8482 0.0000 25.0351
#
#
#
# Elastic Compliance Matrix: (Units=1/GPa)
#
#
# Indices 1 2 3 4 5 6 
#
# 1 0.013175 -0.001726 0.002182 0.000000 -0.010898 0.000000
# 2 -0.001726 0.004212 -0.003805 0.000000 0.003181 0.000000
# 3 0.002182 -0.003805 0.016542 0.000000 -0.013160 0.000000
# 4 0.000000 0.000000 0.000000 0.025770 0.000000 -0.014255
# 5 -0.010898 0.003181 -0.013160 0.000000 0.039083 0.000000
# 6 0.000000 0.000000 0.000000 -0.014255 0.000000 0.047829
#
#
# Mechanical properties :
#
#
# Convention : Reuss Voigt Hill
#
# Bulk Modulus (GPa) = 36.72081 87.35268 62.03674
# Shear Modulus (GPa) = 30.79093 49.17974 39.98533
#
# Velocity S-wave (km/s) = 3.38479 4.27773 3.85719
# Velocity P-wave (km/s) = 5.37949 7.54328 6.55134
#
# Compressibility (1/GPa) = 0.02723251
#
# Stress axis : x y z
#
# Youngs Moduli (GPa) = 75.89885 237.42431 60.45130
#
# Poissons Ratio (x) = 0.40985 -0.13193
# Poissons Ratio (y) = 0.13102 0.23000
# Poissons Ratio (z) = -0.16565 0.90334
#
# Static dielectric constant tensor:
#      x y z
#    x 2.765370 0.000000 -0.197860 
#    y 0.000000 2.067860 0.000000 
#    z -0.197860 0.000000 2.456500 
# 
# From -- ./inp_files/26156.got.cif
#   From: 2010.05.17/outbox.cif.g08.bks.cpg/sg15_14_cif.got.tgz:26156.got - 2010.06.03 18:47:42.
