data_PCOD9255859
_publ_section_title
;
Structure prediction by ZEFSAII (Michael W. Deem and Ramdas Pophale) SiO2 
 PCOD9255859
Probable space group: C 2/C
;
_chemical_formula_sum "Si O2"
_cell_formula_units_Z 56
_cell_length_a 15.136024
_cell_length_b 12.425642
_cell_length_c 17.402292
_cell_angle_alpha 90.000000
_cell_angle_beta 53.210615
_cell_angle_gamma 90.000000
_cell_volume 2621.103196
_symmetry_space_group_name_H-M "C 2/C"
_symmetry_group_IT_number 15
_symmetry_cell_setting 'monoclinic'
loop_
_space_group_symop_operation_xyz
x,y,z
-x,y,1/2-z
-x,-y,-z
x,-y,1/2+z
1/2+x,1/2+y,z
1/2-x,1/2+y,1/2-z
1/2-x,1/2-y,-z
1/2+x,1/2-y,1/2+z
loop_
_atom_site_type_symbol
_atom_site_label
_atom_site_fract_x
_atom_site_fract_y
_atom_site_fract_z
Si Si1 0.131381 0.537238 0.762838
Si Si2 0.101237 0.499237 0.598571
Si Si3 0.826961 0.146266 0.742856
Si Si4 0.782956 0.149059 0.167026
Si Si5 0.953765 0.928703 0.693801
Si Si6 0.958695 0.249926 0.859355
Si Si7 0.163197 0.047270 0.524469
O O1 0.112421 0.536398 0.681459
O O2 0.232008 0.612792 0.733178
O O3 0.179423 0.418082 0.754438
O O4 0.014278 0.552967 0.866682
O O5 0.078559 0.370818 0.606689
O O6 0.225002 0.508274 0.502201
O O7 0.762604 0.233334 0.828193
O O8 0.878917 0.036078 0.749624
O O9 0.933402 0.206381 0.651634
O O10 0.878897 0.147201 0.180287
O O11 0.820167 0.082271 0.072988
O O12 0.000000 0.884707 0.750000
O O13 0.058859 0.970797 0.591401
O O14 0.866397 0.160540 0.920799
O O15 0.000000 0.245355 0.750000
#
# Coordination Sequence:
#
# PCOD9255859 Si02
#       7
#     8   8   8   8   8   8   8
#     4   9  18  32  54  80 108 151 177 226 273 327
#     4  10  17  33  53  79 115 142 184 224 272 321
#     4  10  19  33  57  80 109 143 188 222 271 330
#     4  10  19  37  58  81 114 145 184 229 273 330
#     4  10  22  38  58  83 112 145 185 229 277 327
#     4  11  18  32  56  85 111 139 183 235 275 320
#     4  10  20  30  58  88 110 142 184 230 279 324
#
# _framework density 21.36505
#
# number of rings (size 3 to 8) (size 9 to 14) (size 15 to 20)
#    0.000    2.000    2.857    3.429    0.000    2.286 
#    2.571    0.000    6.286    6.000    0.000    0.000 
#    0.000    0.000    0.000    0.000    0.000    0.000 
#
# Total GULP energy -156010.216688 kJ/mol
# GULP energy per Si atom -5571.793453 kJ/mol
# Density = 2.131642 g / cm^3
# Si number density = 21.365050 Si / 1000 Ang^3
#
#
#
# Elastic Constant Matrix: (Units=GPa)
#
#
# Indices 1 2 3 4 5 6 
#
# 1 144.0888 19.5344 38.2854 0.0000 -31.4966 0.0000
# 2 19.5344 25.9655 9.5758 0.0000 -7.6829 0.0000
# 3 38.2854 9.5758 61.3978 0.0000 -28.5111 0.0000
# 4 0.0000 0.0000 0.0000 16.1266 0.0000 -14.6187
# 5 -31.4966 -7.6829 -28.5111 0.0000 30.8463 0.0000
# 6 0.0000 0.0000 0.0000 -14.6187 0.0000 48.2618
#
#
#
# Elastic Compliance Matrix: (Units=1/GPa)
#
#
# Indices 1 2 3 4 5 6 
#
# 1 0.009577 -0.004429 -0.002194 0.000000 0.006648 0.000000
# 2 -0.004429 0.043929 -0.001943 0.000000 0.004624 0.000000
# 3 -0.002194 -0.001943 0.029246 0.000000 0.024308 0.000000
# 4 0.000000 0.000000 0.000000 0.085481 0.000000 0.025893
# 5 0.006648 0.004624 0.024308 0.000000 0.062826 0.000000
# 6 0.000000 0.000000 0.000000 0.025893 0.000000 0.028563
#
#
# Mechanical properties :
#
#
# Convention : Reuss Voigt Hill
#
# Bulk Modulus (GPa) = 15.23902 40.69369 27.96636
# Shear Modulus (GPa) = 16.74336 29.98404 23.36370
#
# Velocity S-wave (km/s) = 2.80247 3.75028 3.31047
# Velocity P-wave (km/s) = 4.19761 6.15151 5.26597
#
# Compressibility (1/GPa) = 0.06562101
#
# Stress axis : x y z
#
# Youngs Moduli (GPa) = 104.42086 22.76408 34.19262
#
# Poissons Ratio (x) = 0.10081 0.07502
# Poissons Ratio (y) = 0.46244 0.06642
# Poissons Ratio (z) = 0.22910 0.04422
#
# Static dielectric constant tensor:
#      x y z
#    x 1.857980 0.000000 -0.028770 
#    y 0.000000 1.784700 0.000000 
#    z -0.028770 0.000000 1.808810 
# 
# From -- ./inp_files/205343.got.cif
#   From: 2010.05.17/outbox.cif.g08.bks.cpg/sg15_103_cif.got.tgz:205343.got - 2010.06.03 18:47:42.
