data_PCOD9255795
_publ_section_title
;
Structure prediction by ZEFSAII (Michael W. Deem and Ramdas Pophale) SiO2 
 PCOD9255795
Probable space group: C 2/C
;
_chemical_formula_sum "Si O2"
_cell_formula_units_Z 48
_cell_length_a 6.744501
_cell_length_b 13.051893
_cell_length_c 20.283031
_cell_angle_alpha 90.000000
_cell_angle_beta 87.569920
_cell_angle_gamma 90.000000
_cell_volume 1783.879231
_symmetry_space_group_name_H-M "C 2/C"
_symmetry_group_IT_number 15
_symmetry_cell_setting 'monoclinic'
loop_
_space_group_symop_operation_xyz
x,y,z
-x,y,1/2-z
-x,-y,-z
x,-y,1/2+z
1/2+x,1/2+y,z
1/2-x,1/2+y,1/2-z
1/2-x,1/2-y,-z
1/2+x,1/2-y,1/2+z
loop_
_atom_site_type_symbol
_atom_site_label
_atom_site_fract_x
_atom_site_fract_y
_atom_site_fract_z
Si Si1 0.426608 0.114953 0.351612
Si Si2 0.214121 0.839593 0.192002
Si Si3 0.729078 0.633744 0.981836
Si Si4 0.825472 0.605689 0.831912
Si Si5 0.668350 0.481658 0.605369
Si Si6 0.819260 0.633089 0.496545
O O1 0.374669 0.229265 0.328582
O O2 0.306750 0.101369 0.421258
O O3 0.352414 0.015015 0.313325
O O4 0.656460 0.090476 0.366434
O O5 0.446945 0.850983 0.164727
O O6 0.230455 0.839034 0.270866
O O7 0.111604 0.947008 0.169286
O O8 0.711604 0.619815 0.903345
O O9 0.750000 0.750000 0.000000
O O10 0.595749 0.589089 0.043761
O O11 0.954879 0.602007 0.990834
O O12 0.709969 0.577435 0.556511
O O13 0.750000 0.750000 0.500000
#
# Coordination Sequence:
#
# PCOD9255795 Si02
#       6
#     8   8   8   8   8   8
#     4  10  17  32  59  82 111 149 197 255 293 342
#     4  10  20  33  61  86 114 157 216 249 297 376
#     4  11  21  35  56  87 129 155 190 265 315 353
#     4  10  20  36  53  86 117 160 202 247 309 371
#     4  10  19  35  59  88 109 155 209 241 292 374
#     4  11  17  34  65  87 109 153 211 241 295 368
#
# _framework density 26.907648999999999
#
# number of rings (size 3 to 8) (size 9 to 14) (size 15 to 20)
#    0.000    1.667    6.667    1.000    0.000    1.333 
#    0.000    2.500    0.000    6.000    0.000    0.000 
#    0.000    0.000    0.000    0.000    0.000    0.000 
#
# Total GULP energy -133747.416511 kJ/mol
# GULP energy per Si atom -5572.809021 kJ/mol
# Density = 2.684641 g / cm^3
# Si number density = 26.907649 Si / 1000 Ang^3
#
#
#
# Elastic Constant Matrix: (Units=GPa)
#
#
# Indices 1 2 3 4 5 6 
#
# 1 116.8138 35.4872 49.7564 0.0000 -6.7575 0.0000
# 2 35.4872 203.7157 64.8772 0.0000 17.8174 0.0000
# 3 49.7564 64.8772 193.5063 0.0000 15.9881 0.0000
# 4 0.0000 0.0000 0.0000 44.8965 0.0000 9.0446
# 5 -6.7575 17.8174 15.9881 0.0000 32.5224 0.0000
# 6 0.0000 0.0000 0.0000 9.0446 0.0000 35.1996
#
#
#
# Elastic Compliance Matrix: (Units=1/GPa)
#
#
# Indices 1 2 3 4 5 6 
#
# 1 0.010287 -0.001345 -0.002535 0.000000 0.004121 0.000000
# 2 -0.001345 0.005826 -0.001376 0.000000 -0.002795 0.000000
# 3 -0.002535 -0.001376 0.006527 0.000000 -0.002981 0.000000
# 4 0.000000 0.000000 0.000000 0.023489 0.000000 -0.006036
# 5 0.004121 -0.002795 -0.002981 0.000000 0.034601 0.000000
# 6 0.000000 0.000000 0.000000 -0.006036 0.000000 0.029960
#
#
# Mechanical properties :
#
#
# Convention : Reuss Voigt Hill
#
# Bulk Modulus (GPa) = 82.45436 90.47527 86.46482
# Shear Modulus (GPa) = 39.92132 46.78469 43.35301
#
# Velocity S-wave (km/s) = 3.85599 4.17431 4.01830
# Velocity P-wave (km/s) = 7.10879 7.54523 7.33026
#
# Compressibility (1/GPa) = 0.01212792
#
# Stress axis : x y z
#
# Youngs Moduli (GPa) = 97.20750 171.64652 153.20180
#
# Poissons Ratio (x) = 0.23090 0.38831
# Poissons Ratio (y) = 0.13077 0.21088
# Poissons Ratio (z) = 0.24638 0.23627
#
# Static dielectric constant tensor:
#      x y z
#    x 2.267580 0.000000 0.005570 
#    y 0.000000 2.065980 0.000000 
#    z 0.005570 0.000000 2.163890 
# 
# From -- ./inp_files/236620.got.cif
#   From: 2010.05.17/outbox.cif.g08.bks.cpg/sg15_119_cif.got.tgz:236620.got - 2010.06.03 18:47:42.
