data_PCOD9255321
_publ_section_title
;
Structure prediction by ZEFSAII (Michael W. Deem and Ramdas Pophale) SiO2 
 PCOD9255321
Probable space group: C 2/C
;
_chemical_formula_sum "Si O2"
_cell_formula_units_Z 52
_cell_length_a 23.308202
_cell_length_b 21.300789
_cell_length_c 8.552927
_cell_angle_alpha 90.000000
_cell_angle_beta 29.705791
_cell_angle_gamma 90.000000
_cell_volume 2104.280386
_symmetry_space_group_name_H-M "C 2/C"
_symmetry_group_IT_number 15
_symmetry_cell_setting 'monoclinic'
loop_
_space_group_symop_operation_xyz
x,y,z
-x,y,1/2-z
-x,-y,-z
x,-y,1/2+z
1/2+x,1/2+y,z
1/2-x,1/2+y,1/2-z
1/2-x,1/2-y,-z
1/2+x,1/2-y,1/2+z
loop_
_atom_site_type_symbol
_atom_site_label
_atom_site_fract_x
_atom_site_fract_y
_atom_site_fract_z
Si Si1 0.647951 0.707980 0.947403
Si Si2 0.267669 0.501407 0.328504
Si Si3 0.000000 0.248514 0.750000
Si Si4 0.240555 0.819582 0.652750
Si Si5 0.157327 0.905141 0.613040
Si Si6 0.397682 0.189920 0.202916
Si Si7 0.839753 0.416457 0.649691
O O1 0.683204 0.758608 0.995982
O O2 0.596688 0.750825 0.928909
O O3 0.768164 0.684171 0.582240
O O4 0.589137 0.649337 0.177436
O O5 0.358643 0.550938 0.193186
O O6 0.223115 0.458282 0.572817
O O7 0.158018 0.536380 0.504104
O O8 0.319418 0.456130 0.074951
O O9 0.977716 0.293028 0.656531
O O10 0.109412 0.203402 0.471358
O O11 0.256854 0.860481 0.457249
O O12 0.264003 0.861562 0.750126
O O13 0.428519 0.125215 0.042496
#
# Coordination Sequence:
#
# PCOD9255321 Si02
#       7
#     8   8   4   8   8   8   8
#     4   9  16  29  52  74  96 125 168 216 261 285
#     4   9  18  27  51  81  98 128 165 213 253 287
#     4  10  20  32  48  74 104 140 168 190 274 308
#     4   9  19  31  51  76 103 130 167 211 256 300
#     4  10  17  30  49  78 103 123 165 215 251 296
#     4   9  17  30  50  75 101 132 161 212 253 304
#     4   9  16  32  51  77  98 128 169 211 246 294
#
# _framework density 24.711537
#
# number of rings (size 3 to 8) (size 9 to 14) (size 15 to 20)
#    0.000    2.769    1.538    1.385    0.000    0.000 
#    0.000    0.769    0.000   15.692    0.000    0.000 
#    0.000    0.000    0.000    0.000    0.000    0.000 
#
# Total GULP energy -144744.099826 kJ/mol
# GULP energy per Si atom -5567.080763 kJ/mol
# Density = 2.465529 g / cm^3
# Si number density = 24.711537 Si / 1000 Ang^3
#
#
#
# Elastic Constant Matrix: (Units=GPa)
#
#
# Indices 1 2 3 4 5 6 
#
# 1 125.2361 49.5896 0.3682 0.0000 22.0457 0.0000
# 2 49.5896 199.6727 33.5068 0.0001 33.3592 0.0000
# 3 0.3682 33.5068 73.8399 0.0000 22.7089 0.0000
# 4 0.0000 0.0001 0.0000 19.7999 0.0000 22.2893
# 5 22.0457 33.3592 22.7089 0.0000 38.9972 0.0000
# 6 0.0000 0.0000 0.0000 22.2893 0.0000 21.7504
#
#
#
# Elastic Compliance Matrix: (Units=1/GPa)
#
#
# Indices 1 2 3 4 5 6 
#
# 1 0.009664 -0.001936 0.002438 0.000000 -0.005227 0.000000
# 2 -0.001936 0.006345 -0.001872 0.000000 -0.003243 0.000000
# 3 0.002438 -0.001872 0.017434 0.000000 -0.009929 0.000000
# 4 0.000000 0.000000 0.000000 -0.328776 -0.000001 0.336922
# 5 -0.005227 -0.003243 -0.009929 -0.000001 0.037154 0.000000
# 6 0.000000 0.000000 0.000000 0.336922 0.000000 -0.299293
#
#
# Mechanical properties :
#
#
# Convention : Reuss Voigt Hill
#
# Bulk Modulus (GPa) = 32.57077 62.85310 47.71193
# Shear Modulus (GPa) = -9.18279 37.12844 13.97283
#
# Velocity S-wave (km/s) = -1.92978 3.88038 2.38047
# Velocity P-wave (km/s) = 2.87117 6.75029 5.18700
#
# Compressibility (1/GPa) = 0.03070238
#
# Stress axis : x y z
#
# Youngs Moduli (GPa) = 103.47165 157.60458 57.36015
#
# Poissons Ratio (x) = 0.30513 -0.13984
# Poissons Ratio (y) = 0.20033 0.10739
# Poissons Ratio (z) = -0.25225 0.29507
#
# Static dielectric constant tensor:
#      x y z
#    x 2.061850 0.000000 -0.054010 
#    y 0.000000 2.005580 0.000000 
#    z -0.054010 0.000000 2.060070 
# 
# From -- ./inp_files/40846.got.cif
#   From: 2010.05.17/outbox.cif.g08.bks.cpg/sg15_21_cif.got.tgz:40846.got - 2010.06.03 18:47:42.
