data_PCOD9255047
_publ_section_title
;
Structure prediction by ZEFSAII (Michael W. Deem and Ramdas Pophale) SiO2 
 PCOD9255047
Probable space group: C 2/C
;
_chemical_formula_sum "Si O2"
_cell_formula_units_Z 48
_cell_length_a 16.321555
_cell_length_b 12.880187
_cell_length_c 18.566897
_cell_angle_alpha 90.000000
_cell_angle_beta 30.413265
_cell_angle_gamma 90.000000
_cell_volume 1975.940475
_symmetry_space_group_name_H-M "C 2/C"
_symmetry_group_IT_number 15
_symmetry_cell_setting 'monoclinic'
loop_
_space_group_symop_operation_xyz
x,y,z
-x,y,1/2-z
-x,-y,-z
x,-y,1/2+z
1/2+x,1/2+y,z
1/2-x,1/2+y,1/2-z
1/2-x,1/2-y,-z
1/2+x,1/2-y,1/2+z
loop_
_atom_site_type_symbol
_atom_site_label
_atom_site_fract_x
_atom_site_fract_y
_atom_site_fract_z
Si Si1 0.154975 0.125372 0.262031
Si Si2 0.965524 0.249922 0.513940
Si Si3 0.271687 0.537446 0.669351
Si Si4 0.545435 0.020884 0.137147
Si Si5 0.582015 0.249422 0.083062
Si Si6 0.101377 0.978465 0.086236
O O1 0.331906 0.161153 0.104381
O O2 0.173992 0.041295 0.310924
O O3 0.067026 0.222365 0.366682
O O4 0.028284 0.069248 0.305878
O O5 0.079337 0.263012 0.498153
O O6 0.859089 0.146661 0.610536
O O7 0.325076 0.492731 0.550552
O O8 0.077267 0.537894 0.821357
O O9 0.500000 0.978324 0.250000
O O10 0.495187 0.143240 0.172682
O O11 0.738936 0.016617 0.984388
O O12 0.518670 0.364599 0.150068
O O13 0.750000 0.250000 0.000000
#
# Coordination Sequence:
#
# PCOD9255047 Si02
#       6
#     8   8   8   8   8   8
#     4  11  20  35  56  76 113 142 186 221 265 323
#     4  11  21  34  54  81 105 148 181 222 267 321
#     4  10  17  32  54  75 106 142 183 218 259 332
#     4   9  18  29  51  82 108 136 182 225 270 316
#     4  10  17  27  50  81 107 135 178 222 274 319
#     4   9  17  32  51  76 103 144 180 219 267 321
#
# _framework density 24.292228999999999
#
# number of rings (size 3 to 8) (size 9 to 14) (size 15 to 20)
#    0.000    2.000    5.000    1.000    0.000    0.000 
#    0.000    1.667    0.000    0.000    0.000    0.000 
#    0.000    0.000    0.000    0.000    0.000    0.000 
#
# Total GULP energy -134033.676912 kJ/mol
# GULP energy per Si atom -5584.736538 kJ/mol
# Density = 2.423694 g / cm^3
# Si number density = 24.292229 Si / 1000 Ang^3
#
#
#
# Elastic Constant Matrix: (Units=GPa)
#
#
# Indices 1 2 3 4 5 6 
#
# 1 98.4376 23.8262 48.8671 0.0004 -31.9224 0.0000
# 2 23.8262 77.0641 38.5842 0.0008 -9.2143 -0.0002
# 3 48.8671 38.5842 113.9565 0.0018 -15.5873 -0.0005
# 4 0.0004 0.0008 0.0018 39.4365 -0.0006 -6.8847
# 5 -31.9224 -9.2143 -15.5873 -0.0006 41.0546 0.0001
# 6 0.0000 -0.0002 -0.0005 -6.8847 0.0001 21.6351
#
#
#
# Elastic Compliance Matrix: (Units=1/GPa)
#
#
# Indices 1 2 3 4 5 6 
#
# 1 0.016457 -0.001223 -0.005200 0.000000 0.010547 0.000000
# 2 -0.001223 0.015814 -0.004719 0.000000 0.000806 0.000000
# 3 -0.005200 -0.004719 0.012557 0.000000 -0.000335 0.000000
# 4 0.000000 0.000000 0.000000 0.026849 0.000000 0.008544
# 5 0.010547 0.000806 -0.000335 0.000000 0.032613 0.000000
# 6 0.000000 0.000000 0.000000 0.008544 0.000000 0.048940
#
#
# Mechanical properties :
#
#
# Convention : Reuss Voigt Hill
#
# Bulk Modulus (GPa) = 44.36177 56.89035 50.62606
# Shear Modulus (GPa) = 27.31811 32.30395 29.81103
#
# Velocity S-wave (km/s) = 3.35709 3.65061 3.50692
# Velocity P-wave (km/s) = 5.77305 6.42178 6.10603
#
# Compressibility (1/GPa) = 0.02254193
#
# Stress axis : x y z
#
# Youngs Moduli (GPa) = 60.76580 63.23607 79.63465
#
# Poissons Ratio (x) = 0.07736 0.41411
# Poissons Ratio (y) = 0.07433 0.37583
# Poissons Ratio (z) = 0.31599 0.29844
#
# Static dielectric constant tensor:
#      x y z
#    x 1.939060 0.000000 -0.026060 
#    y 0.000000 1.943370 0.000000 
#    z -0.026060 0.000000 2.022460 
# 
# From -- ./inp_files/277372.got.cif
#   From: 2010.05.17/outbox.cif.g08.bks.cpg/sg15_139_cif.got.tgz:277372.got - 2010.06.03 18:47:42.
