data_PCOD9255174
_publ_section_title
;
Structure prediction by ZEFSAII (Michael W. Deem and Ramdas Pophale) SiO2 
 PCOD9255174
Probable space group: C 2/C
;
_chemical_formula_sum "Si O2"
_cell_formula_units_Z 64
_cell_length_a 12.138453
_cell_length_b 29.053475
_cell_length_c 23.682491
_cell_angle_alpha 90.000000
_cell_angle_beta 28.752324
_cell_angle_gamma 90.000000
_cell_volume 4017.499670
_symmetry_space_group_name_H-M "C 2/C"
_symmetry_group_IT_number 15
_symmetry_cell_setting 'monoclinic'
loop_
_space_group_symop_operation_xyz
x,y,z
-x,y,1/2-z
-x,-y,-z
x,-y,1/2+z
1/2+x,1/2+y,z
1/2-x,1/2+y,1/2-z
1/2-x,1/2-y,-z
1/2+x,1/2-y,1/2+z
loop_
_atom_site_type_symbol
_atom_site_label
_atom_site_fract_x
_atom_site_fract_y
_atom_site_fract_z
Si Si1 0.576795 0.267161 0.509451
Si Si2 0.182959 0.141823 0.341772
Si Si3 0.051857 0.780283 0.061808
Si Si4 0.558589 0.795208 0.332027
Si Si5 0.183198 0.631630 0.085970
Si Si6 0.400558 0.446643 0.980111
Si Si7 0.976923 0.049703 0.941329
Si Si8 0.438394 0.898763 0.211176
O O1 0.467399 0.311859 0.590415
O O2 0.487695 0.267403 0.485849
O O3 0.501027 0.222532 0.578551
O O4 0.850044 0.274213 0.388831
O O5 0.416876 0.144394 0.201305
O O6 0.255587 0.135458 0.374891
O O7 0.041255 0.095940 0.390940
O O8 0.808367 0.777457 0.201997
O O9 0.250000 0.750000 0.000000
O O10 0.148989 0.832205 0.018915
O O11 0.557595 0.849847 0.321778
O O12 0.250786 0.580713 0.035745
O O13 0.472513 0.449982 0.013928
O O14 0.136087 0.432010 0.099131
O O15 0.448635 0.497265 0.934629
O O16 0.194667 0.076089 0.817809
O O17 0.500000 0.889903 0.250000
#
# Coordination Sequence:
#
# PCOD9255174 Si02
#       8
#     8   8   8   8   8   8   8   8
#     4  10  21  34  50  74  97 132 176 206 246 300
#     4   9  16  28  41  59  90 122 155 194 236 289
#     4  11  21  34  51  71  99 135 166 209 257 297
#     4  11  20  33  53  71  98 138 172 210 244 303
#     4   9  17  27  41  60  88 122 155 188 240 295
#     4   9  17  25  40  61  88 125 159 198 241 290
#     4   9  17  26  38  62  89 122 163 197 237 297
#     4  10  17  29  46  65  94 130 168 202 247 303
#
# _framework density 15.930306
#
# number of rings (size 3 to 8) (size 9 to 14) (size 15 to 20)
#    0.000    2.250    2.500    1.875    1.750    1.500 
#    0.000    0.000    0.000    0.000    0.000    0.000 
#    0.000    1.000    8.500    0.000    1.250    0.000 
#
# Total GULP energy -178266.048532 kJ/mol
# GULP energy per Si atom -5570.814017 kJ/mol
# Density = 1.589405 g / cm^3
# Si number density = 15.930306 Si / 1000 Ang^3
#
#
#
# Elastic Constant Matrix: (Units=GPa)
#
#
# Indices 1 2 3 4 5 6 
#
# 1 26.9593 13.6230 18.9448 -0.0035 -8.1865 -0.0005
# 2 13.6230 92.7176 41.5179 -0.0054 -3.1610 0.0001
# 3 18.9448 41.5179 112.2180 -0.0153 -23.5293 0.0017
# 4 -0.0035 -0.0054 -0.0153 25.1849 0.0052 0.5038
# 5 -8.1865 -3.1610 -23.5293 0.0052 17.2239 -0.0012
# 6 -0.0005 0.0001 0.0017 0.5038 -0.0012 15.5632
#
#
#
# Elastic Compliance Matrix: (Units=1/GPa)
#
#
# Indices 1 2 3 4 5 6 
#
# 1 0.046844 -0.005329 -0.002065 0.000000 0.018466 0.000003
# 2 -0.005329 0.013965 -0.005971 0.000000 -0.008127 0.000000
# 3 -0.002065 -0.005971 0.015462 0.000004 0.019046 0.000000
# 4 0.000000 0.000000 0.000004 0.039732 -0.000007 -0.001286
# 5 0.018466 -0.008127 0.019046 -0.000007 0.091362 0.000006
# 6 0.000003 0.000000 0.000000 -0.001286 0.000006 0.064296
#
#
# Mechanical properties :
#
#
# Convention : Reuss Voigt Hill
#
# Bulk Modulus (GPa) = 20.18476 42.22957 31.20716
# Shear Modulus (GPa) = 15.87778 22.11500 18.99639
#
# Velocity S-wave (km/s) = 3.16048 3.72994 3.45696
# Velocity P-wave (km/s) = 5.10063 6.71688 5.96376
#
# Compressibility (1/GPa) = 0.04954234
#
# Stress axis : x y z
#
# Youngs Moduli (GPa) = 21.34735 71.60704 64.67297
#
# Poissons Ratio (x) = 0.38156 0.13355
# Poissons Ratio (y) = 0.11375 0.38617
# Poissons Ratio (z) = 0.04408 0.42758
#
# Static dielectric constant tensor:
#      x y z
#    x 1.510330 0.000000 -0.015640 
#    y 0.000000 1.550090 0.000010 
#    z -0.015640 0.000010 1.553030 
# 
# From -- ./inp_files/271278.got.cif
#   From: 2010.05.17/outbox.cif.g08.bks.cpg/sg15_136_cif.got.tgz:271278.got - 2010.06.03 18:47:42.
