data_PCOD9255391
_publ_section_title
;
Structure prediction by ZEFSAII (Michael W. Deem and Ramdas Pophale) SiO2 
 PCOD9255391
Probable space group: C 2/C
;
_chemical_formula_sum "Si O2"
_cell_formula_units_Z 56
_cell_length_a 16.588790
_cell_length_b 9.363684
_cell_length_c 22.237472
_cell_angle_alpha 90.000000
_cell_angle_beta 55.794698
_cell_angle_gamma 90.000000
_cell_volume 2856.718047
_symmetry_space_group_name_H-M "C 2/C"
_symmetry_group_IT_number 15
_symmetry_cell_setting 'monoclinic'
loop_
_space_group_symop_operation_xyz
x,y,z
-x,y,1/2-z
-x,-y,-z
x,-y,1/2+z
1/2+x,1/2+y,z
1/2-x,1/2+y,1/2-z
1/2-x,1/2-y,-z
1/2+x,1/2-y,1/2+z
loop_
_atom_site_type_symbol
_atom_site_label
_atom_site_fract_x
_atom_site_fract_y
_atom_site_fract_z
Si Si1 0.351054 0.684316 0.638325
Si Si2 0.433361 0.079773 0.833092
Si Si3 0.198056 0.858097 0.207197
Si Si4 0.542322 0.342610 0.993156
Si Si5 0.243268 0.083738 0.392852
Si Si6 0.154007 0.161218 0.201272
Si Si7 0.089614 0.684496 0.849742
O O1 0.355486 0.674318 0.708074
O O2 0.456618 0.724297 0.568469
O O3 0.307369 0.532991 0.630816
O O4 0.267095 0.793359 0.653709
O O5 0.500000 0.021666 0.750000
O O6 0.400371 0.237979 0.823840
O O7 0.502845 0.089220 0.860825
O O8 0.334380 0.993998 0.884680
O O9 0.212868 0.716362 0.162187
O O10 0.309429 0.896809 0.180075
O O11 0.148369 0.992239 0.195891
O O12 0.652733 0.361158 0.970958
O O13 0.556426 0.263360 0.923819
O O14 0.500000 0.500000 0.000000
O O15 0.115183 0.207387 0.283876
#
# Coordination Sequence:
#
# PCOD9255391 Si02
#       7
#     8   8   8   8   8   8   8
#     4   9  16  28  48  75  99 127 165 205 243 292
#     4   9  18  33  51  72 101 131 165 205 251 299
#     4  10  17  30  54  78  96 123 168 213 247 285
#     4   9  16  29  49  76 102 130 170 209 241 290
#     4   9  18  31  48  73 101 130 164 209 250 293
#     4   9  17  30  49  73  99 127 164 210 250 291
#     4   9  18  31  51  75 100 132 169 207 246 296
#
# _framework density 19.602914999999999
#
# number of rings (size 3 to 8) (size 9 to 14) (size 15 to 20)
#    0.000    2.857    0.000    4.286    0.000    0.000 
#    0.000   11.429    0.000   10.286    0.000   14.000 
#    0.000    0.000    0.000    0.000    0.000    0.000 
#
# Total GULP energy -156010.382637 kJ/mol
# GULP energy per Si atom -5571.799380 kJ/mol
# Density = 1.955830 g / cm^3
# Si number density = 19.602915 Si / 1000 Ang^3
#
#
#
# Elastic Constant Matrix: (Units=GPa)
#
#
# Indices 1 2 3 4 5 6 
#
# 1 82.0139 9.8506 35.9196 0.0000 -24.2837 0.0000
# 2 9.8506 40.9654 10.9888 0.0000 -2.4376 0.0000
# 3 35.9196 10.9888 111.6009 0.0000 -38.8726 0.0000
# 4 0.0000 0.0000 0.0000 9.0187 0.0000 -1.0133
# 5 -24.2837 -2.4376 -38.8726 0.0000 22.2881 0.0000
# 6 0.0000 0.0000 0.0000 -1.0133 0.0000 8.0767
#
#
#
# Elastic Compliance Matrix: (Units=1/GPa)
#
#
# Indices 1 2 3 4 5 6 
#
# 1 0.018896 -0.003899 0.003375 0.000000 0.026047 0.000000
# 2 -0.003899 0.026017 -0.004574 0.000000 -0.009381 0.000000
# 3 0.003375 -0.004574 0.024028 0.000000 0.045084 0.000000
# 4 0.000000 0.000000 0.000000 0.112466 0.000000 0.014110
# 5 0.026047 -0.009381 0.045084 0.000000 0.150852 0.000000
# 6 0.000000 0.000000 0.000000 0.014110 0.000000 0.125584
#
#
# Mechanical properties :
#
#
# Convention : Reuss Voigt Hill
#
# Bulk Modulus (GPa) = 17.02292 38.67758 27.85025
# Shear Modulus (GPa) = 10.25386 19.73144 14.99265
#
# Velocity S-wave (km/s) = 2.28957 3.17607 2.76853
# Velocity P-wave (km/s) = 3.96134 5.76396 4.94548
#
# Compressibility (1/GPa) = 0.05874432
#
# Stress axis : x y z
#
# Youngs Moduli (GPa) = 52.92236 38.43603 41.61745
#
# Poissons Ratio (x) = 0.14986 -0.14045
# Poissons Ratio (y) = 0.20635 0.19037
# Poissons Ratio (z) = -0.17861 0.17582
#
# Static dielectric constant tensor:
#      x y z
#    x 1.691620 0.000000 -0.031960 
#    y 0.000000 1.719160 0.000000 
#    z -0.031960 0.000000 1.715390 
# 
# From -- ./inp_files/276519.got.cif
#   From: 2010.05.17/outbox.cif.g08.bks.cpg/sg15_139_cif.got.tgz:276519.got - 2010.06.03 18:47:42.
