data_PCOD9255620
_publ_section_title
;
Structure prediction by ZEFSAII (Michael W. Deem and Ramdas Pophale) SiO2 
 PCOD9255620
Probable space group: C 2/C
;
_chemical_formula_sum "Si O2"
_cell_formula_units_Z 48
_cell_length_a 27.250029
_cell_length_b 12.442755
_cell_length_c 8.353818
_cell_angle_alpha 90.000000
_cell_angle_beta 110.416838
_cell_angle_gamma 90.000000
_cell_volume 2654.552466
_symmetry_space_group_name_H-M "C 2/C"
_symmetry_group_IT_number 15
_symmetry_cell_setting 'monoclinic'
loop_
_space_group_symop_operation_xyz
x,y,z
-x,y,1/2-z
-x,-y,-z
x,-y,1/2+z
1/2+x,1/2+y,z
1/2-x,1/2+y,1/2-z
1/2-x,1/2-y,-z
1/2+x,1/2-y,1/2+z
loop_
_atom_site_type_symbol
_atom_site_label
_atom_site_fract_x
_atom_site_fract_y
_atom_site_fract_z
Si Si1 0.632887 0.107353 0.232559
Si Si2 0.241145 0.091386 0.570876
Si Si3 0.548343 0.162389 0.726298
Si Si4 0.572679 0.050830 0.451669
Si Si5 0.338616 0.778190 0.047659
Si Si6 0.740476 0.125988 0.533051
O O1 0.588458 0.120677 0.316040
O O2 0.683735 0.098892 0.398591
O O3 0.643517 0.198449 0.114224
O O4 0.619060 0.999005 0.117227
O O5 0.293749 0.133145 0.539138
O O6 0.192990 0.168237 0.468889
O O7 0.253217 0.109410 0.771280
O O8 0.226904 0.968402 0.515975
O O9 0.500000 0.226522 0.750000
O O10 0.538315 0.117643 0.536690
O O11 0.606623 0.213519 0.794489
O O12 0.552507 0.059021 0.849344
O O13 0.750000 0.250000 0.500000
#
# Coordination Sequence:
#
# PCOD9255620 Si02
#       6
#     8   8   8   8   8   8
#     4  10  17  32  47  75 105 146 178 220 275 328
#     4  11  23  37  53  80 116 145 189 225 276 339
#     4  10  18  31  50  77 107 145 189 231 280 331
#     4   9  18  29  50  72 110 144 183 226 277 331
#     4  10  21  36  53  76 114 151 179 229 278 328
#     4  12  22  34  56  80 110 149 188 225 277 325
#
# _framework density 18.082142999999999
#
# number of rings (size 3 to 8) (size 9 to 14) (size 15 to 20)
#    0.000    1.667    1.667    6.500    2.333    0.000 
#    0.000    0.000    0.000    0.000    0.000    1.167 
#    0.000    0.000    0.000    0.000    0.000    0.000 
#
# Total GULP energy -133644.731109 kJ/mol
# GULP energy per Si atom -5568.530463 kJ/mol
# Density = 1.804099 g / cm^3
# Si number density = 18.082143 Si / 1000 Ang^3
#
#
#
# Elastic Constant Matrix: (Units=GPa)
#
#
# Indices 1 2 3 4 5 6 
#
# 1 87.1348 32.3610 27.5682 0.0000 -10.9294 0.0000
# 2 32.3610 102.3908 20.5398 0.0000 -8.5156 0.0000
# 3 27.5682 20.5398 78.4143 0.0000 -19.2264 0.0000
# 4 0.0000 0.0000 0.0000 13.3273 0.0000 -4.5596
# 5 -10.9294 -8.5156 -19.2264 0.0000 36.5363 0.0000
# 6 0.0000 0.0000 0.0000 -4.5596 0.0000 13.2242
#
#
#
# Elastic Compliance Matrix: (Units=1/GPa)
#
#
# Indices 1 2 3 4 5 6 
#
# 1 0.014166 -0.003619 -0.003674 0.000000 0.001461 0.000000
# 2 -0.003619 0.011273 -0.001495 0.000000 0.000758 0.000000
# 3 -0.003674 -0.001495 0.016167 0.000000 0.007060 0.000000
# 4 0.000000 0.000000 0.000000 0.085069 0.000000 0.029331
# 5 0.001461 0.000758 0.007060 0.000000 0.031699 0.000000
# 6 0.000000 0.000000 0.000000 0.029331 0.000000 0.085732
#
#
# Mechanical properties :
#
#
# Convention : Reuss Voigt Hill
#
# Bulk Modulus (GPa) = 41.61313 47.65310 44.63311
# Shear Modulus (GPa) = 18.53969 25.11564 21.82766
#
# Velocity S-wave (km/s) = 3.20551 3.73094 3.47816
# Velocity P-wave (km/s) = 6.06331 6.70602 6.39275
#
# Compressibility (1/GPa) = 0.02403088
#
# Stress axis : x y z
#
# Youngs Moduli (GPa) = 70.59073 88.70662 61.85383
#
# Poissons Ratio (x) = 0.32100 0.22727
# Poissons Ratio (y) = 0.25545 0.09245
# Poissons Ratio (z) = 0.25938 0.13259
#
# Static dielectric constant tensor:
#      x y z
#    x 1.715590 0.000000 0.016230 
#    y 0.000000 1.642930 0.000000 
#    z 0.016230 0.000000 1.666720 
# 
# From -- ./inp_files/68893.got.cif
#   From: 2010.05.17/outbox.cif.g08.bks.cpg/sg15_35_cif.got.tgz:68893.got - 2010.06.03 18:47:42.
