data_PCOD9255164
_publ_section_title
;
Structure prediction by ZEFSAII (Michael W. Deem and Ramdas Pophale) SiO2 
 PCOD9255164
Probable space group: C 2/C
;
_chemical_formula_sum "Si O2"
_cell_formula_units_Z 40
_cell_length_a 30.517342
_cell_length_b 7.103701
_cell_length_c 21.162063
_cell_angle_alpha 90.000000
_cell_angle_beta 18.419213
_cell_angle_gamma 90.000000
_cell_volume 1449.543960
_symmetry_space_group_name_H-M "C 2/C"
_symmetry_group_IT_number 15
_symmetry_cell_setting 'monoclinic'
loop_
_space_group_symop_operation_xyz
x,y,z
-x,y,1/2-z
-x,-y,-z
x,-y,1/2+z
1/2+x,1/2+y,z
1/2-x,1/2+y,1/2-z
1/2-x,1/2-y,-z
1/2+x,1/2-y,1/2+z
loop_
_atom_site_type_symbol
_atom_site_label
_atom_site_fract_x
_atom_site_fract_y
_atom_site_fract_z
Si Si1 0.438079 0.598146 0.428302
Si Si2 0.292135 0.532709 0.899313
Si Si3 0.198071 0.944301 0.253387
Si Si4 0.176194 0.668594 0.722940
Si Si5 0.490579 0.994141 0.650530
O O1 0.571915 0.468727 0.243385
O O2 0.394635 0.617464 0.561533
O O3 0.303693 0.544030 0.572664
O O4 0.478540 0.809943 0.354694
O O5 0.322102 0.628229 0.790426
O O6 0.281034 0.311525 0.892484
O O7 0.148535 0.587541 0.127814
O O8 0.160419 0.168599 0.297638
O O9 0.358226 0.903791 0.051685
O O10 0.054496 0.546322 0.859235
#
# Coordination Sequence:
#
# PCOD9255164 Si02
#       5
#     8   8   8   8   8
#     4  10  17  29  43  69  99 128 149 192 240 278
#     4   9  18  28  47  70  97 119 152 196 235 281
#     4   9  19  27  44  68 101 122 157 185 240 284
#     4   8  18  27  46  64  97 122 153 193 236 269
#     4  10  18  30  46  70  98 120 155 195 240 273
#
# _framework density 27.594887
#
# number of rings (size 3 to 8) (size 9 to 14) (size 15 to 20)
#    1.200    1.600    0.000    3.600    0.000    3.200 
#    0.000    0.000    0.000    0.000    0.000    5.600 
#   72.000    0.000    0.000    0.000    0.000    0.000 
#
# Total GULP energy -111742.247035 kJ/mol
# GULP energy per Si atom -5587.112352 kJ/mol
# Density = 2.753208 g / cm^3
# Si number density = 27.594887 Si / 1000 Ang^3
#
#
#
# Elastic Constant Matrix: (Units=GPa)
#
#
# Indices 1 2 3 4 5 6 
#
# 1 142.4070 14.7407 19.1211 -0.0018 -28.1810 0.0005
# 2 14.7407 69.7567 18.6143 0.0032 -1.8106 -0.0009
# 3 19.1211 18.6143 137.5374 0.0008 -9.7706 0.0004
# 4 -0.0018 0.0032 0.0008 21.5682 0.0001 5.6833
# 5 -28.1810 -1.8106 -9.7706 0.0001 59.8113 -0.0001
# 6 0.0005 -0.0009 0.0004 5.6833 -0.0001 11.1419
#
#
#
# Elastic Compliance Matrix: (Units=1/GPa)
#
#
# Indices 1 2 3 4 5 6 
#
# 1 0.007971 -0.001414 -0.000661 0.000001 0.003605 -0.000001
# 2 -0.001414 0.015125 -0.001887 -0.000003 -0.000517 0.000003
# 3 -0.000661 -0.001887 0.007681 0.000000 0.000886 0.000000
# 4 0.000001 -0.000003 0.000000 0.053564 0.000000 -0.027322
# 5 0.003605 -0.000517 0.000886 0.000000 0.018547 0.000000
# 6 -0.000001 0.000003 0.000000 -0.027322 0.000000 0.103688
#
#
# Mechanical properties :
#
#
# Convention : Reuss Voigt Hill
#
# Bulk Modulus (GPa) = 43.76004 50.51705 47.13854
# Shear Modulus (GPa) = 22.51078 38.31927 30.41503
#
# Velocity S-wave (km/s) = 2.85925 3.73048 3.32354
# Velocity P-wave (km/s) = 5.17618 6.07468 5.64334
#
# Compressibility (1/GPa) = 0.02285190
#
# Stress axis : x y z
#
# Youngs Moduli (GPa) = 125.46143 66.11752 130.19226
#
# Poissons Ratio (x) = 0.09352 0.08600
# Poissons Ratio (y) = 0.17746 0.24568
# Poissons Ratio (z) = 0.08288 0.12477
#
# Static dielectric constant tensor:
#      x y z
#    x 2.131150 0.000000 -0.010180 
#    y 0.000000 2.204320 0.000000 
#    z -0.010180 0.000000 2.116650 
# 
# From -- ./inp_files/181439.got.cif
#   From: 2010.05.17/outbox.cif.g08.bks.cpg/sg15_91_cif.got.tgz:181439.got - 2010.06.03 18:47:42.
