data_PCOD9255791
_publ_section_title
;
Structure prediction by ZEFSAII (Michael W. Deem and Ramdas Pophale) SiO2 
 PCOD9255791
Probable space group: C 2/C
;
_chemical_formula_sum "Si O2"
_cell_formula_units_Z 60
_cell_length_a 22.729627
_cell_length_b 7.785420
_cell_length_c 15.006731
_cell_angle_alpha 90.000000
_cell_angle_beta 66.551233
_cell_angle_gamma 90.000000
_cell_volume 2436.278248
_symmetry_space_group_name_H-M "C 2/C"
_symmetry_group_IT_number 15
_symmetry_cell_setting 'monoclinic'
loop_
_space_group_symop_operation_xyz
x,y,z
-x,y,1/2-z
-x,-y,-z
x,-y,1/2+z
1/2+x,1/2+y,z
1/2-x,1/2+y,1/2-z
1/2-x,1/2-y,-z
1/2+x,1/2-y,1/2+z
loop_
_atom_site_type_symbol
_atom_site_label
_atom_site_fract_x
_atom_site_fract_y
_atom_site_fract_z
Si Si1 0.392297 0.014189 0.892702
Si Si2 0.381334 0.027880 0.200919
Si Si3 0.748776 0.940968 0.960730
Si Si4 0.000000 0.213565 0.250000
Si Si5 0.305920 0.446213 0.600780
Si Si6 0.757878 0.702744 0.209134
Si Si7 0.067384 0.146373 0.382929
Si Si8 0.505209 0.164804 0.061996
O O1 0.328228 0.028545 0.991175
O O2 0.446469 0.164586 0.835006
O O3 0.362954 0.978857 0.814510
O O4 0.433885 0.865394 0.912611
O O5 0.325900 0.113778 0.179586
O O6 0.442270 0.152644 0.157678
O O7 0.401387 0.836704 0.157722
O O8 0.790437 0.054744 0.004945
O O9 0.750000 0.750000 0.000000
O O10 0.777656 0.913245 0.844378
O O11 0.035947 0.105836 0.305837
O O12 0.274782 0.290969 0.674991
O O13 0.269063 0.610833 0.662723
O O14 0.377612 0.455940 0.597297
O O15 0.013273 0.181590 0.489472
O O16 0.500000 0.000000 0.000000
#
# Coordination Sequence:
#
# PCOD9255791 Si02
#       8
#     8   8   8   4   8   8   8   8
#     4  11  17  35  60  95 125 162 221 263 315 385
#     4  10  19  36  62  93 124 167 215 272 321 382
#     4  10  23  38  63  91 127 172 215 260 327 399
#     4  10  20  32  66  92 122 172 218 262 322 386
#     4  11  24  44  63  95 129 176 219 271 333 394
#     4  11  23  42  66  90 130 174 218 272 327 397
#     4  10  21  37  63  92 129 162 221 267 319 394
#     4  10  17  32  58  93 121 161 212 270 315 374
#
# _framework density 24.627731000000001
#
# number of rings (size 3 to 8) (size 9 to 14) (size 15 to 20)
#    0.000    1.600    5.333    2.400    5.600    0.000 
#    2.400    2.667    2.933    0.000    0.000    0.000 
#    0.000    0.000    0.000    0.000    0.000    0.000 
#
# Total GULP energy -167389.348057 kJ/mol
# GULP energy per Si atom -5579.644935 kJ/mol
# Density = 2.457168 g / cm^3
# Si number density = 24.627731 Si / 1000 Ang^3
#
#
#
# Elastic Constant Matrix: (Units=GPa)
#
#
# Indices 1 2 3 4 5 6 
#
# 1 142.3081 16.7162 17.1086 0.0000 18.1551 0.0000
# 2 16.7162 48.8012 4.7546 0.0000 7.0483 0.0000
# 3 17.1086 4.7546 50.4855 0.0000 14.5134 0.0000
# 4 0.0000 0.0000 0.0000 2.2360 0.0000 6.5881
# 5 18.1551 7.0483 14.5134 0.0000 37.0108 0.0000
# 6 0.0000 0.0000 0.0000 6.5881 0.0000 29.9397
#
#
#
# Elastic Compliance Matrix: (Units=1/GPa)
#
#
# Indices 1 2 3 4 5 6 
#
# 1 0.007830 -0.002118 -0.001652 0.000000 -0.002790 0.000000
# 2 -0.002118 0.021683 -0.000491 0.000001 -0.002898 0.000000
# 3 -0.001652 -0.000491 0.022715 0.000000 -0.008003 0.000000
# 4 0.000000 0.000001 0.000000 1.271737 0.000000 -0.279842
# 5 -0.002790 -0.002898 -0.008003 0.000000 0.032078 0.000000
# 6 0.000000 0.000000 0.000000 -0.279842 0.000000 0.094979
#
#
# Mechanical properties :
#
#
# Convention : Reuss Voigt Hill
#
# Bulk Modulus (GPa) = 22.88066 35.41705 29.14886
# Shear Modulus (GPa) = 3.39187 27.37166 15.38177
#
# Velocity S-wave (km/s) = 1.17484 3.33741 2.50185
# Velocity P-wave (km/s) = 3.33933 5.40955 4.49524
#
# Compressibility (1/GPa) = 0.04370503
#
# Stress axis : x y z
#
# Youngs Moduli (GPa) = 127.70803 46.11857 44.02456
#
# Poissons Ratio (x) = 0.09769 0.07273
# Poissons Ratio (y) = 0.27052 0.02163
# Poissons Ratio (z) = 0.21098 0.02266
#
# Static dielectric constant tensor:
#      x y z
#    x 2.078550 0.000000 -0.063940 
#    y 0.000000 2.013060 0.000000 
#    z -0.063940 0.000000 2.029720 
# 
# From -- ./inp_files/172348.got.cif
#   From: 2010.05.17/outbox.cif.g08.bks.cpg/sg15_87_cif.got.tgz:172348.got - 2010.06.03 18:47:42.
